data_image0
_chemical_formula_structural       SHCSH3C2H3C2H2C2H2CH2SHCH3CHCHC2H3NHCHNH3CH2CH3C2HC2H2CH7CHC3H3C2H3CHSH6C2H3CH2CH9CFeH2FeSFeSHSC2H2CH2FeS2FeS2FeSFeS3FeSHFeS2HCFeSHSFeS2FeS2FeSFeS3FeS2CHFeHCSH8CH5C6H4C2H3C6H4C6H4C6H4C3H6CH9C6H4CH2NC4HC2HCH7CH5CH2CHC3H10C2H2NC6HCHC2SH2SH9C2H3C2H7NC3H3C3H5CHCHNCHCH4CH3FeH5CH2CHCH5CHCHC2FeH4CHCH3SH4CHNHCH2FeHC2H2C3HCHCH5NC8HC3H17C2SH3NHC3H2C3H2C2HC2HCHC2SHCH5CH3CH2CH5CH6CHCHC2H2SC2H3SH9CH2CH2CHC2HC2H4SCH3CH3CNHC2H2C2H3CHSC2H4SCFeS2FeS2FeSFeS3FeCH3CHFeCH5SH2SHFeSFeSHSCH2C2HCHCSC2HCHCHC5H4C2H2C2HC2H2C3SH3NH4CH3CH2C3HC7H5CHCH3C6H9CHCHNCH3C2NC4HC3H2C2H8CH9C2H9NC4HC5H8CH14CH3CNCHC11H10CHC2HCHCH2CH5C2H6CH2CH3CH2CH4C2NH5CH5NHCH4NH2CSH3SCH7CH3CH5CHCHCH4CH4CHC2H3CHFeCHSCH2CH3SHCSH3SCHCHCH6CNHCH2CH2SFeCSFeS2NHFeHS2FeCSHCHCS2H3C6H5SH4C3H2C5H3CH2SH2C2HC2H3CH4CH8CH2C2H2CH2CH9C2H3C2H3CHCSH4CH3C3H7C2HCH2CHCHCNCHCHCH2C2H3C2H5CH3CH2CH3FeCH4NC2SH4CHC2H4C2H3C2H2CH2SCHCHCHC2HNH7CH5C2H2FeHCHCH3C2H3CH2CHCHFeH2SH2FeCHCH2CHFeH5FeSHFeS2FeSFeS3CSHFeSHFeSFeHSHC6H8CHC3H2C6H4C2H3CH3SCH6CH2C6H4CH2CHSH4SH3SHCHSCHSH4CSHCHC5HNHCH3CH2CHCH4CH2SHCH3C2H2CH7CFeH9C2NCH3CHCHCH2CHC3HCHCHCH2CH4CHSCHCHCHSH3CHC2HFeH2NCH2CHCH4CH2CHNCH4CSC4FeHC2FeCH2CH2FeCSFeSFe2S3CHSHFeSFeCHCH7CH2CHC2HC2HC3HCH2CH5CHCHCHCHC3HCH2CSCHCSH2CFeC3HC2H4CHSH5C2HC2NC2HCH8NCHCH2C2H2SHCHCHCH2CH7SH2SCHCHCHSH3CSCHCHSC2H5SNCH3SCHCH3C2H2CHFeH3C4H2CH2CH3C3SC2SH2CHSCH3CH7CHCHCH4CH2CH2CH2SHCHC3H4FeNCH10CH2NH2CH3SH2C3H4CFe2S2FeSFeSFeCS2H3FeS2FeS2FeSFeS3C2H2SC2FeSH5SHSCFeSFeSHFeS2FeSHCH2C2H4CHC6H9CSC3H2CH3CHSC5HC8H3C6H4C6H4C3H3C7H4C6H4C2H2CH5C3H2CH3CH3CH3C2NCHC3HCHCH5CH6SH2C2H6SH2CHCHCH2C2HCHCNHC3H2CHC3HCH7CH8CHCSH4CHCH2CFe2SNHC2H6NCH2CHCH3CHC2H2SHCNC12H21CH9NSC5HC3H12NH6CHSH4NHCHCHCHSCHC4SH4CH2CH3C2H2SCSHC3HNHNC3H4CH2CH6C2H3SH3CHCHC3H3CHCH4CHC3H3C2H2CH5CH4FeH2SHCHCH3C2H4SH3CHCH6C2H7NCHSH8C2H2SH2C2NHCH3CH2CHCH7C2H2CH2CHCH3CHCHSHSH3SCHCH2CH4CNC2HC3H15SH3CHCHCH3CHCH2CH2C2HC2SFeSHCHC2FeS2FeS2FeSFeHS3NFeSC6H4C3H4CHC7H7C2H3C2HC3HCHFe2H2SH3CH2CH2FeHFeH2C2H3CFeH4CHCHC2S2C2HCSH6CHCH2CH7CSFeHC4HCHCHCH7CHCH4CH5CHCH2C2H4CH3C3H3NC8HC3H20CH2FeH4NC5HC3H2CH10SHCH7CH2SH3CNC5HC3H2CH4C2H4CH4CH4NH2CH4CH2CH2SCSH2CH2CH2CH4CSH2CH8C2HSHCH5FeSCFeSHFeSFeS3CFeSHSH2SHCSCFeS2FeSHFeSFeHS3FeSHC5H3C3H8SCHC2HCSH4CH2C6H4C6H4C6H4CH6C2NCH5C3H2CH4CH2CHCHCHCHC2FeNHS2H3CH3C3SH3SCHCHCSHFeH6NCHC4H4CH4CH5C3H5FeCH7SH2FeH2CH2C4H2C4H6S2HSHCH2CFeH2NH4CHCHNH2Fe2HCH2SH4FeH2CHCH3C4HC3H5CSH2SHCS2C2HCH4CHCFeSCFeH3CHCH6CH6CH2FeS2FeHSFeHCHS2HCSH3C2SCH3CH4CH2CH2NC6H4C6H6SH2NC2H2CH2C2NH2C2HSCH3CH2SCH2CH2CH4CH3CHCH5CHCHC3H3CH4CH3CHC2HCHC2HC2H3FeCH2CH6C5HCHCHCH5NC2H2CHC2HFe2C3HCH2C2H8CSHSCH7CH2C2H5FeH7FeH2CH2CHNHSFeSCFeNCFeCSFeS2FeS2FeSFeS4C2SCH3FeS2FeS2FeSFeHS3CFeS2FeS2FeSFeNS2C6H5SC6H4C3H2CH4C6H4C6H4CHCH3CHC5NH3CH2CSCHC2H10CHCHCHCH4NC11H30CH3SHCHCHCH2NCH4C2H2CSH2CH3C6H7NC2HC3HC3H6CH4SHSHCH7CH3C3H3CHCHC2H3CNH11CH4C2H3SH4CHFeH5FeHCHCH2C2H5CH7C2HC4H7NCSCH2CH2CH3CH5CH4C3H6CHCH2CH3CH5C2HCH4CHC2HCSH6CH7CFeSCHCFeC4H5CFeSCH2CH4CH2CH2CH7C6H2CHCHC3NH3NH2CH7CH2CH4CS2H4CHSH2FeCFeCFeS2FeHSFeHSFeCH2FeCHSHCS3CH2CH2FeHSC7H4C3H2CH6SH2CHSC7H3C6SCH2CSH3C2Fe2SHNH3SFeH2SFeC2H2CHCH3C2HC2H2C2H6CHCH4CH2CH4C2H2NH4CSH8S2C2H5CHCHCH6CH3CH3CHCH2C2H7CSFeSFeCH2SC2HCH2SCFeHSHCFeS2HSHFeSHCSHCHSC6H4C2SC2H6C6H4FeH7CH3CH5CHSH2CFeH2C3H3CHNH3CH4CH8CH2SHCHCH4CH2CH3FeH2C2H8CH4NC2FeC9H7CH2CH2CHCHCHCHSH2CH3SH6FeS2FeS2FeSFeS5FeS2FeS2FeSFeS3FeS2FeS2FeSFeS3FeS2HCFeSCH7C3H2NC6H4C6H4C5H5C6H4C6H4C6H4C6H7C2H5C4H3CHC2H3NC9HC2H20C2H7CH5NCHC3H11CH4CH4NC9HCH8CH10CH5C2H5CHCH4CHC2H4CH2NC4HC3HCHSH4CHCHCH11NC9H2CH9CH12C2H2CSHC3HCHC4H6NHCH5C4HCSH2NCHC3H2NCH4CH5NH4C2SHCH4C4H4CH3CHCHNC3H5CH5C4H2C3H7NH2CHCHC2H3CH2CH4CH4CHC2H5SHCH2CH2CH2CH2CH6FeCH2C2HCHCHCH5CHCHC2HC4H2CH2C2HC2H3C2H2C2H4CHCH5CH2CH2NCH15CH4SFeH6C2FeH3CH2C2H2NCHCH3SHCHCH3CH3CHCHCH2CSCHCHCNH3C2H2C3H4C2SHNCHFeHCHSC2H2C2H4FeH2S2HCSH2SH4Fe2H2C3H2SH3CHC2H4SCHSCH5C2H5CH2C4H4CH5CSH3CFeCHCSCHSHFeCH4CNSCH3C2H2FeHCH2FeHCH3CH5C3H2C2H2C3HCH2CHC2FeHC2H3NCH3CH2SH4C2HFeSFeS2FeSFeS3FeS2FeS2FeCFeS4CHCHSHNH5NHC8H12C8H4C6H4CHC3NHCH3SHCHCHC2H2C3HCHCH3CNC12H28CHNH3CHC6H17CHC5HC2H2SH5SH2CH2SNC5HC4HCH23CH3C2HC5H2CHC3NHC2H3CHCHCH3CH10CH2C3H4C5H2CHCH3C2HCH2CH4SH3CHSHC2HSH4CHCSH6CHC2HSC3H2CH2CH2CH3CHFeCH2CHSFeC2H3C2HCH3NH2CHNH7C4H2CH2C2H10SHFeH2CHC3H5SH7CH2CH8CHCH3CH4SHFeS2FeS2FeSFeS4CFeS3C2HC3SC3H3C6H4SCFeCHC6H6C4H6CHFeH2NH5CHCH3C2H2CHC2H2CSHC2HSCHNC12H32CH2C2H7C6HSH4FeCH3NSHCH3CHSC3HCH2CH3CHCHCFeHC2H3CH7SCHC2HCNCH8CH6C2H3C2FeHCFeHC2H5CNSH8CSCH2C2H9C2H2C3H5CHSH3SC2H2CH9CHC2HC2FeH3CH2NFeCHCHFeS2FeS2FeSFeCS2HCFeHSFeHSHFeSCSCFeS2FeS2FeHFeS2H2C2H3NHC2H2SHC8H7FeHC4HC7HCH5CHC2HCHC2HCH2C6H4C6H4S2HC2H2C2HCH2NCHC2HC2H8CH2SCH8SCH2C2NCH12CHC2H3SFeCHCH4CH4C2HCH12CH4SC2H3CH2CSH2CH5CHCHCH5CH2CSH6NCH2SHFeCHCH2CH3CHC2SCH3C2H5CHCHCH2CH2SH3CH5CH8CH2CH2CHC6H2NC2H3SCH3C3HCHCHNFeS2FeS2FeSFeHS2C2SFeS2FeS2Fe2S4HS2H4FeHFeS3FeC3HCH2CH5C7H4C6H4C6H5CNC3HCH3CH2C3H5CH2FeH2CH2CH2CSHCH2C7H2CNC12H32CH4CSH3NC6H2C3SH2SH6CH2CHC2H8FeH6CHCH4CH4C2HCH3CH4CSH4C2HNHC2H4CH2CH3CH2NC2HC6FeC2H5CH5FeSH9CH2CH5SH5C3H4CHCHCH4CHC3H2C2H3CH6FeNH5CHSC2H2SH6SHFeHCH3SHCH2C2HSCHC2SH5FeC3HCHCHCHFeH2CHC2H2C3HCH3CH3C2HCH2SNHC3HSH3CH2FeC4H2CNC3H2C2H2CH7C2HCHSH5CH3SH2CNFeSFeHFeCSH5NH5C2HFeHSFeHSFeCH2S3C6H5CSHCFeCHCSFeH3FeH2CH2CHCSH2C5H2CH5CHCHNHNC5HCH2SC3H3C2H2CH6CH2CHCHC3H2NC4HCHCHCHFeSHC3H2CH3C3HCH3CH2CH4CH2C2HCH3SH5CHSCH2CH3CH2C3HCH2CH2NSH2C2H2SH4SHSHS2H3CH4CH2C2H4FeH3CHCH3FeH5C2NHC3H7CH3CH5CH5CH5CSCHCSH4CHCSHSHC4SH6FeSNFeSCHCFeSHSFeSH4C9H2C2H2CH3CHC4SC5H7C2HFeCH2FeNHC2H3C2H3CHFeCHCH2CHCH8CH3CH2NH3CH2CH7C2SHCHCHSHCH2CNCH4CH3CHC2H2CHC2H2CHC2H2FeCH2CH4CH11CH4SHCHC2H2S2H4CHCH2CSFeH2CSCH3CH2CH2CSH5NCH2CH3FeH2SH2C2NH3CH3CNC3H2CHCH3C3H10CHC2FeCH5SCFeHSHC3S2H2CHCH2CHCHCHCH6C5H3CHCHC3HCH2CH3C2H3CHCH2SCHCH2CH2C2HCH2FeCH5CH4CH8CH4NHSCHCHCNC2H5SH5NH3C6HCFeS2H4FeSCSHFeSHFeS2FeSFeS3HCSH2CH2C2SFeS2FeHSCFeHS2FeS2FeS2FeSCHS2FeCFeHSFeC2SHC6H4C4H2C6H6CH2C2S2H2C6H4C3H2CH4C3H3FeH2CH5CH2CNH3C6H5C2H2CNHCHC2H3SFeH10CH3SH2CHC2H3CH3C2H2C2HCNHSHNC12H16CH10C2NC12H28NC7FeHC3H9CH4CH2SHFeH2C2HC2H3CH5CH4CHCH4CH2C4H5CH4CHSCHCH5SC2H3CHC2H2CHCH4S2H4CH5C2HCH4CHCH5C3H6CH2FeC5H4S2CH2CH2CFeC2HCHCSHFeHCHCHSC3H2SHSH6CHCFeH3SHCH6C
_chemical_formula_sum              "S576 H4608 C2592 N144 Fe288"
_cell_length_a       77.0683
_cell_length_b       77.8058
_cell_length_c       77.4529
_cell_angle_alpha    74.2808
_cell_angle_beta     73.9215
_cell_angle_gamma    73.8862

_space_group_name_H-M_alt    "P 1"
_space_group_IT_number       1

loop_
  _space_group_symop_operation_xyz
  'x, y, z'

loop_
  _atom_site_type_symbol
  _atom_site_label
  _atom_site_symmetry_multiplicity
  _atom_site_fract_x
  _atom_site_fract_y
  _atom_site_fract_z
  _atom_site_occupancy
  S   S1        1.0  0.48921  0.19168  0.99227  1.0000
  H   H1        1.0  0.48840  0.00673  0.19215  1.0000
  C   C1        1.0  0.48895  0.14952  0.11543  1.0000
  S   S2        1.0  0.48060  0.21618  0.10609  1.0000
  H   H2        1.0  0.44564  0.10542  0.25861  1.0000
  H   H3        1.0  0.43303  0.23383  0.04968  1.0000
  H   H4        1.0  0.48343  0.14140  0.21446  1.0000
  C   C2        1.0  0.44578  0.21490  0.16293  1.0000
  C   C3        1.0  0.49170  0.99230  0.24323  1.0000
  H   H5        1.0  0.44930  0.13060  0.30702  1.0000
  H   H6        1.0  0.47911  0.04683  0.27512  1.0000
  H   H7        1.0  0.44310  0.04477  0.26520  1.0000
  C   C4        1.0  0.47717  0.15857  0.17921  1.0000
  C   C5        1.0  0.45939  0.21104  0.07258  1.0000
  H   H8        1.0  0.43463  0.99805  0.20688  1.0000
  H   H9        1.0  0.42907  0.04339  0.29772  1.0000
  C   C6        1.0  0.48021  0.08985  0.30617  1.0000
  C   C7        1.0  0.47226  0.19221  0.07633  1.0000
  H   H10       1.0  0.45540  0.18130  0.15225  1.0000
  H   H11       1.0  0.44764  0.20923  0.06813  1.0000
  C   C8        1.0  0.44655  0.07169  0.28297  1.0000
  H   H12       1.0  0.44622  0.00513  0.28691  1.0000
  H   H13       1.0  0.47654  0.18602  0.06404  1.0000
  S   S3        1.0  0.48782  0.11152  0.25120  1.0000
  H   H14       1.0  0.44766  0.18867  0.18153  1.0000
  C   C9        1.0  0.45722  0.19630  0.17060  1.0000
  H   H15       1.0  0.45491  0.22335  0.15246  1.0000
  H   H16       1.0  0.47920  0.21767  0.04746  1.0000
  H   H17       1.0  0.42526  0.02082  0.28149  1.0000
  C   C10       1.0  0.46625  0.12177  0.28248  1.0000
  H   H18       1.0  0.45508  0.09406  0.00915  1.0000
  C   C11       1.0  0.47423  0.04801  0.28972  1.0000
  H   H19       1.0  0.47969  0.13968  0.12066  1.0000
  C   C12       1.0  0.46975  0.22509  0.05806  1.0000
  C   C13       1.0  0.44057  0.01721  0.27697  1.0000
  H   H20       1.0  0.44418  0.01351  0.26333  1.0000
  H   H21       1.0  0.43695  0.11461  0.00665  1.0000
  H   H22       1.0  0.49284  0.13245  0.29966  1.0000
  N   N1        1.0  0.48199  0.16847  0.15944  1.0000
  H   H23       1.0  0.47135  0.07809  0.26257  1.0000
  C   C14       1.0  0.44756  0.09381  0.25199  1.0000
  H   H24       1.0  0.48572  0.07756  0.31533  1.0000
  N   N2        1.0  0.45340  0.05346  0.29501  1.0000
  H   H25       1.0  0.48480  0.19323  0.08004  1.0000
  H   H26       1.0  0.47153  0.14826  0.15296  1.0000
  H   H27       1.0  0.48038  0.02988  0.31565  1.0000
  C   C15       1.0  0.48364  0.02982  0.30082  1.0000
  H   H28       1.0  0.48833  0.15606  0.10091  1.0000
  H   H29       1.0  0.46354  0.15483  0.18199  1.0000
  C   C16       1.0  0.49406  0.00974  0.23330  1.0000
  H   H30       1.0  0.45310  0.22412  0.03472  1.0000
  H   H31       1.0  0.46081  0.13418  0.27342  1.0000
  H   H32       1.0  0.39109  0.98819  0.29616  1.0000
  C   C17       1.0  0.46671  0.10387  0.31341  1.0000
  C   C18       1.0  0.44898  0.03330  0.27548  1.0000
  H   H33       1.0  0.49335  0.13060  0.17699  1.0000
  C   C19       1.0  0.45756  0.07610  0.26279  1.0000
  C   C20       1.0  0.48951  0.00259  0.20637  1.0000
  H   H34       1.0  0.43531  0.21315  0.15653  1.0000
  H   H35       1.0  0.44686  0.08317  0.28889  1.0000
  C   C21       1.0  0.47981  0.10795  0.27516  1.0000
  H   H36       1.0  0.46883  0.17188  0.12539  1.0000
  H   H37       1.0  0.47897  0.22864  0.06481  1.0000
  H   H38       1.0  0.46490  0.18304  0.08793  1.0000
  H   H39       1.0  0.45597  0.09697  0.23782  1.0000
  H   H40       1.0  0.45628  0.06476  0.31649  1.0000
  H   H41       1.0  0.49650  0.99279  0.16385  1.0000
  H   H42       1.0  0.47237  0.19475  0.14261  1.0000
  C   C22       1.0  0.48502  0.13199  0.20533  1.0000
  H   H43       1.0  0.47520  0.16747  0.18890  1.0000
  C   C23       1.0  0.45972  0.11973  0.30150  1.0000
  C   C24       1.0  0.48319  0.15548  0.14750  1.0000
  C   C25       1.0  0.44438  0.03889  0.29418  1.0000
  H   H44       1.0  0.46406  0.02897  0.27051  1.0000
  H   H45       1.0  0.43388  0.09242  0.25114  1.0000
  H   H46       1.0  0.43181  0.07325  0.28270  1.0000
  C   C26       1.0  0.48297  0.16416  0.12695  1.0000
  C   C27       1.0  0.44806  0.05587  0.31469  1.0000
  H   H47       1.0  0.48585  0.19661  0.02836  1.0000
  H   H48       1.0  0.49224  0.17383  0.12107  1.0000
  H   H49       1.0  0.45387  0.21568  0.08580  1.0000
  C   C28       1.0  0.46692  0.18522  0.15530  1.0000
  H   H50       1.0  0.45989  0.06506  0.25539  1.0000
  S   S4        1.0  0.49456  0.07773  0.21963  1.0000
  H   H51       1.0  0.42243  0.07759  0.31313  1.0000
  H   H52       1.0  0.43848  0.22233  0.17420  1.0000
  H   H53       1.0  0.48024  0.05891  0.29092  1.0000
  H   H54       1.0  0.47933  0.01819  0.29878  1.0000
  H   H55       1.0  0.43222  0.23141  0.01221  1.0000
  H   H56       1.0  0.44780  0.02631  0.30477  1.0000
  C   C29       1.0  0.48682  0.09198  0.28698  1.0000
  C   C30       1.0  0.49142  0.14091  0.18522  1.0000
  H   H57       1.0  0.47169  0.12797  0.20757  1.0000
  H   H58       1.0  0.46704  0.19880  0.17717  1.0000
  H   H59       1.0  0.49544  0.20028  0.16131  1.0000
  C   C31       1.0  0.44508  0.10260  0.00059  1.0000
  H   H60       1.0  0.44378  0.23522  0.11812  1.0000
  H   H61       1.0  0.43537  0.09429  0.00078  1.0000
  C   C32       1.0  0.49303  0.01490  0.21477  1.0000
  H   H62       1.0  0.48008  0.23524  0.01658  1.0000
  H   H63       1.0  0.49469  0.02840  0.20702  1.0000
  H   H64       1.0  0.49601  0.14451  0.14782  1.0000
  H   H65       1.0  0.49553  0.11947  0.20915  1.0000
  H   H66       1.0  0.42136  0.98917  0.19681  1.0000
  H   H67       1.0  0.48021  0.11004  0.98698  1.0000
  H   H68       1.0  0.49198  0.98838  0.25764  1.0000
  H   H69       1.0  0.46257  0.12993  0.98919  1.0000
  H   H70       1.0  0.48995  0.13815  0.98907  1.0000
  C   C33       1.0  0.44580  0.23701  0.03967  1.0000
  Fe  Fe1       1.0  0.48745  0.03954  0.37038  1.0000
  H   H71       1.0  0.22638  0.04321  0.62221  1.0000
  H   H72       1.0  0.23535  0.18866  0.51814  1.0000
  Fe  Fe2       1.0  0.48590  0.06817  0.39095  1.0000
  S   S5        1.0  0.45710  0.08250  0.38791  1.0000
  Fe  Fe3       1.0  0.45143  0.05446  0.39462  1.0000
  S   S6        1.0  0.42777  0.04353  0.41484  1.0000
  H   H73       1.0  0.17721  0.19317  0.46438  1.0000
  S   S7        1.0  0.47945  0.04029  0.40020  1.0000
  C   C34       1.0  0.19031  0.00161  0.49567  1.0000
  C   C35       1.0  0.23219  0.08548  0.64645  1.0000
  H   H74       1.0  0.24451  0.99842  0.47095  1.0000
  H   H75       1.0  0.40386  0.04526  0.51767  1.0000
  C   C36       1.0  0.23174  0.15027  0.53707  1.0000
  H   H76       1.0  0.39763  0.09936  0.64468  1.0000
  H   H77       1.0  0.38454  0.06530  0.47506  1.0000
  Fe  Fe4       1.0  0.18349  0.09333  0.57853  1.0000
  S   S8        1.0  0.16665  0.11689  0.56184  1.0000
  S   S9        1.0  0.19445  0.09751  0.60110  1.0000
  Fe  Fe5       1.0  0.17913  0.06552  0.55963  1.0000
  S   S10       1.0  0.16223  0.08686  0.54118  1.0000
  S   S11       1.0  0.19023  0.03543  0.55877  1.0000
  Fe  Fe6       1.0  0.18259  0.10379  0.53807  1.0000
  S   S12       1.0  0.19086  0.12297  0.51132  1.0000
  Fe  Fe7       1.0  0.14746  0.09845  0.56638  1.0000
  S   S13       1.0  0.11643  0.10939  0.57069  1.0000
  S   S14       1.0  0.20099  0.08163  0.55433  1.0000
  S   S15       1.0  0.16279  0.07563  0.58530  1.0000
  Fe  Fe8       1.0  0.32156  0.10139  0.62293  1.0000
  S   S16       1.0  0.33105  0.07142  0.62334  1.0000
  H   H78       1.0  0.40305  0.01727  0.38938  1.0000
  Fe  Fe9       1.0  0.29239  0.10583  0.60120  1.0000
  S   S17       1.0  0.30048  0.07639  0.59936  1.0000
  S   S18       1.0  0.26814  0.12470  0.58989  1.0000
  H   H79       1.0  0.38945  0.04925  0.54960  1.0000
  C   C37       1.0  0.23237  0.00156  0.46465  1.0000
  Fe  Fe10      1.0  0.32963  0.07941  0.59370  1.0000
  S   S19       1.0  0.35282  0.06493  0.57420  1.0000
  H   H80       1.0  0.00511  0.19984  0.49787  1.0000
  S   S20       1.0  0.32181  0.10960  0.59266  1.0000
  Fe  Fe11      1.0  0.31649  0.06621  0.49433  1.0000
  S   S21       1.0  0.28805  0.07653  0.48890  1.0000
  S   S22       1.0  0.32258  0.04273  0.51762  1.0000
  Fe  Fe12      1.0  0.33336  0.09139  0.46031  1.0000
  S   S23       1.0  0.30632  0.10384  0.45174  1.0000
  S   S24       1.0  0.35822  0.10243  0.44305  1.0000
  Fe  Fe13      1.0  0.29461  0.10419  0.48153  1.0000
  S   S25       1.0  0.27442  0.12937  0.48884  1.0000
  Fe  Fe14      1.0  0.30221  0.07522  0.45978  1.0000
  S   S26       1.0  0.28936  0.06339  0.44457  1.0000
  S   S27       1.0  0.32201  0.09412  0.48965  1.0000
  S   S28       1.0  0.33028  0.06246  0.46568  1.0000
  Fe  Fe15      1.0  0.05909  0.20915  0.56726  1.0000
  S   S29       1.0  0.03293  0.21009  0.58915  1.0000
  S   S30       1.0  0.08714  0.19370  0.57304  1.0000
  C   C38       1.0  0.37656  0.01218  0.44275  1.0000
  H   H81       1.0  0.32302  0.18178  0.64001  1.0000
  Fe  Fe16      1.0  0.01979  0.20868  0.56713  1.0000
  H   H82       1.0  0.36392  0.02537  0.50152  1.0000
  C   C39       1.0  0.28397  0.13281  0.53707  1.0000
  S   S31       1.0  0.04655  0.20550  0.54591  1.0000
  H   H83       1.0  0.25427  0.06732  0.51173  1.0000
  H   H84       1.0  0.44237  0.01071  0.45997  1.0000
  H   H85       1.0  0.30582  0.01373  0.41191  1.0000
  H   H86       1.0  0.36018  0.02375  0.39304  1.0000
  H   H87       1.0  0.37069  0.01014  0.41805  1.0000
  H   H88       1.0  0.36913  0.02619  0.58953  1.0000
  H   H89       1.0  0.20574  0.12827  0.54312  1.0000
  H   H90       1.0  0.41476  0.11310  0.63893  1.0000
  C   C40       1.0  0.41822  0.01380  0.38801  1.0000
  H   H91       1.0  0.14167  0.18155  0.55971  1.0000
  H   H92       1.0  0.46204  0.03259  0.64856  1.0000
  H   H93       1.0  0.25589  0.05021  0.45854  1.0000
  H   H94       1.0  0.26311  0.04820  0.50066  1.0000
  H   H95       1.0  0.23504  0.09783  0.63586  1.0000
  C   C41       1.0  0.34432  0.05903  0.55839  1.0000
  C   C42       1.0  0.33020  0.07129  0.55039  1.0000
  C   C43       1.0  0.32370  0.06650  0.53749  1.0000
  C   C44       1.0  0.33072  0.04913  0.53334  1.0000
  C   C45       1.0  0.34436  0.03665  0.54186  1.0000
  C   C46       1.0  0.35161  0.04183  0.55387  1.0000
  H   H96       1.0  0.32448  0.08449  0.55406  1.0000
  H   H97       1.0  0.31289  0.07598  0.53117  1.0000
  H   H98       1.0  0.34973  0.02320  0.53868  1.0000
  H   H99       1.0  0.36260  0.03238  0.55992  1.0000
  C   C47       1.0  0.26327  0.04320  0.61515  1.0000
  C   C48       1.0  0.31539  0.00987  0.58924  1.0000
  H   H100      1.0  0.23350  0.00000  0.50189  1.0000
  H   H101      1.0  0.25899  0.05112  0.60262  1.0000
  H   H102      1.0  0.26961  0.06585  0.62116  1.0000
  C   C49       1.0  0.09437  0.17003  0.57338  1.0000
  C   C50       1.0  0.11132  0.16052  0.57806  1.0000
  C   C51       1.0  0.11809  0.14191  0.57748  1.0000
  C   C52       1.0  0.10780  0.13255  0.57245  1.0000
  C   C53       1.0  0.09061  0.14194  0.56817  1.0000
  C   C54       1.0  0.08395  0.16066  0.56852  1.0000
  H   H103      1.0  0.11919  0.16755  0.58230  1.0000
  H   H104      1.0  0.13110  0.13474  0.58125  1.0000
  H   H105      1.0  0.08257  0.13477  0.56430  1.0000
  H   H106      1.0  0.07081  0.16784  0.56497  1.0000
  C   C55       1.0  0.21424  0.12419  0.50504  1.0000
  C   C56       1.0  0.21921  0.14018  0.49360  1.0000
  C   C57       1.0  0.23775  0.14163  0.48857  1.0000
  C   C58       1.0  0.25145  0.12692  0.49458  1.0000
  C   C59       1.0  0.24655  0.11085  0.50588  1.0000
  C   C60       1.0  0.22791  0.10956  0.51129  1.0000
  H   H107      1.0  0.20872  0.15152  0.48875  1.0000
  H   H108      1.0  0.24152  0.15405  0.47982  1.0000
  H   H109      1.0  0.25707  0.09956  0.51069  1.0000
  H   H110      1.0  0.22414  0.09718  0.52001  1.0000
  C   C61       1.0  0.21526  0.10491  0.59678  1.0000
  C   C62       1.0  0.21448  0.12136  0.60135  1.0000
  C   C63       1.0  0.23077  0.12707  0.59950  1.0000
  C   C64       1.0  0.24812  0.11604  0.59382  1.0000
  C   C65       1.0  0.24903  0.09917  0.58995  1.0000
  C   C66       1.0  0.23261  0.09371  0.59120  1.0000
  H   H111      1.0  0.20119  0.12982  0.60620  1.0000
  H   H112      1.0  0.22991  0.14005  0.60262  1.0000
  H   H113      1.0  0.26237  0.09050  0.58572  1.0000
  H   H114      1.0  0.23334  0.08062  0.58839  1.0000
  C   C67       1.0  0.17715  0.02102  0.55653  1.0000
  C   C68       1.0  0.16155  0.02800  0.54880  1.0000
  C   C69       1.0  0.15306  0.01600  0.54493  1.0000
  H   H115      1.0  0.29376  0.05565  0.57653  1.0000
  H   H116      1.0  0.16500  0.18445  0.55499  1.0000
  H   H117      1.0  0.31003  0.11292  0.53604  1.0000
  H   H118      1.0  0.15633  0.04263  0.54536  1.0000
  H   H119      1.0  0.14128  0.02151  0.53855  1.0000
  H   H120      1.0  0.38581  0.02590  0.36632  1.0000
  C   C70       1.0  0.34356  0.15600  0.64255  1.0000
  H   H121      1.0  0.16069  0.16172  0.56042  1.0000
  H   H122      1.0  0.25498  0.02195  0.56890  1.0000
  H   H123      1.0  0.08802  0.20823  0.53293  1.0000
  H   H124      1.0  0.43276  0.09239  0.45529  1.0000
  H   H125      1.0  0.27484  0.05391  0.53020  1.0000
  H   H126      1.0  0.41799  0.11435  0.45887  1.0000
  H   H127      1.0  0.24114  0.07220  0.54044  1.0000
  H   H128      1.0  0.26359  0.19824  0.49672  1.0000
  H   H129      1.0  0.47721  0.14099  0.36440  1.0000
  C   C71       1.0  0.40845  0.06016  0.42213  1.0000
  C   C72       1.0  0.39414  0.05462  0.43639  1.0000
  C   C73       1.0  0.37839  0.06751  0.44233  1.0000
  C   C74       1.0  0.37717  0.08610  0.43457  1.0000
  C   C75       1.0  0.39158  0.09173  0.42043  1.0000
  C   C76       1.0  0.40714  0.07875  0.41406  1.0000
  H   H130      1.0  0.39540  0.04039  0.44311  1.0000
  H   H131      1.0  0.36752  0.06314  0.45342  1.0000
  H   H132      1.0  0.39070  0.10614  0.41438  1.0000
  H   H133      1.0  0.41807  0.08315  0.40298  1.0000
  C   C77       1.0  0.20329  0.13721  0.55294  1.0000
  H   H134      1.0  0.46666  0.01514  0.36636  1.0000
  H   H135      1.0  0.20781  0.06232  0.62124  1.0000
  N   N3        1.0  0.34452  0.04371  0.40964  1.0000
  C   C78       1.0  0.35650  0.03758  0.42364  1.0000
  C   C79       1.0  0.33628  0.06406  0.40738  1.0000
  C   C80       1.0  0.32883  0.03374  0.41689  1.0000
  C   C81       1.0  0.35511  0.03882  0.39145  1.0000
  H   H136      1.0  0.10917  0.00939  0.57508  1.0000
  C   C82       1.0  0.31286  0.04026  0.40636  1.0000
  C   C83       1.0  0.34817  0.07625  0.40955  1.0000
  H   H137      1.0  0.00984  0.17555  0.53297  1.0000
  C   C84       1.0  0.29904  0.02780  0.41408  1.0000
  H   H138      1.0  0.34864  0.04272  0.43632  1.0000
  H   H139      1.0  0.36890  0.04363  0.41872  1.0000
  H   H140      1.0  0.33211  0.06962  0.39392  1.0000
  H   H141      1.0  0.32329  0.06670  0.41798  1.0000
  H   H142      1.0  0.32241  0.03471  0.43146  1.0000
  H   H143      1.0  0.33414  0.01893  0.41696  1.0000
  H   H144      1.0  0.34587  0.04264  0.38167  1.0000
  C   C85       1.0  0.20098  0.02472  0.50349  1.0000
  H   H145      1.0  0.22628  0.19796  0.57317  1.0000
  H   H146      1.0  0.31796  0.04006  0.39157  1.0000
  H   H147      1.0  0.30519  0.05439  0.40758  1.0000
  H   H148      1.0  0.34823  0.07412  0.42430  1.0000
  H   H149      1.0  0.36275  0.07312  0.40204  1.0000
  C   C86       1.0  0.11197  0.99437  0.58058  1.0000
  H   H150      1.0  0.37635  0.00768  0.60776  1.0000
  H   H151      1.0  0.39382  0.04685  0.35678  1.0000
  C   C87       1.0  0.42723  0.06416  0.32189  1.0000
  H   H152      1.0  0.28732  0.03315  0.40698  1.0000
  C   C88       1.0  0.31553  0.99782  0.62200  1.0000
  C   C89       1.0  0.26962  0.05146  0.62543  1.0000
  C   C90       1.0  0.33187  0.17196  0.63135  1.0000
  H   H153      1.0  0.36997  0.01863  0.45482  1.0000
  H   H154      1.0  0.20977  0.08392  0.63601  1.0000
  H   H155      1.0  0.18048  0.01223  0.48809  1.0000
  H   H156      1.0  0.43226  0.07650  0.34170  1.0000
  H   H157      1.0  0.22161  0.02746  0.47242  1.0000
  H   H158      1.0  0.37204  0.04528  0.35362  1.0000
  H   H159      1.0  0.49488  0.01610  0.64570  1.0000
  H   H160      1.0  0.24339  0.02239  0.44242  1.0000
  H   H161      1.0  0.18553  0.04194  0.62677  1.0000
  H   H162      1.0  0.44954  0.00440  0.39879  1.0000
  C   C91       1.0  0.48594  0.01341  0.63811  1.0000
  C   C92       1.0  0.29709  0.04082  0.57665  1.0000
  H   H163      1.0  0.38178  0.04535  0.38959  1.0000
  H   H164      1.0  0.21326  0.02941  0.50390  1.0000
  N   N4        1.0  0.38626  0.07817  0.49571  1.0000
  C   C93       1.0  0.36825  0.09164  0.49354  1.0000
  C   C94       1.0  0.38690  0.06135  0.48922  1.0000
  C   C95       1.0  0.38710  0.07363  0.51573  1.0000
  C   C96       1.0  0.40268  0.08608  0.48436  1.0000
  C   C97       1.0  0.40321  0.09276  0.46343  1.0000
  C   C98       1.0  0.36664  0.11119  0.49609  1.0000
  H   H165      1.0  0.25031  0.09221  0.55342  1.0000
  C   C99       1.0  0.37242  0.04997  0.50072  1.0000
  H   H166      1.0  0.45720  0.01586  0.63944  1.0000
  C   C100      1.0  0.41940  0.10202  0.45354  1.0000
  C   C101      1.0  0.34762  0.12335  0.49431  1.0000
  S   S32       1.0  0.49668  0.06610  0.36138  1.0000
  H   H167      1.0  0.35647  0.08646  0.50369  1.0000
  H   H168      1.0  0.36539  0.09293  0.47987  1.0000
  S   S33       1.0  0.45847  0.10279  0.33713  1.0000
  H   H169      1.0  0.38748  0.13948  0.63904  1.0000
  H   H170      1.0  0.37401  0.06998  0.52468  1.0000
  H   H171      1.0  0.38801  0.08590  0.51989  1.0000
  H   H172      1.0  0.40376  0.09750  0.48981  1.0000
  H   H173      1.0  0.41576  0.07569  0.48546  1.0000
  H   H174      1.0  0.39035  0.10271  0.46069  1.0000
  H   H175      1.0  0.40508  0.08103  0.45705  1.0000
  H   H176      1.0  0.36859  0.11082  0.50985  1.0000
  H   H177      1.0  0.37706  0.11795  0.48550  1.0000
  C   C102      1.0  0.22119  0.99440  0.50371  1.0000
  C   C103      1.0  0.49374  0.00438  0.35131  1.0000
  H   H178      1.0  0.40091  0.05216  0.48818  1.0000
  H   H179      1.0  0.35819  0.05831  0.50072  1.0000
  H   H180      1.0  0.25275  0.99697  0.55474  1.0000
  C   C104      1.0  0.27394  0.02309  0.64782  1.0000
  C   C105      1.0  0.20067  0.03747  0.62177  1.0000
  H   H181      1.0  0.41954  0.10634  0.43861  1.0000
  H   H182      1.0  0.34701  0.13734  0.49574  1.0000
  H   H183      1.0  0.34499  0.12434  0.48062  1.0000
  H   H184      1.0  0.33659  0.11781  0.50527  1.0000
  H   H185      1.0  0.34845  0.10487  0.40548  1.0000
  H   H186      1.0  0.11792  0.12843  0.50605  1.0000
  H   H187      1.0  0.30243  0.00513  0.59112  1.0000
  N   N5        1.0  0.25703  0.03449  0.53998  1.0000
  C   C106      1.0  0.37151  0.04805  0.38108  1.0000
  C   C107      1.0  0.24369  0.04267  0.52733  1.0000
  C   C108      1.0  0.26736  0.01485  0.63768  1.0000
  H   H188      1.0  0.40890  0.07398  0.34574  1.0000
  H   H189      1.0  0.27354  0.04270  0.55340  1.0000
  H   H190      1.0  0.44282  0.00539  0.42895  1.0000
  C   C109      1.0  0.25069  0.05559  0.50911  1.0000
  C   C110      1.0  0.23589  0.06362  0.49775  1.0000
  C   C111      1.0  0.42366  0.06732  0.34130  1.0000
  H   H191      1.0  0.30262  0.03276  0.60368  1.0000
  H   H192      1.0  0.32564  0.10043  0.41060  1.0000
  H   H193      1.0  0.23992  0.03164  0.52343  1.0000
  H   H194      1.0  0.23034  0.05029  0.53452  1.0000
  H   H195      1.0  0.23203  0.07181  0.62599  1.0000
  C   C112      1.0  0.34646  0.01590  0.61001  1.0000
  H   H196      1.0  0.23390  0.03528  0.56337  1.0000
  C   C113      1.0  0.46561  0.01792  0.64796  1.0000
  H   H197      1.0  0.37416  0.04487  0.51506  1.0000
  N   N6        1.0  0.20717  0.00864  0.49412  1.0000
  C   C114      1.0  0.12048  0.12649  0.51994  1.0000
  H   H198      1.0  0.48626  0.14997  0.61502  1.0000
  C   C115      1.0  0.24669  0.02549  0.55826  1.0000
  H   H199      1.0  0.23203  0.05258  0.49407  1.0000
  H   H200      1.0  0.22341  0.07174  0.50551  1.0000
  H   H201      1.0  0.24138  0.07282  0.48486  1.0000
  H   H202      1.0  0.24866  0.02286  0.48202  1.0000
  C   C116      1.0  0.36567  0.02022  0.60444  1.0000
  H   H203      1.0  0.30879  0.00154  0.52011  1.0000
  H   H204      1.0  0.00682  0.20863  0.53394  1.0000
  H   H205      1.0  0.17597  0.18038  0.44869  1.0000
  Fe  Fe17      1.0  0.03972  0.23626  0.53837  1.0000
  H   H206      1.0  0.28069  0.02771  0.51820  1.0000
  H   H207      1.0  0.09050  0.20066  0.51221  1.0000
  H   H208      1.0  0.30136  0.99617  0.62324  1.0000
  H   H209      1.0  0.35429  0.06282  0.65104  1.0000
  H   H210      1.0  0.34395  0.01016  0.62501  1.0000
  C   C117      1.0  0.47918  0.12597  0.36625  1.0000
  H   H211      1.0  0.19622  0.03439  0.59643  1.0000
  H   H212      1.0  0.26614  0.15557  0.50900  1.0000
  C   C118      1.0  0.40221  0.05424  0.54196  1.0000
  H   H213      1.0  0.18051  0.05409  0.51882  1.0000
  C   C119      1.0  0.16005  0.99699  0.54884  1.0000
  H   H214      1.0  0.34087  0.17915  0.61935  1.0000
  H   H215      1.0  0.10320  0.21711  0.51222  1.0000
  H   H216      1.0  0.19007  0.16968  0.46541  1.0000
  H   H217      1.0  0.22873  0.98842  0.46588  1.0000
  H   H218      1.0  0.22734  0.01249  0.43696  1.0000
  C   C120      1.0  0.47438  0.00773  0.35576  1.0000
  H   H219      1.0  0.19182  0.04579  0.48002  1.0000
  C   C121      1.0  0.29518  0.11318  0.53780  1.0000
  H   H220      1.0  0.19455  0.15069  0.54809  1.0000
  C   C122      1.0  0.35700  0.16269  0.64964  1.0000
  C   C123      1.0  0.20461  0.04127  0.60081  1.0000
  Fe  Fe18      1.0  0.30099  0.07153  0.62913  1.0000
  H   H221      1.0  0.29050  0.10427  0.55126  1.0000
  H   H222      1.0  0.31323  0.01143  0.62524  1.0000
  H   H223      1.0  0.20534  0.02010  0.46559  1.0000
  H   H224      1.0  0.17949  0.07319  0.63484  1.0000
  C   C124      1.0  0.01325  0.20361  0.52102  1.0000
  H   H225      1.0  0.26393  0.16174  0.55310  1.0000
  C   C125      1.0  0.42281  0.99833  0.40410  1.0000
  H   H226      1.0  0.38938  0.01701  0.43527  1.0000
  H   H227      1.0  0.49031  0.99880  0.63704  1.0000
  H   H228      1.0  0.10852  0.12202  0.53037  1.0000
  S   S34       1.0  0.29134  0.10086  0.63141  1.0000
  H   H229      1.0  0.28984  0.14114  0.52376  1.0000
  H   H230      1.0  0.30550  0.00465  0.48613  1.0000
  H   H231      1.0  0.19577  0.13075  0.56652  1.0000
  H   H232      1.0  0.21844  0.14661  0.56638  1.0000
  C   C126      1.0  0.23696  0.17927  0.55442  1.0000
  H   H233      1.0  0.29369  0.10774  0.52654  1.0000
  N   N7        1.0  0.32668  0.99730  0.60271  1.0000
  H   H234      1.0  0.22205  0.16365  0.53420  1.0000
  C   C127      1.0  0.25518  0.19132  0.49241  1.0000
  H   H235      1.0  0.24277  0.18994  0.54338  1.0000
  H   H236      1.0  0.23297  0.14351  0.52569  1.0000
  Fe  Fe19      1.0  0.46734  0.07853  0.35882  1.0000
  H   H237      1.0  0.13303  0.11549  0.52160  1.0000
  C   C128      1.0  0.29466  0.01458  0.48014  1.0000
  C   C129      1.0  0.26672  0.04022  0.46448  1.0000
  H   H238      1.0  0.22890  0.17412  0.58435  1.0000
  H   H239      1.0  0.24613  0.15062  0.56637  1.0000
  C   C130      1.0  0.22285  0.07484  0.63911  1.0000
  C   C131      1.0  0.24993  0.16031  0.55324  1.0000
  C   C132      1.0  0.40355  0.05821  0.52125  1.0000
  H   H240      1.0  0.24906  0.18402  0.57463  1.0000
  C   C133      1.0  0.36332  0.01664  0.42992  1.0000
  H   H241      1.0  0.24509  0.20193  0.48518  1.0000
  C   C134      1.0  0.25854  0.16419  0.51922  1.0000
  H   H242      1.0  0.17336  0.03814  0.49801  1.0000
  H   H243      1.0  0.47615  0.99986  0.41290  1.0000
  H   H244      1.0  0.26439  0.18272  0.48264  1.0000
  H   H245      1.0  0.25883  0.12504  0.55299  1.0000
  H   H246      1.0  0.33619  0.02896  0.60778  1.0000
  N   N8        1.0  0.14413  0.16761  0.51114  1.0000
  C   C135      1.0  0.14885  0.16341  0.52972  1.0000
  C   C136      1.0  0.13924  0.15102  0.50871  1.0000
  C   C137      1.0  0.16139  0.17073  0.49669  1.0000
  C   C138      1.0  0.12876  0.18445  0.50833  1.0000
  C   C139      1.0  0.11388  0.18901  0.52563  1.0000
  C   C140      1.0  0.15808  0.17737  0.53283  1.0000
  C   C141      1.0  0.16036  0.17267  0.47650  1.0000
  C   C142      1.0  0.12274  0.14429  0.52295  1.0000
  H   H247      1.0  0.35145  0.01031  0.43782  1.0000
  C   C143      1.0  0.09798  0.20471  0.52031  1.0000
  C   C144      1.0  0.15626  0.17612  0.55326  1.0000
  C   C145      1.0  0.17694  0.17941  0.46298  1.0000
  H   H248      1.0  0.15855  0.14978  0.53193  1.0000
  H   H249      1.0  0.13649  0.16199  0.54102  1.0000
  H   H250      1.0  0.13563  0.15364  0.49516  1.0000
  H   H251      1.0  0.15151  0.13930  0.50880  1.0000
  H   H252      1.0  0.17341  0.15938  0.49949  1.0000
  H   H253      1.0  0.16516  0.18335  0.49726  1.0000
  H   H254      1.0  0.13451  0.19695  0.50208  1.0000
  H   H255      1.0  0.12144  0.18354  0.49818  1.0000
  H   H256      1.0  0.11994  0.19336  0.53475  1.0000
  H   H257      1.0  0.10794  0.17716  0.53382  1.0000
  H   H258      1.0  0.17307  0.17447  0.52627  1.0000
  H   H259      1.0  0.15188  0.19162  0.52666  1.0000
  H   H260      1.0  0.14755  0.18246  0.47331  1.0000
  H   H261      1.0  0.16064  0.15918  0.47402  1.0000
  H   H262      1.0  0.12484  0.14147  0.53706  1.0000
  H   H263      1.0  0.10966  0.15452  0.52165  1.0000
  H   H264      1.0  0.47776  0.11968  0.38114  1.0000
  C   C146      1.0  0.27663  0.01180  0.48526  1.0000
  C   C147      1.0  0.24061  0.00799  0.55837  1.0000
  S   S35       1.0  0.45893  0.05180  0.36522  1.0000
  H   H265      1.0  0.20095  0.05619  0.59503  1.0000
  H   H266      1.0  0.24265  0.06101  0.56368  1.0000
  H   H267      1.0  0.48894  0.12448  0.33045  1.0000
  N   N9        1.0  0.25055  0.15252  0.53721  1.0000
  H   H268      1.0  0.01948  0.22563  0.48501  1.0000
  C   C148      1.0  0.24483  0.17957  0.50910  1.0000
  C   C149      1.0  0.26312  0.13364  0.53923  1.0000
  C   C150      1.0  0.18445  0.05788  0.50359  1.0000
  H   H269      1.0  0.19735  0.06304  0.49958  1.0000
  H   H270      1.0  0.46818  0.12304  0.36145  1.0000
  C   C151      1.0  0.29856  0.03058  0.46773  1.0000
  C   C152      1.0  0.26263  0.02475  0.47766  1.0000
  C   C153      1.0  0.26501  0.04883  0.54293  1.0000
  H   H271      1.0  0.41691  0.06228  0.51431  1.0000
  H   H272      1.0  0.35136  0.14638  0.63336  1.0000
  C   C154      1.0  0.21145  0.04781  0.62820  1.0000
  C   C155      1.0  0.25084  0.06541  0.54966  1.0000
  H   H273      1.0  0.29340  0.02725  0.42900  1.0000
  C   C156      1.0  0.22162  0.13932  0.55502  1.0000
  C   C157      1.0  0.18358  0.00198  0.56116  1.0000
  H   H274      1.0  0.20488  0.02245  0.62658  1.0000
  C   C158      1.0  0.02112  0.18302  0.52620  1.0000
  H   H275      1.0  0.22283  0.17971  0.55326  1.0000
  C   C159      1.0  0.23524  0.18410  0.57277  1.0000
  C   C160      1.0  0.30989  0.03038  0.58979  1.0000
  S   S36       1.0  0.33794  0.11318  0.63516  1.0000
  H   H276      1.0  0.23787  0.99794  0.58798  1.0000
  C   C161      1.0  0.26311  0.02459  0.62076  1.0000
  H   H277      1.0  0.26740  0.01092  0.52754  1.0000
  H   H278      1.0  0.18240  0.99911  0.51018  1.0000
  H   H279      1.0  0.41433  0.04351  0.54558  1.0000
  H   H280      1.0  0.27009  0.08366  0.53685  1.0000
  H   H281      1.0  0.26892  0.07429  0.56104  1.0000
  C   C162      1.0  0.26069  0.07973  0.55028  1.0000
  H   H282      1.0  0.32230  0.03631  0.58515  1.0000
  H   H283      1.0  0.36644  0.06304  0.37692  1.0000
  H   H284      1.0  0.42276  0.02613  0.38805  1.0000
  C   C163      1.0  0.37927  0.13348  0.65254  1.0000
  H   H285      1.0  0.21949  0.03594  0.59524  1.0000
  H   H286      1.0  0.42488  0.00956  0.37474  1.0000
  C   C164      1.0  0.28464  0.04326  0.45970  1.0000
  H   H287      1.0  0.30376  0.03884  0.56249  1.0000
  H   H288      1.0  0.40198  0.06676  0.54640  1.0000
  H   H289      1.0  0.38033  0.99712  0.44776  1.0000
  H   H290      1.0  0.38838  0.02423  0.49284  1.0000
  H   H291      1.0  0.28617  0.13767  0.54834  1.0000
  C   C165      1.0  0.38136  0.04106  0.36340  1.0000
  H   H292      1.0  0.26205  0.12642  0.52908  1.0000
  H   H293      1.0  0.23161  0.01093  0.54849  1.0000
  H   H294      1.0  0.26910  0.17041  0.52113  1.0000
  H   H295      1.0  0.23634  0.17344  0.50395  1.0000
  H   H296      1.0  0.19382  0.02068  0.51806  1.0000
  H   H297      1.0  0.22988  0.12535  0.55897  1.0000
  C   C166      1.0  0.37442  0.03329  0.49290  1.0000
  H   H298      1.0  0.42672  0.05408  0.35110  1.0000
  C   C167      1.0  0.27281  0.02082  0.53137  1.0000
  H   H299      1.0  0.31237  0.03300  0.46432  1.0000
  C   C168      1.0  0.21597  0.01524  0.47410  1.0000
  C   C169      1.0  0.46494  0.00147  0.34645  1.0000
  H   H300      1.0  0.26616  0.00080  0.64274  1.0000
  H   H301      1.0  0.02508  0.21020  0.51372  1.0000
  S   S37       1.0  0.27147  0.99218  0.50111  1.0000
  C   C170      1.0  0.34015  0.09654  0.40296  1.0000
  C   C171      1.0  0.18713  0.04148  0.49510  1.0000
  H   H302      1.0  0.34054  0.09969  0.38801  1.0000
  H   H303      1.0  0.36590  0.03039  0.61201  1.0000
  H   H304      1.0  0.17329  0.06912  0.49867  1.0000
  S   S38       1.0  0.25842  0.01351  0.60624  1.0000
  H   H305      1.0  0.02941  0.17768  0.51379  1.0000
  H   H306      1.0  0.36673  0.16863  0.63732  1.0000
  H   H307      1.0  0.21274  0.99859  0.53200  1.0000
  H   H308      1.0  0.37206  0.03758  0.47871  1.0000
  H   H309      1.0  0.03021  0.18023  0.53597  1.0000
  H   H310      1.0  0.45001  0.00475  0.34937  1.0000
  H   H311      1.0  0.29507  0.01913  0.54491  1.0000
  H   H312      1.0  0.28405  0.03591  0.58096  1.0000
  H   H313      1.0  0.25056  0.99961  0.43799  1.0000
  C   C172      1.0  0.27614  0.04108  0.64104  1.0000
  H   H314      1.0  0.32307  0.00948  0.57486  1.0000
  H   H315      1.0  0.41578  0.00336  0.41690  1.0000
  C   C173      1.0  0.22980  0.00038  0.57738  1.0000
  H   H316      1.0  0.35006  0.00768  0.58434  1.0000
  H   H317      1.0  0.45143  0.04254  0.32434  1.0000
  C   C174      1.0  0.28727  0.00992  0.54315  1.0000
  H   H318      1.0  0.37019  0.12643  0.64932  1.0000
  C   C175      1.0  0.34524  0.00214  0.59926  1.0000
  C   C176      1.0  0.23873  0.00959  0.44424  1.0000
  H   H319      1.0  0.41846  0.05482  0.32242  1.0000
  C   C177      1.0  0.44520  0.99567  0.46539  1.0000
  C   C178      1.0  0.47485  0.99183  0.33266  1.0000
  H   H320      1.0  0.21645  0.01004  0.58102  1.0000
  H   H321      1.0  0.19551  0.99643  0.56730  1.0000
  H   H322      1.0  0.32273  0.16664  0.62617  1.0000
  H   H323      1.0  0.48796  0.02208  0.62404  1.0000
  S   S39       1.0  0.00159  0.18803  0.57601  1.0000
  C   C179      1.0  0.40569  0.10543  0.65040  1.0000
  H   H324      1.0  0.10569  0.99176  0.59554  1.0000
  H   H325      1.0  0.35066  0.04107  0.64993  1.0000
  H   H326      1.0  0.28069  0.00301  0.55695  1.0000
  C   C180      1.0  0.30135  0.99522  0.53382  1.0000
  H   H327      1.0  0.48074  0.99284  0.39160  1.0000
  H   H328      1.0  0.35601  0.98963  0.60264  1.0000
  H   H329      1.0  0.22955  0.02074  0.64896  1.0000
  C   C181      1.0  0.44331  0.99059  0.43501  1.0000
  N   N10       1.0  0.20849  0.04580  0.64869  1.0000
  H   H330      1.0  0.24555  0.07696  0.64965  1.0000
  C   C182      1.0  0.99874  0.20753  0.50914  1.0000
  C   C183      1.0  0.00765  0.23602  0.49078  1.0000
  H   H331      1.0  0.16608  0.98965  0.48292  1.0000
  H   H332      1.0  0.34256  0.99211  0.40255  1.0000
  C   C184      1.0  0.44395  0.99178  0.40280  1.0000
  C   C185      1.0  0.17504  0.99000  0.55740  1.0000
  H   H333      1.0  0.45407  0.99233  0.47548  1.0000
  H   H334      1.0  0.10916  0.98959  0.55557  1.0000
  H   H335      1.0  0.08862  0.99046  0.57360  1.0000
  C   C186      1.0  0.17789  0.07063  0.64991  1.0000
  H   H336      1.0  0.43192  0.99148  0.47259  1.0000
  S   S40       1.0  0.28884  0.04980  0.65081  1.0000
  C   C187      1.0  0.48162  0.98794  0.40623  1.0000
  C   C188      1.0  0.49419  0.98773  0.32879  1.0000
  H   H337      1.0  0.12720  0.98922  0.57859  1.0000
  H   H338      1.0  0.46854  0.98961  0.44368  1.0000
  H   H339      1.0  0.42875  0.98997  0.44225  1.0000
  H   H340      1.0  0.31165  0.98770  0.54235  1.0000
  S   S41       1.0  0.37585  0.98727  0.37441  1.0000
  C   C189      1.0  0.21472  0.98758  0.52463  1.0000
  Fe  Fe20      1.0  0.39869  0.10831  0.72008  1.0000
  S   S42       1.0  0.36988  0.11490  0.73709  1.0000
  S   S43       1.0  0.41103  0.13175  0.70181  1.0000
  Fe  Fe21      1.0  0.40149  0.06768  0.73284  1.0000
  S   S44       1.0  0.37325  0.07107  0.75113  1.0000
  S   S45       1.0  0.41582  0.03866  0.73157  1.0000
  Fe  Fe22      1.0  0.36481  0.09246  0.72726  1.0000
  S   S46       1.0  0.33798  0.09385  0.71975  1.0000
  Fe  Fe23      1.0  0.38141  0.09284  0.75912  1.0000
  S   S47       1.0  0.37352  0.09434  0.78902  1.0000
  S   S48       1.0  0.39274  0.08776  0.70835  1.0000
  S   S49       1.0  0.41055  0.08768  0.74280  1.0000
  Fe  Fe24      1.0  0.47421  0.08240  0.84646  1.0000
  C   C190      1.0  0.39658  0.14366  0.74876  1.0000
  H   H341      1.0  0.44470  0.11673  0.97274  1.0000
  H   H342      1.0  0.46970  0.05887  0.75382  1.0000
  H   H343      1.0  0.20147  0.02331  0.68601  1.0000
  C   C191      1.0  0.45859  0.99793  0.74449  1.0000
  H   H344      1.0  0.47204  0.05947  0.72100  1.0000
  Fe  Fe25      1.0  0.47908  0.11941  0.82357  1.0000
  C   C192      1.0  0.35540  0.14011  0.67971  1.0000
  H   H345      1.0  0.49290  0.09764  0.92064  1.0000
  H   H346      1.0  0.44528  0.99356  0.74781  1.0000
  H   H347      1.0  0.46531  0.03449  0.67764  1.0000
  H   H348      1.0  0.47198  0.08992  0.69193  1.0000
  H   H349      1.0  0.44149  0.14772  0.80303  1.0000
  S   S50       1.0  0.44888  0.09407  0.86593  1.0000
  H   H350      1.0  0.49664  0.13886  0.71015  1.0000
  H   H351      1.0  0.43103  0.13371  0.78389  1.0000
  S   S51       1.0  0.45394  0.13388  0.84088  1.0000
  H   H352      1.0  0.35055  0.02512  0.81773  1.0000
  Fe  Fe26      1.0  0.46450  0.11503  0.86504  1.0000
  S   S52       1.0  0.46024  0.12794  0.88958  1.0000
  Fe  Fe27      1.0  0.44062  0.11205  0.84018  1.0000
  S   S53       1.0  0.41095  0.12067  0.83733  1.0000
  H   H353      1.0  0.37282  0.02103  0.76803  1.0000
  S   S54       1.0  0.46488  0.09913  0.82079  1.0000
  C   C193      1.0  0.39277  0.11807  0.66290  1.0000
  H   H354      1.0  0.36641  0.09256  0.65478  1.0000
  H   H355      1.0  0.38402  0.05466  0.84833  1.0000
  C   C194      1.0  0.43163  0.13479  0.74178  1.0000
  C   C195      1.0  0.15715  0.07339  0.65836  1.0000
  H   H356      1.0  0.46590  0.99541  0.85453  1.0000
  C   C196      1.0  0.38815  0.00154  0.73144  1.0000
  H   H357      1.0  0.43005  0.12599  0.73332  1.0000
  C   C197      1.0  0.18831  0.05119  0.65765  1.0000
  S   S55       1.0  0.48041  0.19200  0.94540  1.0000
  C   C198      1.0  0.46230  0.00543  0.66738  1.0000
  C   C199      1.0  0.44936  0.10782  0.75940  1.0000
  H   H358      1.0  0.42616  0.06124  0.90825  1.0000
  C   C200      1.0  0.34197  0.15353  0.69154  1.0000
  H   H359      1.0  0.39594  0.13310  0.74196  1.0000
  C   C201      1.0  0.46968  0.03957  0.84834  1.0000
  H   H360      1.0  0.47910  0.07288  0.78369  1.0000
  C   C202      1.0  0.46197  0.01020  0.85202  1.0000
  C   C203      1.0  0.44383  0.01913  0.85058  1.0000
  C   C204      1.0  0.43891  0.03829  0.84723  1.0000
  C   C205      1.0  0.45179  0.04852  0.84597  1.0000
  C   C206      1.0  0.44332  0.99760  0.69811  1.0000
  H   H361      1.0  0.40220  0.98980  0.66893  1.0000
  H   H362      1.0  0.42500  0.04519  0.84577  1.0000
  H   H363      1.0  0.44778  0.06328  0.84362  1.0000
  H   H364      1.0  0.48492  0.12852  0.93261  1.0000
  C   C207      1.0  0.44542  0.13559  0.77974  1.0000
  C   C208      1.0  0.45468  0.03874  0.75357  1.0000
  H   H365      1.0  0.32191  0.04518  0.83084  1.0000
  H   H366      1.0  0.45762  0.19567  0.84488  1.0000
  C   C209      1.0  0.47483  0.02041  0.85104  1.0000
  C   C210      1.0  0.46375  0.10343  0.68780  1.0000
  H   H367      1.0  0.40154  0.12347  0.66840  1.0000
  C   C211      1.0  0.38835  0.18232  0.67685  1.0000
  C   C212      1.0  0.48038  0.11986  0.94624  1.0000
  H   H368      1.0  0.40527  0.07247  0.85204  1.0000
  H   H369      1.0  0.39676  0.15680  0.73856  1.0000
  C   C213      1.0  0.44249  0.13833  0.67690  1.0000
  C   C214      1.0  0.47647  0.13797  0.89347  1.0000
  C   C215      1.0  0.32897  0.14381  0.70750  1.0000
  S   S56       1.0  0.49363  0.13867  0.80070  1.0000
  H   H370      1.0  0.45558  0.14689  0.70868  1.0000
  H   H371      1.0  0.45785  0.08709  0.79348  1.0000
  H   H372      1.0  0.47562  0.10545  0.76699  1.0000
  N   N11       1.0  0.35381  0.99797  0.79810  1.0000
  H   H373      1.0  0.44690  0.15388  0.75285  1.0000
  H   H374      1.0  0.30835  0.11670  0.66718  1.0000
  H   H375      1.0  0.46793  0.13858  0.75642  1.0000
  H   H376      1.0  0.41358  0.14846  0.76375  1.0000
  C   C216      1.0  0.44612  0.04170  0.89394  1.0000
  H   H377      1.0  0.46506  0.15661  0.96733  1.0000
  H   H378      1.0  0.42438  0.03172  0.69157  1.0000
  H   H379      1.0  0.43144  0.05993  0.69628  1.0000
  C   C217      1.0  0.46647  0.14348  0.71669  1.0000
  H   H380      1.0  0.44015  0.17399  0.84301  1.0000
  H   H381      1.0  0.44494  0.06745  0.75653  1.0000
  C   C218      1.0  0.33789  0.09723  0.69635  1.0000
  C   C219      1.0  0.35406  0.09210  0.68350  1.0000
  C   C220      1.0  0.39508  0.02257  0.77864  1.0000
  H   H382      1.0  0.36677  0.08516  0.68800  1.0000
  C   C221      1.0  0.44600  0.15122  0.78782  1.0000
  C   C222      1.0  0.39932  0.02851  0.72896  1.0000
  C   C223      1.0  0.38431  0.03939  0.72151  1.0000
  C   C224      1.0  0.37150  0.03135  0.71865  1.0000
  C   C225      1.0  0.37363  0.01235  0.72318  1.0000
  C   C226      1.0  0.31485  0.01727  0.69815  1.0000
  C   C227      1.0  0.40107  0.00958  0.73424  1.0000
  H   H383      1.0  0.38264  0.05402  0.71756  1.0000
  H   H384      1.0  0.36023  0.03995  0.71257  1.0000
  H   H385      1.0  0.15114  0.06370  0.65481  1.0000
  H   H386      1.0  0.33345  0.01233  0.83136  1.0000
  H   H387      1.0  0.40477  0.01197  0.77137  1.0000
  C   C228      1.0  0.44488  0.10794  0.69619  1.0000
  H   H388      1.0  0.32453  0.01012  0.80434  1.0000
  C   C229      1.0  0.46542  0.08130  0.78127  1.0000
  H   H389      1.0  0.47802  0.15593  0.85739  1.0000
  H   H390      1.0  0.43846  0.09796  0.70678  1.0000
  H   H391      1.0  0.43461  0.99245  0.66678  1.0000
  C   C230      1.0  0.38561  0.10359  0.79929  1.0000
  C   C231      1.0  0.40470  0.09729  0.79859  1.0000
  C   C232      1.0  0.41300  0.10266  0.80988  1.0000
  C   C233      1.0  0.40224  0.11451  0.82159  1.0000
  C   C234      1.0  0.38340  0.12113  0.82171  1.0000
  C   C235      1.0  0.37512  0.11555  0.81084  1.0000
  H   H392      1.0  0.41280  0.08761  0.79010  1.0000
  H   H393      1.0  0.42747  0.09724  0.81002  1.0000
  H   H394      1.0  0.37497  0.13018  0.83077  1.0000
  H   H395      1.0  0.36035  0.12017  0.81175  1.0000
  H   H396      1.0  0.35209  0.00548  0.76945  1.0000
  H   H397      1.0  0.36512  0.04804  0.94247  1.0000
  H   H398      1.0  0.46742  0.14365  0.65732  1.0000
  H   H399      1.0  0.49347  0.09307  0.96137  1.0000
  H   H400      1.0  0.48557  0.15449  0.69247  1.0000
  C   C236      1.0  0.47012  0.15395  0.90062  1.0000
  H   H401      1.0  0.32243  0.01286  0.70938  1.0000
  C   C237      1.0  0.32102  0.10953  0.67172  1.0000
  H   H402      1.0  0.44423  0.06488  0.67278  1.0000
  N   N12       1.0  0.45228  0.02870  0.77342  1.0000
  C   C238      1.0  0.43433  0.12547  0.69091  1.0000
  H   H403      1.0  0.31397  0.98935  0.69942  1.0000
  H   H404      1.0  0.43866  0.10791  0.77233  1.0000
  H   H405      1.0  0.44266  0.03915  0.74811  1.0000
  C   C239      1.0  0.38047  0.06981  0.84616  1.0000
  C   C240      1.0  0.46942  0.11998  0.98005  1.0000
  N   N13       1.0  0.31048  0.05179  0.69726  1.0000
  C   C241      1.0  0.32040  0.04829  0.71259  1.0000
  C   C242      1.0  0.32369  0.05547  0.67874  1.0000
  C   C243      1.0  0.29521  0.06872  0.69892  1.0000
  C   C244      1.0  0.30169  0.03623  0.69873  1.0000
  H   H406      1.0  0.43522  0.01214  0.77069  1.0000
  C   C245      1.0  0.30868  0.04528  0.73251  1.0000
  C   C246      1.0  0.28454  0.07614  0.68314  1.0000
  C   C247      1.0  0.34450  0.04599  0.67758  1.0000
  H   H407      1.0  0.41975  0.04002  0.91174  1.0000
  H   H408      1.0  0.46101  0.08140  0.72663  1.0000
  C   C248      1.0  0.32089  0.04100  0.74638  1.0000
  C   C249      1.0  0.27131  0.09456  0.68504  1.0000
  H   H409      1.0  0.32703  0.05992  0.71074  1.0000
  H   H410      1.0  0.33177  0.03602  0.71208  1.0000
  H   H411      1.0  0.31896  0.05201  0.66799  1.0000
  H   H412      1.0  0.32368  0.07035  0.67409  1.0000
  H   H413      1.0  0.30091  0.07995  0.70001  1.0000
  H   H414      1.0  0.28450  0.06619  0.71173  1.0000
  H   H415      1.0  0.29054  0.03488  0.71137  1.0000
  H   H416      1.0  0.29461  0.03921  0.68723  1.0000
  C   C250      1.0  0.45521  0.10884  0.98082  1.0000
  H   H417      1.0  0.33320  0.16475  0.68340  1.0000
  H   H418      1.0  0.29795  0.05775  0.73501  1.0000
  H   H419      1.0  0.30194  0.03362  0.73538  1.0000
  H   H420      1.0  0.27607  0.06657  0.68351  1.0000
  H   H421      1.0  0.29401  0.07815  0.66945  1.0000
  H   H422      1.0  0.35062  0.05248  0.68489  1.0000
  H   H423      1.0  0.32031  0.13793  0.70233  1.0000
  H   H424      1.0  0.43169  0.14852  0.73262  1.0000
  H   H425      1.0  0.34659  0.03118  0.68381  1.0000
  C   C251      1.0  0.47453  0.01073  0.79559  1.0000
  C   C252      1.0  0.35379  0.09612  0.66474  1.0000
  H   H426      1.0  0.41238  0.12481  0.76731  1.0000
  H   H427      1.0  0.42393  0.06645  0.87374  1.0000
  H   H428      1.0  0.32764  0.05255  0.74432  1.0000
  H   H429      1.0  0.31234  0.03887  0.76058  1.0000
  H   H430      1.0  0.33180  0.02839  0.74482  1.0000
  H   H431      1.0  0.26376  0.09942  0.67370  1.0000
  H   H432      1.0  0.26103  0.09322  0.69833  1.0000
  H   H433      1.0  0.27909  0.10493  0.68420  1.0000
  H   H434      1.0  0.31967  0.15370  0.71586  1.0000
  N   N14       1.0  0.39585  0.07016  0.89012  1.0000
  C   C253      1.0  0.38608  0.06449  0.90983  1.0000
  C   C254      1.0  0.39611  0.09023  0.88602  1.0000
  C   C255      1.0  0.38449  0.06795  0.87807  1.0000
  C   C256      1.0  0.41523  0.05863  0.88553  1.0000
  H   H435      1.0  0.46829  0.04000  0.78475  1.0000
  C   C257      1.0  0.33733  0.10507  0.65879  1.0000
  C   C258      1.0  0.39010  0.07624  0.85727  1.0000
  C   C259      1.0  0.40411  0.09662  0.89887  1.0000
  C   C260      1.0  0.40302  0.11725  0.89315  1.0000
  C   C261      1.0  0.37219  0.00268  0.79547  1.0000
  H   H436      1.0  0.38503  0.07552  0.83132  1.0000
  H   H437      1.0  0.37279  0.07455  0.91303  1.0000
  H   H438      1.0  0.38423  0.14877  0.68113  1.0000
  H   H439      1.0  0.40433  0.09435  0.87190  1.0000
  H   H440      1.0  0.38180  0.09872  0.88613  1.0000
  H   H441      1.0  0.36959  0.07429  0.88268  1.0000
  H   H442      1.0  0.38515  0.05318  0.87932  1.0000
  H   H443      1.0  0.41506  0.04650  0.88059  1.0000
  C   C262      1.0  0.40952  0.00749  0.68202  1.0000
  H   H444      1.0  0.45984  0.18337  0.86767  1.0000
  H   H445      1.0  0.47870  0.12025  0.73529  1.0000
  H   H446      1.0  0.38424  0.19718  0.67682  1.0000
  H   H447      1.0  0.38581  0.09140  0.85476  1.0000
  H   H448      1.0  0.39637  0.09375  0.91333  1.0000
  H   H449      1.0  0.41888  0.08996  0.89803  1.0000
  H   H450      1.0  0.41075  0.12098  0.87874  1.0000
  H   H451      1.0  0.38840  0.12493  0.89432  1.0000
  H   H452      1.0  0.40933  0.12148  0.90218  1.0000
  H   H453      1.0  0.30877  0.10959  0.70035  1.0000
  H   H454      1.0  0.45339  0.03573  0.90545  1.0000
  H   H455      1.0  0.46259  0.00874  0.80708  1.0000
  H   H456      1.0  0.45727  0.07246  0.77963  1.0000
  H   H457      1.0  0.36522  0.07460  0.85013  1.0000
  C   C263      1.0  0.45952  0.06712  0.72904  1.0000
  H   H458      1.0  0.46029  0.15350  0.78430  1.0000
  H   H459      1.0  0.48868  0.01343  0.85276  1.0000
  H   H460      1.0  0.22365  0.02918  0.68068  1.0000
  C   C264      1.0  0.45722  0.05860  0.74950  1.0000
  N   N15       1.0  0.44959  0.12696  0.74819  1.0000
  C   C265      1.0  0.38137  0.04531  0.91501  1.0000
  H   H461      1.0  0.36375  0.12979  0.68906  1.0000
  C   C266      1.0  0.45283  0.13933  0.75855  1.0000
  C   C267      1.0  0.45155  0.03643  0.68707  1.0000
  C   C268      1.0  0.32132  0.10560  0.69045  1.0000
  C   C269      1.0  0.32252  0.03990  0.81867  1.0000
  C   C270      1.0  0.43755  0.02941  0.68113  1.0000
  C   C271      1.0  0.46506  0.12548  0.73130  1.0000
  C   C272      1.0  0.44874  0.01034  0.77424  1.0000
  C   C273      1.0  0.43529  0.03961  0.78412  1.0000
  C   C274      1.0  0.42858  0.03112  0.80462  1.0000
  C   C275      1.0  0.41070  0.04326  0.81312  1.0000
  C   C276      1.0  0.42965  0.00614  0.67051  1.0000
  H   H462      1.0  0.47797  0.08638  0.94027  1.0000
  H   H463      1.0  0.48730  0.13032  0.69594  1.0000
  H   H464      1.0  0.43758  0.05302  0.78421  1.0000
  H   H465      1.0  0.42347  0.04271  0.77728  1.0000
  H   H466      1.0  0.42575  0.01742  0.80664  1.0000
  H   H467      1.0  0.43895  0.03019  0.81244  1.0000
  H   H468      1.0  0.41330  0.05649  0.81346  1.0000
  H   H469      1.0  0.39978  0.04596  0.80530  1.0000
  H   H470      1.0  0.40556  0.03626  0.82743  1.0000
  H   H471      1.0  0.43654  0.16403  0.78256  1.0000
  C   C277      1.0  0.41376  0.13757  0.75692  1.0000
  H   H472      1.0  0.46952  0.98820  0.73702  1.0000
  C   C278      1.0  0.47187  0.11630  0.67374  1.0000
  C   C279      1.0  0.46807  0.09662  0.76429  1.0000
  H   H473      1.0  0.45557  0.16051  0.90262  1.0000
  C   C280      1.0  0.21534  0.02580  0.65671  1.0000
  H   H474      1.0  0.45528  0.06143  0.69148  1.0000
  C   C281      1.0  0.44515  0.05691  0.68687  1.0000
  H   H475      1.0  0.38395  0.14550  0.75989  1.0000
  H   H476      1.0  0.21394  0.05977  0.66676  1.0000
  C   C282      1.0  0.47711  0.16846  0.84626  1.0000
  H   H477      1.0  0.38477  0.10958  0.67450  1.0000
  H   H478      1.0  0.44515  0.09982  0.75191  1.0000
  H   H479      1.0  0.46380  0.11533  0.72418  1.0000
  H   H480      1.0  0.32607  0.05044  0.80613  1.0000
  H   H481      1.0  0.45413  0.12298  0.78635  1.0000
  C   C283      1.0  0.48961  0.01312  0.80350  1.0000
  C   C284      1.0  0.46390  0.99804  0.76214  1.0000
  H   H482      1.0  0.42472  0.17285  0.94501  1.0000
  H   H483      1.0  0.45316  0.02913  0.70119  1.0000
  H   H484      1.0  0.44731  0.06708  0.72410  1.0000
  H   H485      1.0  0.32478  0.01760  0.68469  1.0000
  H   H486      1.0  0.46697  0.11765  0.94566  1.0000
  H   H487      1.0  0.27811  0.01530  0.66042  1.0000
  C   C285      1.0  0.46940  0.02733  0.78010  1.0000
  H   H488      1.0  0.38280  0.00517  0.67997  1.0000
  H   H489      1.0  0.47136  0.19816  0.81565  1.0000
  C   C286      1.0  0.37689  0.03829  0.93582  1.0000
  H   H490      1.0  0.46704  0.03143  0.74494  1.0000
  H   H491      1.0  0.15452  0.07136  0.67354  1.0000
  H   H492      1.0  0.37469  0.00319  0.80880  1.0000
  C   C287      1.0  0.44751  0.15130  0.95338  1.0000
  H   H493      1.0  0.46485  0.15508  0.72316  1.0000
  H   H494      1.0  0.40347  0.02131  0.68511  1.0000
  C   C288      1.0  0.21988  0.05667  0.65282  1.0000
  H   H495      1.0  0.29619  0.00632  0.68945  1.0000
  H   H496      1.0  0.47745  0.00183  0.75872  1.0000
  H   H497      1.0  0.39871  0.02096  0.79198  1.0000
  H   H498      1.0  0.45350  0.05195  0.88391  1.0000
  C   C289      1.0  0.42604  0.05071  0.90121  1.0000
  C   C290      1.0  0.48515  0.14162  0.70302  1.0000
  N   N16       1.0  0.36788  0.14848  0.66260  1.0000
  H   H499      1.0  0.42952  0.18470  0.86242  1.0000
  H   H500      1.0  0.29441  0.00110  0.71405  1.0000
  H   H501      1.0  0.36106  0.18098  0.67642  1.0000
  H   H502      1.0  0.43029  0.00191  0.70791  1.0000
  H   H503      1.0  0.46575  0.99119  0.66523  1.0000
  C   C291      1.0  0.33718  0.02207  0.81824  1.0000
  H   H504      1.0  0.44767  0.14397  0.94289  1.0000
  H   H505      1.0  0.36903  0.04610  0.90982  1.0000
  H   H506      1.0  0.33811  0.02525  0.78917  1.0000
  H   H507      1.0  0.40284  0.17918  0.66890  1.0000
  H   H508      1.0  0.47986  0.99798  0.79018  1.0000
  N   N17       1.0  0.47818  0.12974  0.96128  1.0000
  H   H509      1.0  0.41459  0.09415  0.65844  1.0000
  C   C292      1.0  0.49529  0.12960  0.89099  1.0000
  H   H510      1.0  0.38916  0.03637  0.94158  1.0000
  H   H511      1.0  0.43436  0.15190  0.67278  1.0000
  H   H512      1.0  0.22302  0.08993  0.65902  1.0000
  H   H513      1.0  0.44723  0.17723  0.93332  1.0000
  N   N18       1.0  0.44319  0.00967  0.67926  1.0000
  H   H514      1.0  0.38772  0.17461  0.69130  1.0000
  H   H515      1.0  0.48187  0.02666  0.76863  1.0000
  C   C293      1.0  0.43890  0.17148  0.94677  1.0000
  S   S57       1.0  0.42659  0.00690  0.85413  1.0000
  H   H516      1.0  0.20667  0.01725  0.65517  1.0000
  H   H517      1.0  0.43797  0.17961  0.95691  1.0000
  H   H518      1.0  0.30866  0.03761  0.81960  1.0000
  S   S58       1.0  0.35833  0.00249  0.71788  1.0000
  C   C294      1.0  0.48242  0.16141  0.90539  1.0000
  H   H519      1.0  0.37300  0.02487  0.93901  1.0000
  H   H520      1.0  0.34863  0.17439  0.65598  1.0000
  H   H521      1.0  0.48456  0.02521  0.81001  1.0000
  H   H522      1.0  0.21722  0.99179  0.68118  1.0000
  H   H523      1.0  0.44678  0.03054  0.88721  1.0000
  H   H524      1.0  0.39423  0.06487  0.91945  1.0000
  H   H525      1.0  0.43441  0.03866  0.66811  1.0000
  C   C295      1.0  0.38112  0.15659  0.66761  1.0000
  H   H526      1.0  0.46236  0.09638  0.97521  1.0000
  H   H527      1.0  0.18666  0.05041  0.67254  1.0000
  H   H528      1.0  0.47283  0.00572  0.67452  1.0000
  C   C296      1.0  0.37526  0.02069  0.78159  1.0000
  H   H529      1.0  0.36592  0.03279  0.78673  1.0000
  H   H530      1.0  0.39293  0.03509  0.90881  1.0000
  H   H531      1.0  0.45718  0.01157  0.73512  1.0000
  H   H532      1.0  0.18293  0.08103  0.65337  1.0000
  H   H533      1.0  0.41247  0.00114  0.74037  1.0000
  C   C297      1.0  0.46713  0.14902  0.95639  1.0000
  H   H534      1.0  0.45442  0.99934  0.70371  1.0000
  C   C298      1.0  0.21573  0.02097  0.67746  1.0000
  H   H535      1.0  0.47454  0.16411  0.83477  1.0000
  C   C299      1.0  0.45928  0.18190  0.85396  1.0000
  H   H536      1.0  0.31619  0.00123  0.65660  1.0000
  H   H537      1.0  0.38362  0.99160  0.79062  1.0000
  H   H538      1.0  0.34728  0.13223  0.67627  1.0000
  H   H539      1.0  0.49668  0.10579  0.78734  1.0000
  C   C300      1.0  0.49454  0.10123  0.94709  1.0000
  H   H540      1.0  0.44250  0.16142  0.86598  1.0000
  H   H541      1.0  0.39665  0.03627  0.77018  1.0000
  H   H542      1.0  0.44700  0.00210  0.78844  1.0000
  H   H543      1.0  0.18067  0.04120  0.65708  1.0000
  C   C301      1.0  0.39717  0.00387  0.67161  1.0000
  H   H544      1.0  0.47695  0.09036  0.75260  1.0000
  C   C302      1.0  0.37530  0.17720  0.66833  1.0000
  C   C303      1.0  0.49178  0.08992  0.93511  1.0000
  H   H545      1.0  0.47736  0.17372  0.91087  1.0000
  H   H546      1.0  0.43829  0.14641  0.96655  1.0000
  H   H547      1.0  0.34991  0.15928  0.69768  1.0000
  C   C304      1.0  0.46116  0.13367  0.66815  1.0000
  H   H548      1.0  0.47505  0.15659  0.94368  1.0000
  Fe  Fe28      1.0  0.48002  0.22067  0.92930  1.0000
  C   C305      1.0  0.44185  0.17501  0.85645  1.0000
  H   H549      1.0  0.33699  0.13272  0.71653  1.0000
  S   S59       1.0  0.48536  0.05200  0.84901  1.0000
  C   C306      1.0  0.33800  0.01401  0.80167  1.0000
  H   H550      1.0  0.48315  0.20035  0.85018  1.0000
  H   H551      1.0  0.49337  0.00081  0.81417  1.0000
  C   C307      1.0  0.30411  0.00268  0.70042  1.0000
  H   H552      1.0  0.39476  0.15514  0.65765  1.0000
  H   H553      1.0  0.40895  0.99729  0.69518  1.0000
  H   H554      1.0  0.32370  0.99182  0.78763  1.0000
  S   S60       1.0  0.49541  0.11105  0.66316  1.0000
  H   H555      1.0  0.49231  0.15736  0.97010  1.0000
  C   C308      1.0  0.35557  0.04811  0.65777  1.0000
  S   S61       1.0  0.49076  0.10171  0.84773  1.0000
  H   H556      1.0  0.23419  0.04837  0.65317  1.0000
  H   H557      1.0  0.33318  0.99467  0.75426  1.0000
  H   H558      1.0  0.33388  0.14912  0.65403  1.0000
  S   S62       1.0  0.49470  0.22803  0.94658  1.0000
  C   C309      1.0  0.22490  0.00088  0.68340  1.0000
  H   H559      1.0  0.49559  0.04740  0.69730  1.0000
  C   C310      1.0  0.48524  0.20096  0.81348  1.0000
  H   H560      1.0  0.37041  0.04187  0.65760  1.0000
  C   C311      1.0  0.35327  0.99306  0.78071  1.0000
  H   H561      1.0  0.48420  0.21179  0.82076  1.0000
  H   H562      1.0  0.23944  0.99797  0.67553  1.0000
  H   H563      1.0  0.22507  0.99769  0.69823  1.0000
  H   H564      1.0  0.48126  0.22105  0.78846  1.0000
  H   H565      1.0  0.42879  0.01610  0.65726  1.0000
  H   H566      1.0  0.39699  0.01389  0.65834  1.0000
  C   C312      1.0  0.49471  0.18823  0.85165  1.0000
  N   N19       1.0  0.49510  0.17501  0.84032  1.0000
  H   H567      1.0  0.49232  0.19823  0.78489  1.0000
  C   C313      1.0  0.49144  0.20846  0.79290  1.0000
  H   H568      1.0  0.49195  0.18154  0.86654  1.0000
  H   H569      1.0  0.99882  0.23717  0.71363  1.0000
  C   C314      1.0  0.31487  0.98744  0.65635  1.0000
  H   H570      1.0  0.37596  0.18567  0.65417  1.0000
  H   H571      1.0  0.15010  0.08755  0.65279  1.0000
  S   S63       1.0  0.45498  0.23720  0.91845  1.0000
  Fe  Fe29      1.0  0.45920  0.32282  0.09229  1.0000
  C   C315      1.0  0.49086  0.25950  0.00398  1.0000
  S   S64       1.0  0.44356  0.30017  0.10437  1.0000
  Fe  Fe30      1.0  0.45621  0.36404  0.07650  1.0000
  S   S65       1.0  0.48681  0.36134  0.07132  1.0000
  S   S66       1.0  0.44112  0.39231  0.06528  1.0000
  N   N20       1.0  0.45770  0.24224  0.04919  1.0000
  H   H572      1.0  0.17572  0.48300  0.15120  1.0000
  Fe  Fe31      1.0  0.48449  0.34255  0.09902  1.0000
  H   H573      1.0  0.35793  0.42772  0.01841  1.0000
  S   S67       1.0  0.45844  0.34041  0.06423  1.0000
  S   S68       1.0  0.45355  0.34709  0.10519  1.0000
  Fe  Fe32      1.0  0.34828  0.45007  0.08685  1.0000
  C   C316      1.0  0.42030  0.36221  0.02854  1.0000
  S   S69       1.0  0.35564  0.41920  0.09471  1.0000
  H   H574      1.0  0.39307  0.32808  0.10619  1.0000
  C   C317      1.0  0.38228  0.44871  0.01295  1.0000
  H   H575      1.0  0.39285  0.45330  0.03403  1.0000
  C   C318      1.0  0.42293  0.28007  0.07403  1.0000
  S   S70       1.0  0.32392  0.46476  0.07423  1.0000
  S   S71       1.0  0.34110  0.46774  0.10755  1.0000
  H   H576      1.0  0.37440  0.37724  0.07146  1.0000
  H   H577      1.0  0.40989  0.36331  0.06728  1.0000
  H   H578      1.0  0.22161  0.38819  0.04905  1.0000
  C   C319      1.0  0.37904  0.41042  0.08587  1.0000
  C   C320      1.0  0.38809  0.41936  0.06901  1.0000
  C   C321      1.0  0.40709  0.41330  0.06259  1.0000
  C   C322      1.0  0.41711  0.39817  0.07295  1.0000
  C   C323      1.0  0.40800  0.38861  0.08944  1.0000
  C   C324      1.0  0.38889  0.39473  0.09587  1.0000
  H   H579      1.0  0.38038  0.43089  0.06086  1.0000
  H   H580      1.0  0.41409  0.42054  0.04970  1.0000
  H   H581      1.0  0.41573  0.37686  0.09744  1.0000
  H   H582      1.0  0.38186  0.38768  0.10887  1.0000
  H   H583      1.0  0.16607  0.48116  0.05787  1.0000
  S   S72       1.0  0.38511  0.37169  0.98819  1.0000
  H   H584      1.0  0.41159  0.29167  0.07011  1.0000
  H   H585      1.0  0.38793  0.32051  0.02440  1.0000
  H   H586      1.0  0.28459  0.47504  0.08723  1.0000
  H   H587      1.0  0.37174  0.42871  0.11841  1.0000
  C   C325      1.0  0.40742  0.32852  0.03475  1.0000
  C   C326      1.0  0.49088  0.32206  0.02685  1.0000
  C   C327      1.0  0.39292  0.45891  0.01926  1.0000
  H   H588      1.0  0.38900  0.35391  0.02578  1.0000
  H   H589      1.0  0.38925  0.43408  0.01576  1.0000
  C   C328      1.0  0.43132  0.26949  0.05861  1.0000
  C   C329      1.0  0.44419  0.26379  0.11221  1.0000
  C   C330      1.0  0.45490  0.27702  0.10483  1.0000
  C   C331      1.0  0.47397  0.27147  0.09792  1.0000
  C   C332      1.0  0.48218  0.25274  0.09845  1.0000
  H   H590      1.0  0.42949  0.26794  0.11761  1.0000
  H   H591      1.0  0.48237  0.28155  0.09214  1.0000
  H   H592      1.0  0.14463  0.48005  0.09794  1.0000
  C   C333      1.0  0.47037  0.25405  0.03610  1.0000
  H   H593      1.0  0.35359  0.39884  0.04102  1.0000
  H   H594      1.0  0.41317  0.24401  0.02691  1.0000
  S   S73       1.0  0.36770  0.46649  0.06657  1.0000
  H   H595      1.0  0.38140  0.34633  0.07820  1.0000
  H   H596      1.0  0.01691  0.44270  0.24357  1.0000
  C   C334      1.0  0.46953  0.30204  0.03406  1.0000
  C   C335      1.0  0.15294  0.48392  0.06805  1.0000
  H   H597      1.0  0.46238  0.29214  0.04392  1.0000
  C   C336      1.0  0.24599  0.45821  0.01873  1.0000
  C   C337      1.0  0.39634  0.34031  0.07702  1.0000
  H   H598      1.0  0.43764  0.41653  0.08882  1.0000
  H   H599      1.0  0.43337  0.37243  0.04446  1.0000
  H   H600      1.0  0.24397  0.40482  0.02696  1.0000
  C   C338      1.0  0.43975  0.25107  0.02267  1.0000
  H   H601      1.0  0.40753  0.45707  0.01148  1.0000
  H   H602      1.0  0.44307  0.46327  0.13771  1.0000
  H   H603      1.0  0.43814  0.24312  0.07540  1.0000
  H   H604      1.0  0.47705  0.39978  0.09976  1.0000
  C   C339      1.0  0.42430  0.46403  0.12082  1.0000
  H   H605      1.0  0.41621  0.32228  0.04500  1.0000
  H   H606      1.0  0.01235  0.48205  0.31642  1.0000
  H   H607      1.0  0.21840  0.43766  0.04300  1.0000
  H   H608      1.0  0.17826  0.46763  0.01754  1.0000
  H   H609      1.0  0.14409  0.47513  0.06731  1.0000
  H   H610      1.0  0.16421  0.46307  0.08957  1.0000
  H   H611      1.0  0.45877  0.35991  0.02065  1.0000
  H   H612      1.0  0.40582  0.42380  0.10316  1.0000
  C   C340      1.0  0.23600  0.46983  0.03356  1.0000
  H   H613      1.0  0.44883  0.37686  0.00280  1.0000
  H   H614      1.0  0.46284  0.38796  0.09414  1.0000
  C   C341      1.0  0.25641  0.48588  0.08419  1.0000
  C   C342      1.0  0.39442  0.34698  0.03844  1.0000
  H   H615      1.0  0.38708  0.45480  0.10994  1.0000
  H   H616      1.0  0.24235  0.42906  0.04157  1.0000
  C   C343      1.0  0.38150  0.45650  0.99247  1.0000
  H   H617      1.0  0.45085  0.40974  0.12472  1.0000
  H   H618      1.0  0.38211  0.34392  0.04910  1.0000
  C   C344      1.0  0.37510  0.43333  0.12918  1.0000
  H   H619      1.0  0.27575  0.43668  0.99680  1.0000
  H   H620      1.0  0.43360  0.28577  0.07637  1.0000
  H   H621      1.0  0.38698  0.41782  0.99864  1.0000
  H   H622      1.0  0.41243  0.46466  0.09284  1.0000
  H   H623      1.0  0.44693  0.44145  0.11668  1.0000
  H   H624      1.0  0.02305  0.45262  0.29261  1.0000
  H   H625      1.0  0.25004  0.46788  0.00555  1.0000
  H   H626      1.0  0.01896  0.46474  0.22918  1.0000
  H   H627      1.0  0.01908  0.46153  0.26976  1.0000
  C   C345      1.0  0.46596  0.30866  0.01641  1.0000
  C   C346      1.0  0.40873  0.35198  0.06172  1.0000
  H   H628      1.0  0.21381  0.48294  0.18156  1.0000
  H   H629      1.0  0.23034  0.40006  0.06069  1.0000
  H   H630      1.0  0.00869  0.43715  0.21421  1.0000
  C   C347      1.0  0.23136  0.43196  0.03371  1.0000
  C   C348      1.0  0.47696  0.29940  0.14207  1.0000
  H   H631      1.0  0.43714  0.27909  0.04643  1.0000
  H   H632      1.0  0.19956  0.43823  0.02053  1.0000
  H   H633      1.0  0.26725  0.42024  0.01605  1.0000
  C   C349      1.0  0.46528  0.39280  0.10530  1.0000
  H   H634      1.0  0.36501  0.40884  0.05213  1.0000
  C   C350      1.0  0.01219  0.45896  0.28451  1.0000
  S   S74       1.0  0.48989  0.31710  0.08814  1.0000
  H   H635      1.0  0.47331  0.29070  0.13494  1.0000
  H   H636      1.0  0.46786  0.29868  0.15603  1.0000
  H   H637      1.0  0.45519  0.25604  0.07083  1.0000
  H   H638      1.0  0.43050  0.34894  0.02809  1.0000
  C   C351      1.0  0.41872  0.44888  0.07242  1.0000
  H   H639      1.0  0.40526  0.44470  0.07683  1.0000
  H   H640      1.0  0.38681  0.38373  0.02920  1.0000
  H   H641      1.0  0.45178  0.25247  0.01100  1.0000
  C   C352      1.0  0.40892  0.42972  0.11325  1.0000
  C   C353      1.0  0.43110  0.37552  0.03038  1.0000
  C   C354      1.0  0.35833  0.39741  0.05372  1.0000
  H   H642      1.0  0.22890  0.46172  0.04633  1.0000
  H   H643      1.0  0.45399  0.42800  0.09039  1.0000
  H   H644      1.0  0.49316  0.33985  0.00007  1.0000
  H   H645      1.0  0.42349  0.38995  0.02716  1.0000
  H   H646      1.0  0.29002  0.47240  0.03106  1.0000
  H   H647      1.0  0.41404  0.46250  0.04517  1.0000
  H   H648      1.0  0.32793  0.41820  0.02545  1.0000
  C   C355      1.0  0.42598  0.24493  0.01605  1.0000
  C   C356      1.0  0.35182  0.42790  0.00702  1.0000
  H   H649      1.0  0.38752  0.31127  0.04866  1.0000
  C   C357      1.0  0.47485  0.32198  0.00403  1.0000
  H   H650      1.0  0.41721  0.27111  0.08698  1.0000
  H   H651      1.0  0.41129  0.41806  0.12497  1.0000
  C   C358      1.0  0.21740  0.45809  0.01129  1.0000
  H   H652      1.0  0.45732  0.38377  0.01879  1.0000
  C   C359      1.0  0.39008  0.37808  0.04310  1.0000
  H   H653      1.0  0.37853  0.42132  0.14025  1.0000
  C   C360      1.0  0.03885  0.44233  0.21925  1.0000
  N   N21       1.0  0.40319  0.35957  0.04342  1.0000
  C   C361      1.0  0.00048  0.44506  0.28731  1.0000
  H   H654      1.0  0.37142  0.46990  0.99217  1.0000
  C   C362      1.0  0.39654  0.31478  0.03488  1.0000
  H   H655      1.0  0.42278  0.34291  0.05993  1.0000
  C   C363      1.0  0.39119  0.44301  0.12090  1.0000
  H   H656      1.0  0.38637  0.47374  0.01739  1.0000
  H   H657      1.0  0.42955  0.43799  0.06653  1.0000
  C   C364      1.0  0.23002  0.41292  0.03197  1.0000
  C   C365      1.0  0.45013  0.37388  0.01729  1.0000
  H   H658      1.0  0.39325  0.44791  0.13219  1.0000
  H   H659      1.0  0.36268  0.44291  0.13516  1.0000
  H   H660      1.0  0.34604  0.39834  0.06532  1.0000
  C   C366      1.0  0.37165  0.37892  0.05767  1.0000
  C   C367      1.0  0.44161  0.42236  0.09839  1.0000
  H   H661      1.0  0.41661  0.36718  0.01484  1.0000
  H   H662      1.0  0.39621  0.35126  0.10016  1.0000
  H   H663      1.0  0.22562  0.48166  0.02817  1.0000
  H   H664      1.0  0.43644  0.45848  0.08329  1.0000
  H   H665      1.0  0.39663  0.38802  0.04550  1.0000
  C   C368      1.0  0.47127  0.23965  0.10564  1.0000
  H   H666      1.0  0.39899  0.32648  0.07415  1.0000
  H   H667      1.0  0.41988  0.26549  0.05562  1.0000
  H   H668      1.0  0.42753  0.43492  0.13326  1.0000
  C   C369      1.0  0.44781  0.40564  0.11343  1.0000
  H   H669      1.0  0.46227  0.26687  0.02930  1.0000
  H   H670      1.0  0.41670  0.33081  0.02093  1.0000
  C   C370      1.0  0.40061  0.33796  0.09576  1.0000
  H   H671      1.0  0.36442  0.36833  0.05805  1.0000
  H   H672      1.0  0.47426  0.31383  0.13438  1.0000
  H   H673      1.0  0.43322  0.26486  0.02554  1.0000
  Fe  Fe33      1.0  0.34288  0.48262  0.05526  1.0000
  C   C371      1.0  0.48196  0.30876  0.03927  1.0000
  H   H674      1.0  0.46910  0.38069  0.11614  1.0000
  H   H675      1.0  0.43694  0.39755  0.11940  1.0000
  H   H676      1.0  0.41566  0.33270  0.09516  1.0000
  H   H677      1.0  0.40636  0.30207  0.03149  1.0000
  N   N22       1.0  0.42604  0.43744  0.10506  1.0000
  C   C372      1.0  0.42358  0.45306  0.08875  1.0000
  C   C373      1.0  0.43157  0.44357  0.11939  1.0000
  S   S75       1.0  0.44982  0.30096  0.01006  1.0000
  H   H678      1.0  0.18906  0.47427  0.99363  1.0000
  H   H679      1.0  0.20742  0.40895  0.05587  1.0000
  H   H680      1.0  0.22148  0.41389  0.02224  1.0000
  H   H681      1.0  0.49543  0.27000  0.00784  1.0000
  C   C374      1.0  0.22184  0.40191  0.05057  1.0000
  H   H682      1.0  0.43028  0.47064  0.05197  1.0000
  C   C375      1.0  0.45229  0.24524  0.11252  1.0000
  C   C376      1.0  0.35632  0.44339  0.99019  1.0000
  H   H683      1.0  0.47905  0.26647  0.99720  1.0000
  H   H684      1.0  0.36800  0.45050  0.02159  1.0000
  H   H685      1.0  0.00822  0.41654  0.24396  1.0000
  H   H686      1.0  0.17356  0.48037  0.12105  1.0000
  C   C377      1.0  0.42802  0.46733  0.13791  1.0000
  C   C378      1.0  0.30143  0.47767  0.02150  1.0000
  H   H687      1.0  0.47799  0.25859  0.04377  1.0000
  H   H688      1.0  0.00891  0.43333  0.28098  1.0000
  H   H689      1.0  0.09658  0.48038  0.30001  1.0000
  C   C379      1.0  0.18594  0.46247  0.00490  1.0000
  C   C380      1.0  0.27390  0.41218  0.99017  1.0000
  H   H690      1.0  0.04913  0.44341  0.22630  1.0000
  H   H691      1.0  0.20937  0.46552  0.02241  1.0000
  C   C381      1.0  0.20374  0.44859  0.00818  1.0000
  H   H692      1.0  0.47237  0.32702  0.99030  1.0000
  H   H693      1.0  0.32404  0.43081  0.00311  1.0000
  S   S76       1.0  0.49664  0.34511  0.12117  1.0000
  C   C382      1.0  0.44605  0.25218  0.06424  1.0000
  H   H694      1.0  0.41851  0.39914  0.99555  1.0000
  C   C383      1.0  0.00447  0.45007  0.21923  1.0000
  H   H695      1.0  0.26558  0.40151  0.99529  1.0000
  C   C384      1.0  0.41710  0.46585  0.05688  1.0000
  H   H696      1.0  0.35727  0.41438  0.00308  1.0000
  C   C385      1.0  0.33092  0.43006  0.01424  1.0000
  C   C386      1.0  0.26642  0.42691  0.00163  1.0000
  H   H697      1.0  0.40927  0.46888  0.12136  1.0000
  N   N23       1.0  0.23518  0.44598  0.01605  1.0000
  H   H698      1.0  0.19500  0.47138  0.18784  1.0000
  H   H699      1.0  0.22054  0.46873  0.99863  1.0000
  H   H700      1.0  0.43152  0.47281  0.10865  1.0000
  H   H701      1.0  0.14712  0.48235  0.00581  1.0000
  H   H702      1.0  0.00545  0.46107  0.20650  1.0000
  H   H703      1.0  0.32502  0.44268  0.01983  1.0000
  H   H704      1.0  0.25926  0.45002  0.02250  1.0000
  C   C387      1.0  0.48699  0.32894  0.00938  1.0000
  H   H705      1.0  0.48441  0.30390  0.05304  1.0000
  H   H706      1.0  0.03485  0.48280  0.26832  1.0000
  H   H707      1.0  0.08743  0.47689  0.27297  1.0000
  H   H708      1.0  0.04035  0.42765  0.21948  1.0000
  H   H709      1.0  0.42043  0.45945  0.15056  1.0000
  C   C388      1.0  0.01936  0.45038  0.22910  1.0000
  C   C389      1.0  0.24957  0.47759  0.03866  1.0000
  H   H710      1.0  0.04188  0.44995  0.20477  1.0000
  H   H711      1.0  0.42220  0.25504  0.00372  1.0000
  Fe  Fe34      1.0  0.48889  0.33650  0.06110  1.0000
  H   H712      1.0  0.23924  0.42838  0.99708  1.0000
  C   C390      1.0  0.15745  0.47785  0.08709  1.0000
  H   H713      1.0  0.28848  0.40561  0.99103  1.0000
  C   C391      1.0  0.48510  0.24509  0.02098  1.0000
  H   H714      1.0  0.25681  0.47609  0.07643  1.0000
  H   H715      1.0  0.42316  0.48211  0.13825  1.0000
  H   H716      1.0  0.25907  0.46644  0.04613  1.0000
  C   C392      1.0  0.00001  0.47687  0.29043  1.0000
  C   C393      1.0  0.30341  0.47983  0.00261  1.0000
  H   H717      1.0  0.03222  0.47403  0.30045  1.0000
  H   H718      1.0  0.17694  0.45584  0.00104  1.0000
  H   H719      1.0  0.20983  0.44216  0.99607  1.0000
  C   C394      1.0  0.24644  0.43750  0.99991  1.0000
  H   H720      1.0  0.34777  0.45650  0.99379  1.0000
  H   H721      1.0  0.05106  0.48134  0.31806  1.0000
  C   C395      1.0  0.31443  0.48199  0.02817  1.0000
  H   H722      1.0  0.40574  0.47709  0.06157  1.0000
  C   C396      1.0  0.19860  0.48458  0.18668  1.0000
  H   H723      1.0  0.35203  0.33545  0.98594  1.0000
  Fe  Fe35      1.0  0.31834  0.48408  0.09304  1.0000
  H   H724      1.0  0.03823  0.48396  0.23613  1.0000
  H   H725      1.0  0.31259  0.48051  0.04270  1.0000
  S   S77       1.0  0.28716  0.47375  0.99482  1.0000
  H   H726      1.0  0.15205  0.47841  0.13748  1.0000
  H   H727      1.0  0.24779  0.44828  0.98702  1.0000
  Fe  Fe36      1.0  0.35861  0.48540  0.08611  1.0000
  C   C397      1.0  0.02105  0.48637  0.30261  1.0000
  H   H728      1.0  0.25778  0.48486  0.02613  1.0000
  C   C398      1.0  0.27219  0.48535  0.09021  1.0000
  H   H729      1.0  0.34795  0.39256  0.98777  1.0000
  H   H730      1.0  0.16711  0.48568  0.08804  1.0000
  C   C399      1.0  0.31810  0.48694  0.99037  1.0000
  H   H731      1.0  0.04457  0.27724  0.56364  1.0000
  Fe  Fe37      1.0  0.04958  0.35138  0.64966  1.0000
  H   H732      1.0  0.12226  0.26293  0.56212  1.0000
  H   H733      1.0  0.10338  0.25960  0.58190  1.0000
  H   H734      1.0  0.03504  0.28402  0.53469  1.0000
  H   H735      1.0  0.11783  0.34407  0.54106  1.0000
  H   H736      1.0  0.00217  0.30699  0.63677  1.0000
  Fe  Fe38      1.0  0.03540  0.37979  0.49084  1.0000
  S   S78       1.0  0.05406  0.39852  0.47384  1.0000
  H   H737      1.0  0.11574  0.29380  0.56836  1.0000
  Fe  Fe39      1.0  0.06716  0.34632  0.49314  1.0000
  S   S79       1.0  0.08820  0.36248  0.47549  1.0000
  S   S80       1.0  0.07756  0.31708  0.50682  1.0000
  Fe  Fe40      1.0  0.07298  0.38318  0.49301  1.0000
  S   S81       1.0  0.08872  0.39688  0.50393  1.0000
  Fe  Fe41      1.0  0.06702  0.37605  0.45826  1.0000
  S   S82       1.0  0.06888  0.38225  0.42781  1.0000
  S   S83       1.0  0.05305  0.36644  0.51143  1.0000
  S   S84       1.0  0.04737  0.35799  0.47432  1.0000
  C   C400      1.0  0.08664  0.40977  0.64943  1.0000
  S   S85       1.0  0.04253  0.37835  0.63062  1.0000
  H   H738      1.0  0.06608  0.31500  0.57559  1.0000
  Fe  Fe42      1.0  0.05429  0.32944  0.62084  1.0000
  S   S86       1.0  0.04721  0.35441  0.59934  1.0000
  H   H739      1.0  0.12039  0.41320  0.40977  1.0000
  Fe  Fe43      1.0  0.06511  0.36623  0.60911  1.0000
  S   S87       1.0  0.08530  0.38240  0.58945  1.0000
  Fe  Fe44      1.0  0.02515  0.36463  0.62222  1.0000
  H   H740      1.0  0.11803  0.35183  0.57397  1.0000
  S   S88       1.0  0.07416  0.34042  0.62903  1.0000
  H   H741      1.0  0.00831  0.44758  0.63923  1.0000
  C   C401      1.0  0.08716  0.39246  0.52783  1.0000
  C   C402      1.0  0.10166  0.39470  0.53404  1.0000
  C   C403      1.0  0.10090  0.39155  0.55292  1.0000
  C   C404      1.0  0.08556  0.38630  0.56583  1.0000
  C   C405      1.0  0.07083  0.38444  0.55966  1.0000
  C   C406      1.0  0.07169  0.38734  0.54069  1.0000
  H   H742      1.0  0.11358  0.39879  0.52419  1.0000
  H   H743      1.0  0.11227  0.39319  0.55751  1.0000
  H   H744      1.0  0.05858  0.38120  0.56941  1.0000
  H   H745      1.0  0.06022  0.38605  0.53604  1.0000
  H   H746      1.0  0.05747  0.29238  0.54662  1.0000
  H   H747      1.0  0.12674  0.32145  0.56531  1.0000
  H   H748      1.0  0.03658  0.33572  0.57186  1.0000
  H   H749      1.0  0.12298  0.37764  0.59428  1.0000
  C   C407      1.0  0.03052  0.46120  0.36127  1.0000
  H   H750      1.0  0.01191  0.35462  0.59565  1.0000
  C   C408      1.0  0.03291  0.29997  0.60670  1.0000
  C   C409      1.0  0.05789  0.27312  0.60521  1.0000
  C   C410      1.0  0.04667  0.26411  0.60097  1.0000
  H   H751      1.0  0.07188  0.26611  0.60641  1.0000
  H   H752      1.0  0.13001  0.33560  0.51055  1.0000
  C   C411      1.0  0.05332  0.27029  0.50544  1.0000
  C   C412      1.0  0.04732  0.28790  0.49534  1.0000
  C   C413      1.0  0.05501  0.30243  0.49510  1.0000
  C   C414      1.0  0.06904  0.29920  0.50459  1.0000
  C   C415      1.0  0.07590  0.28134  0.51351  1.0000
  C   C416      1.0  0.06802  0.26696  0.51400  1.0000
  H   H753      1.0  0.03616  0.29049  0.48845  1.0000
  H   H754      1.0  0.04979  0.31615  0.48802  1.0000
  H   H755      1.0  0.08689  0.27872  0.52067  1.0000
  H   H756      1.0  0.07310  0.25334  0.52136  1.0000
  C   C417      1.0  0.10054  0.29715  0.56930  1.0000
  C   C418      1.0  0.02156  0.29084  0.60273  1.0000
  H   H757      1.0  0.09868  0.31852  0.53208  1.0000
  H   H758      1.0  0.10664  0.43540  0.43168  1.0000
  H   H759      1.0  0.09233  0.34307  0.56809  1.0000
  C   C419      1.0  0.02838  0.27282  0.60004  1.0000
  H   H760      1.0  0.02758  0.31381  0.60888  1.0000
  H   H761      1.0  0.11920  0.31266  0.54019  1.0000
  H   H762      1.0  0.06888  0.44598  0.46446  1.0000
  S   S89       1.0  0.06501  0.30099  0.61527  1.0000
  C   C420      1.0  0.04289  0.34136  0.55739  1.0000
  H   H763      1.0  0.11638  0.39313  0.46803  1.0000
  H   H764      1.0  0.13712  0.39706  0.61563  1.0000
  H   H765      1.0  0.09844  0.39046  0.61949  1.0000
  H   H766      1.0  0.06337  0.46793  0.45030  1.0000
  H   H767      1.0  0.07402  0.45289  0.42220  1.0000
  H   H768      1.0  0.03136  0.30799  0.53289  1.0000
  C   C421      1.0  0.07371  0.32028  0.56150  1.0000
  H   H769      1.0  0.04090  0.46151  0.43734  1.0000
  H   H770      1.0  0.06918  0.34473  0.54021  1.0000
  C   C422      1.0  0.09741  0.42952  0.39779  1.0000
  C   C423      1.0  0.07963  0.43033  0.39591  1.0000
  C   C424      1.0  0.07100  0.41562  0.40490  1.0000
  C   C425      1.0  0.07990  0.40037  0.41621  1.0000
  C   C426      1.0  0.09766  0.39955  0.41802  1.0000
  C   C427      1.0  0.10654  0.41396  0.40853  1.0000
  H   H771      1.0  0.07252  0.44229  0.38760  1.0000
  H   H772      1.0  0.05730  0.41622  0.40336  1.0000
  H   H773      1.0  0.10466  0.38761  0.42648  1.0000
  H   H774      1.0  0.01788  0.42853  0.43491  1.0000
  C   C428      1.0  0.04354  0.29128  0.55516  1.0000
  H   H775      1.0  0.08407  0.37603  0.64902  1.0000
  H   H776      1.0  0.09661  0.46595  0.41774  1.0000
  C   C429      1.0  0.10710  0.26391  0.56668  1.0000
  H   H777      1.0  0.02858  0.39217  0.42125  1.0000
  S   S90       1.0  0.07345  0.47594  0.35466  1.0000
  H   H778      1.0  0.02504  0.26577  0.47647  1.0000
  H   H779      1.0  0.05204  0.25026  0.59879  1.0000
  H   H780      1.0  0.06412  0.40144  0.64319  1.0000
  H   H781      1.0  0.14519  0.38345  0.58881  1.0000
  S   S91       1.0  0.04080  0.25326  0.50951  1.0000
  H   H782      1.0  0.11722  0.48567  0.39609  1.0000
  H   H783      1.0  0.03425  0.24979  0.46139  1.0000
  H   H784      1.0  0.13250  0.33507  0.58817  1.0000
  S   S92       1.0  0.01371  0.26131  0.59597  1.0000
  H   H785      1.0  0.02243  0.34021  0.46290  1.0000
  C   C430      1.0  0.02693  0.33763  0.44875  1.0000
  H   H786      1.0  0.08318  0.47506  0.49616  1.0000
  S   S93       1.0  0.03027  0.33842  0.64294  1.0000
  C   C431      1.0  0.09475  0.46206  0.46367  1.0000
  H   H787      1.0  0.10955  0.46143  0.46289  1.0000
  S   S94       1.0  0.00687  0.44056  0.33347  1.0000
  H   H788      1.0  0.08624  0.32589  0.58716  1.0000
  H   H789      1.0  0.10541  0.41104  0.61724  1.0000
  H   H790      1.0  0.12078  0.44043  0.44324  1.0000
  H   H791      1.0  0.10797  0.34159  0.59721  1.0000
  C   C432      1.0  0.07315  0.45437  0.45050  1.0000
  S   S95       1.0  0.10796  0.44824  0.38784  1.0000
  H   H792      1.0  0.09513  0.35194  0.53673  1.0000
  C   C433      1.0  0.01015  0.29409  0.55375  1.0000
  H   H793      1.0  0.06492  0.34950  0.56269  1.0000
  C   C434      1.0  0.00484  0.25209  0.47406  1.0000
  C   C435      1.0  0.03453  0.43044  0.58644  1.0000
  C   C436      1.0  0.09616  0.32814  0.57364  1.0000
  C   C437      1.0  0.10508  0.32167  0.54178  1.0000
  C   C438      1.0  0.10809  0.34155  0.53431  1.0000
  H   H794      1.0  0.07394  0.41833  0.62522  1.0000
  N   N24       1.0  0.09273  0.45655  0.44722  1.0000
  H   H795      1.0  0.01892  0.45150  0.60111  1.0000
  C   C439      1.0  0.11573  0.32368  0.57772  1.0000
  H   H796      1.0  0.10688  0.34284  0.50624  1.0000
  H   H797      1.0  0.08161  0.28319  0.56462  1.0000
  H   H798      1.0  0.00243  0.28645  0.49326  1.0000
  C   C440      1.0  0.13031  0.38771  0.59518  1.0000
  H   H799      1.0  0.12466  0.40139  0.58728  1.0000
  H   H800      1.0  0.11803  0.35932  0.50862  1.0000
  C   C441      1.0  0.06926  0.44577  0.43646  1.0000
  H   H801      1.0  0.09415  0.29392  0.58425  1.0000
  C   C442      1.0  0.11629  0.34496  0.51366  1.0000
  H   H802      1.0  0.06818  0.48165  0.46971  1.0000
  H   H803      1.0  0.03903  0.30134  0.56416  1.0000
  H   H804      1.0  0.13107  0.38489  0.64813  1.0000
  H   H805      1.0  0.10046  0.28716  0.54516  1.0000
  C   C443      1.0  0.09646  0.47093  0.42992  1.0000
  H   H806      1.0  0.09014  0.41885  0.46282  1.0000
  H   H807      1.0  0.07178  0.31254  0.55230  1.0000
  S   S96       1.0  0.05435  0.23981  0.55807  1.0000
  H   H808      1.0  0.05683  0.26743  0.64412  1.0000
  C   C444      1.0  0.11869  0.33901  0.58470  1.0000
  H   H809      1.0  0.03569  0.35590  0.55369  1.0000
  H   H810      1.0  0.04089  0.33371  0.54816  1.0000
  H   H811      1.0  0.03696  0.44034  0.57314  1.0000
  C   C445      1.0  0.03017  0.29488  0.54269  1.0000
  C   C446      1.0  0.10387  0.42200  0.46058  1.0000
  H   H812      1.0  0.01226  0.40950  0.38773  1.0000
  H   H813      1.0  0.04417  0.45945  0.36339  1.0000
  C   C447      1.0  0.00153  0.29961  0.52383  1.0000
  H   H814      1.0  0.08501  0.48337  0.42997  1.0000
  H   H815      1.0  0.04639  0.44087  0.42889  1.0000
  H   H816      1.0  0.00721  0.30009  0.56608  1.0000
  H   H817      1.0  0.99857  0.38494  0.37155  1.0000
  H   H818      1.0  0.02452  0.40764  0.65033  1.0000
  H   H819      1.0  0.03405  0.24954  0.64451  1.0000
  H   H820      1.0  0.10522  0.42434  0.47359  1.0000
  C   C448      1.0  0.10651  0.43888  0.44473  1.0000
  Fe  Fe45      1.0  0.08846  0.47347  0.37651  1.0000
  H   H821      1.0  0.09044  0.45210  0.47648  1.0000
  H   H822      1.0  0.02556  0.42410  0.62384  1.0000
  H   H823      1.0  0.04675  0.42732  0.59262  1.0000
  H   H824      1.0  0.01067  0.27921  0.55916  1.0000
  H   H825      1.0  0.12698  0.46522  0.42388  1.0000
  H   H826      1.0  0.04308  0.43946  0.45321  1.0000
  H   H827      1.0  0.03318  0.41763  0.58365  1.0000
  H   H828      1.0  0.00538  0.44162  0.59219  1.0000
  H   H829      1.0  0.03923  0.44120  0.34429  1.0000
  C   C449      1.0  0.06354  0.34010  0.55500  1.0000
  C   C450      1.0  0.11862  0.40499  0.45651  1.0000
  N   N25       1.0  0.09399  0.31722  0.56126  1.0000
  C   C451      1.0  0.00536  0.36716  0.43706  1.0000
  H   H830      1.0  0.11778  0.40160  0.44381  1.0000
  H   H831      1.0  0.01146  0.35671  0.49075  1.0000
  H   H832      1.0  0.03504  0.36321  0.43623  1.0000
  C   C452      1.0  0.01351  0.39787  0.42577  1.0000
  H   H833      1.0  0.11280  0.35697  0.63680  1.0000
  C   C453      1.0  0.12811  0.38825  0.61527  1.0000
  H   H834      1.0  0.11743  0.31095  0.58851  1.0000
  C   C454      1.0  0.02765  0.45069  0.35064  1.0000
  H   H835      1.0  0.13267  0.40713  0.45494  1.0000
  H   H836      1.0  0.10335  0.25438  0.56062  1.0000
  C   C455      1.0  0.10772  0.39625  0.62407  1.0000
  H   H837      1.0  0.00255  0.24710  0.46289  1.0000
  C   C456      1.0  0.04859  0.44701  0.43926  1.0000
  C   C457      1.0  0.09656  0.28341  0.56039  1.0000
  C   C458      1.0  0.05096  0.29091  0.60840  1.0000
  H   H838      1.0  0.07634  0.43112  0.43788  1.0000
  C   C459      1.0  0.08320  0.48117  0.46694  1.0000
  H   H839      1.0  0.05954  0.44135  0.64580  1.0000
  C   C460      1.0  0.11506  0.47695  0.42565  1.0000
  H   H840      1.0  0.00357  0.36294  0.53325  1.0000
  C   C461      1.0  0.06990  0.41370  0.64035  1.0000
  H   H841      1.0  0.01289  0.24079  0.50031  1.0000
  H   H842      1.0  0.09160  0.42275  0.64575  1.0000
  C   C462      1.0  0.00791  0.38259  0.40477  1.0000
  H   H843      1.0  0.00635  0.48118  0.62523  1.0000
  H   H844      1.0  0.01079  0.41135  0.41619  1.0000
  H   H845      1.0  0.00746  0.29773  0.60178  1.0000
  H   H846      1.0  0.01965  0.27169  0.45414  1.0000
  C   C463      1.0  0.00991  0.45256  0.34812  1.0000
  H   H847      1.0  0.01497  0.41148  0.61534  1.0000
  S   S97       1.0  0.01190  0.23914  0.55769  1.0000
  C   C464      1.0  0.01691  0.43859  0.59925  1.0000
  H   H848      1.0  0.01181  0.30795  0.51574  1.0000
  C   C465      1.0  0.00221  0.33459  0.53748  1.0000
  H   H849      1.0  0.02313  0.37727  0.40098  1.0000
  C   C466      1.0  0.02165  0.41535  0.44455  1.0000
  H   H850      1.0  0.01200  0.32982  0.54678  1.0000
  S   S98       1.0  0.00524  0.39289  0.49811  1.0000
  H   H851      1.0  0.03661  0.40941  0.44023  1.0000
  H   H852      1.0  0.00985  0.33439  0.52310  1.0000
  H   H853      1.0  0.13341  0.37423  0.62252  1.0000
  C   C467      1.0  0.01578  0.47404  0.36887  1.0000
  H   H854      1.0  0.04310  0.43252  0.64013  1.0000
  C   C468      1.0  0.05436  0.42884  0.64766  1.0000
  C   C469      1.0  0.02200  0.26030  0.46608  1.0000
  H   H855      1.0  0.01899  0.41810  0.45850  1.0000
  Fe  Fe46      1.0  0.02712  0.24037  0.57815  1.0000
  H   H856      1.0  0.04154  0.32983  0.44686  1.0000
  H   H857      1.0  0.02226  0.38750  0.36686  1.0000
  N   N26       1.0  0.10255  0.39406  0.64476  1.0000
  C   C470      1.0  0.00746  0.39427  0.37090  1.0000
  H   H858      1.0  0.00398  0.25069  0.64689  1.0000
  H   H859      1.0  0.10173  0.48568  0.48126  1.0000
  C   C471      1.0  0.01357  0.42522  0.61806  1.0000
  H   H860      1.0  0.01385  0.38947  0.45526  1.0000
  C   C472      1.0  0.02554  0.35568  0.43451  1.0000
  H   H861      1.0  0.03049  0.35214  0.42078  1.0000
  H   H862      1.0  0.00504  0.30985  0.48582  1.0000
  H   H863      1.0  0.02238  0.28158  0.64243  1.0000
  H   H864      1.0  0.12233  0.40876  0.64532  1.0000
  C   C473      1.0  0.01011  0.40212  0.44497  1.0000
  H   H865      1.0  0.00890  0.28504  0.52398  1.0000
  H   H866      1.0  0.00129  0.36846  0.45159  1.0000
  C   C474      1.0  0.08691  0.48545  0.48355  1.0000
  H   H867      1.0  0.01824  0.32918  0.44713  1.0000
  N   N27       1.0  0.00212  0.38564  0.42421  1.0000
  C   C475      1.0  0.99790  0.47541  0.36693  1.0000
  H   H868      1.0  0.99940  0.27277  0.63319  1.0000
  H   H869      1.0  0.00431  0.40667  0.36015  1.0000
  H   H870      1.0  0.11598  0.48295  0.43673  1.0000
  H   H871      1.0  0.00130  0.37196  0.40369  1.0000
  C   C476      1.0  0.00352  0.39972  0.38936  1.0000
  S   S99       1.0  0.06370  0.48690  0.39515  1.0000
  C   C477      1.0  0.11047  0.35853  0.65116  1.0000
  C   C478      1.0  0.99707  0.36325  0.49169  1.0000
  C   C479      1.0  0.11843  0.39532  0.65194  1.0000
  C   C480      1.0  0.99705  0.35687  0.59886  1.0000
  Fe  Fe47      1.0  0.41181  0.35424  0.97573  1.0000
  H   H872      1.0  0.19531  0.47584  0.88248  1.0000
  C   C481      1.0  0.22510  0.43801  0.95301  1.0000
  C   C482      1.0  0.38731  0.36570  0.90934  1.0000
  Fe  Fe48      1.0  0.42997  0.32769  0.95005  1.0000
  C   C483      1.0  0.20613  0.44585  0.95740  1.0000
  H   H873      1.0  0.10131  0.34245  0.67847  1.0000
  H   H874      1.0  0.16681  0.47820  0.92798  1.0000
  C   C484      1.0  0.00126  0.43260  0.82260  1.0000
  H   H875      1.0  0.05806  0.40207  0.69054  1.0000
  H   H876      1.0  0.38632  0.33274  0.90302  1.0000
  Fe  Fe49      1.0  0.05839  0.45411  0.73223  1.0000
  C   C485      1.0  0.05573  0.47649  0.78503  1.0000
  S   S100      1.0  0.04762  0.46657  0.75743  1.0000
  Fe  Fe50      1.0  0.07047  0.42014  0.71561  1.0000
  S   S101      1.0  0.07359  0.43625  0.68670  1.0000
  Fe  Fe51      1.0  0.08641  0.45369  0.69616  1.0000
  Fe  Fe52      1.0  0.04662  0.45397  0.69759  1.0000
  S   S102      1.0  0.02417  0.46223  0.68161  1.0000
  S   S103      1.0  0.08605  0.43574  0.72433  1.0000
  S   S104      1.0  0.04264  0.43686  0.72624  1.0000
  C   C486      1.0  0.00665  0.41562  0.70695  1.0000
  H   H877      1.0  0.00849  0.46450  0.81426  1.0000
  S   S105      1.0  0.47124  0.37082  0.93984  1.0000
  H   H878      1.0  0.00888  0.40525  0.80364  1.0000
  Fe  Fe53      1.0  0.45189  0.35220  0.95490  1.0000
  S   S106      1.0  0.09565  0.46048  0.81455  1.0000
  Fe  Fe54      1.0  0.28216  0.45517  0.94117  1.0000
  C   C487      1.0  0.36571  0.31686  0.91592  1.0000
  H   H879      1.0  0.38565  0.36861  0.89491  1.0000
  C   C488      1.0  0.23216  0.46743  0.94896  1.0000
  H   H880      1.0  0.06051  0.48356  0.80804  1.0000
  H   H881      1.0  0.24205  0.47590  0.94556  1.0000
  H   H882      1.0  0.09010  0.34141  0.66125  1.0000
  H   H883      1.0  0.99922  0.24566  0.67952  1.0000
  H   H884      1.0  0.48753  0.27595  0.91600  1.0000
  H   H885      1.0  0.14631  0.48124  0.78758  1.0000
  H   H886      1.0  0.12379  0.35818  0.65421  1.0000
  C   C489      1.0  0.49646  0.26071  0.88503  1.0000
  H   H887      1.0  0.02147  0.28098  0.66546  1.0000
  H   H888      1.0  0.37601  0.30384  0.91443  1.0000
  C   C490      1.0  0.45230  0.26632  0.93388  1.0000
  H   H889      1.0  0.11344  0.37887  0.68024  1.0000
  C   C491      1.0  0.15231  0.48151  0.85547  1.0000
  C   C492      1.0  0.11282  0.48349  0.73625  1.0000
  H   H890      1.0  0.27352  0.41829  0.97555  1.0000
  C   C493      1.0  0.06197  0.46504  0.77235  1.0000
  C   C494      1.0  0.36848  0.47963  0.93703  1.0000
  H   H891      1.0  0.48487  0.33092  0.92116  1.0000
  C   C495      1.0  0.08293  0.46264  0.79797  1.0000
  C   C496      1.0  0.08946  0.45136  0.78505  1.0000
  C   C497      1.0  0.07902  0.45255  0.77224  1.0000
  H   H892      1.0  0.38836  0.39454  0.90557  1.0000
  C   C498      1.0  0.41607  0.37896  0.89935  1.0000
  H   H893      1.0  0.10252  0.44154  0.78510  1.0000
  H   H894      1.0  0.08401  0.44364  0.76253  1.0000
  C   C499      1.0  0.42669  0.28962  0.91362  1.0000
  H   H895      1.0  0.13461  0.47381  0.76469  1.0000
  H   H896      1.0  0.03783  0.30534  0.69554  1.0000
  H   H897      1.0  0.39668  0.37950  0.92520  1.0000
  H   H898      1.0  0.35086  0.47169  0.96305  1.0000
  H   H899      1.0  0.39301  0.45598  0.95678  1.0000
  C   C500      1.0  0.46414  0.34434  0.90547  1.0000
  H   H900      1.0  0.03199  0.42475  0.70047  1.0000
  C   C501      1.0  0.44666  0.25984  0.92155  1.0000
  H   H901      1.0  0.39786  0.35264  0.91116  1.0000
  C   C502      1.0  0.43386  0.27154  0.91148  1.0000
  H   H902      1.0  0.46199  0.25729  0.94188  1.0000
  C   C503      1.0  0.43211  0.29610  0.92602  1.0000
  H   H903      1.0  0.18542  0.44863  0.89250  1.0000
  C   C504      1.0  0.37585  0.38937  0.97152  1.0000
  C   C505      1.0  0.38738  0.39592  0.95503  1.0000
  C   C506      1.0  0.38006  0.41037  0.94194  1.0000
  H   H904      1.0  0.02498  0.37442  0.73589  1.0000
  C   C507      1.0  0.35693  0.39748  0.97496  1.0000
  H   H905      1.0  0.40207  0.39038  0.95257  1.0000
  H   H906      1.0  0.38911  0.41548  0.92926  1.0000
  C   C508      1.0  0.13134  0.47812  0.94665  1.0000
  S   S107      1.0  0.42244  0.31880  0.92839  1.0000
  C   C509      1.0  0.05656  0.35857  0.69067  1.0000
  H   H907      1.0  0.18152  0.41743  0.92641  1.0000
  C   C510      1.0  0.48400  0.31239  0.90442  1.0000
  S   S108      1.0  0.45791  0.32196  0.95657  1.0000
  H   H908      1.0  0.41318  0.43025  0.96196  1.0000
  H   H909      1.0  0.42477  0.36538  0.90411  1.0000
  C   C511      1.0  0.32348  0.40186  0.92742  1.0000
  Fe  Fe55      1.0  0.29563  0.47091  0.96544  1.0000
  C   C512      1.0  0.06966  0.35917  0.71559  1.0000
  C   C513      1.0  0.01069  0.44570  0.68949  1.0000
  C   C514      1.0  0.01284  0.40723  0.77474  1.0000
  H   H910      1.0  0.42945  0.26658  0.90198  1.0000
  C   C515      1.0  0.02499  0.29997  0.69967  1.0000
  C   C516      1.0  0.99972  0.47126  0.78836  1.0000
  H   H911      1.0  0.34461  0.35136  0.95570  1.0000
  H   H912      1.0  0.33675  0.38165  0.94731  1.0000
  H   H913      1.0  0.30950  0.40242  0.93662  1.0000
  H   H914      1.0  0.32904  0.41301  0.92881  1.0000
  C   C517      1.0  0.16605  0.47481  0.86809  1.0000
  H   H915      1.0  0.19855  0.45094  0.91817  1.0000
  S   S109      1.0  0.31911  0.47943  0.94314  1.0000
  H   H916      1.0  0.00876  0.32441  0.68662  1.0000
  H   H917      1.0  0.32202  0.40428  0.91303  1.0000
  H   H918      1.0  0.17728  0.44756  0.93416  1.0000
  H   H919      1.0  0.00585  0.46905  0.77415  1.0000
  H   H920      1.0  0.48196  0.31462  0.89026  1.0000
  C   C518      1.0  0.03303  0.25484  0.65680  1.0000
  C   C519      1.0  0.49373  0.35937  0.93113  1.0000
  H   H921      1.0  0.01238  0.40232  0.71440  1.0000
  C   C520      1.0  0.13069  0.45363  0.72666  1.0000
  C   C521      1.0  0.35927  0.34587  0.95650  1.0000
  N   N28       1.0  0.99866  0.27245  0.66142  1.0000
  C   C522      1.0  0.23817  0.44880  0.94864  1.0000
  C   C523      1.0  0.10341  0.34191  0.66382  1.0000
  H   H922      1.0  0.38475  0.41801  0.97673  1.0000
  C   C524      1.0  0.34958  0.41196  0.96182  1.0000
  H   H923      1.0  0.38281  0.32621  0.92755  1.0000
  H   H924      1.0  0.46180  0.34621  0.89150  1.0000
  H   H925      1.0  0.14446  0.44619  0.72020  1.0000
  H   H926      1.0  0.12606  0.44544  0.74057  1.0000
  H   H927      1.0  0.12077  0.45503  0.71808  1.0000
  H   H928      1.0  0.02427  0.34764  0.72567  1.0000
  H   H929      1.0  0.33500  0.41806  0.96450  1.0000
  H   H930      1.0  0.04273  0.48632  0.78507  1.0000
  N   N29       1.0  0.01502  0.43882  0.80544  1.0000
  C   C525      1.0  0.01372  0.43273  0.78900  1.0000
  H   H931      1.0  0.09108  0.37573  0.66894  1.0000
  C   C526      1.0  0.03425  0.43025  0.80894  1.0000
  H   H932      1.0  0.16421  0.44594  0.90795  1.0000
  H   H933      1.0  0.02473  0.29026  0.71317  1.0000
  C   C527      1.0  0.01740  0.41175  0.79077  1.0000
  C   C528      1.0  0.03954  0.43695  0.82360  1.0000
  H   H934      1.0  0.36813  0.48290  0.96370  1.0000
  H   H935      1.0  0.37189  0.36951  0.94748  1.0000
  S   S110      1.0  0.42532  0.35803  0.94586  1.0000
  H   H936      1.0  0.99974  0.48473  0.70466  1.0000
  C   C529      1.0  0.05884  0.42664  0.82658  1.0000
  H   H937      1.0  0.02385  0.43801  0.77663  1.0000
  C   C530      1.0  0.20015  0.46460  0.95709  1.0000
  H   H938      1.0  0.19610  0.43746  0.96072  1.0000
  C   C531      1.0  0.99986  0.26412  0.69589  1.0000
  H   H939      1.0  0.04484  0.43278  0.79591  1.0000
  H   H940      1.0  0.03619  0.41514  0.81352  1.0000
  C   C532      1.0  0.13202  0.47248  0.72793  1.0000
  H   H941      1.0  0.22967  0.42357  0.95285  1.0000
  H   H942      1.0  0.01685  0.39221  0.77564  1.0000
  H   H943      1.0  0.35822  0.35600  0.90370  1.0000
  H   H944      1.0  0.03224  0.40543  0.79059  1.0000
  H   H945      1.0  0.20081  0.41888  0.93444  1.0000
  H   H946      1.0  0.02972  0.43477  0.83706  1.0000
  H   H947      1.0  0.03971  0.45171  0.81923  1.0000
  S   S111      1.0  0.41418  0.32419  0.97933  1.0000
  H   H948      1.0  0.17147  0.45992  0.86876  1.0000
  H   H949      1.0  0.00887  0.42163  0.66546  1.0000
  S   S112      1.0  0.07606  0.38936  0.72189  1.0000
  C   C533      1.0  0.17580  0.45298  0.90497  1.0000
  H   H950      1.0  0.02929  0.24435  0.66920  1.0000
  C   C534      1.0  0.37560  0.33135  0.91600  1.0000
  H   H951      1.0  0.14434  0.38659  0.67381  1.0000
  C   C535      1.0  0.40989  0.42491  0.97703  1.0000
  H   H952      1.0  0.38673  0.34899  0.94221  1.0000
  S   S113      1.0  0.43797  0.35110  0.98447  1.0000
  H   H953      1.0  0.06284  0.43257  0.83606  1.0000
  H   H954      1.0  0.05905  0.41194  0.83269  1.0000
  H   H955      1.0  0.06924  0.42785  0.81339  1.0000
  C   C536      1.0  0.39625  0.38066  0.91078  1.0000
  S   S114      1.0  0.35264  0.43635  0.92840  1.0000
  C   C537      1.0  0.37875  0.45369  0.96269  1.0000
  H   H956      1.0  0.32949  0.37272  0.93176  1.0000
  C   C538      1.0  0.06381  0.34952  0.70622  1.0000
  H   H957      1.0  0.01209  0.35973  0.75395  1.0000
  S   S115      1.0  0.30166  0.44274  0.96020  1.0000
  C   C539      1.0  0.05469  0.37756  0.68480  1.0000
  C   C540      1.0  0.01039  0.41014  0.65889  1.0000
  H   H958      1.0  0.42217  0.38969  0.90088  1.0000
  H   H959      1.0  0.06241  0.24379  0.65547  1.0000
  H   H960      1.0  0.10654  0.47426  0.74873  1.0000
  H   H961      1.0  0.34886  0.34745  0.92687  1.0000
  H   H962      1.0  0.99844  0.47537  0.90504  1.0000
  S   S116      1.0  0.26180  0.43864  0.94254  1.0000
  N   N30       1.0  0.36916  0.36363  0.92275  1.0000
  C   C541      1.0  0.36195  0.35011  0.91736  1.0000
  H   H963      1.0  0.36119  0.39250  0.92358  1.0000
  H   H964      1.0  0.13059  0.47436  0.92059  1.0000
  H   H965      1.0  0.02614  0.46304  0.79442  1.0000
  S   S117      1.0  0.30454  0.46204  0.91648  1.0000
  C   C542      1.0  0.09616  0.37647  0.65394  1.0000
  H   H966      1.0  0.44910  0.28941  0.94586  1.0000
  C   C543      1.0  0.21318  0.47536  0.95304  1.0000
  H   H967      1.0  0.02535  0.29247  0.68924  1.0000
  H   H968      1.0  0.01254  0.36832  0.71251  1.0000
  H   H969      1.0  0.37685  0.44448  0.95485  1.0000
  C   C544      1.0  0.11404  0.48419  0.67914  1.0000
  C   C545      1.0  0.01167  0.35882  0.72614  1.0000
  H   H970      1.0  0.41678  0.29855  0.90577  1.0000
  H   H971      1.0  0.35542  0.31426  0.92904  1.0000
  C   C546      1.0  0.01268  0.45937  0.80133  1.0000
  H   H972      1.0  0.35459  0.38702  0.90581  1.0000
  Fe  Fe56      1.0  0.32341  0.45214  0.93632  1.0000
  H   H973      1.0  0.35520  0.35859  0.97954  1.0000
  H   H974      1.0  0.36308  0.33165  0.95433  1.0000
  H   H975      1.0  0.20300  0.42079  0.91026  1.0000
  C   C547      1.0  0.11506  0.39297  0.67312  1.0000
  C   C548      1.0  0.35585  0.38207  0.92043  1.0000
  C   C549      1.0  0.48291  0.33168  0.90734  1.0000
  C   C550      1.0  0.44496  0.28448  0.93617  1.0000
  H   H976      1.0  0.41626  0.38073  0.88458  1.0000
  H   H977      1.0  0.07563  0.35192  0.72737  1.0000
  C   C551      1.0  0.37245  0.35744  0.94209  1.0000
  H   H978      1.0  0.04917  0.38465  0.67278  1.0000
  H   H979      1.0  0.00198  0.35755  0.69168  1.0000
  C   C552      1.0  0.01280  0.48494  0.84158  1.0000
  H   H980      1.0  0.14511  0.47113  0.89275  1.0000
  H   H981      1.0  0.36555  0.46999  0.93047  1.0000
  H   H982      1.0  0.05230  0.26120  0.66891  1.0000
  C   C553      1.0  0.18635  0.44494  0.92083  1.0000
  C   C554      1.0  0.00771  0.32703  0.71433  1.0000
  C   C555      1.0  0.14104  0.47105  0.92904  1.0000
  S   S118      1.0  0.11311  0.46171  0.67967  1.0000
  C   C556      1.0  0.06776  0.37813  0.70992  1.0000
  C   C557      1.0  0.36557  0.47256  0.95783  1.0000
  S   S119      1.0  0.04912  0.34549  0.67990  1.0000
  H   H983      1.0  0.49598  0.33852  0.95568  1.0000
  H   H984      1.0  0.01909  0.47070  0.84149  1.0000
  C   C558      1.0  0.05989  0.38740  0.69473  1.0000
  H   H985      1.0  0.46367  0.35794  0.90785  1.0000
  S   S120      1.0  0.17637  0.47443  0.96173  1.0000
  C   C559      1.0  0.01782  0.42837  0.69907  1.0000
  H   H986      1.0  0.00003  0.38076  0.74145  1.0000
  H   H987      1.0  0.00531  0.41757  0.82773  1.0000
  H   H988      1.0  0.37505  0.33967  0.97767  1.0000
  C   C560      1.0  0.01214  0.36906  0.74026  1.0000
  H   H989      1.0  0.14236  0.47049  0.73613  1.0000
  H   H990      1.0  0.14541  0.45597  0.93301  1.0000
  H   H991      1.0  0.02056  0.41395  0.76139  1.0000
  H   H992      1.0  0.06517  0.33488  0.71093  1.0000
  H   H993      1.0  0.49313  0.26093  0.87191  1.0000
  H   H994      1.0  0.17764  0.48188  0.86155  1.0000
  H   H995      1.0  0.45285  0.33864  0.91580  1.0000
  C   C561      1.0  0.15775  0.47995  0.91841  1.0000
  H   H996      1.0  0.35863  0.32132  0.90425  1.0000
  C   C562      1.0  0.42092  0.40515  0.98060  1.0000
  H   H997      1.0  0.01767  0.39154  0.68356  1.0000
  C   C563      1.0  0.36116  0.41840  0.94527  1.0000
  H   H998      1.0  0.10429  0.48563  0.72598  1.0000
  H   H999      1.0  0.00120  0.45445  0.74459  1.0000
  H   H1000     1.0  0.48153  0.28832  0.88497  1.0000
  H   H1001     1.0  0.00822  0.48193  0.73237  1.0000
  C   C564      1.0  0.13133  0.39630  0.67846  1.0000
  H   H1002     1.0  0.47175  0.30736  0.91386  1.0000
  H   H1003     1.0  0.01016  0.31746  0.72747  1.0000
  C   C565      1.0  0.33613  0.38322  0.93279  1.0000
  H   H1004     1.0  0.14036  0.47477  0.86127  1.0000
  H   H1005     1.0  0.02024  0.33278  0.70819  1.0000
  C   C566      1.0  0.19331  0.42423  0.92305  1.0000
  H   H1006     1.0  0.38290  0.48139  0.93101  1.0000
  H   H1007     1.0  0.11898  0.47219  0.95349  1.0000
  S   S121      1.0  0.05954  0.47310  0.70449  1.0000
  H   H1008     1.0  0.49027  0.29931  0.93586  1.0000
  C   C567      1.0  0.00789  0.31568  0.70066  1.0000
  H   H1009     1.0  0.12861  0.39427  0.69366  1.0000
  C   C568      1.0  0.36052  0.34486  0.97609  1.0000
  C   C569      1.0  0.01877  0.27341  0.65654  1.0000
  C   C570      1.0  0.18529  0.48231  0.89357  1.0000
  H   H1010     1.0  0.14074  0.47409  0.95631  1.0000
  H   H1011     1.0  0.01517  0.26138  0.69339  1.0000
  H   H1012     1.0  0.13301  0.41058  0.67238  1.0000
  H   H1013     1.0  0.10260  0.40273  0.67862  1.0000
  Fe  Fe57      1.0  0.08949  0.48541  0.82703  1.0000
  N   N31       1.0  0.16884  0.47346  0.90110  1.0000
  C   C571      1.0  0.06601  0.47519  0.79787  1.0000
  H   H1014     1.0  0.35064  0.44126  0.97933  1.0000
  H   H1015     1.0  0.19309  0.47998  0.90444  1.0000
  H   H1016     1.0  0.99997  0.43881  0.78550  1.0000
  H   H1017     1.0  0.12164  0.48340  0.79453  1.0000
  H   H1018     1.0  0.99782  0.25469  0.72529  1.0000
  H   H1019     1.0  0.48627  0.25454  0.89655  1.0000
  H   H1020     1.0  0.04848  0.42421  0.66251  1.0000
  H   H1021     1.0  0.01394  0.38062  0.66759  1.0000
  H   H1022     1.0  0.00143  0.43874  0.83394  1.0000
  H   H1023     1.0  0.43594  0.40474  0.97526  1.0000
  C   C572      1.0  0.00904  0.39287  0.67381  1.0000
  H   H1024     1.0  0.15920  0.47830  0.84174  1.0000
  H   H1025     1.0  0.39499  0.46007  0.98482  1.0000
  N   N32       1.0  0.37638  0.44472  0.98289  1.0000
  H   H1026     1.0  0.41486  0.43281  0.98391  1.0000
  H   H1027     1.0  0.08089  0.40747  0.66444  1.0000
  C   C573      1.0  0.15653  0.47861  0.88754  1.0000
  H   H1028     1.0  0.14375  0.47795  0.67464  1.0000
  H   H1029     1.0  0.41686  0.39666  0.97358  1.0000
  H   H1030     1.0  0.13725  0.47978  0.71376  1.0000
  S   S122      1.0  0.27458  0.48277  0.94817  1.0000
  H   H1031     1.0  0.00252  0.48123  0.88023  1.0000
  H   H1032     1.0  0.11365  0.32916  0.66126  1.0000
  C   C574      1.0  0.05229  0.25701  0.65630  1.0000
  C   C575      1.0  0.49558  0.28017  0.88639  1.0000
  C   C576      1.0  0.38883  0.42585  0.98433  1.0000
  H   H1033     1.0  0.49357  0.33826  0.89694  1.0000
  H   H1034     1.0  0.49553  0.37811  0.90487  1.0000
  H   H1035     1.0  0.99691  0.45616  0.72250  1.0000
  H   H1036     1.0  0.99775  0.41176  0.77528  1.0000
  C   C577      1.0  0.99783  0.48686  0.89288  1.0000
  Fe  Fe58      1.0  0.44163  0.32127  0.98558  1.0000
  Fe  Fe59      1.0  0.19318  0.56431  0.09221  1.0000
  S   S123      1.0  0.18581  0.53747  0.10757  1.0000
  S   S124      1.0  0.20188  0.58278  0.10473  1.0000
  Fe  Fe60      1.0  0.18503  0.56194  0.05689  1.0000
  S   S125      1.0  0.17679  0.53506  0.06912  1.0000
  Fe  Fe61      1.0  0.16175  0.54723  0.09380  1.0000
  S   S126      1.0  0.13440  0.53979  0.10881  1.0000
  Fe  Fe62      1.0  0.20127  0.52740  0.08186  1.0000
  C   C578      1.0  0.36150  0.65020  0.99579  1.0000
  S   S127      1.0  0.16771  0.57511  0.08036  1.0000
  S   S128      1.0  0.21089  0.55325  0.06771  1.0000
  H   H1037     1.0  0.20979  0.64136  0.02418  1.0000
  H   H1038     1.0  0.32312  0.51214  0.11016  1.0000
  H   H1039     1.0  0.39135  0.58672  0.03960  1.0000
  Fe  Fe63      1.0  0.30304  0.59240  0.09245  1.0000
  S   S129      1.0  0.32524  0.59289  0.06664  1.0000
  S   S130      1.0  0.28805  0.56978  0.09805  1.0000
  Fe  Fe64      1.0  0.31333  0.62298  0.10253  1.0000
  S   S131      1.0  0.33593  0.62585  0.07745  1.0000
  S   S132      1.0  0.30833  0.64098  0.12266  1.0000
  Fe  Fe65      1.0  0.31572  0.62327  0.06292  1.0000
  S   S133      1.0  0.31264  0.63960  0.03485  1.0000
  Fe  Fe66      1.0  0.34308  0.59524  0.08380  1.0000
  S   S134      1.0  0.37259  0.57988  0.08213  1.0000
  S   S135      1.0  0.29211  0.62283  0.08753  1.0000
  S   S136      1.0  0.32184  0.59229  0.11013  1.0000
  C   C579      1.0  0.26440  0.54399  0.14902  1.0000
  C   C580      1.0  0.35020  0.60624  0.00037  1.0000
  H   H1040     1.0  0.29507  0.66962  0.00831  1.0000
  H   H1041     1.0  0.27974  0.59645  0.16514  1.0000
  S   S137      1.0  0.48469  0.63807  0.13993  1.0000
  C   C581      1.0  0.33111  0.49133  0.99710  1.0000
  C   C582      1.0  0.28776  0.60610  0.01208  1.0000
  Fe  Fe67      1.0  0.06643  0.63566  0.30548  1.0000
  S   S138      1.0  0.07970  0.62480  0.27968  1.0000
  H   H1042     1.0  0.14394  0.49417  0.16454  1.0000
  H   H1043     1.0  0.00535  0.51320  0.25073  1.0000
  H   H1044     1.0  0.46004  0.73251  0.17622  1.0000
  H   H1045     1.0  0.27119  0.50945  0.01747  1.0000
  H   H1046     1.0  0.18059  0.61960  0.08944  1.0000
  S   S139      1.0  0.28081  0.59127  0.00323  1.0000
  H   H1047     1.0  0.31365  0.51182  0.20177  1.0000
  S   S140      1.0  0.07218  0.55397  0.22869  1.0000
  C   C583      1.0  0.29532  0.62059  0.00029  1.0000
  Fe  Fe68      1.0  0.05884  0.53138  0.22977  1.0000
  S   S141      1.0  0.06868  0.50328  0.24603  1.0000
  Fe  Fe69      1.0  0.06974  0.56262  0.19918  1.0000
  S   S142      1.0  0.09291  0.57432  0.17847  1.0000
  H   H1048     1.0  0.11658  0.56673  0.21843  1.0000
  Fe  Fe70      1.0  0.36828  0.71442  0.10032  1.0000
  S   S143      1.0  0.39156  0.68998  0.10304  1.0000
  S   S144      1.0  0.33967  0.71324  0.09930  1.0000
  Fe  Fe71      1.0  0.39732  0.70278  0.12293  1.0000
  S   S145      1.0  0.40262  0.68456  0.14959  1.0000
  H   H1049     1.0  0.13337  0.54768  0.24913  1.0000
  C   C584      1.0  0.16785  0.49501  0.14287  1.0000
  H   H1050     1.0  0.07469  0.67148  0.23940  1.0000
  H   H1051     1.0  0.28087  0.59169  0.04014  1.0000
  C   C585      1.0  0.31299  0.65946  0.17497  1.0000
  C   C586      1.0  0.37796  0.51835  0.03909  1.0000
  H   H1052     1.0  0.14143  0.51441  0.14710  1.0000
  H   H1053     1.0  0.45142  0.65915  0.07323  1.0000
  H   H1054     1.0  0.48188  0.61465  0.08727  1.0000
  H   H1055     1.0  0.39020  0.69952  0.06314  1.0000
  C   C587      1.0  0.45552  0.65075  0.08602  1.0000
  H   H1056     1.0  0.00015  0.62721  0.19986  1.0000
  C   C588      1.0  0.42555  0.67200  0.14694  1.0000
  C   C589      1.0  0.44023  0.68032  0.13662  1.0000
  C   C590      1.0  0.45855  0.67010  0.13496  1.0000
  C   C591      1.0  0.46210  0.65142  0.14304  1.0000
  C   C592      1.0  0.44739  0.64310  0.15312  1.0000
  C   C593      1.0  0.42918  0.65345  0.15536  1.0000
  H   H1057     1.0  0.43749  0.69469  0.13020  1.0000
  H   H1058     1.0  0.46990  0.67653  0.12711  1.0000
  H   H1059     1.0  0.45013  0.62866  0.15935  1.0000
  H   H1060     1.0  0.41788  0.64699  0.16335  1.0000
  H   H1061     1.0  0.11556  0.53724  0.30020  1.0000
  H   H1062     1.0  0.09066  0.54919  0.06390  1.0000
  H   H1063     1.0  0.11737  0.62874  0.14435  1.0000
  H   H1064     1.0  0.40622  0.51601  0.09108  1.0000
  H   H1065     1.0  0.45494  0.63648  0.08676  1.0000
  C   C594      1.0  0.08386  0.50911  0.29686  1.0000
  S   S146      1.0  0.34683  0.49190  0.02447  1.0000
  C   C595      1.0  0.07380  0.50524  0.26608  1.0000
  C   C596      1.0  0.06843  0.52213  0.27131  1.0000
  C   C597      1.0  0.07360  0.52411  0.28651  1.0000
  H   H1066     1.0  0.06021  0.53372  0.26371  1.0000
  H   H1067     1.0  0.06978  0.53737  0.29000  1.0000
  C   C598      1.0  0.12083  0.54200  0.05872  1.0000
  H   H1068     1.0  0.48668  0.72298  0.07315  1.0000
  H   H1069     1.0  0.10197  0.56426  0.04451  1.0000
  H   H1070     1.0  0.17728  0.50400  0.13430  1.0000
  C   C599      1.0  0.14424  0.56783  0.01479  1.0000
  H   H1071     1.0  0.17343  0.56459  0.13764  1.0000
  S   S147      1.0  0.38137  0.69418  0.00535  1.0000
  C   C600      1.0  0.27314  0.52034  0.03918  1.0000
  C   C601      1.0  0.41714  0.73276  0.17149  1.0000
  C   C602      1.0  0.18138  0.56699  0.99773  1.0000
  C   C603      1.0  0.47473  0.65884  0.99467  1.0000
  C   C604      1.0  0.27264  0.67611  0.99481  1.0000
  H   H1072     1.0  0.06876  0.67966  0.21719  1.0000
  C   C605      1.0  0.10209  0.62977  0.17235  1.0000
  C   C606      1.0  0.16447  0.53069  0.15441  1.0000
  C   C607      1.0  0.06579  0.61344  0.27437  1.0000
  C   C608      1.0  0.04660  0.61748  0.28064  1.0000
  C   C609      1.0  0.14246  0.50429  0.06460  1.0000
  C   C610      1.0  0.47043  0.70386  0.08997  1.0000
  C   C611      1.0  0.06309  0.59177  0.25829  1.0000
  C   C612      1.0  0.07404  0.60039  0.26346  1.0000
  H   H1073     1.0  0.46686  0.65575  0.00860  1.0000
  H   H1074     1.0  0.06949  0.58183  0.24973  1.0000
  H   H1075     1.0  0.08892  0.59690  0.25914  1.0000
  C   C613      1.0  0.31752  0.66085  0.11449  1.0000
  C   C614      1.0  0.30615  0.67743  0.11831  1.0000
  C   C615      1.0  0.31321  0.69325  0.11338  1.0000
  C   C616      1.0  0.33187  0.69268  0.10495  1.0000
  C   C617      1.0  0.34343  0.67612  0.10103  1.0000
  C   C618      1.0  0.33621  0.66022  0.10571  1.0000
  H   H1076     1.0  0.29173  0.67807  0.12502  1.0000
  H   H1077     1.0  0.30416  0.70600  0.11628  1.0000
  H   H1078     1.0  0.17739  0.49823  0.02694  1.0000
  H   H1079     1.0  0.34510  0.64738  0.10295  1.0000
  C   C619      1.0  0.37825  0.51851  0.08915  1.0000
  C   C620      1.0  0.36150  0.53066  0.08668  1.0000
  C   C621      1.0  0.35961  0.54952  0.08469  1.0000
  C   C622      1.0  0.37463  0.55633  0.08467  1.0000
  C   C623      1.0  0.39148  0.54422  0.08679  1.0000
  C   C624      1.0  0.39323  0.52534  0.08920  1.0000
  H   H1080     1.0  0.34987  0.52556  0.08663  1.0000
  H   H1081     1.0  0.34649  0.55872  0.08325  1.0000
  H   H1082     1.0  0.40311  0.54941  0.08682  1.0000
  H   H1083     1.0  0.38867  0.51764  0.02617  1.0000
  C   C625      1.0  0.24653  0.65251  0.04607  1.0000
  C   C626      1.0  0.30177  0.62779  0.02617  1.0000
  C   C627      1.0  0.29335  0.61388  0.03803  1.0000
  H   H1084     1.0  0.38492  0.51675  0.05039  1.0000
  H   H1085     1.0  0.29236  0.61126  0.05265  1.0000
  H   H1086     1.0  0.12052  0.53463  0.07319  1.0000
  C   C628      1.0  0.27243  0.52265  0.01912  1.0000
  C   C629      1.0  0.12226  0.55027  0.12747  1.0000
  C   C630      1.0  0.10657  0.54440  0.13917  1.0000
  C   C631      1.0  0.09718  0.55196  0.15466  1.0000
  C   C632      1.0  0.10347  0.56544  0.15852  1.0000
  C   C633      1.0  0.11908  0.57142  0.14672  1.0000
  C   C634      1.0  0.12843  0.56390  0.13120  1.0000
  H   H1087     1.0  0.10172  0.53390  0.13630  1.0000
  H   H1088     1.0  0.08515  0.54730  0.16364  1.0000
  H   H1089     1.0  0.12410  0.58175  0.14968  1.0000
  H   H1090     1.0  0.14051  0.56852  0.12223  1.0000
  C   C635      1.0  0.22590  0.57948  0.10235  1.0000
  C   C636      1.0  0.23327  0.59352  0.10375  1.0000
  C   C637      1.0  0.25246  0.59103  0.10180  1.0000
  C   C638      1.0  0.26424  0.57435  0.09877  1.0000
  C   C639      1.0  0.25685  0.56039  0.09736  1.0000
  C   C640      1.0  0.23777  0.56300  0.09895  1.0000
  H   H1091     1.0  0.22413  0.60634  0.10632  1.0000
  H   H1092     1.0  0.25809  0.60181  0.10303  1.0000
  H   H1093     1.0  0.26596  0.54748  0.09499  1.0000
  H   H1094     1.0  0.23222  0.55218  0.09772  1.0000
  C   C641      1.0  0.45912  0.73128  0.06602  1.0000
  C   C642      1.0  0.13698  0.50840  0.01470  1.0000
  H   H1095     1.0  0.31304  0.69764  0.15548  1.0000
  H   H1096     1.0  0.18913  0.61911  0.02961  1.0000
  C   C643      1.0  0.23969  0.51161  0.09838  1.0000
  H   H1097     1.0  0.10682  0.57910  0.23665  1.0000
  H   H1098     1.0  0.25477  0.52046  0.11265  1.0000
  H   H1099     1.0  0.22719  0.52177  0.10159  1.0000
  H   H1100     1.0  0.02155  0.49908  0.22340  1.0000
  H   H1101     1.0  0.02704  0.61710  0.22200  1.0000
  C   C644      1.0  0.04382  0.59645  0.26386  1.0000
  C   C645      1.0  0.28423  0.52840  0.17089  1.0000
  C   C646      1.0  0.44705  0.71007  0.16629  1.0000
  H   H1102     1.0  0.37091  0.50683  0.04238  1.0000
  H   H1103     1.0  0.46646  0.60964  0.06512  1.0000
  C   C647      1.0  0.06251  0.62264  0.21553  1.0000
  H   H1104     1.0  0.25994  0.51760  0.04855  1.0000
  H   H1105     1.0  0.24194  0.48747  0.04760  1.0000
  H   H1106     1.0  0.42106  0.68857  0.00063  1.0000
  C   C648      1.0  0.17656  0.50966  0.03330  1.0000
  H   H1107     1.0  0.44328  0.70479  0.15617  1.0000
  H   H1108     1.0  0.46234  0.70824  0.16201  1.0000
  H   H1109     1.0  0.30899  0.53548  0.17401  1.0000
  C   C649      1.0  0.34395  0.66682  0.18360  1.0000
  H   H1110     1.0  0.30308  0.71196  0.99709  1.0000
  H   H1111     1.0  0.44171  0.67355  0.17673  1.0000
  H   H1112     1.0  0.19338  0.51244  0.17206  1.0000
  C   C650      1.0  0.17628  0.62779  0.07655  1.0000
  C   C651      1.0  0.25343  0.56651  0.04809  1.0000
  N   N33       1.0  0.33983  0.55695  0.01807  1.0000
  C   C652      1.0  0.35391  0.53925  0.02159  1.0000
  H   H1113     1.0  0.11111  0.52274  0.05009  1.0000
  C   C653      1.0  0.34980  0.57246  0.01299  1.0000
  C   C654      1.0  0.32471  0.55949  0.03497  1.0000
  C   C655      1.0  0.31237  0.54528  0.04225  1.0000
  H   H1114     1.0  0.13979  0.53172  0.18749  1.0000
  C   C656      1.0  0.33884  0.59169  0.00509  1.0000
  H   H1115     1.0  0.23045  0.52258  0.14763  1.0000
  C   C657      1.0  0.30035  0.54700  0.06128  1.0000
  H   H1116     1.0  0.18793  0.64074  0.04934  1.0000
  H   H1117     1.0  0.02933  0.50646  0.26738  1.0000
  H   H1118     1.0  0.36465  0.53769  0.00875  1.0000
  H   H1119     1.0  0.34753  0.52732  0.02511  1.0000
  H   H1120     1.0  0.48970  0.69866  0.03370  1.0000
  C   C658      1.0  0.48943  0.61483  0.07279  1.0000
  H   H1121     1.0  0.35378  0.57392  0.02521  1.0000
  H   H1122     1.0  0.33050  0.56021  0.04634  1.0000
  H   H1123     1.0  0.31498  0.57287  0.03229  1.0000
  H   H1124     1.0  0.32060  0.53106  0.04339  1.0000
  H   H1125     1.0  0.30290  0.54774  0.03291  1.0000
  H   H1126     1.0  0.01531  0.52494  0.19747  1.0000
  S   S148      1.0  0.00453  0.56383  0.19786  1.0000
  H   H1127     1.0  0.32624  0.59589  0.01531  1.0000
  H   H1128     1.0  0.23499  0.54441  0.13464  1.0000
  C   C659      1.0  0.25531  0.51082  0.10471  1.0000
  C   C660      1.0  0.35361  0.67483  0.20877  1.0000
  H   H1129     1.0  0.30912  0.54430  0.07136  1.0000
  H   H1130     1.0  0.29129  0.56091  0.06090  1.0000
  H   H1131     1.0  0.29147  0.53682  0.06609  1.0000
  H   H1132     1.0  0.48536  0.68556  0.01999  1.0000
  H   H1133     1.0  0.24398  0.53809  0.02529  1.0000
  H   H1134     1.0  0.24535  0.55996  0.04298  1.0000
  S   S149      1.0  0.33542  0.50311  0.07301  1.0000
  H   H1135     1.0  0.09948  0.51168  0.21186  1.0000
  H   H1136     1.0  0.01508  0.64081  0.21855  1.0000
  C   C661      1.0  0.44330  0.69730  0.18549  1.0000
  H   H1137     1.0  0.18931  0.52492  0.00698  1.0000
  C   C662      1.0  0.19312  0.63196  0.06153  1.0000
  H   H1138     1.0  0.47817  0.64164  0.09976  1.0000
  C   C663      1.0  0.04868  0.56926  0.31413  1.0000
  H   H1139     1.0  0.00267  0.52127  0.28582  1.0000
  H   H1140     1.0  0.08126  0.61323  0.18417  1.0000
  C   C664      1.0  0.47517  0.67679  0.04921  1.0000
  C   C665      1.0  0.24160  0.58431  0.05351  1.0000
  H   H1141     1.0  0.12223  0.48846  0.01393  1.0000
  C   C666      1.0  0.16989  0.56258  0.98910  1.0000
  H   H1142     1.0  0.32185  0.53172  0.01243  1.0000
  C   C667      1.0  0.32953  0.48834  0.01606  1.0000
  N   N34       1.0  0.34546  0.66804  0.16345  1.0000
  H   H1143     1.0  0.11406  0.62059  0.17779  1.0000
  C   C668      1.0  0.33185  0.65861  0.16091  1.0000
  C   C669      1.0  0.36477  0.65796  0.15603  1.0000
  C   C670      1.0  0.34292  0.68760  0.15274  1.0000
  H   H1144     1.0  0.23742  0.57613  0.00790  1.0000
  H   H1145     1.0  0.09262  0.63596  0.14680  1.0000
  C   C671      1.0  0.36884  0.65517  0.13610  1.0000
  H   H1146     1.0  0.36801  0.60008  0.03986  1.0000
  C   C672      1.0  0.08341  0.49004  0.27683  1.0000
  C   C673      1.0  0.12379  0.60639  0.29567  1.0000
  C   C674      1.0  0.38915  0.64597  0.12999  1.0000
  H   H1147     1.0  0.47538  0.63928  0.05632  1.0000
  C   C675      1.0  0.12358  0.52877  0.04576  1.0000
  H   H1148     1.0  0.32906  0.66388  0.14682  1.0000
  H   H1149     1.0  0.33790  0.64368  0.16182  1.0000
  H   H1150     1.0  0.36809  0.64415  0.16501  1.0000
  H   H1151     1.0  0.37514  0.66532  0.15616  1.0000
  H   H1152     1.0  0.35469  0.69356  0.15217  1.0000
  H   H1153     1.0  0.34344  0.68821  0.13812  1.0000
  H   H1154     1.0  0.46483  0.71148  0.10128  1.0000
  C   C676      1.0  0.04503  0.63637  0.21004  1.0000
  H   H1155     1.0  0.13203  0.54962  0.05441  1.0000
  H   H1156     1.0  0.34532  0.70496  0.99281  1.0000
  H   H1157     1.0  0.36613  0.66842  0.12641  1.0000
  H   H1158     1.0  0.36020  0.64649  0.13482  1.0000
  H   H1159     1.0  0.47921  0.73084  0.03141  1.0000
  H   H1160     1.0  0.25491  0.55138  0.15966  1.0000
  H   H1161     1.0  0.19565  0.56689  0.99089  1.0000
  H   H1162     1.0  0.28686  0.65150  0.17998  1.0000
  C   C677      1.0  0.13737  0.52435  0.17820  1.0000
  H   H1163     1.0  0.10076  0.53344  0.19634  1.0000
  C   C678      1.0  0.23587  0.53436  0.14777  1.0000
  S   S150      1.0  0.22045  0.50001  0.08061  1.0000
  H   H1164     1.0  0.39847  0.65348  0.13212  1.0000
  H   H1165     1.0  0.39207  0.63160  0.13776  1.0000
  H   H1166     1.0  0.39223  0.64609  0.11511  1.0000
  H   H1167     1.0  0.09276  0.67080  0.21889  1.0000
  C   C679      1.0  0.02290  0.49473  0.26931  1.0000
  H   H1168     1.0  0.12695  0.49436  0.04255  1.0000
  C   C680      1.0  0.00105  0.70865  0.31536  1.0000
  H   H1169     1.0  0.24443  0.66763  0.04178  1.0000
  H   H1170     1.0  0.01514  0.70312  0.31843  1.0000
  C   C681      1.0  0.08335  0.62652  0.18517  1.0000
  Fe  Fe72      1.0  0.04306  0.57001  0.23523  1.0000
  Fe  Fe73      1.0  0.40893  0.70779  0.08186  1.0000
  S   S151      1.0  0.18960  0.57459  0.02669  1.0000
  N   N35       1.0  0.14098  0.51373  0.04505  1.0000
  H   H1171     1.0  0.30394  0.55181  0.98917  1.0000
  C   C682      1.0  0.17885  0.55764  0.15026  1.0000
  C   C683      1.0  0.28656  0.60292  0.03096  1.0000
  H   H1172     1.0  0.19870  0.60477  0.05591  1.0000
  H   H1173     1.0  0.28586  0.52555  0.01050  1.0000
  H   H1174     1.0  0.20513  0.51082  0.02124  1.0000
  H   H1175     1.0  0.34250  0.49676  0.98764  1.0000
  H   H1176     1.0  0.02692  0.63115  0.23722  1.0000
  H   H1177     1.0  0.07251  0.63711  0.17894  1.0000
  N   N36       1.0  0.25102  0.53959  0.99605  1.0000
  C   C684      1.0  0.49378  0.65757  0.99142  1.0000
  H   H1178     1.0  0.13295  0.52961  0.26941  1.0000
  H   H1179     1.0  0.26121  0.64637  0.04048  1.0000
  C   C685      1.0  0.32763  0.51124  0.12286  1.0000
  H   H1180     1.0  0.36358  0.68107  0.21162  1.0000
  C   C686      1.0  0.36398  0.53670  0.03721  1.0000
  H   H1181     1.0  0.36293  0.56945  0.00262  1.0000
  H   H1182     1.0  0.15051  0.57479  0.03723  1.0000
  H   H1183     1.0  0.16869  0.62010  0.07211  1.0000
  C   C687      1.0  0.33185  0.55773  0.00199  1.0000
  H   H1184     1.0  0.12841  0.50418  0.07363  1.0000
  C   C688      1.0  0.29973  0.65187  0.16912  1.0000
  C   C689      1.0  0.15718  0.52250  0.03517  1.0000
  H   H1185     1.0  0.34272  0.53060  0.99503  1.0000
  H   H1186     1.0  0.32426  0.66409  0.00194  1.0000
  S   S152      1.0  0.49533  0.70520  0.17388  1.0000
  H   H1187     1.0  0.08254  0.56960  0.28943  1.0000
  C   C690      1.0  0.20165  0.61973  0.01836  1.0000
  N   N37       1.0  0.39169  0.63556  0.05386  1.0000
  C   C691      1.0  0.40462  0.64407  0.03733  1.0000
  C   C692      1.0  0.37390  0.64967  0.05755  1.0000
  C   C693      1.0  0.40045  0.63112  0.07021  1.0000
  C   C694      1.0  0.38816  0.61813  0.05173  1.0000
  C   C695      1.0  0.38905  0.61629  0.03202  1.0000
  C   C696      1.0  0.42476  0.63266  0.03346  1.0000
  C   C697      1.0  0.38842  0.62373  0.08911  1.0000
  C   C698      1.0  0.36189  0.65545  0.04301  1.0000
  C   C699      1.0  0.34466  0.67020  0.04801  1.0000
  C   C700      1.0  0.38274  0.59915  0.03251  1.0000
  C   C701      1.0  0.43460  0.63846  0.01354  1.0000
  C   C702      1.0  0.40034  0.61181  0.10265  1.0000
  H   H1188     1.0  0.40561  0.65751  0.03901  1.0000
  H   H1189     1.0  0.39904  0.64746  0.02475  1.0000
  H   H1190     1.0  0.36474  0.64469  0.07073  1.0000
  H   H1191     1.0  0.37686  0.66226  0.05932  1.0000
  H   H1192     1.0  0.40439  0.64343  0.07146  1.0000
  H   H1193     1.0  0.41360  0.62065  0.06816  1.0000
  H   H1194     1.0  0.39814  0.60588  0.05736  1.0000
  H   H1195     1.0  0.37438  0.61610  0.06018  1.0000
  H   H1196     1.0  0.40337  0.61509  0.02363  1.0000
  H   H1197     1.0  0.38026  0.62821  0.02477  1.0000
  H   H1198     1.0  0.43267  0.63490  0.04239  1.0000
  H   H1199     1.0  0.42529  0.61778  0.03639  1.0000
  H   H1200     1.0  0.37944  0.61538  0.08790  1.0000
  H   H1201     1.0  0.37927  0.63544  0.09512  1.0000
  H   H1202     1.0  0.36968  0.66097  0.02923  1.0000
  H   H1203     1.0  0.35693  0.64364  0.04229  1.0000
  H   H1204     1.0  0.33570  0.67308  0.03808  1.0000
  H   H1205     1.0  0.33650  0.66563  0.06200  1.0000
  H   H1206     1.0  0.34856  0.68304  0.04749  1.0000
  H   H1207     1.0  0.13490  0.57801  0.29572  1.0000
  H   H1208     1.0  0.35529  0.66039  0.21649  1.0000
  C   C703      1.0  0.47514  0.65167  0.08702  1.0000
  H   H1209     1.0  0.44926  0.63084  0.01133  1.0000
  H   H1210     1.0  0.42783  0.63556  0.00403  1.0000
  H   H1211     1.0  0.43421  0.65332  0.01035  1.0000
  H   H1212     1.0  0.39132  0.60824  0.11642  1.0000
  H   H1213     1.0  0.40805  0.59889  0.09806  1.0000
  H   H1214     1.0  0.41036  0.61911  0.10378  1.0000
  H   H1215     1.0  0.19308  0.54945  0.14628  1.0000
  H   H1216     1.0  0.32798  0.72262  0.13488  1.0000
  H   H1217     1.0  0.32305  0.52723  0.14278  1.0000
  N   N38       1.0  0.08087  0.62722  0.20499  1.0000
  S   S153      1.0  0.29083  0.49693  0.10907  1.0000
  C   C704      1.0  0.03047  0.50105  0.30389  1.0000
  C   C705      1.0  0.08158  0.64609  0.20602  1.0000
  C   C706      1.0  0.09601  0.61352  0.21344  1.0000
  C   C707      1.0  0.10015  0.59382  0.21023  1.0000
  C   C708      1.0  0.07656  0.64995  0.22570  1.0000
  H   H1218     1.0  0.46667  0.70199  0.03019  1.0000
  C   C709      1.0  0.25592  0.52771  0.14995  1.0000
  C   C710      1.0  0.11335  0.58044  0.22180  1.0000
  C   C711      1.0  0.07833  0.66917  0.22515  1.0000
  H   H1219     1.0  0.06173  0.60909  0.21399  1.0000
  H   H1220     1.0  0.12461  0.51974  0.01382  1.0000
  H   H1221     1.0  0.02747  0.69653  0.28640  1.0000
  H   H1222     1.0  0.06105  0.62116  0.23049  1.0000
  H   H1223     1.0  0.26298  0.67164  0.00784  1.0000
  H   H1224     1.0  0.09574  0.64859  0.19968  1.0000
  H   H1225     1.0  0.10926  0.61825  0.20853  1.0000
  H   H1226     1.0  0.09259  0.61247  0.22850  1.0000
  H   H1227     1.0  0.10687  0.59357  0.19565  1.0000
  H   H1228     1.0  0.08737  0.58858  0.21369  1.0000
  H   H1229     1.0  0.08589  0.64013  0.23432  1.0000
  H   H1230     1.0  0.06211  0.64896  0.23270  1.0000
  N   N39       1.0  0.49075  0.64828  0.07060  1.0000
  H   H1231     1.0  0.16419  0.50816  0.19313  1.0000
  H   H1232     1.0  0.28054  0.56345  0.17518  1.0000
  H   H1233     1.0  0.33612  0.72482  0.15380  1.0000
  H   H1234     1.0  0.12647  0.58505  0.21888  1.0000
  H   H1235     1.0  0.22287  0.55457  0.00428  1.0000
  H   H1236     1.0  0.15658  0.53796  0.14350  1.0000
  C   C712      1.0  0.11696  0.55167  0.29511  1.0000
  H   H1237     1.0  0.41213  0.70774  0.16759  1.0000
  S   S154      1.0  0.41718  0.71826  0.10193  1.0000
  H   H1238     1.0  0.33937  0.68252  0.21369  1.0000
  H   H1239     1.0  0.24371  0.64875  0.06132  1.0000
  H   H1240     1.0  0.28045  0.51509  0.17295  1.0000
  H   H1241     1.0  0.34947  0.67558  0.00421  1.0000
  N   N40       1.0  0.28411  0.53909  0.15149  1.0000
  H   H1242     1.0  0.22703  0.54085  0.15930  1.0000
  C   C713      1.0  0.45018  0.67722  0.18410  1.0000
  H   H1243     1.0  0.31514  0.65095  0.18859  1.0000
  C   C714      1.0  0.15134  0.56274  0.99774  1.0000
  H   H1244     1.0  0.26385  0.52022  0.13891  1.0000
  C   C715      1.0  0.10250  0.55608  0.05861  1.0000
  H   H1245     1.0  0.44906  0.66833  0.19806  1.0000
  S   S155      1.0  0.05863  0.53862  0.19957  1.0000
  C   C716      1.0  0.41620  0.69512  0.04360  1.0000
  H   H1246     1.0  0.38226  0.72420  0.18398  1.0000
  C   C717      1.0  0.10890  0.52099  0.20389  1.0000
  C   C718      1.0  0.15119  0.50504  0.15567  1.0000
  C   C719      1.0  0.10385  0.62646  0.15330  1.0000
  C   C720      1.0  0.23352  0.64590  0.03880  1.0000
  S   S156      1.0  0.38525  0.73144  0.07734  1.0000
  H   H1247     1.0  0.42838  0.69940  0.19211  1.0000
  H   H1248     1.0  0.46486  0.67459  0.17662  1.0000
  H   H1249     1.0  0.28963  0.56438  0.13350  1.0000
  H   H1250     1.0  0.35782  0.67564  0.09428  1.0000
  C   C721      1.0  0.16137  0.48787  0.12973  1.0000
  H   H1251     1.0  0.30231  0.58366  0.15608  1.0000
  H   H1252     1.0  0.10311  0.64413  0.17059  1.0000
  C   C722      1.0  0.21610  0.62686  0.02345  1.0000
  H   H1253     1.0  0.17849  0.52516  0.14684  1.0000
  H   H1254     1.0  0.35235  0.60843  0.01313  1.0000
  H   H1255     1.0  0.15397  0.49944  0.12054  1.0000
  C   C723      1.0  0.08847  0.49198  0.29219  1.0000
  C   C724      1.0  0.17457  0.57086  0.01534  1.0000
  H   H1256     1.0  0.12922  0.53492  0.16888  1.0000
  H   H1257     1.0  0.43983  0.68975  0.02155  1.0000
  S   S157      1.0  0.42895  0.69768  0.05787  1.0000
  C   C725      1.0  0.01384  0.49901  0.25255  1.0000
  S   S158      1.0  0.09352  0.51269  0.31331  1.0000
  H   H1258     1.0  0.22317  0.58988  0.03563  1.0000
  C   C726      1.0  0.42496  0.69159  0.02610  1.0000
  C   C727      1.0  0.41435  0.69096  0.01427  1.0000
  C   C728      1.0  0.39704  0.69719  0.04954  1.0000
  H   H1259     1.0  0.27589  0.53276  0.04132  1.0000
  N   N41       1.0  0.22260  0.61616  0.04079  1.0000
  H   H1260     1.0  0.28226  0.69263  0.00675  1.0000
  N   N42       1.0  0.00995  0.49188  0.28794  1.0000
  C   C729      1.0  0.39508  0.69376  0.02006  1.0000
  C   C730      1.0  0.38650  0.69659  0.03777  1.0000
  C   C731      1.0  0.18865  0.49982  0.17332  1.0000
  H   H1261     1.0  0.08224  0.54921  0.30649  1.0000
  H   H1262     1.0  0.44018  0.67188  0.10154  1.0000
  H   H1263     1.0  0.37164  0.69874  0.04228  1.0000
  H   H1264     1.0  0.12310  0.53757  0.03184  1.0000
  C   C732      1.0  0.02746  0.63101  0.22276  1.0000
  H   H1265     1.0  0.13097  0.55140  0.29642  1.0000
  H   H1266     1.0  0.25410  0.51031  0.99967  1.0000
  C   C733      1.0  0.30276  0.52346  0.17708  1.0000
  H   H1267     1.0  0.02027  0.51380  0.30632  1.0000
  H   H1268     1.0  0.35456  0.72489  0.05921  1.0000
  H   H1269     1.0  0.43787  0.73465  0.13657  1.0000
  H   H1270     1.0  0.31438  0.69268  0.01139  1.0000
  H   H1271     1.0  0.43928  0.73098  0.19265  1.0000
  H   H1272     1.0  0.04017  0.62743  0.28921  1.0000
  C   C734      1.0  0.19541  0.63215  0.00117  1.0000
  C   C735      1.0  0.13368  0.54423  0.26394  1.0000
  H   H1273     1.0  0.15230  0.55457  0.16715  1.0000
  H   H1274     1.0  0.02074  0.61246  0.27980  1.0000
  H   H1275     1.0  0.17958  0.56831  0.15692  1.0000
  S   S159      1.0  0.02981  0.54684  0.23845  1.0000
  H   H1276     1.0  0.20001  0.63966  0.06674  1.0000
  H   H1277     1.0  0.14693  0.54621  0.26530  1.0000
  H   H1278     1.0  0.32549  0.49821  0.13259  1.0000
  C   C736      1.0  0.15593  0.57142  0.02381  1.0000
  H   H1279     1.0  0.36376  0.60228  0.99103  1.0000
  C   C737      1.0  0.13911  0.50048  0.03490  1.0000
  H   H1280     1.0  0.11442  0.52493  0.21372  1.0000
  C   C738      1.0  0.29041  0.55675  0.14771  1.0000
  C   C739      1.0  0.47608  0.71680  0.07171  1.0000
  C   C740      1.0  0.03563  0.60903  0.27530  1.0000
  H   H1281     1.0  0.48295  0.58939  0.07281  1.0000
  H   H1282     1.0  0.47414  0.66520  0.08987  1.0000
  H   H1283     1.0  0.28602  0.59482  0.14137  1.0000
  C   C741      1.0  0.49264  0.66575  0.05647  1.0000
  H   H1284     1.0  0.00145  0.72252  0.30650  1.0000
  C   C742      1.0  0.00039  0.52913  0.19986  1.0000
  H   H1285     1.0  0.23053  0.58067  0.06545  1.0000
  H   H1286     1.0  0.48886  0.60340  0.05021  1.0000
  H   H1287     1.0  0.37173  0.54754  0.03453  1.0000
  H   H1288     1.0  0.42689  0.72393  0.99333  1.0000
  C   C743      1.0  0.25638  0.53859  0.01370  1.0000
  H   H1289     1.0  0.47117  0.72628  0.13531  1.0000
  C   C744      1.0  0.32788  0.71966  0.01328  1.0000
  C   C745      1.0  0.20673  0.61410  0.05721  1.0000
  C   C746      1.0  0.28746  0.58725  0.15548  1.0000
  H   H1290     1.0  0.23689  0.62055  0.05925  1.0000
  H   H1291     1.0  0.48273  0.69316  0.09317  1.0000
  H   H1292     1.0  0.00901  0.71274  0.27660  1.0000
  C   C747      1.0  0.44071  0.65736  0.10196  1.0000
  C   C748      1.0  0.24334  0.52312  0.99812  1.0000
  H   H1293     1.0  0.31884  0.54033  0.12097  1.0000
  H   H1294     1.0  0.26338  0.55356  0.13553  1.0000
  C   C749      1.0  0.27163  0.49777  0.10058  1.0000
  H   H1295     1.0  0.16672  0.64078  0.07947  1.0000
  H   H1296     1.0  0.99791  0.60887  0.23139  1.0000
  H   H1297     1.0  0.29070  0.53232  0.12459  1.0000
  H   H1298     1.0  0.12356  0.61035  0.28081  1.0000
  H   H1299     1.0  0.34626  0.65218  0.19092  1.0000
  C   C750      1.0  0.30248  0.63133  0.00731  1.0000
  H   H1300     1.0  0.10110  0.56556  0.06763  1.0000
  H   H1301     1.0  0.23262  0.52147  0.01110  1.0000
  H   H1302     1.0  0.15546  0.53018  0.02123  1.0000
  H   H1303     1.0  0.15766  0.53297  0.04219  1.0000
  Fe  Fe74      1.0  0.03066  0.55645  0.20832  1.0000
  H   H1304     1.0  0.19479  0.48794  0.20050  1.0000
  H   H1305     1.0  0.46544  0.68356  0.06015  1.0000
  S   S160      1.0  0.02956  0.58740  0.25623  1.0000
  H   H1306     1.0  0.14877  0.51222  0.07032  1.0000
  C   C751      1.0  0.48848  0.63463  0.06122  1.0000
  H   H1307     1.0  0.25809  0.55690  0.06025  1.0000
  C   C752      1.0  0.31678  0.52764  0.13145  1.0000
  H   H1308     1.0  0.15121  0.48881  0.03432  1.0000
  H   H1309     1.0  0.32982  0.67310  0.19036  1.0000
  H   H1310     1.0  0.44359  0.64877  0.11528  1.0000
  C   C753      1.0  0.16729  0.50296  0.18029  1.0000
  C   C754      1.0  0.29580  0.52763  0.13764  1.0000
  H   H1311     1.0  0.12980  0.56846  0.02124  1.0000
  H   H1312     1.0  0.11804  0.50688  0.18177  1.0000
  H   H1313     1.0  0.10313  0.61214  0.15429  1.0000
  H   H1314     1.0  0.31262  0.51263  0.17024  1.0000
  S   S161      1.0  0.04179  0.58101  0.20571  1.0000
  H   H1315     1.0  0.20743  0.63324  0.98936  1.0000
  H   H1316     1.0  0.45973  0.69718  0.08921  1.0000
  H   H1317     1.0  0.19093  0.53194  0.02686  1.0000
  C   C755      1.0  0.13476  0.49381  0.00614  1.0000
  H   H1318     1.0  0.26583  0.56907  0.03726  1.0000
  C   C756      1.0  0.16611  0.54550  0.16347  1.0000
  H   H1319     1.0  0.27334  0.53577  0.18083  1.0000
  H   H1320     1.0  0.21205  0.60722  0.06988  1.0000
  H   H1321     1.0  0.18564  0.62628  0.99750  1.0000
  H   H1322     1.0  0.35399  0.64228  0.00847  1.0000
  H   H1323     1.0  0.24371  0.59819  0.02483  1.0000
  H   H1324     1.0  0.35394  0.53681  0.05058  1.0000
  C   C757      1.0  0.23268  0.59724  0.03766  1.0000
  C   C758      1.0  0.08364  0.56349  0.30388  1.0000
  H   H1325     1.0  0.03625  0.50843  0.23104  1.0000
  H   H1326     1.0  0.11198  0.61543  0.30315  1.0000
  H   H1327     1.0  0.45115  0.72345  0.06215  1.0000
  H   H1328     1.0  0.29072  0.52616  0.20551  1.0000
  H   H1329     1.0  0.25043  0.59059  0.05797  1.0000
  H   H1330     1.0  0.04458  0.65047  0.21092  1.0000
  H   H1331     1.0  0.25581  0.51789  0.16332  1.0000
  N   N43       1.0  0.15555  0.51554  0.16716  1.0000
  C   C759      1.0  0.27961  0.57005  0.16075  1.0000
  H   H1332     1.0  0.31837  0.56787  0.00245  1.0000
  S   S162      1.0  0.08406  0.64562  0.31770  1.0000
  H   H1333     1.0  0.29593  0.66072  0.15626  1.0000
  H   H1334     1.0  0.35596  0.69036  0.18114  1.0000
  H   H1335     1.0  0.41281  0.72863  0.18670  1.0000
  H   H1336     1.0  0.30921  0.64180  0.99796  1.0000
  H   H1337     1.0  0.37203  0.66852  0.18398  1.0000
  H   H1338     1.0  0.11829  0.57089  0.26812  1.0000
  H   H1339     1.0  0.25050  0.61963  0.03682  1.0000
  H   H1340     1.0  0.32974  0.70793  0.02505  1.0000
  C   C760      1.0  0.23626  0.62478  0.04445  1.0000
  C   C761      1.0  0.11722  0.55649  0.27424  1.0000
  H   H1341     1.0  0.26484  0.57469  0.15996  1.0000
  H   H1342     1.0  0.10271  0.58919  0.28709  1.0000
  S   S163      1.0  0.04190  0.65883  0.30953  1.0000
  H   H1343     1.0  0.38418  0.59773  0.01827  1.0000
  H   H1344     1.0  0.29424  0.51318  0.14278  1.0000
  C   C762      1.0  0.10436  0.58314  0.30141  1.0000
  C   C763      1.0  0.32452  0.70078  0.15929  1.0000
  N   N44       1.0  0.10217  0.56363  0.30684  1.0000
  H   H1345     1.0  0.10460  0.55423  0.27173  1.0000
  C   C764      1.0  0.33091  0.71283  0.99572  1.0000
  H   H1346     1.0  0.34264  0.51102  0.11936  1.0000
  H   H1347     1.0  0.28447  0.50862  0.04288  1.0000
  H   H1348     1.0  0.30520  0.55428  0.14799  1.0000
  C   C765      1.0  0.48141  0.60367  0.06468  1.0000
  H   H1349     1.0  0.32129  0.69995  0.17429  1.0000
  H   H1350     1.0  0.13323  0.49991  0.99176  1.0000
  C   C766      1.0  0.23558  0.55634  0.99341  1.0000
  H   H1351     1.0  0.04072  0.50436  0.29107  1.0000
  C   C767      1.0  0.47957  0.69170  0.03229  1.0000
  H   H1352     1.0  0.30610  0.67356  0.17673  1.0000
  H   H1353     1.0  0.23681  0.65021  0.02356  1.0000
  H   H1354     1.0  0.38054  0.72050  0.16259  1.0000
  H   H1355     1.0  0.22822  0.62724  0.01156  1.0000
  H   H1356     1.0  0.30613  0.63776  0.16683  1.0000
  H   H1357     1.0  0.26096  0.55113  0.01306  1.0000
  H   H1358     1.0  0.42695  0.65640  0.10093  1.0000
  C   C768      1.0  0.02841  0.49749  0.23475  1.0000
  C   C769      1.0  0.35743  0.67573  0.18814  1.0000
  H   H1359     1.0  0.07248  0.65680  0.19767  1.0000
  H   H1360     1.0  0.17150  0.53921  0.17616  1.0000
  C   C770      1.0  0.12259  0.58638  0.30331  1.0000
  H   H1361     1.0  0.16357  0.48932  0.18488  1.0000
  H   H1362     1.0  0.21918  0.65298  0.04398  1.0000
  C   C771      1.0  0.19133  0.52004  0.02131  1.0000
  H   H1363     1.0  0.00117  0.56309  0.28914  1.0000
  C   C772      1.0  0.30007  0.51574  0.19778  1.0000
  H   H1364     1.0  0.00353  0.68149  0.31050  1.0000
  H   H1365     1.0  0.33820  0.72782  0.01153  1.0000
  H   H1366     1.0  0.20756  0.60592  0.01538  1.0000
  C   C773      1.0  0.32908  0.53953  0.99962  1.0000
  H   H1367     1.0  0.04450  0.63646  0.19585  1.0000
  C   C774      1.0  0.28844  0.68148  0.99900  1.0000
  H   H1368     1.0  0.13240  0.49906  0.19850  1.0000
  S   S164      1.0  0.37255  0.72613  0.12202  1.0000
  H   H1369     1.0  0.18822  0.64603  0.00369  1.0000
  S   S165      1.0  0.38089  0.49475  0.09244  1.0000
  H   H1370     1.0  0.48921  0.60654  0.98838  1.0000
  H   H1371     1.0  0.14940  0.51346  0.00605  1.0000
  H   H1372     1.0  0.18009  0.50423  0.04700  1.0000
  S   S166      1.0  0.05705  0.69773  0.31610  1.0000
  C   C775      1.0  0.01309  0.69872  0.28474  1.0000
  H   H1373     1.0  0.45077  0.69985  0.19461  1.0000
  C   C776      1.0  0.24017  0.49909  0.08822  1.0000
  H   H1374     1.0  0.46830  0.66820  0.04518  1.0000
  H   H1375     1.0  0.37541  0.64984  0.99756  1.0000
  C   C777      1.0  0.31639  0.70167  0.99738  1.0000
  H   H1376     1.0  0.48276  0.70853  0.06108  1.0000
  H   H1377     1.0  0.01227  0.63713  0.31379  1.0000
  H   H1378     1.0  0.41159  0.72619  0.14770  1.0000
  H   H1379     1.0  0.00417  0.60332  0.19961  1.0000
  C   C778      1.0  0.40787  0.72276  0.16293  1.0000
  N   N45       1.0  0.43793  0.73000  0.16542  1.0000
  C   C779      1.0  0.99974  0.69606  0.30348  1.0000
  C   C780      1.0  0.35089  0.67005  0.99200  1.0000
  H   H1380     1.0  0.29417  0.50336  0.20164  1.0000
  C   C781      1.0  0.12459  0.51134  0.19043  1.0000
  C   C782      1.0  0.32519  0.72068  0.15005  1.0000
  C   C783      1.0  0.38678  0.72796  0.16880  1.0000
  H   H1381     1.0  0.04793  0.57178  0.29950  1.0000
  H   H1382     1.0  0.01281  0.68869  0.27704  1.0000
  H   H1383     1.0  0.49648  0.67554  0.06206  1.0000
  H   H1384     1.0  0.13684  0.60850  0.29738  1.0000
  H   H1385     1.0  0.05933  0.73448  0.30998  1.0000
  H   H1386     1.0  0.00475  0.48963  0.25419  1.0000
  H   H1387     1.0  0.33473  0.59198  0.99236  1.0000
  H   H1388     1.0  0.21246  0.59128  0.99020  1.0000
  H   H1389     1.0  0.31378  0.72838  0.01640  1.0000
  H   H1390     1.0  0.19336  0.49611  0.15970  1.0000
  H   H1391     1.0  0.22339  0.49921  0.99526  1.0000
  H   H1392     1.0  0.45874  0.71167  0.99824  1.0000
  H   H1393     1.0  0.47972  0.69785  0.98749  1.0000
  H   H1394     1.0  0.49235  0.73703  0.04309  1.0000
  H   H1395     1.0  0.39293  0.73146  0.00716  1.0000
  S   S167      1.0  0.13745  0.55475  0.98841  1.0000
  H   H1396     1.0  0.31167  0.72977  0.15460  1.0000
  H   H1397     1.0  0.06488  0.58882  0.31051  1.0000
  H   H1398     1.0  0.47965  0.72023  0.99036  1.0000
  C   C784      1.0  0.23976  0.57473  0.99350  1.0000
  H   H1399     1.0  0.34254  0.61941  0.99336  1.0000
  C   C785      1.0  0.44477  0.73709  0.17805  1.0000
  H   H1400     1.0  0.36173  0.73318  0.02540  1.0000
  C   C786      1.0  0.06619  0.57387  0.31563  1.0000
  H   H1401     1.0  0.09308  0.59173  0.30995  1.0000
  H   H1402     1.0  0.45008  0.73594  0.07861  1.0000
  H   H1403     1.0  0.42129  0.73541  0.01211  1.0000
  C   C787      1.0  0.47153  0.71208  0.98730  1.0000
  H   H1404     1.0  0.12311  0.58323  0.31805  1.0000
  C   C788      1.0  0.33155  0.67142  0.98884  1.0000
  H   H1405     1.0  0.34110  0.56273  0.98875  1.0000
  H   H1406     1.0  0.27811  0.66455  0.98753  1.0000
  C   C789      1.0  0.42002  0.73705  0.99778  1.0000
  H   H1407     1.0  0.25425  0.57550  0.98668  1.0000
  H   H1408     1.0  0.26485  0.68789  0.98617  1.0000
  C   C790      1.0  0.07495  0.66236  0.39558  1.0000
  C   C791      1.0  0.16393  0.59569  0.60746  1.0000
  H   H1409     1.0  0.06007  0.70749  0.37564  1.0000
  C   C792      1.0  0.01317  0.60219  0.57183  1.0000
  C   C793      1.0  0.02319  0.69075  0.43225  1.0000
  S   S168      1.0  0.00579  0.64771  0.59207  1.0000
  Fe  Fe75      1.0  0.07265  0.51308  0.38041  1.0000
  S   S169      1.0  0.04119  0.68457  0.44391  1.0000
  H   H1410     1.0  0.07536  0.71449  0.57516  1.0000
  C   C794      1.0  0.07289  0.56250  0.37204  1.0000
  H   H1411     1.0  0.02888  0.63304  0.64560  1.0000
  C   C795      1.0  0.15690  0.72667  0.49358  1.0000
  C   C796      1.0  0.09649  0.71400  0.60201  1.0000
  Fe  Fe76      1.0  0.12628  0.67254  0.52278  1.0000
  S   S170      1.0  0.11152  0.70065  0.52735  1.0000
  S   S171      1.0  0.14530  0.66497  0.49708  1.0000
  Fe  Fe77      1.0  0.11528  0.65435  0.56254  1.0000
  S   S172      1.0  0.09999  0.68065  0.57121  1.0000
  S   S173      1.0  0.11602  0.62687  0.58144  1.0000
  Fe  Fe78      1.0  0.08906  0.68688  0.54587  1.0000
  S   S174      1.0  0.05932  0.70055  0.54710  1.0000
  Fe  Fe79      1.0  0.12359  0.69238  0.55228  1.0000
  H   H1412     1.0  0.03931  0.70462  0.60000  1.0000
  S   S175      1.0  0.10236  0.65959  0.53850  1.0000
  S   S176      1.0  0.14027  0.66522  0.54638  1.0000
  S   S177      1.0  0.08163  0.70331  0.40517  1.0000
  N   N46       1.0  0.06205  0.71377  0.60372  1.0000
  Fe  Fe80      1.0  0.09617  0.71446  0.41967  1.0000
  S   S178      1.0  0.12599  0.70165  0.41955  1.0000
  C   C797      1.0  0.13080  0.69206  0.44143  1.0000
  C   C798      1.0  0.11888  0.69744  0.45729  1.0000
  C   C799      1.0  0.12307  0.68919  0.47462  1.0000
  C   C800      1.0  0.13932  0.67575  0.47595  1.0000
  C   C801      1.0  0.15138  0.67075  0.46007  1.0000
  C   C802      1.0  0.14718  0.67894  0.44286  1.0000
  H   H1413     1.0  0.10672  0.70822  0.45620  1.0000
  H   H1414     1.0  0.11386  0.69326  0.48687  1.0000
  H   H1415     1.0  0.16403  0.66049  0.46110  1.0000
  H   H1416     1.0  0.15662  0.67503  0.43064  1.0000
  C   C803      1.0  0.04450  0.68625  0.56076  1.0000
  C   C804      1.0  0.05109  0.66977  0.57224  1.0000
  C   C805      1.0  0.02597  0.69111  0.55950  1.0000
  H   H1417     1.0  0.06546  0.66586  0.57315  1.0000
  H   H1418     1.0  0.02088  0.70374  0.55050  1.0000
  H   H1419     1.0  0.03678  0.58856  0.35393  1.0000
  H   H1420     1.0  0.00113  0.54090  0.63652  1.0000
  C   C806      1.0  0.04907  0.72601  0.61616  1.0000
  H   H1421     1.0  0.05502  0.64489  0.40777  1.0000
  C   C807      1.0  0.99894  0.54367  0.40105  1.0000
  C   C808      1.0  0.07908  0.62944  0.63807  1.0000
  C   C809      1.0  0.07974  0.61582  0.62918  1.0000
  C   C810      1.0  0.09065  0.61550  0.61151  1.0000
  C   C811      1.0  0.10083  0.62890  0.60257  1.0000
  C   C812      1.0  0.09952  0.64313  0.61103  1.0000
  C   C813      1.0  0.08857  0.64342  0.62880  1.0000
  H   H1422     1.0  0.07192  0.60546  0.63598  1.0000
  H   H1423     1.0  0.09148  0.60468  0.60488  1.0000
  H   H1424     1.0  0.10764  0.65336  0.60428  1.0000
  H   H1425     1.0  0.08813  0.65396  0.63569  1.0000
  H   H1426     1.0  0.11190  0.63803  0.41095  1.0000
  H   H1427     1.0  0.01643  0.59301  0.63757  1.0000
  H   H1428     1.0  0.11721  0.68976  0.61029  1.0000
  C   C814      1.0  0.07611  0.58026  0.36478  1.0000
  C   C815      1.0  0.01559  0.54280  0.63165  1.0000
  H   H1429     1.0  0.18376  0.60619  0.58367  1.0000
  H   H1430     1.0  0.07502  0.67593  0.38624  1.0000
  H   H1431     1.0  0.14756  0.54170  0.64302  1.0000
  C   C816      1.0  0.06009  0.71323  0.36129  1.0000
  C   C817      1.0  0.04246  0.66927  0.62172  1.0000
  H   H1432     1.0  0.13184  0.61488  0.39751  1.0000
  C   C818      1.0  0.04064  0.49427  0.31963  1.0000
  C   C819      1.0  0.00112  0.53879  0.36979  1.0000
  C   C820      1.0  0.03513  0.59812  0.39935  1.0000
  H   H1433     1.0  0.01137  0.61721  0.56997  1.0000
  C   C821      1.0  0.01607  0.61114  0.40083  1.0000
  H   H1434     1.0  0.13293  0.53397  0.35628  1.0000
  Fe  Fe81      1.0  0.05863  0.70535  0.43008  1.0000
  Fe  Fe82      1.0  0.05862  0.66750  0.32388  1.0000
  H   H1435     1.0  0.07659  0.66307  0.40914  1.0000
  H   H1436     1.0  0.14407  0.60371  0.64036  1.0000
  S   S179      1.0  0.08757  0.61071  0.36560  1.0000
  H   H1437     1.0  0.13760  0.66484  0.38953  1.0000
  H   H1438     1.0  0.04418  0.64529  0.59106  1.0000
  H   H1439     1.0  0.04187  0.72426  0.57412  1.0000
  C   C822      1.0  0.01133  0.67399  0.37940  1.0000
  H   H1440     1.0  0.01664  0.59883  0.55805  1.0000
  H   H1441     1.0  0.11663  0.55561  0.35702  1.0000
  C   C823      1.0  0.02578  0.70114  0.41431  1.0000
  H   H1442     1.0  0.08913  0.63428  0.39791  1.0000
  H   H1443     1.0  0.16143  0.60840  0.57920  1.0000
  Fe  Fe83      1.0  0.03317  0.64132  0.33707  1.0000
  H   H1444     1.0  0.17511  0.58696  0.61444  1.0000
  Fe  Fe84      1.0  0.06927  0.73284  0.39528  1.0000
  H   H1445     1.0  0.11137  0.66075  0.34374  1.0000
  H   H1446     1.0  0.07369  0.58725  0.35142  1.0000
  C   C824      1.0  0.01550  0.56323  0.62558  1.0000
  C   C825      1.0  0.13901  0.64971  0.41685  1.0000
  H   H1447     1.0  0.06760  0.55612  0.36439  1.0000
  H   H1448     1.0  0.13630  0.63786  0.36715  1.0000
  H   H1449     1.0  0.00417  0.68714  0.48227  1.0000
  C   C826      1.0  0.05846  0.71017  0.33133  1.0000
  Fe  Fe85      1.0  0.07173  0.62842  0.34421  1.0000
  H   H1450     1.0  0.02502  0.53915  0.42254  1.0000
  H   H1451     1.0  0.06659  0.57047  0.33038  1.0000
  H   H1452     1.0  0.00635  0.70289  0.35014  1.0000
  H   H1453     1.0  0.01038  0.59888  0.60736  1.0000
  C   C827      1.0  0.08317  0.56148  0.39916  1.0000
  H   H1454     1.0  0.07713  0.70280  0.62574  1.0000
  C   C828      1.0  0.01409  0.67935  0.56932  1.0000
  H   H1455     1.0  0.15127  0.60421  0.36911  1.0000
  C   C829      1.0  0.05851  0.70252  0.34994  1.0000
  C   C830      1.0  0.99878  0.63420  0.32043  1.0000
  S   S180      1.0  0.07227  0.53105  0.39905  1.0000
  S   S181      1.0  0.04826  0.65149  0.35169  1.0000
  C   C831      1.0  0.05274  0.69882  0.60429  1.0000
  C   C832      1.0  0.01120  0.61987  0.41779  1.0000
  H   H1456     1.0  0.01350  0.66503  0.40729  1.0000
  C   C833      1.0  0.06621  0.72405  0.58400  1.0000
  S   S182      1.0  0.05622  0.51924  0.35883  1.0000
  H   H1457     1.0  0.15259  0.57389  0.60621  1.0000
  H   H1458     1.0  0.13743  0.63620  0.42585  1.0000
  H   H1459     1.0  0.02179  0.62319  0.62120  1.0000
  H   H1460     1.0  0.05326  0.65870  0.38508  1.0000
  H   H1461     1.0  0.02893  0.73378  0.45685  1.0000
  H   H1462     1.0  0.10608  0.66221  0.40585  1.0000
  C   C834      1.0  0.07979  0.70468  0.61053  1.0000
  H   H1463     1.0  0.13704  0.59551  0.60423  1.0000
  C   C835      1.0  0.07643  0.55310  0.38927  1.0000
  H   H1464     1.0  0.08588  0.55426  0.41253  1.0000
  H   H1465     1.0  0.03907  0.70441  0.40741  1.0000
  C   C836      1.0  0.12103  0.54544  0.33215  1.0000
  H   H1466     1.0  0.04521  0.66906  0.40478  1.0000
  H   H1467     1.0  0.14526  0.64043  0.39173  1.0000
  H   H1468     1.0  0.05724  0.68850  0.35555  1.0000
  H   H1469     1.0  0.00111  0.61793  0.45549  1.0000
  H   H1470     1.0  0.06145  0.69028  0.59422  1.0000
  H   H1471     1.0  0.09626  0.56697  0.33480  1.0000
  H   H1472     1.0  0.01862  0.51775  0.39768  1.0000
  C   C837      1.0  0.02366  0.52656  0.41935  1.0000
  S   S183      1.0  0.09875  0.49925  0.36353  1.0000
  Fe  Fe86      1.0  0.08154  0.50290  0.34314  1.0000
  H   H1473     1.0  0.03824  0.59176  0.38732  1.0000
  C   C838      1.0  0.03905  0.65811  0.58236  1.0000
  C   C839      1.0  0.17208  0.59930  0.58677  1.0000
  C   C840      1.0  0.10672  0.68991  0.33924  1.0000
  C   C841      1.0  0.05596  0.65842  0.39849  1.0000
  H   H1474     1.0  0.02642  0.56014  0.36008  1.0000
  C   C842      1.0  0.14741  0.58629  0.61216  1.0000
  H   H1475     1.0  0.02354  0.62450  0.41808  1.0000
  C   C843      1.0  0.02171  0.58902  0.35793  1.0000
  H   H1476     1.0  0.09213  0.58531  0.39939  1.0000
  C   C844      1.0  0.02057  0.66283  0.58074  1.0000
  H   H1477     1.0  0.10913  0.58609  0.63218  1.0000
  H   H1478     1.0  0.02366  0.68009  0.37553  1.0000
  H   H1479     1.0  0.10855  0.70510  0.62623  1.0000
  H   H1480     1.0  0.01350  0.71505  0.39118  1.0000
  H   H1481     1.0  0.13624  0.72279  0.46938  1.0000
  H   H1482     1.0  0.05515  0.72015  0.50958  1.0000
  H   H1483     1.0  0.11704  0.56697  0.64850  1.0000
  C   C845      1.0  0.16317  0.71909  0.51178  1.0000
  H   H1484     1.0  0.12447  0.71105  0.60474  1.0000
  C   C846      1.0  0.17313  0.53783  0.65057  1.0000
  H   H1485     1.0  0.01652  0.62151  0.38780  1.0000
  H   H1486     1.0  0.06032  0.68062  0.62997  1.0000
  H   H1487     1.0  0.99884  0.68493  0.38205  1.0000
  H   H1488     1.0  0.15950  0.60916  0.61149  1.0000
  C   C847      1.0  0.06788  0.71490  0.49983  1.0000
  H   H1489     1.0  0.03559  0.58702  0.41186  1.0000
  H   H1490     1.0  0.15785  0.71469  0.48788  1.0000
  H   H1491     1.0  0.00410  0.67787  0.45463  1.0000
  H   H1492     1.0  0.02500  0.64820  0.39328  1.0000
  H   H1493     1.0  0.13917  0.58734  0.38481  1.0000
  C   C848      1.0  0.10587  0.55308  0.62689  1.0000
  H   H1494     1.0  0.00975  0.60840  0.42992  1.0000
  C   C849      1.0  0.11720  0.49136  0.40779  1.0000
  H   H1495     1.0  0.01624  0.53389  0.36838  1.0000
  H   H1496     1.0  0.17821  0.52395  0.64743  1.0000
  C   C850      1.0  0.00613  0.68598  0.44080  1.0000
  C   C851      1.0  0.01111  0.73502  0.35370  1.0000
  H   H1497     1.0  0.09964  0.70126  0.34660  1.0000
  H   H1498     1.0  0.08516  0.69055  0.60785  1.0000
  H   H1499     1.0  0.03000  0.67357  0.61571  1.0000
  H   H1500     1.0  0.13051  0.49557  0.40503  1.0000
  C   C852      1.0  0.08672  0.57905  0.39172  1.0000
  H   H1501     1.0  0.02437  0.56703  0.38115  1.0000
  H   H1502     1.0  0.03062  0.49200  0.33295  1.0000
  H   H1503     1.0  0.02942  0.53696  0.39026  1.0000
  C   C853      1.0  0.00407  0.67524  0.49407  1.0000
  C   C854      1.0  0.11964  0.54233  0.35280  1.0000
  C   C855      1.0  0.01856  0.57021  0.36875  1.0000
  H   H1504     1.0  0.16220  0.73029  0.51858  1.0000
  H   H1505     1.0  0.03762  0.63412  0.55963  1.0000
  H   H1506     1.0  0.13088  0.60050  0.36455  1.0000
  N   N47       1.0  0.05439  0.66989  0.50004  1.0000
  C   C856      1.0  0.03450  0.67804  0.49849  1.0000
  C   C857      1.0  0.06098  0.68322  0.50639  1.0000
  C   C858      1.0  0.06575  0.66660  0.48147  1.0000
  C   C859      1.0  0.05622  0.65191  0.51371  1.0000
  C   C860      1.0  0.04450  0.65249  0.53340  1.0000
  C   C861      1.0  0.02384  0.66515  0.49563  1.0000
  C   C862      1.0  0.08686  0.65897  0.48021  1.0000
  C   C863      1.0  0.06466  0.70059  0.49172  1.0000
  H   H1507     1.0  0.09305  0.54586  0.33302  1.0000
  C   C864      1.0  0.04615  0.63331  0.54563  1.0000
  C   C865      1.0  0.01133  0.70708  0.40506  1.0000
  C   C866      1.0  0.09741  0.65975  0.46023  1.0000
  H   H1508     1.0  0.03380  0.68999  0.48674  1.0000
  H   H1509     1.0  0.02626  0.68371  0.51080  1.0000
  H   H1510     1.0  0.05069  0.68785  0.51841  1.0000
  H   H1511     1.0  0.07387  0.67652  0.51159  1.0000
  H   H1512     1.0  0.06366  0.67933  0.47074  1.0000
  H   H1513     1.0  0.06084  0.65666  0.47705  1.0000
  H   H1514     1.0  0.05302  0.64131  0.50862  1.0000
  H   H1515     1.0  0.07082  0.64660  0.51522  1.0000
  H   H1516     1.0  0.02967  0.65842  0.53351  1.0000
  H   H1517     1.0  0.04952  0.66089  0.53964  1.0000
  H   H1518     1.0  0.03067  0.65999  0.48284  1.0000
  H   H1519     1.0  0.02284  0.65327  0.50735  1.0000
  H   H1520     1.0  0.08952  0.64442  0.48754  1.0000
  H   H1521     1.0  0.09286  0.66665  0.48635  1.0000
  H   H1522     1.0  0.07736  0.69687  0.48131  1.0000
  H   H1523     1.0  0.05291  0.70714  0.48483  1.0000
  H   H1524     1.0  0.16569  0.54988  0.62451  1.0000
  H   H1525     1.0  0.00337  0.53739  0.32442  1.0000
  H   H1526     1.0  0.18511  0.54434  0.64728  1.0000
  H   H1527     1.0  0.06075  0.62718  0.54674  1.0000
  C   C867      1.0  0.04829  0.68587  0.62336  1.0000
  H   H1528     1.0  0.04107  0.62437  0.54004  1.0000
  H   H1529     1.0  0.01611  0.59319  0.34529  1.0000
  Fe  Fe87      1.0  0.04934  0.49174  0.37229  1.0000
  H   H1530     1.0  0.02001  0.52516  0.33842  1.0000
  H   H1531     1.0  0.09571  0.67411  0.45233  1.0000
  H   H1532     1.0  0.11241  0.65407  0.45977  1.0000
  H   H1533     1.0  0.09238  0.65165  0.45359  1.0000
  N   N48       1.0  0.03733  0.58616  0.61354  1.0000
  C   C868      1.0  0.03553  0.56643  0.61899  1.0000
  C   C869      1.0  0.05735  0.58749  0.60551  1.0000
  C   C870      1.0  0.03105  0.59356  0.63096  1.0000
  C   C871      1.0  0.02524  0.59773  0.60044  1.0000
  C   C872      1.0  0.02859  0.59174  0.58209  1.0000
  H   H1534     1.0  0.12148  0.57144  0.60685  1.0000
  C   C873      1.0  0.03215  0.61369  0.62876  1.0000
  C   C874      1.0  0.06966  0.57341  0.59374  1.0000
  C   C875      1.0  0.08772  0.57905  0.58273  1.0000
  H   H1535     1.0  0.04850  0.55467  0.32061  1.0000
  H   H1536     1.0  0.15339  0.65110  0.41510  1.0000
  C   C876      1.0  0.08309  0.58858  0.37454  1.0000
  H   H1537     1.0  0.04326  0.55880  0.63002  1.0000
  H   H1538     1.0  0.04196  0.55923  0.60749  1.0000
  H   H1539     1.0  0.05808  0.60149  0.59710  1.0000
  H   H1540     1.0  0.06466  0.58572  0.61666  1.0000
  H   H1541     1.0  0.03924  0.58482  0.64127  1.0000
  H   H1542     1.0  0.03670  0.69318  0.63274  1.0000
  H   H1543     1.0  0.12517  0.53180  0.32843  1.0000
  H   H1544     1.0  0.02728  0.61197  0.59640  1.0000
  H   H1545     1.0  0.07841  0.49909  0.48571  1.0000
  H   H1546     1.0  0.04174  0.59496  0.57305  1.0000
  S   S184      1.0  0.13624  0.71091  0.56043  1.0000
  H   H1547     1.0  0.01492  0.59944  0.36646  1.0000
  C   C877      1.0  0.01848  0.53093  0.40073  1.0000
  H   H1548     1.0  0.04596  0.61625  0.62120  1.0000
  H   H1549     1.0  0.07327  0.55984  0.60292  1.0000
  H   H1550     1.0  0.06267  0.57167  0.58385  1.0000
  H   H1551     1.0  0.09601  0.57966  0.59206  1.0000
  H   H1552     1.0  0.09603  0.56882  0.57433  1.0000
  H   H1553     1.0  0.08489  0.59263  0.57334  1.0000
  H   H1554     1.0  0.11176  0.61123  0.39269  1.0000
  C   C878      1.0  0.12210  0.56262  0.62070  1.0000
  H   H1555     1.0  0.08656  0.49223  0.45494  1.0000
  H   H1556     1.0  0.12941  0.66072  0.42365  1.0000
  S   S185      1.0  0.07413  0.71396  0.44546  1.0000
  H   H1557     1.0  0.10607  0.54389  0.64065  1.0000
  H   H1558     1.0  0.02924  0.57693  0.58419  1.0000
  H   H1559     1.0  0.17734  0.58627  0.58184  1.0000
  C   C879      1.0  0.01231  0.65880  0.39653  1.0000
  N   N49       1.0  0.10975  0.65006  0.38269  1.0000
  C   C880      1.0  0.09028  0.64717  0.38751  1.0000
  C   C881      1.0  0.12240  0.63477  0.37371  1.0000
  C   C882      1.0  0.11488  0.65020  0.40008  1.0000
  C   C883      1.0  0.11133  0.66806  0.36941  1.0000
  C   C884      1.0  0.10399  0.67150  0.35175  1.0000
  H   H1560     1.0  0.04607  0.60569  0.39736  1.0000
  C   C885      1.0  0.13512  0.65140  0.39809  1.0000
  C   C886      1.0  0.12514  0.61540  0.38636  1.0000
  C   C887      1.0  0.13741  0.60104  0.37547  1.0000
  H   H1561     1.0  0.09288  0.72860  0.60280  1.0000
  H   H1562     1.0  0.10069  0.69238  0.32707  1.0000
  C   C888      1.0  0.11261  0.70433  0.61149  1.0000
  H   H1563     1.0  0.03720  0.51662  0.41895  1.0000
  H   H1564     1.0  0.08660  0.64519  0.37536  1.0000
  H   H1565     1.0  0.11701  0.63360  0.36223  1.0000
  H   H1566     1.0  0.10851  0.53495  0.36073  1.0000
  C   C889      1.0  0.15887  0.54919  0.63921  1.0000
  C   C890      1.0  0.00514  0.53148  0.33872  1.0000
  H   H1567     1.0  0.10423  0.67976  0.37633  1.0000
  H   H1568     1.0  0.12606  0.66919  0.36474  1.0000
  H   H1569     1.0  0.08901  0.67171  0.35512  1.0000
  H   H1570     1.0  0.10575  0.50366  0.40876  1.0000
  C   C891      1.0  0.99852  0.54656  0.34972  1.0000
  H   H1571     1.0  0.16676  0.73478  0.48405  1.0000
  H   H1572     1.0  0.10690  0.54469  0.61697  1.0000
  H   H1573     1.0  0.00753  0.56961  0.63735  1.0000
  H   H1574     1.0  0.00539  0.72853  0.44298  1.0000
  C   C892      1.0  0.12114  0.57459  0.63424  1.0000
  H   H1575     1.0  0.13223  0.55284  0.32495  1.0000
  H   H1576     1.0  0.00587  0.60298  0.40215  1.0000
  H   H1577     1.0  0.13499  0.55197  0.61914  1.0000
  H   H1578     1.0  0.15277  0.73658  0.46017  1.0000
  N   N50       1.0  0.13807  0.58179  0.63222  1.0000
  H   H1579     1.0  0.01493  0.71866  0.47244  1.0000
  H   H1580     1.0  0.12510  0.61069  0.62927  1.0000
  C   C893      1.0  0.06151  0.73151  0.35397  1.0000
  H   H1581     1.0  0.12167  0.69003  0.33438  1.0000
  H   H1582     1.0  0.01079  0.66852  0.36781  1.0000
  H   H1583     1.0  0.03625  0.57800  0.32119  1.0000
  H   H1584     1.0  0.12839  0.72846  0.50590  1.0000
  C   C894      1.0  0.02791  0.61868  0.64747  1.0000
  H   H1585     1.0  0.10152  0.71313  0.58735  1.0000
  H   H1586     1.0  0.01312  0.52036  0.43040  1.0000
  C   C895      1.0  0.13190  0.59937  0.63923  1.0000
  H   H1587     1.0  0.05391  0.66099  0.61306  1.0000
  H   H1588     1.0  0.00673  0.64766  0.43351  1.0000
  S   S186      1.0  0.05575  0.61709  0.33155  1.0000
  C   C896      1.0  0.99768  0.57021  0.37452  1.0000
  S   S187      1.0  0.00435  0.63915  0.35211  1.0000
  H   H1589     1.0  0.04682  0.71830  0.63068  1.0000
  H   H1590     1.0  0.03917  0.66052  0.63559  1.0000
  C   C897      1.0  0.15108  0.56845  0.64363  1.0000
  H   H1591     1.0  0.15449  0.70960  0.52117  1.0000
  H   H1592     1.0  0.17775  0.71129  0.50927  1.0000
  C   C898      1.0  0.14310  0.73668  0.43057  1.0000
  H   H1593     1.0  0.09254  0.56331  0.62754  1.0000
  H   H1594     1.0  0.07952  0.70899  0.50700  1.0000
  C   C899      1.0  0.10220  0.55588  0.32701  1.0000
  H   H1595     1.0  0.16287  0.57436  0.64304  1.0000
  H   H1596     1.0  0.99801  0.55477  0.40802  1.0000
  H   H1597     1.0  0.02288  0.53640  0.64314  1.0000
  H   H1598     1.0  0.02184  0.72297  0.35801  1.0000
  C   C900      1.0  0.04934  0.73409  0.57518  1.0000
  S   S188      1.0  0.01963  0.48930  0.37968  1.0000
  H   H1599     1.0  0.00674  0.55714  0.34263  1.0000
  H   H1600     1.0  0.03509  0.73039  0.61291  1.0000
  C   C901      1.0  0.12421  0.73380  0.55942  1.0000
  H   H1601     1.0  0.07143  0.72654  0.48857  1.0000
  H   H1602     1.0  0.04788  0.50471  0.31977  1.0000
  H   H1603     1.0  0.07414  0.73453  0.58232  1.0000
  H   H1604     1.0  0.99994  0.68310  0.56787  1.0000
  H   H1605     1.0  0.10718  0.73404  0.54148  1.0000
  H   H1606     1.0  0.02253  0.53574  0.62005  1.0000
  H   H1607     1.0  0.14707  0.72154  0.43456  1.0000
  H   H1608     1.0  0.01514  0.73021  0.32679  1.0000
  C   C902      1.0  0.00351  0.73180  0.33890  1.0000
  C   C903      1.0  0.05949  0.72848  0.32429  1.0000
  H   H1609     1.0  0.00569  0.64311  0.46640  1.0000
  S   S189      1.0  0.04512  0.73404  0.41903  1.0000
  H   H1610     1.0  0.99989  0.59830  0.57949  1.0000
  C   C904      1.0  0.01472  0.73298  0.46477  1.0000
  H   H1611     1.0  0.10645  0.73322  0.48877  1.0000
  H   H1612     1.0  0.00795  0.56892  0.61428  1.0000
  H   H1613     1.0  0.06706  0.73574  0.54767  1.0000
  H   H1614     1.0  0.99695  0.52073  0.34493  1.0000
  H   H1615     1.0  0.47747  0.73314  0.89780  1.0000
  Fe  Fe88      1.0  0.17192  0.50501  0.95393  1.0000
  S   S190      1.0  0.18675  0.51771  0.92635  1.0000
  C   C905      1.0  0.11601  0.51979  0.67905  1.0000
  Fe  Fe89      1.0  0.15435  0.54165  0.96465  1.0000
  S   S191      1.0  0.16764  0.55743  0.93765  1.0000
  H   H1616     1.0  0.26195  0.59409  0.89148  1.0000
  Fe  Fe90      1.0  0.15985  0.53822  0.92519  1.0000
  S   S192      1.0  0.15068  0.54670  0.89799  1.0000
  Fe  Fe91      1.0  0.19300  0.53536  0.94141  1.0000
  S   S193      1.0  0.22258  0.53675  0.93782  1.0000
  S   S194      1.0  0.14443  0.52419  0.95206  1.0000
  S   S195      1.0  0.18023  0.52086  0.96921  1.0000
  C   C906      1.0  0.00886  0.59708  0.78465  1.0000
  Fe  Fe92      1.0  0.39819  0.69257  0.97702  1.0000
  S   S196      1.0  0.04074  0.59224  0.69478  1.0000
  H   H1617     1.0  0.38376  0.58351  0.87633  1.0000
  S   S197      1.0  0.11227  0.49725  0.82907  1.0000
  H   H1618     1.0  0.20685  0.50710  0.88903  1.0000
  H   H1619     1.0  0.17317  0.50727  0.87500  1.0000
  S   S198      1.0  0.29564  0.51586  0.90491  1.0000
  H   H1620     1.0  0.00307  0.55093  0.75389  1.0000
  C   C907      1.0  0.01881  0.51264  0.73298  1.0000
  S   S199      1.0  0.03279  0.55405  0.67293  1.0000
  C   C908      1.0  0.11815  0.59896  0.65823  1.0000
  Fe  Fe93      1.0  0.27232  0.60831  0.93854  1.0000
  S   S200      1.0  0.28485  0.58184  0.95532  1.0000
  S   S201      1.0  0.24597  0.61099  0.92969  1.0000
  Fe  Fe94      1.0  0.30146  0.62752  0.94022  1.0000
  S   S202      1.0  0.31618  0.60224  0.95697  1.0000
  H   H1621     1.0  0.24724  0.48781  0.91166  1.0000
  Fe  Fe95      1.0  0.31184  0.58761  0.93789  1.0000
  S   S203      1.0  0.33426  0.56461  0.92851  1.0000
  Fe  Fe96      1.0  0.28771  0.59919  0.97259  1.0000
  H   H1622     1.0  0.18101  0.59147  0.88394  1.0000
  S   S204      1.0  0.29931  0.61303  0.91956  1.0000
  S   S205      1.0  0.27305  0.62546  0.95739  1.0000
  S   S206      1.0  0.07931  0.53201  0.84199  1.0000
  Fe  Fe97      1.0  0.09377  0.50436  0.85544  1.0000
  S   S207      1.0  0.46563  0.67476  0.94318  1.0000
  H   H1623     1.0  0.14704  0.49656  0.85366  1.0000
  C   C909      1.0  0.06418  0.56705  0.75761  1.0000
  C   C910      1.0  0.05935  0.56209  0.77678  1.0000
  C   C911      1.0  0.09184  0.55297  0.77801  1.0000
  C   C912      1.0  0.09665  0.55872  0.75893  1.0000
  C   C913      1.0  0.08284  0.56544  0.74871  1.0000
  H   H1624     1.0  0.04498  0.56350  0.78381  1.0000
  H   H1625     1.0  0.11104  0.55769  0.75207  1.0000
  H   H1626     1.0  0.08669  0.56939  0.73398  1.0000
  C   C914      1.0  0.00045  0.58017  0.79159  1.0000
  C   C915      1.0  0.11344  0.49894  0.76033  1.0000
  C   C916      1.0  0.35828  0.64011  0.95009  1.0000
  H   H1627     1.0  0.03804  0.60973  0.65567  1.0000
  H   H1628     1.0  0.00999  0.51040  0.71002  1.0000
  H   H1629     1.0  0.00750  0.49533  0.89240  1.0000
  H   H1630     1.0  0.19076  0.58168  0.90401  1.0000
  H   H1631     1.0  0.01381  0.58957  0.68061  1.0000
  H   H1632     1.0  0.18146  0.56784  0.89491  1.0000
  H   H1633     1.0  0.15714  0.52695  0.72070  1.0000
  H   H1634     1.0  0.05900  0.51695  0.73065  1.0000
  S   S208      1.0  0.42116  0.69056  0.92644  1.0000
  C   C917      1.0  0.33932  0.67043  0.92860  1.0000
  H   H1635     1.0  0.04692  0.51123  0.75399  1.0000
  C   C918      1.0  0.38457  0.60650  0.88735  1.0000
  C   C919      1.0  0.07317  0.55497  0.78696  1.0000
  H   H1636     1.0  0.33453  0.62871  0.95510  1.0000
  C   C920      1.0  0.12724  0.52969  0.72964  1.0000
  S   S209      1.0  0.11740  0.54154  0.68042  1.0000
  H   H1637     1.0  0.46163  0.70736  0.90324  1.0000
  H   H1638     1.0  0.33933  0.60337  0.90929  1.0000
  H   H1639     1.0  0.20871  0.48984  0.95291  1.0000
  H   H1640     1.0  0.33343  0.66308  0.97851  1.0000
  C   C921      1.0  0.46584  0.66465  0.97986  1.0000
  H   H1641     1.0  0.17544  0.55899  0.97579  1.0000
  H   H1642     1.0  0.28732  0.53430  0.94516  1.0000
  C   C922      1.0  0.30768  0.52993  0.90902  1.0000
  C   C923      1.0  0.32484  0.52253  0.91391  1.0000
  C   C924      1.0  0.33340  0.53346  0.91915  1.0000
  C   C925      1.0  0.32464  0.55167  0.91985  1.0000
  C   C926      1.0  0.30780  0.55924  0.91435  1.0000
  C   C927      1.0  0.29951  0.54846  0.90861  1.0000
  H   H1643     1.0  0.33144  0.50837  0.91374  1.0000
  H   H1644     1.0  0.34647  0.52762  0.92328  1.0000
  H   H1645     1.0  0.30096  0.57331  0.91482  1.0000
  H   H1646     1.0  0.28627  0.55420  0.90488  1.0000
  C   C928      1.0  0.13583  0.53517  0.89376  1.0000
  C   C929      1.0  0.13450  0.53668  0.87564  1.0000
  C   C930      1.0  0.12381  0.52663  0.87185  1.0000
  C   C931      1.0  0.11447  0.51485  0.88617  1.0000
  C   C932      1.0  0.11532  0.51385  0.90431  1.0000
  C   C933      1.0  0.12579  0.52407  0.90810  1.0000
  H   H1647     1.0  0.14200  0.54543  0.86445  1.0000
  H   H1648     1.0  0.12321  0.52761  0.85781  1.0000
  H   H1649     1.0  0.10430  0.59837  0.65712  1.0000
  H   H1650     1.0  0.12631  0.52317  0.92212  1.0000
  C   C934      1.0  0.22841  0.55748  0.93641  1.0000
  C   C935      1.0  0.24687  0.55733  0.93543  1.0000
  C   C936      1.0  0.25232  0.57366  0.93344  1.0000
  C   C937      1.0  0.23935  0.59031  0.93229  1.0000
  C   C938      1.0  0.22084  0.59048  0.93324  1.0000
  C   C939      1.0  0.21534  0.57407  0.93545  1.0000
  H   H1651     1.0  0.25712  0.54457  0.93572  1.0000
  H   H1652     1.0  0.26667  0.57339  0.93220  1.0000
  H   H1653     1.0  0.21072  0.60332  0.93240  1.0000
  H   H1654     1.0  0.20105  0.57431  0.93621  1.0000
  C   C940      1.0  0.48421  0.72019  0.95293  1.0000
  H   H1655     1.0  0.23163  0.55815  0.98011  1.0000
  H   H1656     1.0  0.21180  0.54503  0.89215  1.0000
  H   H1657     1.0  0.45625  0.72259  0.93769  1.0000
  H   H1658     1.0  0.37727  0.57453  0.95658  1.0000
  H   H1659     1.0  0.22019  0.55795  0.90220  1.0000
  H   H1660     1.0  0.45744  0.71275  0.96685  1.0000
  C   C941      1.0  0.13220  0.50619  0.67652  1.0000
  C   C942      1.0  0.11588  0.61618  0.66530  1.0000
  N   N51       1.0  0.36553  0.61160  0.89928  1.0000
  C   C943      1.0  0.20817  0.57343  0.87885  1.0000
  H   H1661     1.0  0.17245  0.51036  0.89734  1.0000
  H   H1662     1.0  0.37569  0.61740  0.92015  1.0000
  H   H1663     1.0  0.44046  0.72124  0.91400  1.0000
  H   H1664     1.0  0.38529  0.61494  0.87313  1.0000
  H   H1665     1.0  0.35620  0.63429  0.87810  1.0000
  C   C944      1.0  0.35231  0.60076  0.89868  1.0000
  C   C945      1.0  0.12673  0.51075  0.72715  1.0000
  C   C946      1.0  0.36652  0.60914  0.91904  1.0000
  H   H1666     1.0  0.00522  0.50446  0.67365  1.0000
  H   H1667     1.0  0.01053  0.56909  0.79835  1.0000
  C   C947      1.0  0.00381  0.58267  0.68002  1.0000
  H   H1668     1.0  0.00068  0.54404  0.80420  1.0000
  H   H1669     1.0  0.34726  0.57612  0.88087  1.0000
  H   H1670     1.0  0.12496  0.51260  0.71296  1.0000
  H   H1671     1.0  0.09172  0.52723  0.74224  1.0000
  C   C948      1.0  0.36837  0.64539  0.89310  1.0000
  H   H1672     1.0  0.11151  0.62866  0.65510  1.0000
  H   H1673     1.0  0.33216  0.68204  0.91992  1.0000
  C   C949      1.0  0.23235  0.50467  0.98221  1.0000
  H   H1674     1.0  0.19482  0.52579  0.87410  1.0000
  C   C950      1.0  0.46488  0.73220  0.90888  1.0000
  H   H1675     1.0  0.35887  0.49308  0.93396  1.0000
  C   C951      1.0  0.30212  0.68804  0.98096  1.0000
  H   H1676     1.0  0.03823  0.49155  0.84142  1.0000
  C   C952      1.0  0.00370  0.51099  0.72466  1.0000
  H   H1677     1.0  0.02213  0.59435  0.77450  1.0000
  C   C953      1.0  0.35736  0.63162  0.89263  1.0000
  C   C954      1.0  0.36649  0.65508  0.94131  1.0000
  Fe  Fe98      1.0  0.06706  0.59924  0.67658  1.0000
  N   N52       1.0  0.32021  0.69041  0.98308  1.0000
  H   H1678     1.0  0.36215  0.66551  0.86858  1.0000
  S   S210      1.0  0.07475  0.57507  0.66328  1.0000
  S   S211      1.0  0.02860  0.52960  0.84371  1.0000
  H   H1679     1.0  0.45848  0.73484  0.96915  1.0000
  H   H1680     1.0  0.24282  0.52887  0.96868  1.0000
  H   H1681     1.0  0.36320  0.68196  0.92382  1.0000
  C   C955      1.0  0.33757  0.58972  0.87924  1.0000
  H   H1682     1.0  0.03064  0.50066  0.73195  1.0000
  H   H1683     1.0  0.30458  0.51563  0.95385  1.0000
  H   H1684     1.0  0.07769  0.49206  0.74925  1.0000
  C   C956      1.0  0.01545  0.51496  0.84257  1.0000
  C   C957      1.0  0.22725  0.59112  0.98371  1.0000
  C   C958      1.0  0.00033  0.54153  0.79089  1.0000
  S   S212      1.0  0.04677  0.57510  0.74498  1.0000
  H   H1685     1.0  0.07502  0.50619  0.76519  1.0000
  H   H1686     1.0  0.23049  0.60397  0.98428  1.0000
  H   H1687     1.0  0.14075  0.50201  0.72731  1.0000
  S   S213      1.0  0.41442  0.66628  0.96882  1.0000
  C   C959      1.0  0.21989  0.55579  0.88871  1.0000
  H   H1688     1.0  0.35251  0.61428  0.92716  1.0000
  C   C960      1.0  0.14429  0.53629  0.71703  1.0000
  H   H1689     1.0  0.11490  0.54010  0.72611  1.0000
  C   C961      1.0  0.33145  0.65510  0.93682  1.0000
  S   S214      1.0  0.08413  0.58522  0.69776  1.0000
  H   H1690     1.0  0.25253  0.50438  0.92069  1.0000
  Fe  Fe99      1.0  0.09618  0.52386  0.81565  1.0000
  H   H1691     1.0  0.35797  0.58587  0.90251  1.0000
  H   H1692     1.0  0.34054  0.71947  0.92931  1.0000
  H   H1693     1.0  0.39504  0.60991  0.89257  1.0000
  H   H1694     1.0  0.23630  0.58012  0.89400  1.0000
  H   H1695     1.0  0.34544  0.66900  0.88965  1.0000
  H   H1696     1.0  0.37021  0.73664  0.96610  1.0000
  N   N53       1.0  0.23925  0.54937  0.87816  1.0000
  C   C962      1.0  0.23799  0.54408  0.86128  1.0000
  H   H1697     1.0  0.02715  0.54728  0.77364  1.0000
  C   C963      1.0  0.25002  0.56428  0.87217  1.0000
  C   C964      1.0  0.24914  0.53331  0.89048  1.0000
  C   C965      1.0  0.24138  0.51571  0.89613  1.0000
  C   C966      1.0  0.25651  0.53468  0.85003  1.0000
  H   H1698     1.0  0.42051  0.58418  0.88425  1.0000
  H   H1699     1.0  0.22593  0.50558  0.97071  1.0000
  H   H1700     1.0  0.30957  0.71507  0.94823  1.0000
  H   H1701     1.0  0.08466  0.49494  0.68265  1.0000
  C   C967      1.0  0.25334  0.52946  0.83366  1.0000
  H   H1702     1.0  0.23221  0.55639  0.85159  1.0000
  H   H1703     1.0  0.22798  0.53506  0.86493  1.0000
  H   H1704     1.0  0.12906  0.61661  0.66819  1.0000
  H   H1705     1.0  0.10508  0.61618  0.67823  1.0000
  C   C968      1.0  0.29442  0.52828  0.95675  1.0000
  H   H1706     1.0  0.26417  0.52972  0.88418  1.0000
  H   H1707     1.0  0.24872  0.53699  0.90350  1.0000
  H   H1708     1.0  0.24143  0.51070  0.88402  1.0000
  H   H1709     1.0  0.22703  0.51820  0.90444  1.0000
  H   H1710     1.0  0.26328  0.52196  0.85846  1.0000
  C   C969      1.0  0.46974  0.72273  0.92775  1.0000
  C   C970      1.0  0.28018  0.52380  0.97443  1.0000
  C   C971      1.0  0.02362  0.49670  0.84169  1.0000
  H   H1711     1.0  0.48988  0.70546  0.95265  1.0000
  H   H1712     1.0  0.27654  0.58172  0.87421  1.0000
  H   H1713     1.0  0.25664  0.56304  0.89831  1.0000
  H   H1714     1.0  0.31937  0.48919  0.97576  1.0000
  H   H1715     1.0  0.01175  0.60069  0.79635  1.0000
  Fe  Fe100     1.0  0.04970  0.56697  0.68302  1.0000
  C   C972      1.0  0.09791  0.49790  0.68125  1.0000
  H   H1716     1.0  0.26678  0.52285  0.82578  1.0000
  H   H1717     1.0  0.24406  0.51965  0.83845  1.0000
  H   H1718     1.0  0.29616  0.62325  0.98568  1.0000
  H   H1719     1.0  0.04669  0.51809  0.78629  1.0000
  H   H1720     1.0  0.38316  0.64163  0.88625  1.0000
  H   H1721     1.0  0.49461  0.72473  0.95715  1.0000
  H   H1722     1.0  0.22040  0.53279  0.98367  1.0000
  S   S215      1.0  0.07230  0.48980  0.85485  1.0000
  H   H1723     1.0  0.34357  0.70114  0.96512  1.0000
  H   H1724     1.0  0.33363  0.59283  0.86580  1.0000
  Fe  Fe101     1.0  0.39948  0.67601  0.94566  1.0000
  H   H1725     1.0  0.14384  0.55019  0.71861  1.0000
  H   H1726     1.0  0.12781  0.52910  0.74393  1.0000
  C   C973      1.0  0.13235  0.48845  0.76497  1.0000
  H   H1727     1.0  0.32487  0.58914  0.89029  1.0000
  H   H1728     1.0  0.27579  0.54965  0.98188  1.0000
  C   C974      1.0  0.09891  0.51570  0.68103  1.0000
  C   C975      1.0  0.25293  0.50029  0.90790  1.0000
  C   C976      1.0  0.41200  0.58237  0.87567  1.0000
  C   C977      1.0  0.09344  0.51392  0.73853  1.0000
  H   H1729     1.0  0.21500  0.58513  0.87511  1.0000
  H   H1730     1.0  0.38070  0.59758  0.95099  1.0000
  C   C978      1.0  0.31947  0.71760  0.95482  1.0000
  C   C979      1.0  0.26198  0.58792  0.88009  1.0000
  C   C980      1.0  0.26704  0.54158  0.97971  1.0000
  C   C981      1.0  0.39148  0.58631  0.88504  1.0000
  H   H1731     1.0  0.20576  0.57128  0.86620  1.0000
  H   H1732     1.0  0.41449  0.59163  0.86195  1.0000
  H   H1733     1.0  0.36612  0.57970  0.92864  1.0000
  H   H1734     1.0  0.10951  0.51235  0.76456  1.0000
  H   H1735     1.0  0.47618  0.70813  0.92760  1.0000
  H   H1736     1.0  0.24610  0.49515  0.98027  1.0000
  S   S216      1.0  0.06489  0.55025  0.70487  1.0000
  S   S217      1.0  0.07489  0.51160  0.81182  1.0000
  H   H1737     1.0  0.33385  0.68966  0.95492  1.0000
  S   S218      1.0  0.42019  0.70813  0.96145  1.0000
  H   H1738     1.0  0.02104  0.52787  0.77039  1.0000
  C   C982      1.0  0.34657  0.60460  0.88007  1.0000
  H   H1739     1.0  0.20699  0.50490  0.86628  1.0000
  H   H1740     1.0  0.02397  0.52521  0.72535  1.0000
  C   C983      1.0  0.31787  0.54314  0.98507  1.0000
  Fe  Fe102     1.0  0.40545  0.71510  0.93857  1.0000
  H   H1741     1.0  0.24480  0.57526  0.86103  1.0000
  H   H1742     1.0  0.38961  0.57637  0.89828  1.0000
  N   N54       1.0  0.48163  0.73116  0.93411  1.0000
  H   H1743     1.0  0.30486  0.67853  0.97150  1.0000
  H   H1744     1.0  0.30197  0.53813  0.95765  1.0000
  H   H1745     1.0  0.34251  0.73150  0.94541  1.0000
  H   H1746     1.0  0.01079  0.49575  0.78185  1.0000
  C   C984      1.0  0.13122  0.48847  0.67642  1.0000
  H   H1747     1.0  0.05599  0.53178  0.74639  1.0000
  C   C985      1.0  0.99732  0.49161  0.78775  1.0000
  H   H1748     1.0  0.10315  0.49118  0.76990  1.0000
  N   N55       1.0  0.11203  0.50158  0.74068  1.0000
  H   H1749     1.0  0.25611  0.59897  0.86942  1.0000
  H   H1750     1.0  0.12671  0.49326  0.94355  1.0000
  Fe  Fe103     1.0  0.29858  0.48880  0.92506  1.0000
  Fe  Fe104     1.0  0.08939  0.56034  0.68606  1.0000
  H   H1751     1.0  0.26753  0.49697  0.90028  1.0000
  C   C986      1.0  0.37222  0.58881  0.94953  1.0000
  H   H1752     1.0  0.01369  0.61734  0.65512  1.0000
  H   H1753     1.0  0.13115  0.50365  0.78530  1.0000
  S   S219      1.0  0.06754  0.62830  0.66111  1.0000
  H   H1754     1.0  0.22966  0.59062  0.96906  1.0000
  H   H1755     1.0  0.02649  0.51089  0.80179  1.0000
  H   H1756     1.0  0.26193  0.54967  0.96715  1.0000
  H   H1757     1.0  0.45110  0.66597  0.98218  1.0000
  Fe  Fe105     1.0  0.05829  0.57615  0.71490  1.0000
  H   H1758     1.0  0.14548  0.50927  0.67489  1.0000
  H   H1759     1.0  0.01333  0.51356  0.74763  1.0000
  C   C987      1.0  0.18922  0.57888  0.89124  1.0000
  H   H1760     1.0  0.15208  0.49488  0.91524  1.0000
  C   C988      1.0  0.00942  0.56506  0.67650  1.0000
  H   H1761     1.0  0.36773  0.67449  0.88505  1.0000
  H   H1762     1.0  0.38879  0.58487  0.92324  1.0000
  H   H1763     1.0  0.27274  0.51479  0.97179  1.0000
  C   C989      1.0  0.03248  0.52292  0.79402  1.0000
  C   C990      1.0  0.47615  0.66850  0.96189  1.0000
  C   C991      1.0  0.19855  0.51064  0.87841  1.0000
  C   C992      1.0  0.35683  0.67045  0.93086  1.0000
  H   H1764     1.0  0.00902  0.57367  0.76460  1.0000
  C   C993      1.0  0.23441  0.52362  0.98224  1.0000
  C   C994      1.0  0.05851  0.51740  0.74497  1.0000
  C   C995      1.0  0.33017  0.69910  0.96445  1.0000
  H   H1765     1.0  0.41644  0.56801  0.87380  1.0000
  H   H1766     1.0  0.35757  0.59351  0.95638  1.0000
  H   H1767     1.0  0.08640  0.52621  0.68231  1.0000
  H   H1768     1.0  0.14462  0.53700  0.70244  1.0000
  H   H1769     1.0  0.34297  0.63555  0.90077  1.0000
  C   C996      1.0  0.49517  0.66729  0.95871  1.0000
  S   S220      1.0  0.38973  0.65290  0.94150  1.0000
  H   H1770     1.0  0.09240  0.51724  0.72384  1.0000
  H   H1771     1.0  0.35862  0.60555  0.86832  1.0000
  S   S221      1.0  0.10914  0.54210  0.79049  1.0000
  H   H1772     1.0  0.06933  0.55111  0.80177  1.0000
  C   C997      1.0  0.36039  0.66476  0.88347  1.0000
  S   S222      1.0  0.10347  0.49963  0.88198  1.0000
  S   S223      1.0  0.38206  0.70148  0.95500  1.0000
  C   C998      1.0  0.25038  0.57338  0.88754  1.0000
  C   C999      1.0  0.34068  0.64028  0.94816  1.0000
  H   H1773     1.0  0.36571  0.62822  0.95820  1.0000
  C   C1000     1.0  0.37389  0.58948  0.92922  1.0000
  H   H1774     1.0  0.26474  0.55874  0.86607  1.0000
  H   H1775     1.0  0.24711  0.54182  0.82434  1.0000
  H   H1776     1.0  0.36759  0.64587  0.90743  1.0000
  H   H1777     1.0  0.03353  0.53049  0.80383  1.0000
  C   C1001     1.0  0.02064  0.53549  0.78073  1.0000
  H   H1778     1.0  0.26627  0.54400  0.84458  1.0000
  C   C1002     1.0  0.07644  0.50616  0.75054  1.0000
  Fe  Fe106     1.0  0.43468  0.68283  0.95040  1.0000
  S   S224      1.0  0.31068  0.65445  0.93191  1.0000
  C   C1003     1.0  0.45375  0.72160  0.90376  1.0000
  Fe  Fe107     1.0  0.05927  0.51710  0.83946  1.0000
  H   H1779     1.0  0.45055  0.72849  0.89009  1.0000
  H   H1780     1.0  0.33620  0.61777  0.87835  1.0000
  H   H1781     1.0  0.28765  0.51591  0.98534  1.0000
  C   C1004     1.0  0.18086  0.50332  0.88614  1.0000
  H   H1782     1.0  0.00071  0.54281  0.67234  1.0000
  C   C1005     1.0  0.33262  0.72794  0.93961  1.0000
  H   H1783     1.0  0.99920  0.60893  0.77814  1.0000
  H   H1784     1.0  0.32507  0.55008  0.97153  1.0000
  H   H1785     1.0  0.14396  0.49422  0.75543  1.0000
  H   H1786     1.0  0.12271  0.58704  0.66884  1.0000
  H   H1787     1.0  0.31618  0.52993  0.98363  1.0000
  H   H1788     1.0  0.35952  0.67731  0.97988  1.0000
  C   C1006     1.0  0.46652  0.72071  0.96862  1.0000
  H   H1789     1.0  0.10795  0.50498  0.91549  1.0000
  H   H1790     1.0  0.32973  0.72498  0.98429  1.0000
  H   H1791     1.0  0.16673  0.53633  0.66550  1.0000
  H   H1792     1.0  0.31153  0.72651  0.96467  1.0000
  H   H1793     1.0  0.29400  0.70116  0.97442  1.0000
  H   H1794     1.0  0.14946  0.49330  0.88607  1.0000
  C   C1007     1.0  0.13286  0.48927  0.78428  1.0000
  H   H1795     1.0  0.14405  0.56598  0.65838  1.0000
  H   H1796     1.0  0.36344  0.64378  0.98404  1.0000
  Fe  Fe108     1.0  0.44905  0.81120  0.13320  1.0000
  S   S225      1.0  0.47205  0.80257  0.11015  1.0000
  S   S226      1.0  0.42439  0.79807  0.14546  1.0000
  Fe  Fe109     1.0  0.46805  0.83881  0.13854  1.0000
  H   H1797     1.0  0.42541  0.84374  0.01846  1.0000
  S   S227      1.0  0.46255  0.85811  0.15802  1.0000
  Fe  Fe110     1.0  0.47129  0.83261  0.10005  1.0000
  H   H1798     1.0  0.45706  0.95308  0.10885  1.0000
  C   C1008     1.0  0.40114  0.83319  0.05022  1.0000
  H   H1799     1.0  0.44784  0.76481  0.16290  1.0000
  S   S228      1.0  0.44699  0.84133  0.12225  1.0000
  S   S229      1.0  0.46802  0.80917  0.15132  1.0000
  H   H1800     1.0  0.49530  0.80449  0.17208  1.0000
  C   C1009     1.0  0.44705  0.75405  0.04103  1.0000
  S   S230      1.0  0.44746  0.80485  0.02359  1.0000
  H   H1801     1.0  0.40993  0.86927  0.06122  1.0000
  H   H1802     1.0  0.34832  0.79156  0.99730  1.0000
  H   H1803     1.0  0.38716  0.80545  0.03046  1.0000
  C   C1010     1.0  0.40320  0.86437  0.03129  1.0000
  C   C1011     1.0  0.46437  0.94180  0.17689  1.0000
  S   S231      1.0  0.39413  0.77022  0.09231  1.0000
  C   C1012     1.0  0.46486  0.81270  0.19696  1.0000
  H   H1804     1.0  0.40151  0.94910  0.28928  1.0000
  H   H1805     1.0  0.41441  0.84171  0.10781  1.0000
  H   H1806     1.0  0.43175  0.84770  0.08755  1.0000
  C   C1013     1.0  0.42296  0.85801  0.02001  1.0000
  H   H1807     1.0  0.36955  0.86153  0.04840  1.0000
  H   H1808     1.0  0.35217  0.74827  0.06041  1.0000
  H   H1809     1.0  0.38840  0.80196  0.05408  1.0000
  H   H1810     1.0  0.34909  0.89866  0.07446  1.0000
  C   C1014     1.0  0.46666  0.95919  0.11247  1.0000
  H   H1811     1.0  0.45713  0.91663  0.19469  1.0000
  H   H1812     1.0  0.44034  0.77906  0.18940  1.0000
  C   C1015     1.0  0.47875  0.86662  0.16392  1.0000
  H   H1813     1.0  0.40915  0.80200  0.03607  1.0000
  H   H1814     1.0  0.39175  0.84694  0.08892  1.0000
  N   N56       1.0  0.39825  0.85310  0.05044  1.0000
  C   C1016     1.0  0.41621  0.79030  0.13053  1.0000
  C   C1017     1.0  0.42272  0.79464  0.11151  1.0000
  C   C1018     1.0  0.41590  0.78831  0.09990  1.0000
  C   C1019     1.0  0.40316  0.77701  0.10726  1.0000
  C   C1020     1.0  0.39688  0.77236  0.12631  1.0000
  C   C1021     1.0  0.40305  0.77939  0.13788  1.0000
  H   H1815     1.0  0.43270  0.80320  0.10577  1.0000
  H   H1816     1.0  0.42042  0.79215  0.08520  1.0000
  H   H1817     1.0  0.38669  0.76400  0.13202  1.0000
  H   H1818     1.0  0.39758  0.77647  0.15254  1.0000
  C   C1022     1.0  0.46633  0.83443  0.05666  1.0000
  C   C1023     1.0  0.47078  0.83907  0.03734  1.0000
  C   C1024     1.0  0.46528  0.83008  0.02685  1.0000
  C   C1025     1.0  0.45510  0.81658  0.03568  1.0000
  C   C1026     1.0  0.45042  0.81228  0.05491  1.0000
  C   C1027     1.0  0.45604  0.82107  0.06535  1.0000
  H   H1819     1.0  0.40928  0.98450  0.23015  1.0000
  H   H1820     1.0  0.46889  0.83362  0.01199  1.0000
  H   H1821     1.0  0.44248  0.80199  0.06178  1.0000
  H   H1822     1.0  0.45233  0.81758  0.08014  1.0000
  H   H1823     1.0  0.40203  0.87878  0.03186  1.0000
  H   H1824     1.0  0.44969  0.96403  0.23172  1.0000
  S   S232      1.0  0.47323  0.84571  0.06977  1.0000
  H   H1825     1.0  0.37959  0.87823  0.07529  1.0000
  H   H1826     1.0  0.45742  0.95425  0.16828  1.0000
  N   N57       1.0  0.46288  0.74766  0.05081  1.0000
  C   C1028     1.0  0.44966  0.97060  0.27210  1.0000
  C   C1029     1.0  0.43257  0.91269  0.31101  1.0000
  H   H1827     1.0  0.39873  0.76671  0.05104  1.0000
  H   H1828     1.0  0.45916  0.87553  0.18739  1.0000
  C   C1030     1.0  0.39966  0.74183  0.99678  1.0000
  H   H1829     1.0  0.42485  0.74901  0.06594  1.0000
  H   H1830     1.0  0.48315  0.82432  0.20436  1.0000
  C   C1031     1.0  0.36143  0.75766  0.99297  1.0000
  C   C1032     1.0  0.45020  0.91669  0.30523  1.0000
  N   N58       1.0  0.42944  0.95967  0.25725  1.0000
  H   H1831     1.0  0.49556  0.96039  0.12393  1.0000
  H   H1832     1.0  0.36603  0.76928  0.03098  1.0000
  C   C1033     1.0  0.42512  0.94227  0.25615  1.0000
  C   C1034     1.0  0.44488  0.95460  0.26732  1.0000
  H   H1833     1.0  0.42724  0.74781  0.98865  1.0000
  S   S233      1.0  0.47496  0.88652  0.26601  1.0000
  C   C1035     1.0  0.44048  0.93019  0.24406  1.0000
  H   H1834     1.0  0.44025  0.86503  0.99295  1.0000
  H   H1835     1.0  0.44664  0.92516  0.17497  1.0000
  H   H1836     1.0  0.39622  0.82535  0.06427  1.0000
  C   C1036     1.0  0.43399  0.91378  0.24284  1.0000
  H   H1837     1.0  0.47675  0.91262  0.28612  1.0000
  H   H1838     1.0  0.34686  0.87520  0.08260  1.0000
  S   S234      1.0  0.48296  0.96951  0.20598  1.0000
  C   C1037     1.0  0.35098  0.73937  0.05193  1.0000
  H   H1839     1.0  0.41206  0.94527  0.25133  1.0000
  H   H1840     1.0  0.42246  0.93333  0.27009  1.0000
  C   C1038     1.0  0.48424  0.81235  0.19863  1.0000
  H   H1841     1.0  0.45789  0.94748  0.25920  1.0000
  H   H1842     1.0  0.48071  0.75265  0.11274  1.0000
  C   C1039     1.0  0.42259  0.97544  0.22503  1.0000
  H   H1843     1.0  0.45294  0.92486  0.25004  1.0000
  H   H1844     1.0  0.44453  0.93787  0.22982  1.0000
  H   H1845     1.0  0.48750  0.73959  0.18400  1.0000
  H   H1846     1.0  0.41485  0.77128  0.02932  1.0000
  C   C1040     1.0  0.47200  0.94772  0.13040  1.0000
  H   H1847     1.0  0.34545  0.76827  0.02543  1.0000
  H   H1848     1.0  0.43755  0.97827  0.28063  1.0000
  H   H1849     1.0  0.47913  0.95948  0.10108  1.0000
  C   C1041     1.0  0.48494  0.95620  0.13632  1.0000
  H   H1850     1.0  0.42523  0.84896  0.05615  1.0000
  C   C1042     1.0  0.44209  0.89161  0.29041  1.0000
  H   H1851     1.0  0.44557  0.90481  0.23502  1.0000
  H   H1852     1.0  0.42951  0.90558  0.25675  1.0000
  H   H1853     1.0  0.42233  0.91839  0.23567  1.0000
  H   H1854     1.0  0.48836  0.79992  0.20888  1.0000
  H   H1855     1.0  0.44692  0.74326  0.03407  1.0000
  C   C1043     1.0  0.35223  0.88527  0.07045  1.0000
  H   H1856     1.0  0.47936  0.92269  0.15902  1.0000
  C   C1044     1.0  0.46379  0.76303  0.05871  1.0000
  H   H1857     1.0  0.41611  0.82692  0.04654  1.0000
  C   C1045     1.0  0.46338  0.90901  0.29111  1.0000
  C   C1046     1.0  0.42748  0.75940  0.05311  1.0000
  C   C1047     1.0  0.48052  0.75980  0.06750  1.0000
  H   H1858     1.0  0.34501  0.88695  0.05931  1.0000
  H   H1859     1.0  0.43357  0.85898  0.02666  1.0000
  H   H1860     1.0  0.39659  0.77072  0.98712  1.0000
  C   C1048     1.0  0.41253  0.76150  0.04273  1.0000
  H   H1861     1.0  0.42485  0.76385  0.17622  1.0000
  H   H1862     1.0  0.49355  0.86347  0.29902  1.0000
  H   H1863     1.0  0.46737  0.94615  0.18810  1.0000
  H   H1864     1.0  0.37629  0.83470  0.04050  1.0000
  C   C1049     1.0  0.39140  0.82896  0.03734  1.0000
  H   H1865     1.0  0.44882  0.76637  0.02998  1.0000
  H   H1866     1.0  0.46366  0.77580  0.04807  1.0000
  H   H1867     1.0  0.45112  0.76625  0.06950  1.0000
  C   C1050     1.0  0.46493  0.96352  0.28294  1.0000
  H   H1868     1.0  0.37788  0.88966  0.05209  1.0000
  C   C1051     1.0  0.43569  0.97087  0.23843  1.0000
  C   C1052     1.0  0.48268  0.93205  0.16558  1.0000
  H   H1869     1.0  0.42583  0.77267  0.05685  1.0000
  C   C1053     1.0  0.37806  0.86016  0.05839  1.0000
  H   H1870     1.0  0.37272  0.85014  0.07067  1.0000
  C   C1054     1.0  0.41665  0.85003  0.09357  1.0000
  C   C1055     1.0  0.36915  0.79961  0.00553  1.0000
  H   H1871     1.0  0.36187  0.79828  0.02017  1.0000
  C   C1056     1.0  0.40666  0.84436  0.08228  1.0000
  C   C1057     1.0  0.36069  0.76258  0.02317  1.0000
  H   H1872     1.0  0.39317  0.86507  0.02304  1.0000
  H   H1873     1.0  0.39493  0.76376  0.01105  1.0000
  H   H1874     1.0  0.41124  0.86471  0.09415  1.0000
  Fe  Fe111     1.0  0.39194  0.74077  0.09919  1.0000
  C   C1058     1.0  0.39024  0.76156  0.99960  1.0000
  H   H1875     1.0  0.45964  0.95606  0.29700  1.0000
  H   H1876     1.0  0.43820  0.93636  0.19423  1.0000
  C   C1059     1.0  0.44401  0.76388  0.19154  1.0000
  H   H1877     1.0  0.47624  0.96931  0.13999  1.0000
  H   H1878     1.0  0.43486  0.75474  0.14445  1.0000
  H   H1879     1.0  0.43896  0.88170  0.28491  1.0000
  H   H1880     1.0  0.48127  0.88744  0.19660  1.0000
  H   H1881     1.0  0.49428  0.82744  0.17172  1.0000
  H   H1882     1.0  0.41178  0.82939  0.08315  1.0000
  C   C1060     1.0  0.36359  0.78734  0.99608  1.0000
  C   C1061     1.0  0.48567  0.88153  0.18455  1.0000
  C   C1062     1.0  0.48770  0.98491  0.21628  1.0000
  C   C1063     1.0  0.36404  0.74216  0.03304  1.0000
  C   C1064     1.0  0.46334  0.74013  0.13744  1.0000
  H   H1883     1.0  0.41580  0.95985  0.29587  1.0000
  C   C1065     1.0  0.42604  0.87002  0.00070  1.0000
  H   H1884     1.0  0.38165  0.74288  0.16403  1.0000
  C   C1066     1.0  0.41048  0.85467  0.06188  1.0000
  H   H1885     1.0  0.47930  0.74913  0.08025  1.0000
  C   C1067     1.0  0.37313  0.87899  0.06388  1.0000
  H   H1886     1.0  0.36613  0.74257  0.99640  1.0000
  H   H1887     1.0  0.44166  0.94460  0.28026  1.0000
  H   H1888     1.0  0.39713  0.83460  0.02272  1.0000
  H   H1889     1.0  0.45983  0.82508  0.18697  1.0000
  H   H1890     1.0  0.47867  0.84949  0.03049  1.0000
  N   N59       1.0  0.36936  0.76689  0.00290  1.0000
  C   C1068     1.0  0.39420  0.80832  0.03968  1.0000
  C   C1069     1.0  0.47318  0.87469  0.17934  1.0000
  H   H1891     1.0  0.46485  0.80028  0.19252  1.0000
  H   H1892     1.0  0.45510  0.81302  0.21051  1.0000
  C   C1070     1.0  0.41216  0.97085  0.26722  1.0000
  H   H1893     1.0  0.47697  0.95430  0.27593  1.0000
  C   C1071     1.0  0.46574  0.75331  0.11880  1.0000
  C   C1072     1.0  0.45922  0.89651  0.28365  1.0000
  H   H1894     1.0  0.34869  0.82436  0.99780  1.0000
  Fe  Fe112     1.0  0.49275  0.90350  0.24380  1.0000
  Fe  Fe113     1.0  0.45038  0.81241  0.99280  1.0000
  C   C1073     1.0  0.43122  0.98538  0.20600  1.0000
  C   C1074     1.0  0.40519  0.96232  0.28778  1.0000
  C   C1075     1.0  0.45079  0.92918  0.18571  1.0000
  H   H1895     1.0  0.45959  0.97341  0.11398  1.0000
  C   C1076     1.0  0.44257  0.74026  0.14581  1.0000
  H   H1896     1.0  0.41964  0.96294  0.22326  1.0000
  H   H1897     1.0  0.47555  0.76103  0.01057  1.0000
  C   C1077     1.0  0.43975  0.75820  0.17604  1.0000
  C   C1078     1.0  0.48528  0.75768  0.01983  1.0000
  H   H1898     1.0  0.46800  0.78209  0.08212  1.0000
  H   H1899     1.0  0.48431  0.96622  0.16714  1.0000
  H   H1900     1.0  0.41407  0.98477  0.26629  1.0000
  H   H1901     1.0  0.37654  0.97750  0.28944  1.0000
  H   H1902     1.0  0.48502  0.77034  0.02394  1.0000
  H   H1903     1.0  0.49515  0.88918  0.31074  1.0000
  H   H1904     1.0  0.36845  0.82822  0.00321  1.0000
  H   H1905     1.0  0.43750  0.98422  0.23950  1.0000
  C   C1079     1.0  0.49537  0.74106  0.16997  1.0000
  S   S235      1.0  0.48397  0.91602  0.21693  1.0000
  H   H1906     1.0  0.46971  0.97523  0.28421  1.0000
  S   S236      1.0  0.49232  0.83275  0.11532  1.0000
  C   C1080     1.0  0.48898  0.97982  0.23467  1.0000
  H   H1907     1.0  0.45460  0.98027  0.25943  1.0000
  H   H1908     1.0  0.49259  0.77392  0.08025  1.0000
  H   H1909     1.0  0.49080  0.92269  0.17566  1.0000
  H   H1910     1.0  0.47835  0.93360  0.12841  1.0000
  H   H1911     1.0  0.33641  0.74243  0.05055  1.0000
  H   H1912     1.0  0.40052  0.97319  0.26040  1.0000
  H   H1913     1.0  0.41604  0.86944  0.99306  1.0000
  C   C1081     1.0  0.48123  0.77701  0.07289  1.0000
  H   H1914     1.0  0.46972  0.74442  0.14627  1.0000
  H   H1915     1.0  0.48730  0.96643  0.24251  1.0000
  C   C1082     1.0  0.48024  0.74235  0.03674  1.0000
  C   C1083     1.0  0.42868  0.89995  0.30374  1.0000
  H   H1916     1.0  0.41260  0.74803  0.04034  1.0000
  H   H1917     1.0  0.43578  0.75815  0.20505  1.0000
  H   H1918     1.0  0.45896  0.76755  0.12041  1.0000
  H   H1919     1.0  0.45901  0.94716  0.14102  1.0000
  H   H1920     1.0  0.45894  0.75922  0.19162  1.0000
  Fe  Fe114     1.0  0.49532  0.93976  0.21683  1.0000
  H   H1921     1.0  0.38433  0.79596  0.00455  1.0000
  H   H1922     1.0  0.45336  0.92637  0.31092  1.0000
  H   H1923     1.0  0.41054  0.74753  0.16825  1.0000
  H   H1924     1.0  0.38329  0.96840  0.31122  1.0000
  H   H1925     1.0  0.45945  0.74970  0.10936  1.0000
  H   H1926     1.0  0.34607  0.76035  0.99755  1.0000
  H   H1927     1.0  0.42463  0.88445  0.00133  1.0000
  Fe  Fe115     1.0  0.49092  0.80325  0.12724  1.0000
  H   H1928     1.0  0.44408  0.97636  0.19984  1.0000
  H   H1929     1.0  0.37845  0.73749  0.03512  1.0000
  C   C1084     1.0  0.38796  0.97495  0.29659  1.0000
  H   H1930     1.0  0.49442  0.76973  0.16670  1.0000
  H   H1931     1.0  0.41519  0.89660  0.30833  1.0000
  C   C1085     1.0  0.36391  0.81984  0.99646  1.0000
  H   H1932     1.0  0.49392  0.75579  0.05804  1.0000
  N   N60       1.0  0.49424  0.94459  0.15175  1.0000
  H   H1933     1.0  0.48406  0.78783  0.06042  1.0000
  S   S237      1.0  0.46310  0.98641  0.31915  1.0000
  Fe  Fe116     1.0  0.44145  0.97177  0.33744  1.0000
  S   S238      1.0  0.43074  0.97312  0.36711  1.0000
  C   C1086     1.0  0.08041  0.95731  0.57491  1.0000
  Fe  Fe117     1.0  0.42173  0.94243  0.33992  1.0000
  N   N61       1.0  0.26554  0.88100  0.63802  1.0000
  C   C1087     1.0  0.09667  0.75780  0.50032  1.0000
  Fe  Fe118     1.0  0.40382  0.97153  0.36238  1.0000
  C   C1088     1.0  0.11065  0.74198  0.54900  1.0000
  S   S239      1.0  0.41396  0.97303  0.33200  1.0000
  Fe  Fe119     1.0  0.08421  0.81947  0.49335  1.0000
  S   S240      1.0  0.10405  0.82234  0.50820  1.0000
  S   S241      1.0  0.09595  0.80866  0.46731  1.0000
  Fe  Fe120     1.0  0.05060  0.83491  0.51994  1.0000
  S   S242      1.0  0.06745  0.83957  0.53718  1.0000
  S   S243      1.0  0.01925  0.84127  0.52795  1.0000
  Fe  Fe121     1.0  0.08589  0.85000  0.51058  1.0000
  S   S244      1.0  0.10022  0.87387  0.50331  1.0000
  Fe  Fe122     1.0  0.08454  0.81169  0.53378  1.0000
  S   S245      1.0  0.09498  0.79363  0.55853  1.0000
  S   S246      1.0  0.06737  0.84804  0.49338  1.0000
  S   S247      1.0  0.06637  0.80607  0.51879  1.0000
  S   S248      1.0  0.41461  0.92409  0.32629  1.0000
  C   C1089     1.0  0.40518  0.91239  0.62828  1.0000
  C   C1090     1.0  0.48035  0.91707  0.40962  1.0000
  S   S249      1.0  0.04838  0.76322  0.45042  1.0000
  C   C1091     1.0  0.00735  0.83796  0.51309  1.0000
  H   H1934     1.0  0.12251  0.96068  0.51049  1.0000
  H   H1935     1.0  0.38164  0.92762  0.43664  1.0000
  H   H1936     1.0  0.35136  0.98085  0.57431  1.0000
  Fe  Fe123     1.0  0.15977  0.91465  0.54517  1.0000
  S   S250      1.0  0.16318  0.92897  0.56545  1.0000
  S   S251      1.0  0.13875  0.89642  0.55453  1.0000
  Fe  Fe124     1.0  0.19053  0.92954  0.51525  1.0000
  S   S252      1.0  0.19645  0.94488  0.53279  1.0000
  S   S253      1.0  0.20474  0.92958  0.48560  1.0000
  Fe  Fe125     1.0  0.19374  0.91965  0.55496  1.0000
  S   S254      1.0  0.21548  0.90740  0.57195  1.0000
  Fe  Fe126     1.0  0.16560  0.95311  0.54180  1.0000
  H   H1937     1.0  0.27884  0.90258  0.63668  1.0000
  S   S255      1.0  0.19031  0.90345  0.53659  1.0000
  S   S256      1.0  0.15969  0.93958  0.52240  1.0000
  S   S257      1.0  0.25822  0.96197  0.60733  1.0000
  C   C1092     1.0  0.19633  0.94030  0.60893  1.0000
  Fe  Fe127     1.0  0.33428  0.95593  0.47586  1.0000
  S   S258      1.0  0.30743  0.96689  0.46666  1.0000
  S   S259      1.0  0.36213  0.96194  0.46069  1.0000
  Fe  Fe128     1.0  0.31780  0.93206  0.51108  1.0000
  S   S260      1.0  0.28946  0.94089  0.50544  1.0000
  S   S261      1.0  0.32534  0.90906  0.53428  1.0000
  Fe  Fe129     1.0  0.30318  0.93824  0.47663  1.0000
  S   S262      1.0  0.29109  0.92579  0.46086  1.0000
  Fe  Fe130     1.0  0.29535  0.96887  0.49605  1.0000
  N   N62       1.0  0.04652  0.85303  0.43653  1.0000
  S   S263      1.0  0.33136  0.92684  0.48290  1.0000
  S   S264      1.0  0.32255  0.96051  0.50465  1.0000
  C   C1093     1.0  0.31063  0.92096  0.59166  1.0000
  C   C1094     1.0  0.32517  0.90654  0.58681  1.0000
  C   C1095     1.0  0.32956  0.90316  0.56912  1.0000
  C   C1096     1.0  0.31981  0.91449  0.55595  1.0000
  C   C1097     1.0  0.30554  0.92930  0.56053  1.0000
  C   C1098     1.0  0.30082  0.93244  0.57851  1.0000
  H   H1938     1.0  0.15583  0.74221  0.42610  1.0000
  H   H1939     1.0  0.34059  0.89173  0.56559  1.0000
  H   H1940     1.0  0.29795  0.93808  0.55036  1.0000
  H   H1941     1.0  0.28965  0.94368  0.58213  1.0000
  H   H1942     1.0  0.31682  0.97535  0.39873  1.0000
  S   S265      1.0  0.21068  0.95009  0.63261  1.0000
  C   C1099     1.0  0.22849  0.92962  0.47870  1.0000
  C   C1100     1.0  0.23694  0.93745  0.48758  1.0000
  C   C1101     1.0  0.25604  0.93694  0.48178  1.0000
  C   C1102     1.0  0.26686  0.92808  0.46755  1.0000
  C   C1103     1.0  0.25830  0.92048  0.45861  1.0000
  C   C1104     1.0  0.23918  0.92146  0.46400  1.0000
  H   H1943     1.0  0.22876  0.94398  0.49878  1.0000
  H   H1944     1.0  0.26225  0.94349  0.48831  1.0000
  H   H1945     1.0  0.26648  0.91374  0.44752  1.0000
  H   H1946     1.0  0.23269  0.91549  0.45703  1.0000
  C   C1105     1.0  0.21416  0.92011  0.58812  1.0000
  C   C1106     1.0  0.23008  0.91907  0.59411  1.0000
  C   C1107     1.0  0.22921  0.92901  0.60711  1.0000
  H   H1947     1.0  0.14201  0.79770  0.44917  1.0000
  H   H1948     1.0  0.17133  0.78136  0.55018  1.0000
  C   C1108     1.0  0.19733  0.93098  0.59536  1.0000
  H   H1949     1.0  0.24312  0.91075  0.58857  1.0000
  H   H1950     1.0  0.15720  0.76635  0.51035  1.0000
  H   H1951     1.0  0.18498  0.93185  0.59087  1.0000
  H   H1952     1.0  0.41192  0.89757  0.63009  1.0000
  C   C1109     1.0  0.11018  0.88050  0.51795  1.0000
  C   C1110     1.0  0.10690  0.87361  0.53695  1.0000
  C   C1111     1.0  0.11550  0.87890  0.54797  1.0000
  C   C1112     1.0  0.12762  0.89093  0.54012  1.0000
  C   C1113     1.0  0.13066  0.89805  0.52118  1.0000
  C   C1114     1.0  0.12187  0.89296  0.51020  1.0000
  H   H1953     1.0  0.09767  0.86429  0.54315  1.0000
  H   H1954     1.0  0.11289  0.87352  0.56263  1.0000
  H   H1955     1.0  0.13988  0.90738  0.51495  1.0000
  H   H1956     1.0  0.12441  0.89846  0.49554  1.0000
  C   C1115     1.0  0.08258  0.79624  0.46255  1.0000
  C   C1116     1.0  0.06500  0.79500  0.47342  1.0000
  C   C1117     1.0  0.05461  0.78488  0.46950  1.0000
  C   C1118     1.0  0.06189  0.77564  0.45496  1.0000
  C   C1119     1.0  0.07948  0.77687  0.44407  1.0000
  C   C1120     1.0  0.08970  0.78738  0.44772  1.0000
  H   H1957     1.0  0.05932  0.80196  0.48473  1.0000
  H   H1958     1.0  0.04093  0.78412  0.47783  1.0000
  H   H1959     1.0  0.08508  0.76997  0.43268  1.0000
  H   H1960     1.0  0.10315  0.78860  0.43906  1.0000
  C   C1121     1.0  0.10592  0.77063  0.55845  1.0000
  H   H1961     1.0  0.01969  0.89041  0.48092  1.0000
  C   C1122     1.0  0.10172  0.76055  0.54825  1.0000
  H   H1962     1.0  0.10526  0.92438  0.56802  1.0000
  H   H1963     1.0  0.09138  0.76699  0.54011  1.0000
  H   H1964     1.0  0.31636  0.97360  0.60402  1.0000
  C   C1123     1.0  0.01698  0.82969  0.49827  1.0000
  H   H1965     1.0  0.03180  0.82464  0.49628  1.0000
  C   C1124     1.0  0.37182  0.98038  0.39837  1.0000
  C   C1125     1.0  0.38646  0.97050  0.40684  1.0000
  C   C1126     1.0  0.38337  0.96523  0.42601  1.0000
  C   C1127     1.0  0.36550  0.96918  0.43677  1.0000
  C   C1128     1.0  0.35076  0.97890  0.42833  1.0000
  N   N63       1.0  0.39654  0.91748  0.64673  1.0000
  H   H1966     1.0  0.40023  0.96691  0.39865  1.0000
  H   H1967     1.0  0.39478  0.95767  0.43249  1.0000
  H   H1968     1.0  0.00677  0.87493  0.47948  1.0000
  C   C1129     1.0  0.17555  0.97868  0.49058  1.0000
  H   H1969     1.0  0.36372  0.94324  0.41120  1.0000
  H   H1970     1.0  0.04800  0.94498  0.59454  1.0000
  C   C1130     1.0  0.99903  0.78240  0.47968  1.0000
  S   S266      1.0  0.40941  0.94096  0.36992  1.0000
  C   C1131     1.0  0.03980  0.86753  0.42102  1.0000
  H   H1971     1.0  0.12769  0.75976  0.44221  1.0000
  C   C1132     1.0  0.00139  0.78658  0.53344  1.0000
  C   C1133     1.0  0.03281  0.87542  0.45903  1.0000
  H   H1972     1.0  0.25926  0.82222  0.63647  1.0000
  H   H1973     1.0  0.49169  0.89440  0.37469  1.0000
  H   H1974     1.0  0.01899  0.76259  0.40281  1.0000
  H   H1975     1.0  0.49286  0.94372  0.32227  1.0000
  H   H1976     1.0  0.09641  0.82996  0.57334  1.0000
  H   H1977     1.0  0.37021  0.91490  0.45770  1.0000
  H   H1978     1.0  0.37217  0.93017  0.38037  1.0000
  H   H1979     1.0  0.11910  0.83273  0.54404  1.0000
  H   H1980     1.0  0.99955  0.78492  0.38189  1.0000
  H   H1981     1.0  0.43476  0.89341  0.35275  1.0000
  C   C1134     1.0  0.02090  0.87677  0.47822  1.0000
  H   H1982     1.0  0.04536  0.76746  0.62788  1.0000
  C   C1135     1.0  0.37993  0.97114  0.63750  1.0000
  H   H1983     1.0  0.12969  0.90206  0.59424  1.0000
  C   C1136     1.0  0.14090  0.80118  0.53541  1.0000
  H   H1984     1.0  0.15119  0.76351  0.53499  1.0000
  C   C1137     1.0  0.32976  0.97807  0.59992  1.0000
  H   H1985     1.0  0.43143  0.87649  0.37377  1.0000
  H   H1986     1.0  0.36613  0.92016  0.41008  1.0000
  H   H1987     1.0  0.27336  0.84845  0.62085  1.0000
  H   H1988     1.0  0.43879  0.92340  0.58877  1.0000
  N   N64       1.0  0.26575  0.88596  0.52992  1.0000
  C   C1138     1.0  0.27108  0.87337  0.54714  1.0000
  C   C1139     1.0  0.25757  0.90533  0.53300  1.0000
  C   C1140     1.0  0.25097  0.87913  0.52603  1.0000
  C   C1141     1.0  0.28184  0.88564  0.51347  1.0000
  C   C1142     1.0  0.30029  0.88764  0.51612  1.0000
  C   C1143     1.0  0.27872  0.85286  0.54637  1.0000
  C   C1144     1.0  0.24176  0.89132  0.51009  1.0000
  C   C1145     1.0  0.26492  0.91142  0.54667  1.0000
  C   C1146     1.0  0.25593  0.93120  0.54826  1.0000
  C   C1147     1.0  0.31568  0.88525  0.49903  1.0000
  C   C1148     1.0  0.23003  0.88124  0.50505  1.0000
  H   H1989     1.0  0.25885  0.87420  0.55892  1.0000
  H   H1990     1.0  0.28167  0.87785  0.55103  1.0000
  H   H1991     1.0  0.25904  0.91552  0.51974  1.0000
  H   H1992     1.0  0.24237  0.90730  0.53861  1.0000
  H   H1993     1.0  0.23961  0.87743  0.53854  1.0000
  H   H1994     1.0  0.25673  0.86538  0.52261  1.0000
  H   H1995     1.0  0.28473  0.87282  0.50839  1.0000
  H   H1996     1.0  0.27834  0.89685  0.50170  1.0000
  H   H1997     1.0  0.30511  0.87730  0.52778  1.0000
  H   H1998     1.0  0.29873  0.90146  0.51835  1.0000
  H   H1999     1.0  0.26748  0.84654  0.54629  1.0000
  H   H2000     1.0  0.28987  0.85106  0.53397  1.0000
  H   H2001     1.0  0.25214  0.89523  0.49751  1.0000
  H   H2002     1.0  0.23258  0.90400  0.51420  1.0000
  H   H2003     1.0  0.26138  0.90301  0.56065  1.0000
  H   H2004     1.0  0.28010  0.91004  0.54271  1.0000
  H   H2005     1.0  0.25919  0.94065  0.53490  1.0000
  H   H2006     1.0  0.24068  0.93304  0.55289  1.0000
  H   H2007     1.0  0.26121  0.93486  0.55846  1.0000
  H   H2008     1.0  0.32867  0.88707  0.50119  1.0000
  H   H2009     1.0  0.31823  0.87133  0.49639  1.0000
  H   H2010     1.0  0.31197  0.89559  0.48681  1.0000
  H   H2011     1.0  0.22273  0.89051  0.49436  1.0000
  H   H2012     1.0  0.23893  0.86922  0.49944  1.0000
  H   H2013     1.0  0.21952  0.87659  0.51724  1.0000
  H   H2014     1.0  0.13371  0.77487  0.52164  1.0000
  H   H2015     1.0  0.33281  0.89769  0.59691  1.0000
  H   H2016     1.0  0.34505  0.91575  0.44304  1.0000
  H   H2017     1.0  0.29697  0.88886  0.60721  1.0000
  H   H2018     1.0  0.03747  0.89261  0.38807  1.0000
  C   C1149     1.0  0.27959  0.88785  0.64317  1.0000
  H   H2019     1.0  0.08141  0.84411  0.41150  1.0000
  H   H2020     1.0  0.46315  0.86891  0.35543  1.0000
  H   H2021     1.0  0.11645  0.74081  0.44889  1.0000
  S   S267      1.0  0.08595  0.74405  0.40754  1.0000
  H   H2022     1.0  0.34699  0.93810  0.44331  1.0000
  C   C1150     1.0  0.43888  0.88757  0.36617  1.0000
  H   H2023     1.0  0.07841  0.73917  0.51476  1.0000
  C   C1151     1.0  0.47174  0.92771  0.39533  1.0000
  H   H2024     1.0  0.09487  0.77281  0.49516  1.0000
  C   C1152     1.0  0.18514  0.79011  0.56565  1.0000
  H   H2025     1.0  0.35015  0.95284  0.56536  1.0000
  H   H2026     1.0  0.42526  0.96813  0.42863  1.0000
  N   N65       1.0  0.10117  0.95317  0.56829  1.0000
  C   C1153     1.0  0.44058  0.96351  0.42535  1.0000
  H   H2027     1.0  0.33869  0.96819  0.60898  1.0000
  H   H2028     1.0  0.47374  0.94909  0.37085  1.0000
  H   H2029     1.0  0.20176  0.98280  0.52773  1.0000
  H   H2030     1.0  0.28721  0.96493  0.43327  1.0000
  C   C1154     1.0  0.45977  0.87986  0.36323  1.0000
  C   C1155     1.0  0.00527  0.77061  0.38019  1.0000
  H   H2031     1.0  0.28439  0.98492  0.41505  1.0000
  H   H2032     1.0  0.19775  0.79124  0.55455  1.0000
  C   C1156     1.0  0.35629  0.93182  0.41572  1.0000
  S   S268      1.0  0.30503  0.92366  0.61446  1.0000
  H   H2033     1.0  0.15074  0.79968  0.50631  1.0000
  H   H2034     1.0  0.01667  0.74425  0.39487  1.0000
  C   C1157     1.0  0.38422  0.93652  0.64466  1.0000
  H   H2035     1.0  0.46026  0.94277  0.44053  1.0000
  H   H2036     1.0  0.32888  0.98146  0.57098  1.0000
  H   H2037     1.0  0.41198  0.93757  0.60992  1.0000
  C   C1158     1.0  0.44518  0.94864  0.44229  1.0000
  C   C1159     1.0  0.32364  0.98294  0.63741  1.0000
  C   C1160     1.0  0.11443  0.90466  0.59943  1.0000
  C   C1161     1.0  0.28784  0.88061  0.60615  1.0000
  C   C1162     1.0  0.03372  0.85692  0.45441  1.0000
  C   C1163     1.0  0.28804  0.88361  0.58580  1.0000
  H   H2038     1.0  0.06785  0.84867  0.45166  1.0000
  H   H2039     1.0  0.29399  0.86606  0.61124  1.0000
  H   H2040     1.0  0.42037  0.93783  0.44812  1.0000
  H   H2041     1.0  0.03786  0.84588  0.46605  1.0000
  H   H2042     1.0  0.43717  0.90091  0.60244  1.0000
  H   H2043     1.0  0.10428  0.96099  0.59197  1.0000
  H   H2044     1.0  0.28328  0.89840  0.58009  1.0000
  N   N66       1.0  0.33889  0.93732  0.40824  1.0000
  C   C1164     1.0  0.34392  0.94669  0.38829  1.0000
  C   C1165     1.0  0.32446  0.95040  0.41908  1.0000
  H   H2045     1.0  0.11229  0.93166  0.60242  1.0000
  C   C1166     1.0  0.33229  0.92015  0.41051  1.0000
  C   C1167     1.0  0.31452  0.92259  0.40372  1.0000
  C   C1168     1.0  0.35905  0.93512  0.37552  1.0000
  H   H2046     1.0  0.46581  0.90559  0.36156  1.0000
  C   C1169     1.0  0.30999  0.96486  0.40908  1.0000
  C   C1170     1.0  0.31063  0.90406  0.40479  1.0000
  C   C1171     1.0  0.05542  0.74321  0.61619  1.0000
  H   H2047     1.0  0.00667  0.79683  0.52133  1.0000
  H   H2048     1.0  0.34870  0.95928  0.38732  1.0000
  H   H2049     1.0  0.33172  0.95151  0.38193  1.0000
  H   H2050     1.0  0.31701  0.94266  0.43198  1.0000
  H   H2051     1.0  0.33116  0.95869  0.42369  1.0000
  H   H2052     1.0  0.04072  0.88124  0.42197  1.0000
  C   C1172     1.0  0.06579  0.85365  0.43727  1.0000
  H   H2053     1.0  0.34345  0.90994  0.40381  1.0000
  H   H2054     1.0  0.32919  0.91332  0.42526  1.0000
  H   H2055     1.0  0.31561  0.93025  0.38928  1.0000
  H   H2056     1.0  0.30244  0.92982  0.41274  1.0000
  S   S269      1.0  0.06389  0.74558  0.36712  1.0000
  H   H2057     1.0  0.35435  0.92318  0.37470  1.0000
  S   S270      1.0  0.45021  0.92447  0.39489  1.0000
  H   H2058     1.0  0.01324  0.77765  0.50120  1.0000
  C   C1173     1.0  0.00129  0.79394  0.55024  1.0000
  H   H2059     1.0  0.30347  0.95879  0.40185  1.0000
  H   H2060     1.0  0.09091  0.92709  0.60134  1.0000
  H   H2061     1.0  0.30891  0.89603  0.41918  1.0000
  H   H2062     1.0  0.29763  0.90619  0.40018  1.0000
  H   H2063     1.0  0.32209  0.89616  0.39578  1.0000
  H   H2064     1.0  0.37116  0.90175  0.63711  1.0000
  H   H2065     1.0  0.37433  0.93790  0.34714  1.0000
  C   C1174     1.0  0.36351  0.94647  0.35601  1.0000
  H   H2066     1.0  0.14380  0.79773  0.47195  1.0000
  H   H2067     1.0  0.44403  0.95671  0.41348  1.0000
  H   H2068     1.0  0.04038  0.80558  0.42450  1.0000
  C   C1175     1.0  0.42908  0.91500  0.59825  1.0000
  C   C1176     1.0  0.04588  0.83410  0.43543  1.0000
  C   C1177     1.0  0.10380  0.98515  0.57054  1.0000
  H   H2069     1.0  0.43915  0.92240  0.45779  1.0000
  H   H2070     1.0  0.09685  0.97186  0.54261  1.0000
  H   H2071     1.0  0.04402  0.74952  0.54854  1.0000
  C   C1178     1.0  0.02755  0.83206  0.43230  1.0000
  H   H2072     1.0  0.44034  0.92625  0.43357  1.0000
  C   C1179     1.0  0.00113  0.73846  0.45210  1.0000
  H   H2073     1.0  0.09699  0.93808  0.54018  1.0000
  C   C1180     1.0  0.36720  0.90506  0.65092  1.0000
  C   C1181     1.0  0.02789  0.81199  0.43378  1.0000
  H   H2074     1.0  0.12439  0.95978  0.57380  1.0000
  H   H2075     1.0  0.04898  0.82411  0.44813  1.0000
  H   H2076     1.0  0.05675  0.82907  0.42407  1.0000
  C   C1182     1.0  0.12987  0.74470  0.44660  1.0000
  N   N67       1.0  0.44969  0.97963  0.42007  1.0000
  H   H2077     1.0  0.41889  0.91454  0.59075  1.0000
  H   H2078     1.0  0.10176  0.75423  0.47282  1.0000
  H   H2079     1.0  0.02479  0.86859  0.42226  1.0000
  H   H2080     1.0  0.07443  0.97189  0.56950  1.0000
  H   H2081     1.0  0.05268  0.85119  0.39947  1.0000
  H   H2082     1.0  0.11248  0.83739  0.41812  1.0000
  H   H2083     1.0  0.01524  0.83732  0.44236  1.0000
  H   H2084     1.0  0.02559  0.83959  0.41834  1.0000
  H   H2085     1.0  0.15889  0.76465  0.47631  1.0000
  H   H2086     1.0  0.49152  0.91185  0.32472  1.0000
  H   H2087     1.0  0.28342  0.85432  0.64510  1.0000
  C   C1183     1.0  0.41929  0.92342  0.61506  1.0000
  H   H2088     1.0  0.22386  0.96695  0.54727  1.0000
  H   H2089     1.0  0.06753  0.86805  0.43319  1.0000
  H   H2090     1.0  0.17830  0.96605  0.48529  1.0000
  H   H2091     1.0  0.04798  0.87668  0.37303  1.0000
  C   C1184     1.0  0.49091  0.87713  0.32087  1.0000
  C   C1185     1.0  0.05040  0.86532  0.40135  1.0000
  H   H2092     1.0  0.03952  0.74404  0.58315  1.0000
  H   H2093     1.0  0.01548  0.81097  0.42991  1.0000
  H   H2094     1.0  0.02033  0.80054  0.56224  1.0000
  S   S271      1.0  0.45015  0.94133  0.34242  1.0000
  H   H2095     1.0  0.23179  0.96010  0.52541  1.0000
  H   H2096     1.0  0.36889  0.95833  0.35601  1.0000
  H   H2097     1.0  0.27589  0.84346  0.57604  1.0000
  H   H2098     1.0  0.04673  0.87708  0.45873  1.0000
  C   C1186     1.0  0.13165  0.82760  0.55006  1.0000
  H   H2099     1.0  0.47356  0.90735  0.42029  1.0000
  Fe  Fe131     1.0  0.23777  0.95488  0.63360  1.0000
  H   H2100     1.0  0.29162  0.82753  0.56260  1.0000
  H   H2101     1.0  0.12332  0.80373  0.57086  1.0000
  H   H2102     1.0  0.38644  0.98247  0.63679  1.0000
  H   H2103     1.0  0.15642  0.79078  0.56911  1.0000
  H   H2104     1.0  0.17709  0.81090  0.53236  1.0000
  Fe  Fe132     1.0  0.43734  0.94262  0.37179  1.0000
  H   H2105     1.0  0.37726  0.93933  0.63304  1.0000
  C   C1187     1.0  0.48052  0.94043  0.38167  1.0000
  H   H2106     1.0  0.01044  0.74193  0.47489  1.0000
  C   C1188     1.0  0.10666  0.95912  0.54758  1.0000
  H   H2107     1.0  0.47573  0.96439  0.42765  1.0000
  H   H2108     1.0  0.22947  0.87119  0.64949  1.0000
  C   C1189     1.0  0.10873  0.94494  0.53593  1.0000
  C   C1190     1.0  0.11063  0.95383  0.51552  1.0000
  H   H2109     1.0  0.29390  0.88069  0.63760  1.0000
  H   H2110     1.0  0.12498  0.93078  0.56911  1.0000
  H   H2111     1.0  0.26437  0.90194  0.61326  1.0000
  H   H2112     1.0  0.12046  0.96281  0.54350  1.0000
  H   H2113     1.0  0.45809  0.97074  0.45576  1.0000
  C   C1191     1.0  0.13673  0.73820  0.49652  1.0000
  H   H2114     1.0  0.01432  0.75983  0.43292  1.0000
  H   H2115     1.0  0.06780  0.73911  0.62225  1.0000
  H   H2116     1.0  0.01750  0.74711  0.34825  1.0000
  H   H2117     1.0  0.12141  0.93410  0.53741  1.0000
  H   H2118     1.0  0.06885  0.76261  0.51700  1.0000
  H   H2119     1.0  0.01923  0.85685  0.45477  1.0000
  H   H2120     1.0  0.06399  0.86905  0.39834  1.0000
  C   C1192     1.0  0.06099  0.73908  0.33553  1.0000
  C   C1193     1.0  0.39321  0.95281  0.64230  1.0000
  H   H2121     1.0  0.08347  0.82729  0.43218  1.0000
  C   C1194     1.0  0.03983  0.87813  0.38704  1.0000
  C   C1195     1.0  0.15000  0.83000  0.51877  1.0000
  C   C1196     1.0  0.15617  0.84769  0.51785  1.0000
  C   C1197     1.0  0.16026  0.85850  0.49806  1.0000
  H   H2122     1.0  0.13710  0.83422  0.51336  1.0000
  H   H2123     1.0  0.16093  0.82298  0.50864  1.0000
  H   H2124     1.0  0.16884  0.84450  0.52331  1.0000
  H   H2125     1.0  0.14519  0.85689  0.52575  1.0000
  H   H2126     1.0  0.16404  0.87135  0.49787  1.0000
  H   H2127     1.0  0.17196  0.85043  0.48943  1.0000
  H   H2128     1.0  0.14782  0.86223  0.49209  1.0000
  N   N68       1.0  0.14712  0.81719  0.53741  1.0000
  C   C1198     1.0  0.12584  0.81726  0.57009  1.0000
  S   S272      1.0  0.28307  0.96707  0.63310  1.0000
  C   C1199     1.0  0.16491  0.81149  0.54417  1.0000
  H   H2129     1.0  0.13540  0.83989  0.55139  1.0000
  H   H2130     1.0  0.48383  0.92530  0.35363  1.0000
  C   C1200     1.0  0.10973  0.93317  0.57431  1.0000
  H   H2131     1.0  0.47561  0.87945  0.32378  1.0000
  H   H2132     1.0  0.33699  0.98228  0.43666  1.0000
  C   C1201     1.0  0.47044  0.89520  0.35286  1.0000
  H   H2133     1.0  0.37671  0.97270  0.62398  1.0000
  H   H2134     1.0  0.06998  0.95063  0.55452  1.0000
  H   H2135     1.0  0.13574  0.74821  0.50485  1.0000
  C   C1202     1.0  0.00917  0.75777  0.39820  1.0000
  H   H2136     1.0  0.04184  0.94193  0.57493  1.0000
  H   H2137     1.0  0.07661  0.95567  0.59013  1.0000
  H   H2138     1.0  0.49474  0.84823  0.32103  1.0000
  H   H2139     1.0  0.18036  0.97537  0.56079  1.0000
  H   H2140     1.0  0.16584  0.82210  0.55088  1.0000
  C   C1203     1.0  0.28666  0.84223  0.56322  1.0000
  H   H2141     1.0  0.29856  0.84747  0.56359  1.0000
  H   H2142     1.0  0.10853  0.89721  0.59286  1.0000
  H   H2143     1.0  0.06196  0.75320  0.32985  1.0000
  H   H2144     1.0  0.09777  0.96404  0.51310  1.0000
  C   C1204     1.0  0.10597  0.92517  0.59531  1.0000
  C   C1205     1.0  0.00752  0.82839  0.48573  1.0000
  C   C1206     1.0  0.35369  0.92605  0.43696  1.0000
  H   H2145     1.0  0.15722  0.76457  0.45344  1.0000
  H   H2146     1.0  0.11148  0.89919  0.61450  1.0000
  H   H2147     1.0  0.12671  0.80570  0.53283  1.0000
  H   H2148     1.0  0.30236  0.87899  0.57810  1.0000
  H   H2149     1.0  0.43465  0.89841  0.37430  1.0000
  H   H2150     1.0  0.25826  0.88201  0.61249  1.0000
  C   C1207     1.0  0.10835  0.74760  0.48475  1.0000
  H   H2151     1.0  0.02847  0.80028  0.53818  1.0000
  C   C1208     1.0  0.15318  0.79125  0.51987  1.0000
  H   H2152     1.0  0.24151  0.92849  0.61148  1.0000
  H   H2153     1.0  0.29433  0.98527  0.53215  1.0000
  C   C1209     1.0  0.10794  0.82814  0.58014  1.0000
  H   H2154     1.0  0.16809  0.78889  0.51974  1.0000
  H   H2155     1.0  0.10969  0.84178  0.58033  1.0000
  H   H2156     1.0  0.37911  0.90491  0.43766  1.0000
  C   C1210     1.0  0.04035  0.75537  0.62787  1.0000
  H   H2157     1.0  0.35504  0.94736  0.58794  1.0000
  H   H2158     1.0  0.18262  0.80056  0.57392  1.0000
  H   H2159     1.0  0.32094  0.96949  0.63786  1.0000
  H   H2160     1.0  0.10418  0.82059  0.59454  1.0000
  H   H2161     1.0  0.13947  0.79079  0.54840  1.0000
  C   C1211     1.0  0.14849  0.77287  0.52190  1.0000
  C   C1212     1.0  0.16842  0.79260  0.55755  1.0000
  H   H2162     1.0  0.46299  0.87369  0.37698  1.0000
  C   C1213     1.0  0.45507  0.98556  0.44976  1.0000
  H   H2163     1.0  0.49444  0.86106  0.34802  1.0000
  H   H2164     1.0  0.35101  0.95150  0.35005  1.0000
  H   H2165     1.0  0.13672  0.81546  0.57769  1.0000
  H   H2166     1.0  0.01517  0.82219  0.47416  1.0000
  C   C1214     1.0  0.24649  0.89052  0.64688  1.0000
  H   H2167     1.0  0.12210  0.76982  0.57741  1.0000
  C   C1215     1.0  0.11901  0.76219  0.56928  1.0000
  C   C1216     1.0  0.37233  0.91787  0.44249  1.0000
  H   H2168     1.0  0.27897  0.87574  0.58387  1.0000
  C   C1217     1.0  0.43565  0.93286  0.44558  1.0000
  S   S273      1.0  0.25870  0.93536  0.64897  1.0000
  H   H2169     1.0  0.01109  0.77436  0.47144  1.0000
  H   H2170     1.0  0.46526  0.90208  0.34008  1.0000
  H   H2171     1.0  0.44994  0.98472  0.39101  1.0000
  H   H2172     1.0  0.03685  0.74777  0.64230  1.0000
  H   H2173     1.0  0.16446  0.79316  0.45440  1.0000
  H   H2174     1.0  0.18761  0.77634  0.57479  1.0000
  C   C1218     1.0  0.21227  0.93934  0.61481  1.0000
  H   H2175     1.0  0.24496  0.90566  0.64251  1.0000
  H   H2176     1.0  0.33212  0.94837  0.58537  1.0000
  H   H2177     1.0  0.16867  0.97592  0.50534  1.0000
  H   H2178     1.0  0.07535  0.93127  0.57289  1.0000
  H   H2179     1.0  0.24224  0.97597  0.53029  1.0000
  H   H2180     1.0  0.24949  0.85580  0.63039  1.0000
  H   H2181     1.0  0.47417  0.96341  0.40577  1.0000
  C   C1219     1.0  0.26798  0.88674  0.61740  1.0000
  Fe  Fe133     1.0  0.06260  0.74272  0.43238  1.0000
  S   S274      1.0  0.23764  0.97852  0.64497  1.0000
  C   C1220     1.0  0.04932  0.94966  0.57944  1.0000
  H   H2182     1.0  0.19972  0.89372  0.64923  1.0000
  C   C1221     1.0  0.26856  0.86049  0.64492  1.0000
  Fe  Fe134     1.0  0.25970  0.98411  0.61998  1.0000
  C   C1222     1.0  0.19375  0.98423  0.48809  1.0000
  C   C1223     1.0  0.15046  0.77055  0.46577  1.0000
  C   C1224     1.0  0.34439  0.95463  0.57975  1.0000
  C   C1225     1.0  0.15012  0.79104  0.45999  1.0000
  H   H2183     1.0  0.02853  0.77900  0.55503  1.0000
  H   H2184     1.0  0.20293  0.97251  0.49530  1.0000
  H   H2185     1.0  0.43990  0.95442  0.45483  1.0000
  H   H2186     1.0  0.49235  0.87142  0.37518  1.0000
  H   H2187     1.0  0.12483  0.77432  0.48550  1.0000
  C   C1226     1.0  0.13064  0.76731  0.47370  1.0000
  Fe  Fe135     1.0  0.27930  0.94417  0.62335  1.0000
  S   S275      1.0  0.15005  0.98238  0.54245  1.0000
  C   C1227     1.0  0.22974  0.88575  0.64333  1.0000
  H   H2188     1.0  0.30035  0.98222  0.42921  1.0000
  H   H2189     1.0  0.11310  0.94315  0.50753  1.0000
  C   C1228     1.0  0.35394  0.98459  0.40910  1.0000
  H   H2190     1.0  0.22636  0.98214  0.49751  1.0000
  H   H2191     1.0  0.04271  0.96445  0.57622  1.0000
  H   H2192     1.0  0.22681  0.98720  0.57742  1.0000
  H   H2193     1.0  0.01222  0.77369  0.53303  1.0000
  C   C1229     1.0  0.08252  0.84204  0.42587  1.0000
  H   H2194     1.0  0.02768  0.80427  0.44813  1.0000
  H   H2195     1.0  0.02769  0.76033  0.62216  1.0000
  C   C1230     1.0  0.33884  0.97501  0.58011  1.0000
  H   H2196     1.0  0.12214  0.77509  0.46349  1.0000
  H   H2197     1.0  0.21087  0.91172  0.64751  1.0000
  C   C1231     1.0  0.10895  0.96397  0.57676  1.0000
  H   H2198     1.0  0.02628  0.87464  0.38898  1.0000
  H   H2199     1.0  0.43225  0.89302  0.64771  1.0000
  H   H2200     1.0  0.01843  0.77024  0.36962  1.0000
  H   H2201     1.0  0.05865  0.75167  0.60216  1.0000
  H   H2202     1.0  0.36690  0.97216  0.64823  1.0000
  H   H2203     1.0  0.10335  0.75399  0.51213  1.0000
  H   H2204     1.0  0.41971  0.92609  0.65031  1.0000
  C   C1232     1.0  0.06968  0.94621  0.56945  1.0000
  C   C1233     1.0  0.12836  0.74399  0.56948  1.0000
  C   C1234     1.0  0.47041  0.97283  0.41540  1.0000
  C   C1235     1.0  0.05568  0.74468  0.55569  1.0000
  C   C1236     1.0  0.02089  0.79333  0.55145  1.0000
  C   C1237     1.0  0.22911  0.97167  0.53229  1.0000
  H   H2205     1.0  0.06065  0.75665  0.55608  1.0000
  H   H2206     1.0  0.10259  0.84431  0.43979  1.0000
  C   C1238     1.0  0.29457  0.97479  0.42253  1.0000
  H   H2207     1.0  0.13867  0.73767  0.57769  1.0000
  C   C1239     1.0  0.10072  0.84652  0.42556  1.0000
  H   H2208     1.0  0.18320  0.94832  0.61484  1.0000
  C   C1240     1.0  0.13765  0.73730  0.46433  1.0000
  C   C1241     1.0  0.99981  0.77609  0.49994  1.0000
  C   C1242     1.0  0.07742  0.75365  0.50736  1.0000
  N   N69       1.0  0.12874  0.74767  0.47962  1.0000
  H   H2209     1.0  0.39432  0.91418  0.62064  1.0000
  H   H2210     1.0  0.10097  0.86094  0.41847  1.0000
  H   H2211     1.0  0.02642  0.88707  0.44919  1.0000
  N   N70       1.0  0.49128  0.88948  0.34858  1.0000
  H   H2212     1.0  0.40614  0.95254  0.63161  1.0000
  H   H2213     1.0  0.27622  0.82277  0.64823  1.0000
  C   C1243     1.0  0.26310  0.84946  0.63397  1.0000
  H   H2214     1.0  0.43012  0.92384  0.62172  1.0000
  H   H2215     1.0  0.99982  0.73746  0.36588  1.0000
  H   H2216     1.0  0.99962  0.79704  0.47470  1.0000
  H   H2217     1.0  0.13628  0.74032  0.41878  1.0000
  H   H2218     1.0  0.41690  0.98694  0.40391  1.0000
  H   H2219     1.0  0.02733  0.86621  0.48885  1.0000
  H   H2220     1.0  0.19986  0.98681  0.47316  1.0000
  C   C1244     1.0  0.00023  0.75838  0.44080  1.0000
  H   H2221     1.0  0.07047  0.75626  0.49584  1.0000
  H   H2222     1.0  0.33881  0.98130  0.63496  1.0000
  C   C1245     1.0  0.26258  0.82995  0.64482  1.0000
  H   H2223     1.0  0.00074  0.78716  0.41235  1.0000
  H   H2224     1.0  0.22997  0.88866  0.62846  1.0000
  H   H2225     1.0  0.99958  0.76133  0.50395  1.0000
  H   H2226     1.0  0.35791  0.91884  0.65013  1.0000
  C   C1246     1.0  0.21149  0.89686  0.65253  1.0000
  S   S276      1.0  0.45056  0.82496  0.94080  1.0000
  S   S277      1.0  0.40565  0.80439  0.96060  1.0000
  H   H2227     1.0  0.35127  0.89421  0.67782  1.0000
  H   H2228     1.0  0.48464  0.94645  0.79569  1.0000
  H   H2229     1.0  0.38911  0.95828  0.75383  1.0000
  H   H2230     1.0  0.47415  0.91821  0.79466  1.0000
  C   C1247     1.0  0.27817  0.88570  0.66400  1.0000
  H   H2231     1.0  0.45602  0.74606  0.90943  1.0000
  S   S278      1.0  0.39869  0.95909  0.71776  1.0000
  H   H2232     1.0  0.49141  0.94095  0.86878  1.0000
  H   H2233     1.0  0.48644  0.88593  0.74426  1.0000
  Fe  Fe136     1.0  0.47265  0.80625  0.95518  1.0000
  C   C1248     1.0  0.45760  0.91509  0.70605  1.0000
  Fe  Fe137     1.0  0.44809  0.84358  0.95925  1.0000
  C   C1249     1.0  0.44633  0.97676  0.69934  1.0000
  Fe  Fe138     1.0  0.46517  0.94680  0.83594  1.0000
  S   S279      1.0  0.45330  0.79075  0.97715  1.0000
  S   S280      1.0  0.39344  0.91951  0.76067  1.0000
  Fe  Fe139     1.0  0.36310  0.94079  0.70492  1.0000
  H   H2234     1.0  0.34904  0.94547  0.82863  1.0000
  S   S281      1.0  0.34804  0.92844  0.69185  1.0000
  Fe  Fe140     1.0  0.40117  0.94907  0.69277  1.0000
  H   H2235     1.0  0.46021  0.86728  0.76142  1.0000
  S   S282      1.0  0.39113  0.92367  0.70857  1.0000
  Fe  Fe141     1.0  0.43110  0.81094  0.96406  1.0000
  C   C1250     1.0  0.47383  0.91722  0.75850  1.0000
  H   H2236     1.0  0.47980  0.93856  0.89279  1.0000
  H   H2237     1.0  0.34356  0.89244  0.65858  1.0000
  Fe  Fe142     1.0  0.36991  0.97333  0.71468  1.0000
  C   C1251     1.0  0.41090  0.91602  0.65727  1.0000
  H   H2238     1.0  0.37977  0.90593  0.67244  1.0000
  S   S283      1.0  0.45258  0.97419  0.82099  1.0000
  H   H2239     1.0  0.44215  0.87544  0.87589  1.0000
  C   C1252     1.0  0.49133  0.85643  0.91305  1.0000
  S   S284      1.0  0.40083  0.74413  0.92231  1.0000
  S   S285      1.0  0.26482  0.96156  0.68469  1.0000
  S   S286      1.0  0.47176  0.82601  0.97202  1.0000
  C   C1253     1.0  0.29479  0.89053  0.66724  1.0000
  H   H2240     1.0  0.46898  0.95026  0.77218  1.0000
  H   H2241     1.0  0.48987  0.90300  0.81976  1.0000
  C   C1254     1.0  0.39940  0.93350  0.77161  1.0000
  H   H2242     1.0  0.35108  0.97403  0.75682  1.0000
  H   H2243     1.0  0.47980  0.88464  0.91487  1.0000
  Fe  Fe143     1.0  0.43517  0.97832  0.84850  1.0000
  H   H2244     1.0  0.32457  0.74081  0.93253  1.0000
  S   S287      1.0  0.41455  0.91772  0.87968  1.0000
  C   C1255     1.0  0.45039  0.87619  0.77057  1.0000
  C   C1256     1.0  0.32502  0.93847  0.68987  1.0000
  C   C1257     1.0  0.31327  0.95037  0.70103  1.0000
  C   C1258     1.0  0.29471  0.95744  0.69949  1.0000
  C   C1259     1.0  0.28801  0.95287  0.68659  1.0000
  C   C1260     1.0  0.29989  0.94126  0.67525  1.0000
  C   C1261     1.0  0.31824  0.93396  0.67702  1.0000
  H   H2245     1.0  0.31836  0.95378  0.71108  1.0000
  H   H2246     1.0  0.28554  0.96642  0.70829  1.0000
  H   H2247     1.0  0.37346  0.93610  0.82703  1.0000
  H   H2248     1.0  0.47601  0.76297  0.90572  1.0000
  C   C1262     1.0  0.44580  0.93807  0.68139  1.0000
  C   C1263     1.0  0.46442  0.89026  0.86718  1.0000
  C   C1264     1.0  0.46281  0.78419  0.92079  1.0000
  H   H2249     1.0  0.26566  0.89517  0.67000  1.0000
  H   H2250     1.0  0.47942  0.86400  0.88031  1.0000
  C   C1265     1.0  0.44273  0.92555  0.69809  1.0000
  H   H2251     1.0  0.36652  0.98395  0.77543  1.0000
  H   H2252     1.0  0.48343  0.91191  0.86854  1.0000
  H   H2253     1.0  0.47705  0.85427  0.91590  1.0000
  H   H2254     1.0  0.39907  0.74049  0.98306  1.0000
  H   H2255     1.0  0.45187  0.87006  0.78494  1.0000
  H   H2256     1.0  0.27759  0.87147  0.67154  1.0000
  S   S288      1.0  0.44761  0.87383  0.94959  1.0000
  H   H2257     1.0  0.40895  0.91161  0.79306  1.0000
  H   H2258     1.0  0.44877  0.78346  0.92032  1.0000
  C   C1266     1.0  0.36585  0.76356  0.97175  1.0000
  H   H2259     1.0  0.49146  0.88073  0.81591  1.0000
  S   S289      1.0  0.42045  0.97067  0.79393  1.0000
  C   C1267     1.0  0.44527  0.96620  0.71918  1.0000
  C   C1268     1.0  0.43793  0.88597  0.93047  1.0000
  C   C1269     1.0  0.42762  0.87831  0.92349  1.0000
  C   C1270     1.0  0.42013  0.88835  0.90817  1.0000
  C   C1271     1.0  0.42332  0.90587  0.89945  1.0000
  C   C1272     1.0  0.43364  0.91351  0.90644  1.0000
  C   C1273     1.0  0.44076  0.90366  0.92201  1.0000
  H   H2260     1.0  0.42525  0.86474  0.92999  1.0000
  H   H2261     1.0  0.41206  0.88241  0.90288  1.0000
  H   H2262     1.0  0.44860  0.90971  0.92746  1.0000
  C   C1274     1.0  0.40715  0.78826  0.94777  1.0000
  C   C1275     1.0  0.41893  0.77089  0.95032  1.0000
  C   C1276     1.0  0.41739  0.75722  0.94236  1.0000
  C   C1277     1.0  0.40437  0.76105  0.93147  1.0000
  C   C1278     1.0  0.39335  0.77871  0.92821  1.0000
  C   C1279     1.0  0.39444  0.79210  0.93664  1.0000
  S   S290      1.0  0.44534  0.93245  0.83236  1.0000
  C   C1280     1.0  0.41211  0.95593  0.78620  1.0000
  H   H2263     1.0  0.38335  0.78185  0.91975  1.0000
  H   H2264     1.0  0.38520  0.80544  0.93471  1.0000
  C   C1281     1.0  0.46373  0.94059  0.67297  1.0000
  S   S291      1.0  0.41259  0.96633  0.84649  1.0000
  H   H2265     1.0  0.49632  0.76490  0.96791  1.0000
  H   H2266     1.0  0.45517  0.90501  0.71862  1.0000
  H   H2267     1.0  0.34654  0.74979  0.96794  1.0000
  C   C1282     1.0  0.49142  0.87711  0.90556  1.0000
  C   C1283     1.0  0.41351  0.93735  0.79451  1.0000
  Fe  Fe144     1.0  0.38577  0.93534  0.73360  1.0000
  Fe  Fe145     1.0  0.42869  0.93934  0.85945  1.0000
  S   S292      1.0  0.42722  0.95040  0.67102  1.0000
  H   H2268     1.0  0.43142  0.97056  0.72790  1.0000
  N   N71       1.0  0.48992  0.88469  0.88572  1.0000
  H   H2269     1.0  0.29314  0.88964  0.68214  1.0000
  H   H2270     1.0  0.48904  0.85689  0.94162  1.0000
  H   H2271     1.0  0.43594  0.92710  0.89998  1.0000
  S   S293      1.0  0.37356  0.96562  0.68783  1.0000
  Fe  Fe146     1.0  0.26091  0.95986  0.65751  1.0000
  H   H2272     1.0  0.40389  0.91972  0.67082  1.0000
  H   H2273     1.0  0.24453  0.88726  0.66207  1.0000
  S   S294      1.0  0.44968  0.95179  0.86400  1.0000
  Fe  Fe147     1.0  0.43105  0.96049  0.81991  1.0000
  C   C1284     1.0  0.42434  0.89710  0.66084  1.0000
  C   C1285     1.0  0.47229  0.75069  0.93577  1.0000
  H   H2274     1.0  0.49566  0.90364  0.78668  1.0000
  H   H2275     1.0  0.38043  0.96633  0.81299  1.0000
  C   C1286     1.0  0.40358  0.96331  0.77129  1.0000
  H   H2276     1.0  0.47504  0.87878  0.79334  1.0000
  C   C1287     1.0  0.47853  0.93068  0.68139  1.0000
  H   H2277     1.0  0.42895  0.92360  0.70477  1.0000
  H   H2278     1.0  0.44377  0.88975  0.85325  1.0000
  H   H2279     1.0  0.44775  0.95132  0.71972  1.0000
  C   C1288     1.0  0.36133  0.75049  0.96292  1.0000
  C   C1289     1.0  0.47652  0.76609  0.91864  1.0000
  H   H2280     1.0  0.46617  0.95031  0.66009  1.0000
  C   C1290     1.0  0.35188  0.98220  0.81438  1.0000
  C   C1291     1.0  0.47441  0.87823  0.88268  1.0000
  H   H2281     1.0  0.32713  0.92469  0.66846  1.0000
  H   H2282     1.0  0.47629  0.75433  0.94690  1.0000
  C   C1292     1.0  0.40737  0.92606  0.78703  1.0000
  C   C1293     1.0  0.39670  0.95226  0.76449  1.0000
  H   H2283     1.0  0.44947  0.96165  0.76190  1.0000
  H   H2284     1.0  0.45604  0.96857  0.72465  1.0000
  H   H2285     1.0  0.45703  0.75216  0.93998  1.0000
  H   H2286     1.0  0.41973  0.93163  0.80633  1.0000
  H   H2287     1.0  0.39264  0.88974  0.65865  1.0000
  H   H2288     1.0  0.33792  0.97913  0.81759  1.0000
  C   C1294     1.0  0.45407  0.89579  0.76445  1.0000
  H   H2289     1.0  0.41682  0.88637  0.66938  1.0000
  C   C1295     1.0  0.47058  0.89378  0.78821  1.0000
  H   H2290     1.0  0.43105  0.90077  0.68493  1.0000
  H   H2291     1.0  0.36996  0.79128  0.98120  1.0000
  H   H2292     1.0  0.44652  0.90805  0.66342  1.0000
  H   H2293     1.0  0.32702  0.97291  0.76485  1.0000
  C   C1296     1.0  0.43832  0.89759  0.67126  1.0000
  H   H2294     1.0  0.47187  0.90998  0.89179  1.0000
  H   H2295     1.0  0.44800  0.88404  0.67341  1.0000
  C   C1297     1.0  0.47549  0.91781  0.69788  1.0000
  H   H2296     1.0  0.47165  0.95367  0.74770  1.0000
  H   H2297     1.0  0.44647  0.93439  0.75589  1.0000
  H   H2298     1.0  0.42870  0.76786  0.95898  1.0000
  H   H2299     1.0  0.29583  0.90474  0.65985  1.0000
  C   C1298     1.0  0.46215  0.95060  0.76122  1.0000
  C   C1299     1.0  0.45686  0.93239  0.76418  1.0000
  H   H2300     1.0  0.46020  0.97136  0.69129  1.0000
  H   H2301     1.0  0.35749  0.77742  0.96726  1.0000
  N   N72       1.0  0.47175  0.89794  0.76772  1.0000
  H   H2302     1.0  0.42620  0.74377  0.94465  1.0000
  H   H2303     1.0  0.45015  0.92863  0.77887  1.0000
  H   H2304     1.0  0.46310  0.87753  0.89530  1.0000
  H   H2305     1.0  0.35279  0.98593  0.82694  1.0000
  C   C1300     1.0  0.36230  0.94854  0.82857  1.0000
  S   S295      1.0  0.49381  0.90499  0.70848  1.0000
  H   H2306     1.0  0.38942  0.98702  0.73576  1.0000
  H   H2307     1.0  0.42031  0.88416  0.77910  1.0000
  H   H2308     1.0  0.46602  0.98373  0.77022  1.0000
  H   H2309     1.0  0.42869  0.88260  0.75523  1.0000
  H   H2310     1.0  0.29480  0.93755  0.66538  1.0000
  H   H2311     1.0  0.46907  0.89481  0.82389  1.0000
  H   H2312     1.0  0.39665  0.95236  0.65542  1.0000
  H   H2313     1.0  0.47643  0.91907  0.74327  1.0000
  S   S296      1.0  0.35656  0.95005  0.73159  1.0000
  S   S297      1.0  0.49575  0.93530  0.83101  1.0000
  C   C1301     1.0  0.36684  0.96432  0.81263  1.0000
  C   C1302     1.0  0.49317  0.93483  0.88308  1.0000
  H   H2314     1.0  0.36138  0.95191  0.84190  1.0000
  H   H2315     1.0  0.45377  0.90057  0.74959  1.0000
  H   H2316     1.0  0.36440  0.87712  0.66446  1.0000
  H   H2317     1.0  0.40205  0.97770  0.76513  1.0000
  H   H2318     1.0  0.48664  0.87025  0.76562  1.0000
  C   C1303     1.0  0.45198  0.88026  0.86313  1.0000
  H   H2319     1.0  0.46728  0.79541  0.90948  1.0000
  C   C1304     1.0  0.43087  0.87632  0.76939  1.0000
  H   H2320     1.0  0.48618  0.92012  0.76087  1.0000
  C   C1305     1.0  0.35599  0.89132  0.66376  1.0000
  H   H2321     1.0  0.20987  0.89351  0.66770  1.0000
  H   H2322     1.0  0.25174  0.83011  0.65773  1.0000
  H   H2323     1.0  0.42883  0.86209  0.77304  1.0000
  H   H2324     1.0  0.44181  0.90469  0.77165  1.0000
  H   H2325     1.0  0.26113  0.85729  0.65956  1.0000
  H   H2326     1.0  0.46043  0.86836  0.85708  1.0000
  C   C1306     1.0  0.48540  0.90533  0.88267  1.0000
  H   H2327     1.0  0.46221  0.78746  0.93406  1.0000
  H   H2328     1.0  0.45559  0.90298  0.87146  1.0000
  H   H2329     1.0  0.36405  0.75541  0.94776  1.0000
  C   C1307     1.0  0.33744  0.98368  0.78215  1.0000
  H   H2330     1.0  0.47408  0.89453  0.85423  1.0000
  H   H2331     1.0  0.37080  0.82232  0.98166  1.0000
  H   H2332     1.0  0.32193  0.97721  0.66674  1.0000
  C   C1308     1.0  0.48754  0.88458  0.75861  1.0000
  H   H2333     1.0  0.30784  0.88095  0.66241  1.0000
  C   C1309     1.0  0.48304  0.89495  0.81490  1.0000
  H   H2334     1.0  0.45594  0.89738  0.79583  1.0000
  H   H2335     1.0  0.43571  0.97362  0.69426  1.0000
  C   C1310     1.0  0.33719  0.98120  0.76335  1.0000
  C   C1311     1.0  0.38458  0.90408  0.65794  1.0000
  H   H2336     1.0  0.33938  0.96987  0.79124  1.0000
  H   H2337     1.0  0.36831  0.96000  0.79970  1.0000
  H   H2338     1.0  0.38065  0.76390  0.96650  1.0000
  H   H2339     1.0  0.30003  0.98682  0.66021  1.0000
  H   H2340     1.0  0.49232  0.93266  0.67484  1.0000
  H   H2341     1.0  0.49063  0.76815  0.91702  1.0000
  H   H2342     1.0  0.37281  0.93754  0.65712  1.0000
  C   C1312     1.0  0.48149  0.90370  0.79508  1.0000
  S   S298      1.0  0.42650  0.83139  0.98148  1.0000
  Fe  Fe148     1.0  0.54761  0.21881  0.07980  1.0000
  S   S299      1.0  0.53144  0.21030  0.10824  1.0000
  Fe  Fe149     1.0  0.54055  0.18939  0.06544  1.0000
  C   C1313     1.0  0.50290  0.18604  0.16601  1.0000
  H   H2343     1.0  0.56006  0.10779  0.22077  1.0000
  H   H2344     1.0  0.53761  0.99994  0.27891  1.0000
  S   S300      1.0  0.56350  0.19040  0.07757  1.0000
  C   C1314     1.0  0.50974  0.14258  0.27372  1.0000
  C   C1315     1.0  0.55902  0.13683  0.21429  1.0000
  H   H2345     1.0  0.58403  0.01379  0.30527  1.0000
  C   C1316     1.0  0.62036  0.13115  0.15974  1.0000
  H   H2346     1.0  0.75224  0.03977  0.30659  1.0000
  H   H2347     1.0  0.50886  0.02567  0.27962  1.0000
  S   S301      1.0  0.62582  0.06382  0.30883  1.0000
  C   C1317     1.0  0.55246  0.99283  0.27629  1.0000
  Fe  Fe150     1.0  0.59824  0.08361  0.31164  1.0000
  H   H2348     1.0  0.50915  0.19211  0.04698  1.0000
  S   S302      1.0  0.58140  0.09829  0.29016  1.0000
  H   H2349     1.0  0.64177  0.17721  0.07157  1.0000
  C   C1318     1.0  0.53780  0.17870  0.00864  1.0000
  Fe  Fe151     1.0  0.52193  0.08019  0.20018  1.0000
  S   S303      1.0  0.53615  0.05114  0.21081  1.0000
  S   S304      1.0  0.52200  0.09293  0.17014  1.0000
  H   H2350     1.0  0.54034  0.09838  0.29712  1.0000
  S   S305      1.0  0.51776  0.05989  0.25230  1.0000
  H   H2351     1.0  0.50342  0.14198  0.11574  1.0000
  Fe  Fe152     1.0  0.54331  0.06317  0.23055  1.0000
  S   S306      1.0  0.57083  0.05286  0.23877  1.0000
  H   H2352     1.0  0.51780  0.14494  0.30466  1.0000
  C   C1319     1.0  0.58265  0.08916  0.18604  1.0000
  S   S307      1.0  0.53150  0.09223  0.21813  1.0000
  H   H2353     1.0  0.52422  0.13955  0.26572  1.0000
  C   C1320     1.0  0.53971  0.22562  0.99814  1.0000
  H   H2354     1.0  0.65045  0.20542  0.05307  1.0000
  S   S308      1.0  0.52583  0.21849  0.06577  1.0000
  C   C1321     1.0  0.57857  0.08514  0.27631  1.0000
  C   C1322     1.0  0.56479  0.09236  0.26609  1.0000
  C   C1323     1.0  0.56180  0.08205  0.25533  1.0000
  C   C1324     1.0  0.57341  0.06498  0.25370  1.0000
  C   C1325     1.0  0.58752  0.05788  0.26355  1.0000
  C   C1326     1.0  0.58986  0.06779  0.27516  1.0000
  H   H2355     1.0  0.55617  0.10586  0.26670  1.0000
  H   H2356     1.0  0.55063  0.08740  0.24816  1.0000
  H   H2357     1.0  0.59648  0.04461  0.26239  1.0000
  H   H2358     1.0  0.60057  0.06215  0.28295  1.0000
  C   C1327     1.0  0.61510  0.11811  0.17808  1.0000
  C   C1328     1.0  0.53224  0.18254  0.02631  1.0000
  S   S309      1.0  0.55621  0.16257  0.12937  1.0000
  C   C1329     1.0  0.52478  0.18202  0.99785  1.0000
  C   C1330     1.0  0.61998  0.10019  0.23817  1.0000
  H   H2359     1.0  0.53211  0.00892  0.21628  1.0000
  H   H2360     1.0  0.62317  0.18891  0.11134  1.0000
  H   H2361     1.0  0.73326  0.04082  0.29649  1.0000
  H   H2362     1.0  0.68741  0.10787  0.30689  1.0000
  H   H2363     1.0  0.63296  0.14777  0.31627  1.0000
  H   H2364     1.0  0.60024  0.18432  0.11903  1.0000
  C   C1331     1.0  0.53159  0.11227  0.15896  1.0000
  C   C1332     1.0  0.53970  0.12003  0.16815  1.0000
  C   C1333     1.0  0.54751  0.13525  0.15887  1.0000
  C   C1334     1.0  0.54673  0.14318  0.14045  1.0000
  C   C1335     1.0  0.53824  0.13569  0.13134  1.0000
  C   C1336     1.0  0.53089  0.12015  0.14052  1.0000
  H   H2365     1.0  0.53984  0.11431  0.18240  1.0000
  H   H2366     1.0  0.53772  0.14159  0.11710  1.0000
  H   H2367     1.0  0.52466  0.11418  0.13331  1.0000
  H   H2368     1.0  0.54043  0.99007  0.20467  1.0000
  Fe  Fe153     1.0  0.51099  0.20749  0.09420  1.0000
  H   H2369     1.0  0.56448  0.01555  0.25728  1.0000
  H   H2370     1.0  0.53505  0.12756  0.29560  1.0000
  H   H2371     1.0  0.51178  0.16093  0.15580  1.0000
  H   H2372     1.0  0.62469  0.11329  0.23314  1.0000
  H   H2373     1.0  0.54718  0.08339  0.31710  1.0000
  H   H2374     1.0  0.50501  0.14402  0.18380  1.0000
  H   H2375     1.0  0.55645  0.00242  0.20619  1.0000
  C   C1337     1.0  0.58844  0.06927  0.18390  1.0000
  H   H2376     1.0  0.58235  0.06780  0.17308  1.0000
  H   H2377     1.0  0.53315  0.13084  0.23247  1.0000
  H   H2378     1.0  0.58964  0.18948  0.03593  1.0000
  C   C1338     1.0  0.56399  0.00763  0.27156  1.0000
  H   H2379     1.0  0.62338  0.09573  0.21116  1.0000
  H   H2380     1.0  0.55228  0.17343  0.00321  1.0000
  H   H2381     1.0  0.61732  0.14541  0.16167  1.0000
  H   H2382     1.0  0.61886  0.10414  0.17533  1.0000
  H   H2383     1.0  0.59760  0.12499  0.21829  1.0000
  C   C1339     1.0  0.50059  0.17348  0.15473  1.0000
  H   H2384     1.0  0.50969  0.03803  0.29609  1.0000
  S   S310      1.0  0.54905  0.17891  0.03916  1.0000
  H   H2385     1.0  0.60932  0.10083  0.25115  1.0000
  H   H2386     1.0  0.54428  0.06449  0.29870  1.0000
  C   C1340     1.0  0.59049  0.09169  0.20141  1.0000
  Fe  Fe154     1.0  0.50520  0.08787  0.23834  1.0000
  H   H2387     1.0  0.64253  0.20439  0.03417  1.0000
  H   H2388     1.0  0.54756  0.21137  0.99795  1.0000
  C   C1341     1.0  0.52322  0.18642  0.16318  1.0000
  C   C1342     1.0  0.55582  0.02120  0.28429  1.0000
  C   C1343     1.0  0.51350  0.18927  0.03333  1.0000
  H   H2389     1.0  0.59009  0.20563  0.01431  1.0000
  H   H2390     1.0  0.60511  0.22433  0.02390  1.0000
  H   H2391     1.0  0.55350  0.01393  0.29894  1.0000
  C   C1344     1.0  0.54965  0.23491  0.00634  1.0000
  H   H2392     1.0  0.61261  0.18338  0.08621  1.0000
  N   N73       1.0  0.58687  0.11102  0.20406  1.0000
  H   H2393     1.0  0.53153  0.14140  0.20892  1.0000
  H   H2394     1.0  0.65407  0.98808  0.27499  1.0000
  H   H2395     1.0  0.62483  0.99564  0.26544  1.0000
  C   C1345     1.0  0.50751  0.12919  0.29229  1.0000
  H   H2396     1.0  0.61868  0.20119  0.02508  1.0000
  H   H2397     1.0  0.56471  0.23029  0.00089  1.0000
  H   H2398     1.0  0.52321  0.22542  0.14129  1.0000
  H   H2399     1.0  0.56544  0.03027  0.28202  1.0000
  C   C1346     1.0  0.54378  0.99717  0.21359  1.0000
  H   H2400     1.0  0.64822  0.23478  0.04934  1.0000
  H   H2401     1.0  0.50600  0.15689  0.27564  1.0000
  H   H2402     1.0  0.64440  0.99400  0.30534  1.0000
  H   H2403     1.0  0.73810  0.06157  0.29823  1.0000
  H   H2404     1.0  0.52294  0.07906  0.29382  1.0000
  H   H2405     1.0  0.57612  0.21263  0.03515  1.0000
  H   H2406     1.0  0.59227  0.20117  0.08972  1.0000
  H   H2407     1.0  0.67193  0.17488  0.04899  1.0000
  C   C1347     1.0  0.50603  0.18853  0.00495  1.0000
  H   H2408     1.0  0.60311  0.20743  0.11465  1.0000
  H   H2409     1.0  0.54254  0.02995  0.28118  1.0000
  S   S311      1.0  0.52365  0.17798  0.09274  1.0000
  H   H2410     1.0  0.57841  0.00115  0.27307  1.0000
  C   C1348     1.0  0.52058  0.13034  0.30379  1.0000
  H   H2411     1.0  0.63071  0.17543  0.05450  1.0000
  C   C1349     1.0  0.62087  0.23290  0.04696  1.0000
  H   H2412     1.0  0.66083  0.17302  0.03197  1.0000
  H   H2413     1.0  0.56483  0.22875  0.10734  1.0000
  H   H2414     1.0  0.58630  0.12572  0.17606  1.0000
  H   H2415     1.0  0.60550  0.08545  0.19846  1.0000
  C   C1350     1.0  0.59427  0.12371  0.18673  1.0000
  H   H2416     1.0  0.56293  0.14777  0.20235  1.0000
  H   H2417     1.0  0.61262  0.13069  0.14977  1.0000
  C   C1351     1.0  0.61224  0.09648  0.22369  1.0000
  H   H2418     1.0  0.58464  0.08290  0.21447  1.0000
  H   H2419     1.0  0.63540  0.12702  0.15388  1.0000
  H   H2420     1.0  0.58767  0.09778  0.17256  1.0000
  Fe  Fe155     1.0  0.54531  0.18151  0.10499  1.0000
  H   H2421     1.0  0.60872  0.22474  0.08089  1.0000
  H   H2422     1.0  0.60866  0.08283  0.22912  1.0000
  C   C1352     1.0  0.59472  0.11131  0.21989  1.0000
  C   C1353     1.0  0.53788  0.14120  0.22025  1.0000
  H   H2423     1.0  0.53128  0.17262  0.16832  1.0000
  H   H2424     1.0  0.56734  0.09260  0.18939  1.0000
  H   H2425     1.0  0.55982  0.11882  0.19747  1.0000
  H   H2426     1.0  0.62350  0.11885  0.18729  1.0000
  H   H2427     1.0  0.55389  0.14109  0.16603  1.0000
  H   H2428     1.0  0.53297  0.15485  0.22392  1.0000
  H   H2429     1.0  0.63196  0.08896  0.24123  1.0000
  H   H2430     1.0  0.56460  0.13741  0.22582  1.0000
  C   C1354     1.0  0.56615  0.11780  0.20905  1.0000
  H   H2431     1.0  0.58436  0.10934  0.23312  1.0000
  H   H2432     1.0  0.59212  0.13761  0.18932  1.0000
  H   H2433     1.0  0.58331  0.06008  0.19697  1.0000
  H   H2434     1.0  0.60374  0.06497  0.17986  1.0000
  N   N74       1.0  0.62070  0.21319  0.05653  1.0000
  C   C1355     1.0  0.60505  0.20819  0.05212  1.0000
  C   C1356     1.0  0.61745  0.21174  0.07705  1.0000
  Fe  Fe156     1.0  0.50952  0.04979  0.23175  1.0000
  C   C1357     1.0  0.63924  0.20159  0.04946  1.0000
  C   C1358     1.0  0.64172  0.18068  0.05671  1.0000
  C   C1359     1.0  0.60583  0.20996  0.03151  1.0000
  C   C1360     1.0  0.50467  0.02669  0.29429  1.0000
  C   C1361     1.0  0.60720  0.19686  0.09009  1.0000
  C   C1362     1.0  0.60856  0.19427  0.10998  1.0000
  C   C1363     1.0  0.66023  0.17048  0.04693  1.0000
  C   C1364     1.0  0.58941  0.20406  0.02914  1.0000
  C   C1365     1.0  0.53118  0.07343  0.30455  1.0000
  H   H2435     1.0  0.59170  0.21687  0.05779  1.0000
  H   H2436     1.0  0.60382  0.19398  0.05900  1.0000
  H   H2437     1.0  0.63076  0.20997  0.08105  1.0000
  H   H2438     1.0  0.50397  0.18059  0.14009  1.0000
  H   H2439     1.0  0.66184  0.15554  0.05262  1.0000
  H   H2440     1.0  0.60096  0.02989  0.31643  1.0000
  H   H2441     1.0  0.62203  0.00730  0.28354  1.0000
  C   C1366     1.0  0.54914  0.99379  0.24543  1.0000
  H   H2442     1.0  0.52441  0.19606  0.17085  1.0000
  H   H2443     1.0  0.52043  0.99278  0.15295  1.0000
  C   C1367     1.0  0.53551  0.08904  0.30993  1.0000
  H   H2444     1.0  0.52927  0.19101  0.14840  1.0000
  H   H2445     1.0  0.52557  0.22526  0.00658  1.0000
  C   C1368     1.0  0.53020  0.23494  0.14375  1.0000
  H   H2446     1.0  0.51062  0.11532  0.28940  1.0000
  C   C1369     1.0  0.73794  0.04709  0.30520  1.0000
  H   H2447     1.0  0.62542  0.23420  0.03181  1.0000
  C   C1370     1.0  0.62452  0.99364  0.28026  1.0000
  H   H2448     1.0  0.54654  0.23001  0.02147  1.0000
  C   C1371     1.0  0.50040  0.19192  0.02278  1.0000
  H   H2449     1.0  0.54532  0.22899  0.14142  1.0000
  S   S312      1.0  0.66166  0.08564  0.31589  1.0000
  H   H2450     1.0  0.55841  0.00332  0.23760  1.0000
  H   H2451     1.0  0.51139  0.01374  0.30239  1.0000
  C   C1372     1.0  0.59027  0.00687  0.31690  1.0000
  H   H2452     1.0  0.53550  0.00297  0.24964  1.0000
  H   H2453     1.0  0.52334  0.06506  0.31655  1.0000
  H   H2454     1.0  0.50044  0.14117  0.26573  1.0000
  S   S313      1.0  0.49783  0.02452  0.24497  1.0000
  H   H2455     1.0  0.52482  0.23633  0.15829  1.0000
  H   H2456     1.0  0.50562  0.09883  0.31892  1.0000
  H   H2457     1.0  0.54036  0.14507  0.31873  1.0000
  H   H2458     1.0  0.49750  0.08143  0.28130  1.0000
  H   H2459     1.0  0.49773  0.18147  0.18094  1.0000
  H   H2460     1.0  0.57144  0.04723  0.38049  1.0000
  Fe  Fe157     1.0  0.79129  0.13071  0.48642  1.0000
  S   S314      1.0  0.79411  0.14009  0.51039  1.0000
  S   S315      1.0  0.77519  0.14918  0.46551  1.0000
  Fe  Fe158     1.0  0.81354  0.09218  0.49745  1.0000
  S   S316      1.0  0.81889  0.09822  0.52201  1.0000
  S   S317      1.0  0.82548  0.06445  0.48993  1.0000
  Fe  Fe159     1.0  0.78893  0.11256  0.52661  1.0000
  S   S318      1.0  0.76978  0.10565  0.55393  1.0000
  Fe  Fe160     1.0  0.82389  0.12517  0.50384  1.0000
  S   S319      1.0  0.84939  0.13578  0.50172  1.0000
  S   S320      1.0  0.78322  0.10481  0.50332  1.0000
  S   S321      1.0  0.82135  0.11768  0.47859  1.0000
  S   S322      1.0  0.76945  0.01593  0.49592  1.0000
  S   S323      1.0  0.65219  0.01012  0.52392  1.0000
  Fe  Fe161     1.0  0.69844  0.10689  0.39347  1.0000
  S   S324      1.0  0.67536  0.09860  0.41636  1.0000
  S   S325      1.0  0.69928  0.11329  0.36319  1.0000
  Fe  Fe162     1.0  0.72226  0.10669  0.41935  1.0000
  S   S326      1.0  0.70110  0.09816  0.44455  1.0000
  S   S327      1.0  0.75160  0.10674  0.41947  1.0000
  Fe  Fe163     1.0  0.69799  0.07891  0.42922  1.0000
  S   S328      1.0  0.69800  0.04941  0.44266  1.0000
  Fe  Fe164     1.0  0.68037  0.11849  0.42965  1.0000
  S   S329      1.0  0.65515  0.13713  0.44255  1.0000
  S   S330      1.0  0.72078  0.08564  0.40525  1.0000
  S   S331      1.0  0.70170  0.12876  0.40552  1.0000
  Fe  Fe165     1.0  0.66405  0.07640  0.56806  1.0000
  S   S332      1.0  0.63309  0.08474  0.57351  1.0000
  S   S333      1.0  0.67830  0.04685  0.57265  1.0000
  Fe  Fe166     1.0  0.66907  0.11521  0.55598  1.0000
  S   S334      1.0  0.63860  0.12680  0.56008  1.0000
  S   S335      1.0  0.68671  0.13592  0.54668  1.0000
  Fe  Fe167     1.0  0.63657  0.10579  0.58632  1.0000
  S   S336      1.0  0.61948  0.11488  0.61225  1.0000
  Fe  Fe168     1.0  0.63831  0.10479  0.54670  1.0000
  S   S337      1.0  0.62015  0.11079  0.52669  1.0000
  S   S338      1.0  0.66720  0.09567  0.58322  1.0000
  S   S339      1.0  0.66913  0.09490  0.54024  1.0000
  Fe  Fe169     1.0  0.87454  0.21481  0.53059  1.0000
  S   S340      1.0  0.88437  0.20593  0.55708  1.0000
  S   S341      1.0  0.84930  0.20632  0.52844  1.0000
  H   H2461     1.0  0.81055  0.99825  0.56660  1.0000
  C   C1373     1.0  0.54580  0.02915  0.40531  1.0000
  Fe  Fe170     1.0  0.91295  0.20474  0.53923  1.0000
  S   S342      1.0  0.93642  0.18079  0.54508  1.0000
  C   C1374     1.0  0.60657  0.98908  0.34689  1.0000
  H   H2462     1.0  0.96545  0.20524  0.50450  1.0000
  H   H2463     1.0  0.70728  0.00500  0.37884  1.0000
  H   H2464     1.0  0.65148  0.08078  0.45657  1.0000
  H   H2465     1.0  0.85061  0.14174  0.44078  1.0000
  H   H2466     1.0  0.65209  0.07055  0.43819  1.0000
  H   H2467     1.0  0.64509  0.10366  0.39052  1.0000
  H   H2468     1.0  0.58500  0.02812  0.37103  1.0000
  C   C1375     1.0  0.95668  0.20124  0.55297  1.0000
  C   C1376     1.0  0.95463  0.18391  0.55282  1.0000
  C   C1377     1.0  0.96728  0.16837  0.55928  1.0000
  H   H2469     1.0  0.65524  0.14086  0.36538  1.0000
  H   H2470     1.0  0.96587  0.15493  0.55924  1.0000
  N   N75       1.0  0.62263  0.12466  0.38075  1.0000
  C   C1378     1.0  0.64593  0.12897  0.46586  1.0000
  C   C1379     1.0  0.65727  0.11775  0.47777  1.0000
  C   C1380     1.0  0.64957  0.11228  0.49658  1.0000
  C   C1381     1.0  0.63045  0.11750  0.50335  1.0000
  C   C1382     1.0  0.61916  0.12836  0.49131  1.0000
  C   C1383     1.0  0.62691  0.13435  0.47271  1.0000
  H   H2471     1.0  0.67198  0.11375  0.47262  1.0000
  H   H2472     1.0  0.65838  0.10393  0.50575  1.0000
  H   H2473     1.0  0.60440  0.13247  0.49645  1.0000
  H   H2474     1.0  0.61811  0.14308  0.46359  1.0000
  C   C1384     1.0  0.65918  0.02011  0.53783  1.0000
  C   C1385     1.0  0.67293  0.01003  0.54751  1.0000
  C   C1386     1.0  0.67844  0.01805  0.55871  1.0000
  C   C1387     1.0  0.67044  0.03627  0.55992  1.0000
  C   C1388     1.0  0.65680  0.04632  0.55014  1.0000
  C   C1389     1.0  0.65081  0.03810  0.53954  1.0000
  H   H2475     1.0  0.67962  0.99614  0.54607  1.0000
  H   H2476     1.0  0.68920  0.01029  0.56603  1.0000
  H   H2477     1.0  0.65085  0.06048  0.55059  1.0000
  H   H2478     1.0  0.63965  0.04571  0.53272  1.0000
  C   C1390     1.0  0.67537  0.02113  0.41185  1.0000
  C   C1391     1.0  0.67357  0.04010  0.40711  1.0000
  C   C1392     1.0  0.68094  0.04872  0.41620  1.0000
  C   C1393     1.0  0.68956  0.03854  0.43058  1.0000
  C   C1394     1.0  0.69121  0.01956  0.43549  1.0000
  H   H2479     1.0  0.85390  0.21688  0.41692  1.0000
  H   H2480     1.0  0.66666  0.04811  0.39616  1.0000
  H   H2481     1.0  0.67978  0.06329  0.41215  1.0000
  H   H2482     1.0  0.66008  0.01314  0.46012  1.0000
  H   H2483     1.0  0.71537  0.17004  0.58920  1.0000
  C   C1395     1.0  0.84888  0.15573  0.50882  1.0000
  C   C1396     1.0  0.83291  0.16475  0.51941  1.0000
  C   C1397     1.0  0.83319  0.18042  0.52503  1.0000
  C   C1398     1.0  0.84947  0.18702  0.52041  1.0000
  C   C1399     1.0  0.86535  0.17818  0.50957  1.0000
  C   C1400     1.0  0.86505  0.16258  0.50381  1.0000
  H   H2484     1.0  0.82038  0.15961  0.52336  1.0000
  H   H2485     1.0  0.82080  0.18728  0.53330  1.0000
  H   H2486     1.0  0.87779  0.18347  0.50554  1.0000
  H   H2487     1.0  0.87739  0.15581  0.49542  1.0000
  C   C1401     1.0  0.74677  0.11380  0.55164  1.0000
  C   C1402     1.0  0.73507  0.10162  0.55568  1.0000
  C   C1403     1.0  0.71657  0.10824  0.55400  1.0000
  C   C1404     1.0  0.70971  0.12707  0.54879  1.0000
  C   C1405     1.0  0.72131  0.13920  0.54508  1.0000
  C   C1406     1.0  0.73992  0.13257  0.54617  1.0000
  H   H2488     1.0  0.74039  0.08709  0.55989  1.0000
  H   H2489     1.0  0.70763  0.09880  0.55686  1.0000
  H   H2490     1.0  0.71588  0.15376  0.54140  1.0000
  H   H2491     1.0  0.74890  0.14199  0.54316  1.0000
  C   C1407     1.0  0.76785  0.13718  0.45351  1.0000
  C   C1408     1.0  0.75477  0.14646  0.44271  1.0000
  C   C1409     1.0  0.74882  0.13700  0.43307  1.0000
  C   C1410     1.0  0.75640  0.11834  0.43370  1.0000
  C   C1411     1.0  0.76965  0.10918  0.44430  1.0000
  C   C1412     1.0  0.77514  0.11847  0.45438  1.0000
  H   H2492     1.0  0.74940  0.16102  0.44163  1.0000
  H   H2493     1.0  0.73911  0.14429  0.42441  1.0000
  H   H2494     1.0  0.77596  0.09490  0.44450  1.0000
  H   H2495     1.0  0.78548  0.11123  0.46237  1.0000
  C   C1413     1.0  0.80982  0.05131  0.49087  1.0000
  C   C1414     1.0  0.81649  0.03433  0.48566  1.0000
  C   C1415     1.0  0.80418  0.02351  0.48670  1.0000
  C   C1416     1.0  0.78518  0.02953  0.49329  1.0000
  C   C1417     1.0  0.77859  0.04636  0.49869  1.0000
  C   C1418     1.0  0.79082  0.05726  0.49730  1.0000
  H   H2496     1.0  0.83120  0.02958  0.48073  1.0000
  H   H2497     1.0  0.80944  0.01047  0.48261  1.0000
  H   H2498     1.0  0.76408  0.05090  0.50441  1.0000
  H   H2499     1.0  0.78553  0.07002  0.50172  1.0000
  H   H2500     1.0  0.68615  0.99612  0.42952  1.0000
  H   H2501     1.0  0.65768  0.04431  0.32491  1.0000
  H   H2502     1.0  0.69604  0.08248  0.60514  1.0000
  C   C1419     1.0  0.60820  0.09849  0.62824  1.0000
  C   C1420     1.0  0.60969  0.08155  0.62434  1.0000
  H   H2503     1.0  0.85998  0.16193  0.43201  1.0000
  H   H2504     1.0  0.76555  0.01129  0.55729  1.0000
  H   H2505     1.0  0.66779  0.99697  0.61499  1.0000
  H   H2506     1.0  0.61807  0.07826  0.61152  1.0000
  H   H2507     1.0  0.56562  0.09670  0.59561  1.0000
  C   C1421     1.0  0.68879  0.10410  0.35131  1.0000
  C   C1422     1.0  0.67680  0.09209  0.36002  1.0000
  C   C1423     1.0  0.66807  0.08628  0.34943  1.0000
  C   C1424     1.0  0.71750  0.12749  0.48409  1.0000
  H   H2508     1.0  0.67405  0.08758  0.37480  1.0000
  H   H2509     1.0  0.65870  0.07717  0.35604  1.0000
  H   H2510     1.0  0.55069  0.12454  0.35576  1.0000
  C   C1425     1.0  0.54794  0.08445  0.37409  1.0000
  H   H2511     1.0  0.57498  0.00095  0.37670  1.0000
  C   C1426     1.0  0.52997  0.08131  0.38093  1.0000
  C   C1427     1.0  0.54722  0.09124  0.40296  1.0000
  H   H2512     1.0  0.65150  0.99579  0.32976  1.0000
  H   H2513     1.0  0.55379  0.09515  0.41152  1.0000
  H   H2514     1.0  0.51864  0.99092  0.33495  1.0000
  N   N76       1.0  0.77406  0.03320  0.41545  1.0000
  C   C1428     1.0  0.78255  0.04629  0.41994  1.0000
  C   C1429     1.0  0.76524  0.04291  0.39924  1.0000
  C   C1430     1.0  0.75872  0.02838  0.43169  1.0000
  C   C1431     1.0  0.78780  0.01570  0.41192  1.0000
  C   C1432     1.0  0.80824  0.01691  0.40293  1.0000
  C   C1433     1.0  0.78944  0.03964  0.43819  1.0000
  C   C1434     1.0  0.74632  0.01721  0.42870  1.0000
  C   C1435     1.0  0.77823  0.04971  0.38092  1.0000
  C   C1436     1.0  0.76719  0.06134  0.36652  1.0000
  H   H2515     1.0  0.52142  0.01892  0.40574  1.0000
  C   C1437     1.0  0.80197  0.05150  0.43886  1.0000
  C   C1438     1.0  0.73649  0.00696  0.44687  1.0000
  H   H2516     1.0  0.77242  0.05961  0.42070  1.0000
  H   H2517     1.0  0.79437  0.04984  0.40878  1.0000
  H   H2518     1.0  0.75826  0.03386  0.39592  1.0000
  H   H2519     1.0  0.75415  0.05489  0.40287  1.0000
  H   H2520     1.0  0.74932  0.04098  0.43590  1.0000
  H   H2521     1.0  0.76460  0.02037  0.44385  1.0000
  H   H2522     1.0  0.78839  0.00537  0.42503  1.0000
  H   H2523     1.0  0.78307  0.00925  0.40336  1.0000
  H   H2524     1.0  0.81476  0.01986  0.41259  1.0000
  H   H2525     1.0  0.80956  0.02777  0.39035  1.0000
  H   H2526     1.0  0.77755  0.04055  0.45015  1.0000
  H   H2527     1.0  0.79715  0.02518  0.43998  1.0000
  H   H2528     1.0  0.75445  0.00702  0.42029  1.0000
  H   H2529     1.0  0.73555  0.02655  0.42142  1.0000
  H   H2530     1.0  0.78671  0.05830  0.38259  1.0000
  H   H2531     1.0  0.78740  0.03785  0.37524  1.0000
  H   H2532     1.0  0.75760  0.07351  0.37140  1.0000
  H   H2533     1.0  0.77681  0.06622  0.35361  1.0000
  H   H2534     1.0  0.75915  0.05315  0.36342  1.0000
  H   H2535     1.0  0.72372  0.01858  0.32490  1.0000
  C   C1439     1.0  0.65854  0.06650  0.49862  1.0000
  C   C1440     1.0  0.59034  0.14762  0.38146  1.0000
  H   H2536     1.0  0.80562  0.04755  0.45246  1.0000
  H   H2537     1.0  0.81498  0.04965  0.42820  1.0000
  H   H2538     1.0  0.79485  0.06618  0.43668  1.0000
  H   H2539     1.0  0.72662  0.01674  0.45497  1.0000
  H   H2540     1.0  0.72884  0.99817  0.44415  1.0000
  H   H2541     1.0  0.74664  0.99794  0.45496  1.0000
  H   H2542     1.0  0.55516  0.14638  0.34248  1.0000
  C   C1441     1.0  0.59005  0.11832  0.57588  1.0000
  H   H2543     1.0  0.57616  0.10240  0.61034  1.0000
  H   H2544     1.0  0.56635  0.07510  0.62373  1.0000
  H   H2545     1.0  0.59162  0.10637  0.56989  1.0000
  H   H2546     1.0  0.59349  0.12988  0.56445  1.0000
  H   H2547     1.0  0.59997  0.11488  0.58492  1.0000
  N   N77       1.0  0.99129  0.22743  0.50122  1.0000
  C   C1442     1.0  0.55303  0.14031  0.64681  1.0000
  H   H2548     1.0  0.63012  0.08112  0.45111  1.0000
  C   C1443     1.0  0.72240  0.11460  0.50209  1.0000
  C   C1444     1.0  0.73419  0.17157  0.49799  1.0000
  C   C1445     1.0  0.73846  0.09858  0.49785  1.0000
  H   H2549     1.0  0.70063  0.16975  0.49599  1.0000
  H   H2550     1.0  0.70849  0.14938  0.51101  1.0000
  H   H2551     1.0  0.73063  0.13015  0.47443  1.0000
  H   H2552     1.0  0.71040  0.10884  0.51079  1.0000
  H   H2553     1.0  0.72666  0.12173  0.51029  1.0000
  H   H2554     1.0  0.74845  0.17371  0.49168  1.0000
  H   H2555     1.0  0.72436  0.18507  0.49641  1.0000
  H   H2556     1.0  0.75101  0.10364  0.48958  1.0000
  H   H2557     1.0  0.74171  0.08949  0.51088  1.0000
  H   H2558     1.0  0.73488  0.09055  0.49005  1.0000
  H   H2559     1.0  0.67532  0.14072  0.58389  1.0000
  C   C1446     1.0  0.74847  0.98954  0.54727  1.0000
  H   H2560     1.0  0.63675  0.04424  0.60506  1.0000
  H   H2561     1.0  0.64759  0.15903  0.56482  1.0000
  H   H2562     1.0  0.49963  0.10290  0.35862  1.0000
  H   H2563     1.0  0.67864  0.98808  0.48959  1.0000
  C   C1447     1.0  0.58872  0.98891  0.32565  1.0000
  H   H2564     1.0  0.62527  0.10906  0.40802  1.0000
  H   H2565     1.0  0.67717  0.15120  0.46341  1.0000
  H   H2566     1.0  0.61055  0.03361  0.56983  1.0000
  H   H2567     1.0  0.73225  0.16505  0.47362  1.0000
  N   N78       1.0  0.71153  0.04977  0.49713  1.0000
  C   C1448     1.0  0.69130  0.05762  0.50417  1.0000
  C   C1449     1.0  0.72235  0.04884  0.51103  1.0000
  C   C1450     1.0  0.71836  0.06296  0.47992  1.0000
  C   C1451     1.0  0.71495  0.03133  0.49235  1.0000
  C   C1452     1.0  0.70188  0.01856  0.50424  1.0000
  C   C1453     1.0  0.67915  0.06380  0.48969  1.0000
  C   C1454     1.0  0.73951  0.05889  0.47195  1.0000
  C   C1455     1.0  0.71620  0.03832  0.53080  1.0000
  C   C1456     1.0  0.67174  0.09220  0.33021  1.0000
  H   H2568     1.0  0.78712  0.99701  0.57567  1.0000
  C   C1457     1.0  0.74435  0.07262  0.45421  1.0000
  H   H2569     1.0  0.68975  0.06981  0.50987  1.0000
  H   H2570     1.0  0.68495  0.04787  0.51590  1.0000
  H   H2571     1.0  0.73702  0.04202  0.50667  1.0000
  H   H2572     1.0  0.72226  0.06296  0.51184  1.0000
  H   H2573     1.0  0.71412  0.07718  0.48235  1.0000
  H   H2574     1.0  0.71187  0.06319  0.46867  1.0000
  H   H2575     1.0  0.71362  0.03303  0.47801  1.0000
  H   H2576     1.0  0.72948  0.02374  0.49259  1.0000
  C   C1458     1.0  0.60943  0.04288  0.57896  1.0000
  H   H2577     1.0  0.68284  0.01714  0.36136  1.0000
  H   H2578     1.0  0.68157  0.07709  0.48072  1.0000
  H   H2579     1.0  0.68260  0.05366  0.48090  1.0000
  H   H2580     1.0  0.74454  0.04488  0.46915  1.0000
  H   H2581     1.0  0.74716  0.06034  0.48143  1.0000
  H   H2582     1.0  0.70135  0.04326  0.53623  1.0000
  H   H2583     1.0  0.71932  0.02344  0.53126  1.0000
  H   H2584     1.0  0.63531  0.15897  0.59836  1.0000
  H   H2585     1.0  0.74830  0.99603  0.53263  1.0000
  H   H2586     1.0  0.59490  0.02756  0.60334  1.0000
  C   C1459     1.0  0.82736  0.99283  0.52551  1.0000
  H   H2587     1.0  0.54697  0.04273  0.40659  1.0000
  H   H2588     1.0  0.65437  0.05321  0.50224  1.0000
  H   H2589     1.0  0.73891  0.08678  0.45658  1.0000
  H   H2590     1.0  0.75956  0.07060  0.44948  1.0000
  H   H2591     1.0  0.73852  0.07103  0.44328  1.0000
  C   C1460     1.0  0.89218  0.12062  0.52883  1.0000
  C   C1461     1.0  0.89712  0.10123  0.52536  1.0000
  H   H2592     1.0  0.89561  0.11202  0.55698  1.0000
  H   H2593     1.0  0.87685  0.12453  0.53263  1.0000
  H   H2594     1.0  0.89214  0.09152  0.53805  1.0000
  H   H2595     1.0  0.89033  0.10102  0.51451  1.0000
  H   H2596     1.0  0.91232  0.09669  0.52063  1.0000
  C   C1462     1.0  0.60807  0.03240  0.59888  1.0000
  H   H2597     1.0  0.73027  0.00756  0.36813  1.0000
  C   C1463     1.0  0.66490  0.03248  0.33393  1.0000
  H   H2598     1.0  0.72276  0.99307  0.50412  1.0000
  H   H2599     1.0  0.69752  0.01162  0.44683  1.0000
  H   H2600     1.0  0.65292  0.17014  0.59796  1.0000
  H   H2601     1.0  0.62171  0.04910  0.57430  1.0000
  C   C1464     1.0  0.78529  0.03508  0.55229  1.0000
  H   H2602     1.0  0.55075  0.01901  0.41713  1.0000
  C   C1465     1.0  0.79254  0.05251  0.54820  1.0000
  C   C1466     1.0  0.60249  0.03493  0.39390  1.0000
  H   H2603     1.0  0.78378  0.02905  0.56721  1.0000
  H   H2604     1.0  0.77140  0.03929  0.54893  1.0000
  H   H2605     1.0  0.64187  0.05104  0.63290  1.0000
  H   H2606     1.0  0.53517  0.10749  0.34354  1.0000
  C   C1467     1.0  0.62460  0.01574  0.60081  1.0000
  H   H2607     1.0  0.79428  0.05906  0.53336  1.0000
  H   H2608     1.0  0.80605  0.04942  0.55215  1.0000
  N   N79       1.0  0.82474  0.17604  0.45050  1.0000
  C   C1468     1.0  0.83971  0.16168  0.45863  1.0000
  C   C1469     1.0  0.80883  0.18136  0.46596  1.0000
  C   C1470     1.0  0.81764  0.16733  0.43935  1.0000
  C   C1471     1.0  0.83162  0.19262  0.43817  1.0000
  H   H2609     1.0  0.90929  0.17539  0.60595  1.0000
  C   C1472     1.0  0.80110  0.17937  0.43074  1.0000
  C   C1473     1.0  0.81281  0.19081  0.47920  1.0000
  C   C1474     1.0  0.79643  0.19327  0.49549  1.0000
  H   H2610     1.0  0.51274  0.13599  0.62973  1.0000
  C   C1475     1.0  0.79746  0.17033  0.41722  1.0000
  H   H2611     1.0  0.83358  0.15079  0.46908  1.0000
  S   S343      1.0  0.50558  0.01435  0.36100  1.0000
  H   H2612     1.0  0.79709  0.19116  0.46050  1.0000
  H   H2613     1.0  0.80335  0.16907  0.47426  1.0000
  H   H2614     1.0  0.81345  0.15445  0.44789  1.0000
  H   H2615     1.0  0.82880  0.16321  0.42765  1.0000
  C   C1476     1.0  0.98030  0.16838  0.64507  1.0000
  H   H2616     1.0  0.81984  0.20475  0.43743  1.0000
  C   C1477     1.0  0.63416  0.02012  0.62774  1.0000
  H   H2617     1.0  0.82906  0.00674  0.51770  1.0000
  C   C1478     1.0  0.93651  0.18919  0.61281  1.0000
  H   H2618     1.0  0.78820  0.18126  0.44149  1.0000
  H   H2619     1.0  0.82505  0.18283  0.48484  1.0000
  H   H2620     1.0  0.81502  0.20469  0.47193  1.0000
  H   H2621     1.0  0.79953  0.20049  0.50447  1.0000
  H   H2622     1.0  0.78370  0.20148  0.49069  1.0000
  H   H2623     1.0  0.79392  0.17978  0.50380  1.0000
  H   H2624     1.0  0.52331  0.07765  0.37233  1.0000
  H   H2625     1.0  0.50613  0.15922  0.60193  1.0000
  H   H2626     1.0  0.78497  0.17867  0.41204  1.0000
  H   H2627     1.0  0.90526  0.19795  0.63818  1.0000
  H   H2628     1.0  0.64158  0.12909  0.62635  1.0000
  N   N80       1.0  0.63174  0.02470  0.47181  1.0000
  C   C1479     1.0  0.62140  0.01619  0.46360  1.0000
  C   C1480     1.0  0.62026  0.02893  0.49012  1.0000
  C   C1481     1.0  0.63461  0.04260  0.45881  1.0000
  C   C1482     1.0  0.65058  0.01292  0.47381  1.0000
  C   C1483     1.0  0.56380  0.00415  0.38881  1.0000
  C   C1484     1.0  0.63082  0.01252  0.44408  1.0000
  C   C1485     1.0  0.64335  0.05459  0.46559  1.0000
  C   C1486     1.0  0.60787  0.01551  0.50235  1.0000
  C   C1487     1.0  0.59960  0.01990  0.52144  1.0000
  H   H2629     1.0  0.83705  0.19066  0.42376  1.0000
  H   H2630     1.0  0.54574  0.04895  0.36986  1.0000
  C   C1488     1.0  0.64425  0.07286  0.45200  1.0000
  H   H2631     1.0  0.60746  0.02519  0.46282  1.0000
  H   H2632     1.0  0.61864  0.00302  0.47258  1.0000
  H   H2633     1.0  0.62927  0.03030  0.49848  1.0000
  H   H2634     1.0  0.61046  0.04251  0.48800  1.0000
  H   H2635     1.0  0.62118  0.05105  0.45555  1.0000
  H   H2636     1.0  0.64394  0.04016  0.44546  1.0000
  H   H2637     1.0  0.50568  0.11946  0.62215  1.0000
  H   H2638     1.0  0.65706  0.01869  0.48150  1.0000
  H   H2639     1.0  0.68237  0.11089  0.63011  1.0000
  C   C1489     1.0  0.87235  0.14179  0.45293  1.0000
  H   H2640     1.0  0.63064  0.02557  0.43370  1.0000
  H   H2641     1.0  0.88352  0.13556  0.44242  1.0000
  H   H2642     1.0  0.65770  0.04756  0.46699  1.0000
  H   H2643     1.0  0.63515  0.05771  0.47901  1.0000
  H   H2644     1.0  0.59615  0.01677  0.49603  1.0000
  H   H2645     1.0  0.60591  0.00825  0.43913  1.0000
  H   H2646     1.0  0.59061  0.01030  0.52980  1.0000
  H   H2647     1.0  0.61074  0.01833  0.52866  1.0000
  H   H2648     1.0  0.99108  0.15780  0.57146  1.0000
  H   H2649     1.0  0.72632  0.06126  0.38069  1.0000
  H   H2650     1.0  0.52473  0.14280  0.34092  1.0000
  H   H2651     1.0  0.69119  0.03915  0.32146  1.0000
  C   C1490     1.0  0.95424  0.21294  0.60480  1.0000
  C   C1491     1.0  0.60785  0.00711  0.33831  1.0000
  H   H2652     1.0  0.91037  0.20680  0.60544  1.0000
  H   H2653     1.0  0.94685  0.21330  0.54827  1.0000
  C   C1492     1.0  0.70992  0.15593  0.49620  1.0000
  S   S344      1.0  0.90330  0.21110  0.51284  1.0000
  H   H2654     1.0  0.53091  0.06089  0.64332  1.0000
  C   C1493     1.0  0.72478  0.04643  0.32407  1.0000
  C   C1494     1.0  0.97176  0.17954  0.62875  1.0000
  C   C1495     1.0  0.66302  0.14112  0.59540  1.0000
  H   H2655     1.0  0.91600  0.11527  0.54031  1.0000
  C   C1496     1.0  0.55662  0.08936  0.38510  1.0000
  H   H2656     1.0  0.69644  0.00877  0.34152  1.0000
  C   C1497     1.0  0.69253  0.16238  0.43719  1.0000
  C   C1498     1.0  0.90107  0.12150  0.54422  1.0000
  C   C1499     1.0  0.56484  0.10776  0.60262  1.0000
  C   C1500     1.0  0.57028  0.12377  0.58673  1.0000
  H   H2657     1.0  0.71231  0.11942  0.47754  1.0000
  H   H2658     1.0  0.73347  0.16540  0.51277  1.0000
  H   H2659     1.0  0.78255  0.06247  0.55613  1.0000
  H   H2660     1.0  0.89710  0.12972  0.51566  1.0000
  H   H2661     1.0  0.92178  0.11053  0.57067  1.0000
  H   H2662     1.0  0.55992  0.01406  0.35345  1.0000
  N   N81       1.0  0.70991  0.02353  0.35210  1.0000
  H   H2663     1.0  0.70855  0.08547  0.62035  1.0000
  C   C1501     1.0  0.69259  0.10954  0.33218  1.0000
  H   H2664     1.0  0.72956  0.05367  0.33181  1.0000
  H   H2665     1.0  0.56929  0.13605  0.59186  1.0000
  H   H2666     1.0  0.68667  0.13259  0.51095  1.0000
  H   H2667     1.0  0.64098  0.18168  0.56948  1.0000
  H   H2668     1.0  0.72853  0.98961  0.34408  1.0000
  C   C1502     1.0  0.96245  0.22632  0.61020  1.0000
  C   C1503     1.0  0.68004  0.14743  0.61567  1.0000
  C   C1504     1.0  0.98162  0.17000  0.56614  1.0000
  C   C1505     1.0  0.55346  0.13295  0.34161  1.0000
  H   H2669     1.0  0.63618  0.12332  0.32421  1.0000
  C   C1506     1.0  0.70434  0.03926  0.36181  1.0000
  S   S345      1.0  0.62288  0.06352  0.35248  1.0000
  H   H2670     1.0  0.84767  0.15907  0.58279  1.0000
  H   H2671     1.0  0.56108  0.12757  0.57687  1.0000
  N   N82       1.0  0.70375  0.14528  0.48623  1.0000
  C   C1507     1.0  0.72996  0.15884  0.48850  1.0000
  H   H2672     1.0  0.87158  0.13646  0.56590  1.0000
  C   C1508     1.0  0.92329  0.19792  0.59931  1.0000
  C   C1509     1.0  0.55190  0.07724  0.63182  1.0000
  C   C1510     1.0  0.68537  0.14107  0.49713  1.0000
  H   H2673     1.0  0.71629  0.15726  0.45850  1.0000
  H   H2674     1.0  0.68085  0.13240  0.49068  1.0000
  N   N83       1.0  0.62760  0.00764  0.62011  1.0000
  C   C1511     1.0  0.70228  0.15672  0.46730  1.0000
  H   H2675     1.0  0.74009  0.14561  0.49063  1.0000
  H   H2676     1.0  0.60887  0.09195  0.39431  1.0000
  H   H2677     1.0  0.70701  0.16151  0.42918  1.0000
  H   H2678     1.0  0.65586  0.13110  0.59402  1.0000
  C   C1512     1.0  0.92509  0.12430  0.56555  1.0000
  H   H2679     1.0  0.93531  0.12418  0.55235  1.0000
  H   H2680     1.0  0.53601  0.09059  0.61068  1.0000
  H   H2681     1.0  0.56911  0.13347  0.62126  1.0000
  H   H2682     1.0  0.69833  0.13598  0.45495  1.0000
  H   H2683     1.0  0.72321  0.05569  0.54457  1.0000
  N   N84       1.0  0.89805  0.14022  0.54820  1.0000
  H   H2684     1.0  0.89739  0.13623  0.57727  1.0000
  H   H2685     1.0  0.87015  0.14904  0.54323  1.0000
  H   H2686     1.0  0.92908  0.13495  0.51819  1.0000
  H   H2687     1.0  0.92486  0.12677  0.59303  1.0000
  C   C1513     1.0  0.68444  0.01080  0.42591  1.0000
  C   C1514     1.0  0.64114  0.98940  0.62007  1.0000
  S   S346      1.0  0.57906  0.09348  0.37686  1.0000
  H   H2688     1.0  0.94402  0.18203  0.64547  1.0000
  C   C1515     1.0  0.69197  0.15029  0.45645  1.0000
  H   H2689     1.0  0.69551  0.17124  0.46791  1.0000
  H   H2690     1.0  0.64657  0.14961  0.49653  1.0000
  H   H2691     1.0  0.67828  0.04944  0.34091  1.0000
  H   H2692     1.0  0.80105  0.99765  0.51835  1.0000
  C   C1516     1.0  0.72660  0.04106  0.54369  1.0000
  C   C1517     1.0  0.90706  0.13912  0.56368  1.0000
  C   C1518     1.0  0.87741  0.14695  0.55446  1.0000
  C   C1519     1.0  0.93434  0.12730  0.57926  1.0000
  H   H2693     1.0  0.93829  0.14079  0.57449  1.0000
  H   H2694     1.0  0.65035  0.07620  0.48888  1.0000
  H   H2695     1.0  0.53500  0.11745  0.64297  1.0000
  H   H2696     1.0  0.92839  0.17606  0.50687  1.0000
  C   C1520     1.0  0.69290  0.02064  0.34820  1.0000
  H   H2697     1.0  0.69202  0.03761  0.37310  1.0000
  H   H2698     1.0  0.59691  0.05404  0.57785  1.0000
  H   H2699     1.0  0.55853  0.10631  0.63908  1.0000
  C   C1521     1.0  0.70558  0.09025  0.60638  1.0000
  H   H2700     1.0  0.90928  0.18956  0.58330  1.0000
  C   C1522     1.0  0.66955  0.15798  0.50059  1.0000
  H   H2701     1.0  0.67185  0.16388  0.51113  1.0000
  N   N85       1.0  0.54620  0.11163  0.61574  1.0000
  C   C1523     1.0  0.53904  0.09421  0.62236  1.0000
  C   C1524     1.0  0.65074  0.15279  0.50773  1.0000
  C   C1525     1.0  0.65099  0.16832  0.57140  1.0000
  H   H2702     1.0  0.93965  0.21435  0.48897  1.0000
  H   H2703     1.0  0.89649  0.15652  0.52102  1.0000
  H   H2704     1.0  0.84220  0.16874  0.56040  1.0000
  H   H2705     1.0  0.66128  0.99695  0.59432  1.0000
  H   H2706     1.0  0.70201  0.06466  0.38201  1.0000
  C   C1526     1.0  0.54781  0.03961  0.33802  1.0000
  H   H2707     1.0  0.98149  0.18816  0.61977  1.0000
  H   H2708     1.0  0.97293  0.21627  0.55970  1.0000
  H   H2709     1.0  0.66876  0.16879  0.48797  1.0000
  H   H2710     1.0  0.64010  0.16443  0.51254  1.0000
  H   H2711     1.0  0.74176  0.03657  0.53879  1.0000
  C   C1527     1.0  0.90493  0.15376  0.53135  1.0000
  C   C1528     1.0  0.92555  0.14855  0.52175  1.0000
  C   C1529     1.0  0.87118  0.16542  0.56078  1.0000
  C   C1530     1.0  0.85056  0.16923  0.56977  1.0000
  H   H2712     1.0  0.87353  0.17669  0.54870  1.0000
  H   H2713     1.0  0.96964  0.21956  0.62164  1.0000
  C   C1531     1.0  0.68248  0.03674  0.33554  1.0000
  C   C1532     1.0  0.54813  0.11699  0.63231  1.0000
  C   C1533     1.0  0.70679  0.16374  0.60221  1.0000
  H   H2714     1.0  0.91001  0.15264  0.56277  1.0000
  H   H2715     1.0  0.93449  0.14867  0.53071  1.0000
  H   H2716     1.0  0.87876  0.16582  0.57087  1.0000
  H   H2717     1.0  0.94708  0.11645  0.58051  1.0000
  H   H2718     1.0  0.94495  0.15802  0.49703  1.0000
  H   H2719     1.0  0.49901  0.14120  0.33296  1.0000
  H   H2720     1.0  0.57227  0.03200  0.34843  1.0000
  N   N86       1.0  0.66854  0.13543  0.61372  1.0000
  H   H2721     1.0  0.59560  0.15572  0.36781  1.0000
  H   H2722     1.0  0.55194  0.07894  0.64558  1.0000
  C   C1534     1.0  0.92556  0.21569  0.62835  1.0000
  H   H2723     1.0  0.81429  0.99538  0.38762  1.0000
  C   C1535     1.0  0.81965  0.99875  0.39794  1.0000
  H   H2724     1.0  0.69958  0.05247  0.35272  1.0000
  C   C1536     1.0  0.58620  0.02559  0.39895  1.0000
  C   C1537     1.0  0.55440  0.13511  0.62873  1.0000
  H   H2725     1.0  0.56875  0.14172  0.37218  1.0000
  H   H2726     1.0  0.90300  0.16726  0.53480  1.0000
  H   H2727     1.0  0.84624  0.18313  0.57288  1.0000
  C   C1538     1.0  0.53742  0.13583  0.33239  1.0000
  H   H2728     1.0  0.68792  0.02387  0.50106  1.0000
  H   H2729     1.0  0.54577  0.14665  0.62076  1.0000
  C   C1539     1.0  0.65306  0.12961  0.64861  1.0000
  H   H2730     1.0  0.83770  0.22755  0.43497  1.0000
  H   H2731     1.0  0.62753  0.15174  0.34810  1.0000
  H   H2732     1.0  0.65117  0.14076  0.51937  1.0000
  H   H2733     1.0  0.68486  0.15775  0.42975  1.0000
  C   C1540     1.0  0.93025  0.16240  0.50391  1.0000
  H   H2734     1.0  0.93014  0.20628  0.58657  1.0000
  H   H2735     1.0  0.56204  0.16247  0.38082  1.0000
  H   H2736     1.0  0.59627  0.11560  0.64814  1.0000
  H   H2737     1.0  0.68589  0.17685  0.43799  1.0000
  C   C1541     1.0  0.64983  0.16025  0.59189  1.0000
  H   H2738     1.0  0.73341  0.03827  0.36149  1.0000
  C   C1542     1.0  0.52471  0.03066  0.40860  1.0000
  C   C1543     1.0  0.57003  0.14808  0.38287  1.0000
  H   H2739     1.0  0.52574  0.09605  0.63270  1.0000
  H   H2740     1.0  0.86059  0.18799  0.44020  1.0000
  H   H2741     1.0  0.56393  0.14057  0.39663  1.0000
  H   H2742     1.0  0.92138  0.16345  0.49439  1.0000
  H   H2743     1.0  0.94896  0.18081  0.60520  1.0000
  S   S347      1.0  0.58544  0.06664  0.33802  1.0000
  H   H2744     1.0  0.64399  0.07188  0.40872  1.0000
  C   C1544     1.0  0.62975  0.10717  0.39353  1.0000
  H   H2745     1.0  0.87766  0.15122  0.45764  1.0000
  H   H2746     1.0  0.95397  0.20058  0.64329  1.0000
  C   C1545     1.0  0.52068  0.08293  0.39886  1.0000
  H   H2747     1.0  0.84605  0.16728  0.46649  1.0000
  H   H2748     1.0  0.62226  0.02869  0.63571  1.0000
  C   C1546     1.0  0.67873  0.11560  0.61643  1.0000
  H   H2749     1.0  0.67102  0.15931  0.62155  1.0000
  H   H2750     1.0  0.59620  0.12170  0.39942  1.0000
  C   C1547     1.0  0.98397  0.18723  0.56600  1.0000
  H   H2751     1.0  0.59776  0.12011  0.37661  1.0000
  H   H2752     1.0  0.80374  0.19304  0.42324  1.0000
  C   C1548     1.0  0.60175  0.12763  0.38473  1.0000
  H   H2753     1.0  0.52215  0.08932  0.42371  1.0000
  H   H2754     1.0  0.60988  0.03062  0.40532  1.0000
  H   H2755     1.0  0.63112  0.08526  0.37986  1.0000
  H   H2756     1.0  0.59085  0.15451  0.39211  1.0000
  H   H2757     1.0  0.54591  0.05446  0.33703  1.0000
  H   H2758     1.0  0.53407  0.03613  0.34117  1.0000
  Fe  Fe171     1.0  0.59547  0.08295  0.35150  1.0000
  C   C1549     1.0  0.95234  0.19144  0.63526  1.0000
  H   H2759     1.0  0.96967  0.22872  0.52569  1.0000
  H   H2760     1.0  0.62710  0.11071  0.35866  1.0000
  C   C1550     1.0  0.62397  0.08973  0.39296  1.0000
  C   C1551     1.0  0.85550  0.15201  0.44471  1.0000
  H   H2761     1.0  0.69545  0.11501  0.58833  1.0000
  C   C1552     1.0  0.71601  0.06072  0.37345  1.0000
  H   H2762     1.0  0.55489  0.08340  0.36020  1.0000
  C   C1553     1.0  0.62920  0.07393  0.40862  1.0000
  H   H2763     1.0  0.62686  0.06112  0.40681  1.0000
  C   C1554     1.0  0.63102  0.12236  0.36126  1.0000
  H   H2764     1.0  0.93002  0.17912  0.62419  1.0000
  H   H2765     1.0  0.61100  0.14053  0.34547  1.0000
  H   H2766     1.0  0.62059  0.07683  0.42203  1.0000
  H   H2767     1.0  0.62273  0.14056  0.39967  1.0000
  H   H2768     1.0  0.50870  0.12055  0.36156  1.0000
  C   C1555     1.0  0.62563  0.13892  0.34596  1.0000
  H   H2769     1.0  0.64632  0.11865  0.35896  1.0000
  C   C1556     1.0  0.62833  0.13998  0.38487  1.0000
  H   H2770     1.0  0.62227  0.15352  0.37714  1.0000
  C   C1557     1.0  0.85034  0.21679  0.43186  1.0000
  C   C1558     1.0  0.96203  0.21969  0.49719  1.0000
  H   H2771     1.0  0.96578  0.20348  0.59754  1.0000
  C   C1559     1.0  0.64551  0.03362  0.61373  1.0000
  C   C1560     1.0  0.65086  0.13674  0.62842  1.0000
  C   C1561     1.0  0.49832  0.11784  0.35574  1.0000
  C   C1562     1.0  0.51511  0.03201  0.42846  1.0000
  H   H2772     1.0  0.79495  0.15645  0.42411  1.0000
  H   H2773     1.0  0.71743  0.07073  0.36011  1.0000
  C   C1563     1.0  0.97148  0.20294  0.55937  1.0000
  H   H2774     1.0  0.84449  0.19846  0.45784  1.0000
  H   H2775     1.0  0.93009  0.17344  0.58796  1.0000
  C   C1564     1.0  0.64947  0.13914  0.38041  1.0000
  C   C1565     1.0  0.71729  0.00647  0.36525  1.0000
  H   H2776     1.0  0.59115  0.03410  0.52041  1.0000
  C   C1566     1.0  0.97949  0.22786  0.48838  1.0000
  C   C1567     1.0  0.54517  0.05977  0.63467  1.0000
  H   H2777     1.0  0.63725  0.01963  0.59126  1.0000
  H   H2778     1.0  0.92989  0.22452  0.63481  1.0000
  H   H2779     1.0  0.66826  0.02034  0.32774  1.0000
  C   C1568     1.0  0.50040  0.14671  0.60638  1.0000
  C   C1569     1.0  0.95218  0.22002  0.48243  1.0000
  H   H2780     1.0  0.65721  0.12608  0.38734  1.0000
  H   H2781     1.0  0.49993  0.03405  0.43028  1.0000
  C   C1570     1.0  0.69728  0.11084  0.60266  1.0000
  C   C1571     1.0  0.98020  0.23649  0.51697  1.0000
  H   H2782     1.0  0.70760  0.11753  0.60412  1.0000
  H   H2783     1.0  0.86866  0.13062  0.46473  1.0000
  H   H2784     1.0  0.66061  0.05359  0.61309  1.0000
  H   H2785     1.0  0.64537  0.00492  0.44338  1.0000
  C   C1572     1.0  0.53239  0.12597  0.60591  1.0000
  H   H2786     1.0  0.64656  0.16802  0.37981  1.0000
  C   C1573     1.0  0.91769  0.18311  0.59385  1.0000
  H   H2787     1.0  0.55812  0.15304  0.64394  1.0000
  H   H2788     1.0  0.95205  0.22778  0.50702  1.0000
  H   H2789     1.0  0.73874  0.02048  0.33753  1.0000
  H   H2790     1.0  0.60340  0.99613  0.62628  1.0000
  H   H2791     1.0  0.49936  0.14258  0.59411  1.0000
  C   C1574     1.0  0.65347  0.15437  0.38670  1.0000
  H   H2792     1.0  0.57748  0.02898  0.41211  1.0000
  H   H2793     1.0  0.66864  0.15354  0.38311  1.0000
  C   C1575     1.0  0.52932  0.08796  0.40984  1.0000
  H   H2794     1.0  0.71877  0.08728  0.59619  1.0000
  H   H2795     1.0  0.73846  0.99858  0.55618  1.0000
  N   N87       1.0  0.94213  0.20232  0.62033  1.0000
  C   C1576     1.0  0.72168  0.98817  0.35885  1.0000
  H   H2796     1.0  0.94641  0.22130  0.59417  1.0000
  H   H2797     1.0  0.56659  0.12600  0.33356  1.0000
  H   H2798     1.0  0.97096  0.16983  0.62098  1.0000
  H   H2799     1.0  0.55450  0.04804  0.64176  1.0000
  H   H2800     1.0  0.62720  0.99966  0.42415  1.0000
  H   H2801     1.0  0.54539  0.05701  0.62127  1.0000
  H   H2802     1.0  0.66954  0.10682  0.61629  1.0000
  H   H2803     1.0  0.71617  0.15279  0.61001  1.0000
  H   H2804     1.0  0.53118  0.12131  0.59397  1.0000
  H   H2805     1.0  0.53719  0.13894  0.59998  1.0000
  H   H2806     1.0  0.64869  0.15283  0.40185  1.0000
  H   H2807     1.0  0.59758  0.05006  0.39132  1.0000
  H   H2808     1.0  0.69951  0.17444  0.61035  1.0000
  H   H2809     1.0  0.64297  0.15118  0.62734  1.0000
  H   H2810     1.0  0.65892  0.99524  0.35835  1.0000
  C   C1577     1.0  0.79838  0.02124  0.54065  1.0000
  H   H2811     1.0  0.71936  0.03178  0.38394  1.0000
  H   H2812     1.0  0.55568  0.03624  0.32455  1.0000
  H   H2813     1.0  0.98810  0.22054  0.47727  1.0000
  H   H2814     1.0  0.80941  0.16920  0.40533  1.0000
  S   S348      1.0  0.61942  0.01827  0.34678  1.0000
  Fe  Fe172     1.0  0.78165  0.98834  0.48860  1.0000
  H   H2815     1.0  0.77133  0.01227  0.53324  1.0000
  H   H2816     1.0  0.65520  0.07222  0.51113  1.0000
  H   H2817     1.0  0.60726  0.04199  0.60750  1.0000
  H   H2818     1.0  0.51781  0.04387  0.43189  1.0000
  H   H2819     1.0  0.81274  0.02086  0.54131  1.0000
  H   H2820     1.0  0.68460  0.16703  0.58919  1.0000
  C   C1578     1.0  0.53533  0.11736  0.33015  1.0000
  C   C1579     1.0  0.55843  0.02880  0.35288  1.0000
  Fe  Fe173     1.0  0.61382  0.04866  0.33669  1.0000
  H   H2821     1.0  0.70082  0.14571  0.58918  1.0000
  H   H2822     1.0  0.66512  0.17052  0.56444  1.0000
  H   H2823     1.0  0.61246  0.03094  0.38148  1.0000
  C   C1580     1.0  0.57507  0.03197  0.38350  1.0000
  H   H2824     1.0  0.68870  0.13974  0.62587  1.0000
  H   H2825     1.0  0.61550  0.00109  0.50415  1.0000
  C   C1581     1.0  0.69290  0.15576  0.59780  1.0000
  C   C1582     1.0  0.71941  0.04141  0.37037  1.0000
  H   H2826     1.0  0.70041  0.01756  0.51899  1.0000
  H   H2827     1.0  0.51813  0.09020  0.33641  1.0000
  N   N88       1.0  0.55787  0.02454  0.38739  1.0000
  C   C1583     1.0  0.54822  0.03388  0.37169  1.0000
  H   H2828     1.0  0.64263  0.01187  0.63794  1.0000
  C   C1584     1.0  0.51855  0.09904  0.32250  1.0000
  H   H2829     1.0  0.96137  0.21157  0.47255  1.0000
  H   H2830     1.0  0.79755  0.02736  0.52611  1.0000
  H   H2831     1.0  0.91900  0.22535  0.61732  1.0000
  S   S349      1.0  0.66608  0.01085  0.39998  1.0000
  H   H2832     1.0  0.66346  0.13541  0.65128  1.0000
  C   C1585     1.0  0.59736  0.10255  0.64501  1.0000
  H   H2833     1.0  0.65542  0.03000  0.34763  1.0000
  C   C1586     1.0  0.60026  0.06878  0.63712  1.0000
  H   H2834     1.0  0.65727  0.02649  0.60447  1.0000
  H   H2835     1.0  0.59198  0.01062  0.40118  1.0000
  H   H2836     1.0  0.51861  0.04324  0.39949  1.0000
  C   C1587     1.0  0.54831  0.99408  0.39113  1.0000
  H   H2837     1.0  0.62208  0.00525  0.59501  1.0000
  H   H2838     1.0  0.59891  0.01704  0.63306  1.0000
  H   H2839     1.0  0.53426  0.03105  0.37451  1.0000
  C   C1588     1.0  0.51254  0.13121  0.61755  1.0000
  H   H2840     1.0  0.72234  0.03290  0.55771  1.0000
  C   C1589     1.0  0.72464  0.02635  0.33465  1.0000
  H   H2841     1.0  0.71093  0.05439  0.32196  1.0000
  C   C1590     1.0  0.97644  0.23422  0.59400  1.0000
  H   H2842     1.0  0.83431  0.99969  0.39205  1.0000
  H   H2843     1.0  0.65230  0.13513  0.32658  1.0000
  C   C1591     1.0  0.65322  0.04354  0.62346  1.0000
  S   S350      1.0  0.60652  0.10125  0.32531  1.0000
  C   C1592     1.0  0.60940  0.00397  0.63237  1.0000
  H   H2844     1.0  0.70194  0.11866  0.32535  1.0000
  C   C1593     1.0  0.70898  0.99921  0.50066  1.0000
  H   H2845     1.0  0.66318  0.03364  0.63137  1.0000
  C   C1594     1.0  0.77466  0.00385  0.54653  1.0000
  N   N89       1.0  0.79483  0.00211  0.54597  1.0000
  H   H2846     1.0  0.53819  0.00176  0.38252  1.0000
  H   H2847     1.0  0.60102  0.05592  0.63391  1.0000
  H   H2848     1.0  0.52004  0.01927  0.43812  1.0000
  C   C1595     1.0  0.89377  0.22225  0.64900  1.0000
  C   C1596     1.0  0.50090  0.12615  0.33480  1.0000
  H   H2849     1.0  0.98848  0.22308  0.59041  1.0000
  H   H2850     1.0  0.88740  0.22998  0.63711  1.0000
  C   C1597     1.0  0.65154  0.99261  0.48357  1.0000
  C   C1598     1.0  0.63751  0.13606  0.32713  1.0000
  C   C1599     1.0  0.66109  0.98991  0.60884  1.0000
  H   H2851     1.0  0.70998  0.99929  0.48605  1.0000
  H   H2852     1.0  0.98921  0.23606  0.52617  1.0000
  H   H2853     1.0  0.98740  0.20091  0.51822  1.0000
  H   H2854     1.0  0.54089  0.99158  0.40577  1.0000
  C   C1600     1.0  0.84733  0.19802  0.44316  1.0000
  C   C1601     1.0  0.62068  0.00128  0.43849  1.0000
  S   S351      1.0  0.91330  0.23353  0.53855  1.0000
  H   H2855     1.0  0.65736  0.11444  0.65175  1.0000
  N   N90       1.0  0.51888  0.11824  0.32280  1.0000
  C   C1602     1.0  0.91038  0.20724  0.64323  1.0000
  H   H2856     1.0  0.57025  0.99751  0.40076  1.0000
  Fe  Fe174     1.0  0.63307  0.07997  0.32493  1.0000
  H   H2857     1.0  0.86192  0.22008  0.43537  1.0000
  C   C1603     1.0  0.59990  0.01597  0.32317  1.0000
  H   H2858     1.0  0.83336  0.98951  0.53780  1.0000
  S   S352      1.0  0.49840  0.07865  0.40803  1.0000
  C   C1604     1.0  0.80659  0.99208  0.53105  1.0000
  C   C1605     1.0  0.50366  0.99378  0.33828  1.0000
  H   H2859     1.0  0.69918  0.99061  0.50952  1.0000
  H   H2860     1.0  0.54843  0.11179  0.32092  1.0000
  C   C1606     1.0  0.68433  0.10345  0.32171  1.0000
  C   C1607     1.0  0.79927  0.99309  0.56462  1.0000
  H   H2861     1.0  0.64482  0.99145  0.49831  1.0000
  H   H2862     1.0  0.99422  0.16017  0.63999  1.0000
  H   H2863     1.0  0.94783  0.23426  0.47487  1.0000
  H   H2864     1.0  0.50937  0.99213  0.40009  1.0000
  Fe  Fe175     1.0  0.88396  0.23544  0.55427  1.0000
  H   H2865     1.0  0.81914  0.98749  0.41038  1.0000
  H   H2866     1.0  0.62158  0.98745  0.44761  1.0000
  S   S353      1.0  0.52518  0.06395  0.68442  1.0000
  S   S354      1.0  0.52463  0.18840  0.94299  1.0000
  H   H2867     1.0  0.60076  0.20268  0.88443  1.0000
  C   C1608     1.0  0.59939  0.02354  0.71136  1.0000
  S   S355      1.0  0.51646  0.15991  0.91200  1.0000
  H   H2868     1.0  0.57813  0.00079  0.73781  1.0000
  H   H2869     1.0  0.58688  0.15671  0.94086  1.0000
  S   S356      1.0  0.57748  0.05673  0.66943  1.0000
  H   H2870     1.0  0.52955  0.14867  0.73794  1.0000
  H   H2871     1.0  0.54257  0.00523  0.67567  1.0000
  H   H2872     1.0  0.49797  0.22172  0.85581  1.0000
  H   H2873     1.0  0.49848  0.17323  0.81215  1.0000
  Fe  Fe176     1.0  0.52060  0.21752  0.92714  1.0000
  Fe  Fe177     1.0  0.51242  0.09357  0.68340  1.0000
  H   H2874     1.0  0.58896  0.03616  0.70746  1.0000
  H   H2875     1.0  0.51366  0.15705  0.76784  1.0000
  C   C1609     1.0  0.50479  0.00577  0.72547  1.0000
  C   C1610     1.0  0.57078  0.18873  0.88234  1.0000
  C   C1611     1.0  0.50405  0.13205  0.77956  1.0000
  H   H2876     1.0  0.50695  0.99952  0.73916  1.0000
  H   H2877     1.0  0.58232  0.17172  0.96657  1.0000
  S   S357      1.0  0.54430  0.06549  0.71713  1.0000
  H   H2878     1.0  0.57523  0.20154  0.87439  1.0000
  H   H2879     1.0  0.53861  0.01771  0.70386  1.0000
  H   H2880     1.0  0.97156  0.15886  0.65425  1.0000
  C   C1612     1.0  0.57013  0.17061  0.96227  1.0000
  H   H2881     1.0  0.59551  0.15760  0.91018  1.0000
  C   C1613     1.0  0.49993  0.02167  0.68973  1.0000
  C   C1614     1.0  0.61046  0.22857  0.89374  1.0000
  H   H2882     1.0  0.59280  0.00839  0.69575  1.0000
  H   H2883     1.0  0.50456  0.13711  0.94767  1.0000
  H   H2884     1.0  0.56159  0.12930  0.65542  1.0000
  H   H2885     1.0  0.52429  0.16268  0.83904  1.0000
  S   S358      1.0  0.53902  0.10038  0.68234  1.0000
  C   C1615     1.0  0.56914  0.18629  0.90329  1.0000
  H   H2886     1.0  0.52192  0.12978  0.89490  1.0000
  S   S359      1.0  0.50566  0.21257  0.90853  1.0000
  C   C1616     1.0  0.50422  0.00263  0.69538  1.0000
  H   H2887     1.0  0.56036  0.02432  0.69415  1.0000
  H   H2888     1.0  0.51935  0.00127  0.76481  1.0000
  H   H2889     1.0  0.50256  0.07702  0.93539  1.0000
  H   H2890     1.0  0.51237  0.09750  0.75689  1.0000
  H   H2891     1.0  0.59807  0.00193  0.66192  1.0000
  C   C1617     1.0  0.54731  0.99188  0.73485  1.0000
  C   C1618     1.0  0.50109  0.15255  0.90370  1.0000
  H   H2892     1.0  0.53893  0.00611  0.73263  1.0000
  H   H2893     1.0  0.62723  0.17760  0.90159  1.0000
  H   H2894     1.0  0.52429  0.18476  0.85106  1.0000
  H   H2895     1.0  0.55378  0.19093  0.86336  1.0000
  H   H2896     1.0  0.53843  0.14271  0.65465  1.0000
  C   C1619     1.0  0.50631  0.99471  0.71337  1.0000
  H   H2897     1.0  0.56325  0.01430  0.66579  1.0000
  H   H2898     1.0  0.61287  0.02472  0.70170  1.0000
  C   C1620     1.0  0.51322  0.14410  0.76553  1.0000
  C   C1621     1.0  0.51786  0.14092  0.97620  1.0000
  C   C1622     1.0  0.50357  0.11525  0.77645  1.0000
  C   C1623     1.0  0.54972  0.01579  0.67576  1.0000
  H   H2899     1.0  0.50218  0.01493  0.79256  1.0000
  H   H2900     1.0  0.62114  0.22369  0.88211  1.0000
  H   H2901     1.0  0.62239  0.99450  0.65680  1.0000
  H   H2902     1.0  0.56477  0.17312  0.90987  1.0000
  C   C1624     1.0  0.60103  0.17026  0.90440  1.0000
  H   H2903     1.0  0.62474  0.13737  0.91726  1.0000
  H   H2904     1.0  0.61701  0.16796  0.92503  1.0000
  H   H2905     1.0  0.52913  0.17913  0.98423  1.0000
  H   H2906     1.0  0.61453  0.20253  0.91232  1.0000
  H   H2907     1.0  0.55362  0.99559  0.75957  1.0000
  C   C1625     1.0  0.52189  0.12262  0.74537  1.0000
  S   S360      1.0  0.53431  0.11733  0.72404  1.0000
  H   H2908     1.0  0.88317  0.21605  0.65997  1.0000
  H   H2909     1.0  0.60499  0.17117  0.88930  1.0000
  H   H2910     1.0  0.54182  0.20171  0.88252  1.0000
  C   C1626     1.0  0.63164  0.14844  0.90823  1.0000
  Fe  Fe178     1.0  0.51728  0.06141  0.71495  1.0000
  C   C1627     1.0  0.60285  0.21265  0.90725  1.0000
  H   H2911     1.0  0.51603  0.20257  0.83281  1.0000
  C   C1628     1.0  0.58098  0.18641  0.92931  1.0000
  S   S361      1.0  0.50230  0.09073  0.71383  1.0000
  C   C1629     1.0  0.49870  0.03272  0.70180  1.0000
  H   H2912     1.0  0.50516  0.21196  0.78983  1.0000
  S   S362      1.0  0.54211  0.23413  0.91215  1.0000
  H   H2913     1.0  0.58082  0.17701  0.87709  1.0000
  Fe  Fe179     1.0  0.55101  0.07030  0.68636  1.0000
  C   C1630     1.0  0.50751  0.13676  0.89624  1.0000
  H   H2914     1.0  0.56540  0.01804  0.72315  1.0000
  H   H2915     1.0  0.59333  0.21807  0.91916  1.0000
  H   H2916     1.0  0.52419  0.12654  0.98191  1.0000
  H   H2917     1.0  0.54103  0.02941  0.67125  1.0000
  C   C1631     1.0  0.55242  0.01409  0.69503  1.0000
  N   N91       1.0  0.58627  0.18672  0.90896  1.0000
  S   S363      1.0  0.50516  0.03782  0.73305  1.0000
  C   C1632     1.0  0.52748  0.12614  0.84120  1.0000
  H   H2918     1.0  0.59235  0.18835  0.93427  1.0000
  H   H2919     1.0  0.52226  0.21515  0.85597  1.0000
  H   H2920     1.0  0.91581  0.19943  0.65563  1.0000
  C   C1633     1.0  0.57531  0.16884  0.94219  1.0000
  C   C1634     1.0  0.51239  0.19580  0.84749  1.0000
  H   H2921     1.0  0.49836  0.02786  0.67580  1.0000
  H   H2922     1.0  0.64491  0.14680  0.91217  1.0000
  Fe  Fe180     1.0  0.52999  0.09528  0.71309  1.0000
  H   H2923     1.0  0.50028  0.11714  0.88576  1.0000
  C   C1635     1.0  0.55219  0.18963  0.87832  1.0000
  H   H2924     1.0  0.60475  0.99459  0.71362  1.0000
  H   H2925     1.0  0.52333  0.12080  0.85620  1.0000
  Fe  Fe181     1.0  0.50731  0.18432  0.92579  1.0000
  H   H2926     1.0  0.63648  0.12897  0.67639  1.0000
  C   C1636     1.0  0.59364  0.00666  0.71018  1.0000
  H   H2927     1.0  0.63477  0.14704  0.89372  1.0000
  H   H2928     1.0  0.52900  0.11509  0.83397  1.0000
  H   H2929     1.0  0.57018  0.22771  0.96416  1.0000
  C   C1637     1.0  0.59223  0.20436  0.89830  1.0000
  H   H2930     1.0  0.54109  0.12988  0.83804  1.0000
  H   H2931     1.0  0.55728  0.19711  0.90820  1.0000
  H   H2932     1.0  0.57981  0.09285  0.67086  1.0000
  H   H2933     1.0  0.60085  0.02251  0.72550  1.0000
  H   H2934     1.0  0.54705  0.17702  0.88576  1.0000
  C   C1638     1.0  0.61936  0.16722  0.91045  1.0000
  C   C1639     1.0  0.49889  0.18315  0.81998  1.0000
  C   C1640     1.0  0.55640  0.23117  0.94222  1.0000
  H   H2935     1.0  0.56932  0.19821  0.93205  1.0000
  H   H2936     1.0  0.57575  0.99183  0.69219  1.0000
  C   C1641     1.0  0.50948  0.20994  0.85899  1.0000
  C   C1642     1.0  0.52219  0.13936  0.74859  1.0000
  H   H2937     1.0  0.57989  0.21548  0.89576  1.0000
  H   H2938     1.0  0.54827  0.22106  0.94966  1.0000
  C   C1643     1.0  0.58940  0.07284  0.65386  1.0000
  C   C1644     1.0  0.51241  0.11057  0.75924  1.0000
  C   C1645     1.0  0.50196  0.02472  0.71944  1.0000
  H   H2939     1.0  0.50883  0.10362  0.94185  1.0000
  C   C1646     1.0  0.60973  0.99433  0.65278  1.0000
  H   H2940     1.0  0.89806  0.23197  0.65435  1.0000
  H   H2941     1.0  0.56315  0.16624  0.93918  1.0000
  C   C1647     1.0  0.57512  0.00437  0.72388  1.0000
  H   H2942     1.0  0.49967  0.13814  0.83782  1.0000
  C   C1648     1.0  0.51070  0.15869  0.84396  1.0000
  C   C1649     1.0  0.56867  0.23500  0.95045  1.0000
  Fe  Fe182     1.0  0.49739  0.19850  0.96125  1.0000
  H   H2943     1.0  0.51320  0.18553  0.81505  1.0000
  C   C1650     1.0  0.63469  0.13466  0.66205  1.0000
  C   C1651     1.0  0.51284  0.14264  0.83472  1.0000
  H   H2944     1.0  0.50623  0.20356  0.87385  1.0000
  H   H2945     1.0  0.61688  0.23495  0.90090  1.0000
  H   H2946     1.0  0.51744  0.14678  0.81959  1.0000
  N   N92       1.0  0.56598  0.99054  0.72165  1.0000
  C   C1652     1.0  0.56265  0.99442  0.70249  1.0000
  H   H2947     1.0  0.50913  0.15320  0.85902  1.0000
  H   H2948     1.0  0.53879  0.23273  0.98381  1.0000
  H   H2949     1.0  0.52633  0.14558  0.96239  1.0000
  C   C1653     1.0  0.58796  0.08974  0.65782  1.0000
  H   H2950     1.0  0.50595  0.11734  0.96572  1.0000
  H   H2951     1.0  0.55894  0.18294  0.96423  1.0000
  S   S364      1.0  0.50802  0.98883  0.67966  1.0000
  H   H2952     1.0  0.62986  0.14975  0.66018  1.0000
  H   H2953     1.0  0.62395  0.12885  0.65995  1.0000
  H   H2954     1.0  0.56514  0.15838  0.97126  1.0000
  H   H2955     1.0  0.98192  0.17756  0.65301  1.0000
  C   C1654     1.0  0.49725  0.13117  0.96169  1.0000
  C   C1655     1.0  0.49797  0.14262  0.97500  1.0000
  H   H2956     1.0  0.51791  0.14966  0.98540  1.0000
  Fe  Fe183     1.0  0.60930  0.29376  0.10103  1.0000
  S   S365      1.0  0.59299  0.31286  0.08072  1.0000
  Fe  Fe184     1.0  0.63808  0.31714  0.09121  1.0000
  S   S366      1.0  0.62437  0.33760  0.06986  1.0000
  S   S367      1.0  0.66546  0.32066  0.09329  1.0000
  Fe  Fe185     1.0  0.59802  0.33510  0.09070  1.0000
  S   S368      1.0  0.57687  0.36074  0.09550  1.0000
  Fe  Fe186     1.0  0.62088  0.31337  0.06189  1.0000
  S   S369      1.0  0.63031  0.30983  0.03270  1.0000
  S   S370      1.0  0.61192  0.31616  0.11296  1.0000
  S   S371      1.0  0.63685  0.29294  0.08149  1.0000
  Fe  Fe187     1.0  0.67292  0.40489  0.12559  1.0000
  S   S372      1.0  0.66263  0.42588  0.10235  1.0000
  S   S373      1.0  0.66368  0.37825  0.13839  1.0000
  Fe  Fe188     1.0  0.69499  0.42916  0.13140  1.0000
  S   S374      1.0  0.68659  0.45227  0.10866  1.0000
  S   S375      1.0  0.71090  0.43006  0.15148  1.0000
  Fe  Fe189     1.0  0.65826  0.44626  0.11959  1.0000
  C   C1656     1.0  0.82054  0.45009  0.27106  1.0000
  Fe  Fe190     1.0  0.69165  0.43006  0.09337  1.0000
  S   S376      1.0  0.70521  0.43506  0.06348  1.0000
  S   S377      1.0  0.66600  0.42503  0.14380  1.0000
  S   S378      1.0  0.70262  0.40723  0.11512  1.0000
  S   S379      1.0  0.68088  0.38704  0.02443  1.0000
  C   C1657     1.0  0.69465  0.46047  0.99063  1.0000
  H   H2957     1.0  0.56092  0.34465  0.04112  1.0000
  C   C1658     1.0  0.54082  0.30529  0.09048  1.0000
  H   H2958     1.0  0.79094  0.37299  0.01690  1.0000
  S   S380      1.0  0.78884  0.44308  0.14824  1.0000
  H   H2959     1.0  0.54966  0.26188  0.13272  1.0000
  N   N93       1.0  0.55022  0.26694  0.01021  1.0000
  H   H2960     1.0  0.52677  0.31400  0.09124  1.0000
  H   H2961     1.0  0.55679  0.40251  0.99465  1.0000
  H   H2962     1.0  0.84153  0.43442  0.10723  1.0000
  H   H2963     1.0  0.56237  0.28093  0.13924  1.0000
  H   H2964     1.0  0.54631  0.27258  0.03701  1.0000
  N   N94       1.0  0.85077  0.47594  0.22767  1.0000
  H   H2965     1.0  0.97323  0.46820  0.20702  1.0000
  C   C1659     1.0  0.69369  0.46781  0.17753  1.0000
  C   C1660     1.0  0.81535  0.48691  0.03291  1.0000
  C   C1661     1.0  0.69893  0.42161  0.05238  1.0000
  C   C1662     1.0  0.70116  0.42600  0.03325  1.0000
  C   C1663     1.0  0.69549  0.41560  0.02444  1.0000
  C   C1664     1.0  0.68770  0.40075  0.03480  1.0000
  C   C1665     1.0  0.68568  0.39629  0.05389  1.0000
  C   C1666     1.0  0.69128  0.40669  0.06268  1.0000
  H   H2966     1.0  0.70723  0.43745  0.02525  1.0000
  H   H2967     1.0  0.69729  0.41897  0.00968  1.0000
  H   H2968     1.0  0.67962  0.38486  0.06193  1.0000
  H   H2969     1.0  0.68961  0.40318  0.07744  1.0000
  H   H2970     1.0  0.54684  0.24963  0.03745  1.0000
  H   H2971     1.0  0.82234  0.43780  0.26551  1.0000
  H   H2972     1.0  0.91509  0.45428  0.22623  1.0000
  H   H2973     1.0  0.89438  0.47743  0.30610  1.0000
  H   H2974     1.0  0.76204  0.43438  0.03187  1.0000
  H   H2975     1.0  0.82396  0.48063  0.18529  1.0000
  H   H2976     1.0  0.53328  0.31359  0.12376  1.0000
  H   H2977     1.0  0.55803  0.29085  0.99077  1.0000
  C   C1667     1.0  0.96094  0.47579  0.24892  1.0000
  C   C1668     1.0  0.55264  0.37213  0.02529  1.0000
  C   C1669     1.0  0.73375  0.43300  0.14609  1.0000
  C   C1670     1.0  0.74689  0.41907  0.15402  1.0000
  C   C1671     1.0  0.76390  0.42230  0.15394  1.0000
  C   C1672     1.0  0.76772  0.43971  0.14657  1.0000
  C   C1673     1.0  0.75476  0.45367  0.13830  1.0000
  C   C1674     1.0  0.73792  0.45019  0.13773  1.0000
  H   H2978     1.0  0.74360  0.40591  0.16097  1.0000
  H   H2979     1.0  0.77381  0.41145  0.16041  1.0000
  H   H2980     1.0  0.75749  0.46722  0.13283  1.0000
  H   H2981     1.0  0.72771  0.46097  0.13172  1.0000
  C   C1675     1.0  0.66425  0.33715  0.10557  1.0000
  C   C1676     1.0  0.66045  0.33282  0.12476  1.0000
  C   C1677     1.0  0.66065  0.34549  0.13457  1.0000
  C   C1678     1.0  0.66466  0.36256  0.12530  1.0000
  C   C1679     1.0  0.66867  0.36689  0.10606  1.0000
  C   C1680     1.0  0.66856  0.35413  0.09623  1.0000
  H   H2982     1.0  0.65745  0.31964  0.13206  1.0000
  H   H2983     1.0  0.65757  0.34207  0.14944  1.0000
  H   H2984     1.0  0.67170  0.38007  0.09883  1.0000
  H   H2985     1.0  0.67164  0.35745  0.08140  1.0000
  C   C1681     1.0  0.55432  0.35711  0.10206  1.0000
  H   H2986     1.0  0.55496  0.35074  0.07648  1.0000
  C   C1682     1.0  0.61282  0.31330  0.02100  1.0000
  C   C1683     1.0  0.59456  0.31316  0.03050  1.0000
  C   C1684     1.0  0.58081  0.31597  0.02077  1.0000
  N   N95       1.0  0.68658  0.32342  0.03114  1.0000
  H   H2987     1.0  0.73900  0.35962  0.05749  1.0000
  C   C1685     1.0  0.61735  0.31609  0.00182  1.0000
  H   H2988     1.0  0.59103  0.31083  0.04529  1.0000
  H   H2989     1.0  0.56666  0.31584  0.02810  1.0000
  H   H2990     1.0  0.69966  0.26594  0.04186  1.0000
  S   S381      1.0  0.85313  0.48451  0.14946  1.0000
  H   H2991     1.0  0.60133  0.27656  0.07803  1.0000
  C   C1686     1.0  0.67876  0.45746  0.17959  1.0000
  H   H2992     1.0  0.95804  0.46504  0.26139  1.0000
  C   C1687     1.0  0.51836  0.35079  0.11320  1.0000
  H   H2993     1.0  0.58037  0.35614  0.98949  1.0000
  C   C1688     1.0  0.57582  0.37133  0.98674  1.0000
  C   C1689     1.0  0.74394  0.42089  0.98652  1.0000
  H   H2994     1.0  0.64735  0.46046  0.00974  1.0000
  H   H2995     1.0  0.72293  0.35478  0.09158  1.0000
  C   C1690     1.0  0.66238  0.47434  0.05974  1.0000
  C   C1691     1.0  0.52038  0.26818  0.03596  1.0000
  C   C1692     1.0  0.54869  0.30362  0.07046  1.0000
  H   H2996     1.0  0.82313  0.45686  0.19025  1.0000
  C   C1693     1.0  0.54681  0.35226  0.09001  1.0000
  H   H2997     1.0  0.87088  0.45505  0.21440  1.0000
  C   C1694     1.0  0.83854  0.47987  0.21420  1.0000
  H   H2998     1.0  0.73645  0.40546  0.03296  1.0000
  H   H2999     1.0  0.54119  0.29564  0.06630  1.0000
  H   H3000     1.0  0.54717  0.31750  0.06143  1.0000
  C   C1695     1.0  0.53449  0.26756  0.13478  1.0000
  N   N96       1.0  0.60687  0.38986  0.10853  1.0000
  C   C1696     1.0  0.60041  0.37524  0.12452  1.0000
  C   C1697     1.0  0.59064  0.40226  0.10060  1.0000
  C   C1698     1.0  0.61999  0.38044  0.09368  1.0000
  C   C1699     1.0  0.61717  0.40085  0.11385  1.0000
  C   C1700     1.0  0.60670  0.41007  0.13029  1.0000
  C   C1701     1.0  0.61555  0.36101  0.13356  1.0000
  C   C1702     1.0  0.62800  0.39329  0.07578  1.0000
  C   C1703     1.0  0.57124  0.40474  0.11377  1.0000
  C   C1704     1.0  0.55686  0.41905  0.10424  1.0000
  C   C1705     1.0  0.61862  0.42050  0.13452  1.0000
  C   C1706     1.0  0.60705  0.34815  0.15055  1.0000
  C   C1707     1.0  0.63675  0.38315  0.06004  1.0000
  H   H3001     1.0  0.59298  0.36742  0.12006  1.0000
  H   H3002     1.0  0.59021  0.38135  0.13566  1.0000
  H   H3003     1.0  0.59345  0.41612  0.09400  1.0000
  H   H3004     1.0  0.58871  0.39703  0.08932  1.0000
  H   H3005     1.0  0.61307  0.37150  0.09003  1.0000
  H   H3006     1.0  0.63222  0.37120  0.09860  1.0000
  H   H3007     1.0  0.63064  0.39225  0.11682  1.0000
  H   H3008     1.0  0.62102  0.41202  0.10209  1.0000
  H   H3009     1.0  0.60286  0.39982  0.14293  1.0000
  H   H3010     1.0  0.59412  0.42017  0.12704  1.0000
  H   H3011     1.0  0.62460  0.35231  0.12393  1.0000
  H   H3012     1.0  0.62400  0.36779  0.13795  1.0000
  H   H3013     1.0  0.63894  0.39862  0.07815  1.0000
  H   H3014     1.0  0.61728  0.40515  0.07109  1.0000
  H   H3015     1.0  0.56648  0.39167  0.11814  1.0000
  H   H3016     1.0  0.57132  0.40903  0.12625  1.0000
  H   H3017     1.0  0.64854  0.43954  0.99014  1.0000
  H   H3018     1.0  0.52037  0.25647  0.06504  1.0000
  H   H3019     1.0  0.56059  0.43262  0.09996  1.0000
  H   H3020     1.0  0.63156  0.41111  0.13792  1.0000
  H   H3021     1.0  0.62216  0.43163  0.12261  1.0000
  H   H3022     1.0  0.61093  0.42679  0.14651  1.0000
  H   H3023     1.0  0.59827  0.35591  0.16118  1.0000
  H   H3024     1.0  0.59859  0.34081  0.14682  1.0000
  H   H3025     1.0  0.61828  0.33786  0.15644  1.0000
  H   H3026     1.0  0.64292  0.39252  0.04772  1.0000
  H   H3027     1.0  0.64783  0.37116  0.06380  1.0000
  H   H3028     1.0  0.62610  0.37846  0.05641  1.0000
  C   C1708     1.0  0.51020  0.29385  0.12414  1.0000
  H   H3029     1.0  0.98469  0.43923  0.25898  1.0000
  N   N97       1.0  0.75488  0.37985  0.04136  1.0000
  H   H3030     1.0  0.72464  0.37081  0.03331  1.0000
  H   H3031     1.0  0.52976  0.26772  0.14970  1.0000
  H   H3032     1.0  0.76044  0.46396  0.10000  1.0000
  C   C1709     1.0  0.79025  0.37782  0.02934  1.0000
  H   H3033     1.0  0.92043  0.45222  0.31359  1.0000
  C   C1710     1.0  0.66694  0.32998  0.02850  1.0000
  C   C1711     1.0  0.68932  0.33500  0.04257  1.0000
  C   C1712     1.0  0.66085  0.35046  0.01957  1.0000
  C   C1713     1.0  0.70864  0.32978  0.04747  1.0000
  C   C1714     1.0  0.64198  0.35432  0.01477  1.0000
  C   C1715     1.0  0.70872  0.33913  0.06239  1.0000
  H   H3034     1.0  0.65717  0.32744  0.04204  1.0000
  H   H3035     1.0  0.67841  0.33479  0.05549  1.0000
  H   H3036     1.0  0.68758  0.34953  0.03531  1.0000
  H   H3037     1.0  0.69979  0.34036  0.00667  1.0000
  H   H3038     1.0  0.65942  0.35918  0.02932  1.0000
  H   H3039     1.0  0.67084  0.35467  0.00674  1.0000
  H   H3040     1.0  0.71913  0.33422  0.03516  1.0000
  H   H3041     1.0  0.71315  0.31485  0.05251  1.0000
  H   H3042     1.0  0.76312  0.37842  0.01246  1.0000
  H   H3043     1.0  0.67634  0.26273  0.04686  1.0000
  H   H3044     1.0  0.68549  0.32077  0.99500  1.0000
  H   H3045     1.0  0.51441  0.28175  0.02842  1.0000
  H   H3046     1.0  0.69986  0.33365  0.07557  1.0000
  H   H3047     1.0  0.72296  0.33612  0.06458  1.0000
  H   H3048     1.0  0.70366  0.35417  0.05849  1.0000
  H   H3049     1.0  0.68383  0.26994  0.06331  1.0000
  H   H3050     1.0  0.97218  0.40286  0.26163  1.0000
  C   C1716     1.0  0.57320  0.24806  0.08259  1.0000
  H   H3051     1.0  0.77520  0.37678  0.05727  1.0000
  C   C1717     1.0  0.69921  0.31591  0.99868  1.0000
  C   C1718     1.0  0.92656  0.45172  0.26854  1.0000
  C   C1719     1.0  0.57099  0.26072  0.00782  1.0000
  C   C1720     1.0  0.64439  0.48471  0.98830  1.0000
  C   C1721     1.0  0.52832  0.40548  0.99329  1.0000
  H   H3052     1.0  0.67537  0.46510  0.06311  1.0000
  C   C1722     1.0  0.65087  0.44759  0.05722  1.0000
  C   C1723     1.0  0.54393  0.25602  0.00065  1.0000
  H   H3053     1.0  0.64741  0.44141  0.04758  1.0000
  H   H3054     1.0  0.52278  0.34608  0.08599  1.0000
  S   S382      1.0  0.56805  0.32218  0.98969  1.0000
  H   H3055     1.0  0.98349  0.48165  0.22584  1.0000
  H   H3056     1.0  0.56203  0.32190  0.12703  1.0000
  H   H3057     1.0  0.57058  0.36159  0.04477  1.0000
  H   H3058     1.0  0.62945  0.24243  0.06725  1.0000
  H   H3059     1.0  0.70463  0.29690  0.03848  1.0000
  S   S383      1.0  0.82522  0.47257  0.12050  1.0000
  H   H3060     1.0  0.75542  0.35881  0.07980  1.0000
  H   H3061     1.0  0.83667  0.47360  0.07595  1.0000
  C   C1724     1.0  0.70050  0.32561  0.01311  1.0000
  H   H3062     1.0  0.66270  0.43807  0.06257  1.0000
  H   H3063     1.0  0.68614  0.30313  0.05682  1.0000
  S   S384      1.0  0.78959  0.47190  0.99841  1.0000
  N   N98       1.0  0.78947  0.43735  0.08418  1.0000
  C   C1725     1.0  0.78522  0.45792  0.07824  1.0000
  C   C1726     1.0  0.80118  0.42938  0.06786  1.0000
  C   C1727     1.0  0.77144  0.43101  0.09144  1.0000
  C   C1728     1.0  0.80006  0.43099  0.09935  1.0000
  C   C1729     1.0  0.81762  0.43859  0.09577  1.0000
  H   H3064     1.0  0.58097  0.37584  0.99649  1.0000
  C   C1730     1.0  0.77284  0.41022  0.09416  1.0000
  C   C1731     1.0  0.79207  0.43376  0.05121  1.0000
  C   C1732     1.0  0.80230  0.42090  0.03804  1.0000
  C   C1733     1.0  0.82936  0.42831  0.10994  1.0000
  H   H3065     1.0  0.74245  0.35123  0.00977  1.0000
  C   C1734     1.0  0.75386  0.40554  0.10273  1.0000
  H   H3066     1.0  0.77742  0.46227  0.06714  1.0000
  H   H3067     1.0  0.79816  0.46303  0.07203  1.0000
  H   H3068     1.0  0.81406  0.43464  0.06222  1.0000
  H   H3069     1.0  0.80602  0.41430  0.07210  1.0000
  H   H3070     1.0  0.76138  0.43853  0.08257  1.0000
  H   H3071     1.0  0.76455  0.43440  0.10516  1.0000
  H   H3072     1.0  0.79103  0.43446  0.11243  1.0000
  H   H3073     1.0  0.80442  0.41581  0.10238  1.0000
  H   H3074     1.0  0.81366  0.45327  0.09646  1.0000
  H   H3075     1.0  0.82669  0.43719  0.08222  1.0000
  H   H3076     1.0  0.74379  0.37239  0.99278  1.0000
  H   H3077     1.0  0.82978  0.44689  0.28080  1.0000
  H   H3078     1.0  0.78226  0.40216  0.10344  1.0000
  H   H3079     1.0  0.77801  0.40578  0.08086  1.0000
  H   H3080     1.0  0.77755  0.43247  0.05560  1.0000
  H   H3081     1.0  0.79238  0.44801  0.04343  1.0000
  H   H3082     1.0  0.80109  0.40667  0.04487  1.0000
  H   H3083     1.0  0.79620  0.42506  0.02570  1.0000
  H   H3084     1.0  0.81717  0.42140  0.03344  1.0000
  H   H3085     1.0  0.66523  0.46443  0.18690  1.0000
  H   H3086     1.0  0.82130  0.42923  0.12405  1.0000
  H   H3087     1.0  0.83443  0.41368  0.10909  1.0000
  H   H3088     1.0  0.54334  0.29574  0.01165  1.0000
  C   C1735     1.0  0.73592  0.36599  0.00621  1.0000
  H   H3089     1.0  0.56361  0.29704  0.06836  1.0000
  H   H3090     1.0  0.75517  0.39057  0.10493  1.0000
  H   H3091     1.0  0.74807  0.40949  0.11630  1.0000
  C   C1736     1.0  0.58361  0.26144  0.07442  1.0000
  C   C1737     1.0  0.74899  0.43150  0.04129  1.0000
  H   H3092     1.0  0.72165  0.36710  0.00499  1.0000
  C   C1738     1.0  0.56685  0.35689  0.03423  1.0000
  C   C1739     1.0  0.54371  0.35917  0.11952  1.0000
  C   C1740     1.0  0.52590  0.35564  0.12521  1.0000
  C   C1741     1.0  0.83058  0.47730  0.06407  1.0000
  C   C1742     1.0  0.54173  0.26394  0.03051  1.0000
  H   H3093     1.0  0.76006  0.35731  0.02796  1.0000
  H   H3094     1.0  0.84487  0.45231  0.05464  1.0000
  C   C1743     1.0  0.91247  0.46685  0.26399  1.0000
  H   H3095     1.0  0.63727  0.26258  0.02680  1.0000
  C   C1744     1.0  0.53724  0.29910  0.13092  1.0000
  C   C1745     1.0  0.96142  0.44578  0.19458  1.0000
  C   C1746     1.0  0.74047  0.37334  0.05784  1.0000
  N   N99       1.0  0.98485  0.45263  0.23045  1.0000
  H   H3096     1.0  0.78879  0.39288  0.02563  1.0000
  C   C1747     1.0  0.54926  0.39735  0.98749  1.0000
  C   C1748     1.0  0.98074  0.46999  0.23749  1.0000
  H   H3097     1.0  0.83562  0.45143  0.21816  1.0000
  H   H3098     1.0  0.69086  0.47277  0.19037  1.0000
  H   H3099     1.0  0.91057  0.47132  0.25005  1.0000
  C   C1749     1.0  0.73494  0.37580  0.02115  1.0000
  H   H3100     1.0  0.73954  0.40938  0.06165  1.0000
  C   C1750     1.0  0.82737  0.46993  0.03659  1.0000
  H   H3101     1.0  0.72372  0.47689  0.01341  1.0000
  C   C1751     1.0  0.63243  0.26190  0.04182  1.0000
  H   H3102     1.0  0.64286  0.34690  0.00404  1.0000
  H   H3103     1.0  0.72949  0.36556  0.10596  1.0000
  H   H3104     1.0  0.72662  0.38261  0.05723  1.0000
  C   C1752     1.0  0.82246  0.46837  0.19649  1.0000
  H   H3105     1.0  0.98854  0.48184  0.28305  1.0000
  H   H3106     1.0  0.63145  0.31636  0.99444  1.0000
  H   H3107     1.0  0.96697  0.43626  0.25067  1.0000
  H   H3108     1.0  0.53217  0.25143  0.11641  1.0000
  H   H3109     1.0  0.68233  0.44343  0.18793  1.0000
  H   H3110     1.0  0.64319  0.47486  0.04269  1.0000
  H   H3111     1.0  0.51797  0.35662  0.13895  1.0000
  H   H3112     1.0  0.74542  0.43917  0.05241  1.0000
  H   H3113     1.0  0.98785  0.40550  0.27383  1.0000
  H   H3114     1.0  0.55583  0.41488  0.09197  1.0000
  C   C1753     1.0  0.64611  0.46593  0.99561  1.0000
  H   H3115     1.0  0.52425  0.32184  0.99608  1.0000
  H   H3116     1.0  0.57765  0.26227  0.99286  1.0000
  C   C1754     1.0  0.63372  0.48472  0.13224  1.0000
  C   C1755     1.0  0.52616  0.25346  0.13069  1.0000
  C   C1756     1.0  0.54047  0.28634  0.10366  1.0000
  H   H3117     1.0  0.82012  0.37389  0.02354  1.0000
  H   H3118     1.0  0.51504  0.25754  0.03322  1.0000
  H   H3119     1.0  0.74766  0.38287  0.07902  1.0000
  H   H3120     1.0  0.74405  0.41274  0.09357  1.0000
  C   C1757     1.0  0.77359  0.46848  0.09345  1.0000
  C   C1758     1.0  0.80885  0.36927  0.03488  1.0000
  C   C1759     1.0  0.98182  0.43691  0.24662  1.0000
  C   C1760     1.0  0.52865  0.34954  0.09542  1.0000
  C   C1761     1.0  0.98681  0.40291  0.26075  1.0000
  H   H3121     1.0  0.70190  0.30091  0.00387  1.0000
  H   H3122     1.0  0.53406  0.27875  0.09771  1.0000
  C   C1762     1.0  0.68505  0.27121  0.04840  1.0000
  H   H3123     1.0  0.73659  0.42128  0.00053  1.0000
  C   C1763     1.0  0.65577  0.46599  0.04718  1.0000
  H   H3124     1.0  0.55779  0.38488  0.02108  1.0000
  H   H3125     1.0  0.54951  0.31248  0.09402  1.0000
  H   H3126     1.0  0.71479  0.32017  0.01544  1.0000
  C   C1764     1.0  0.60361  0.31890  0.99211  1.0000
  C   C1765     1.0  0.90071  0.47603  0.27756  1.0000
  H   H3127     1.0  0.55497  0.31040  0.15070  1.0000
  C   C1766     1.0  0.54586  0.28715  0.00140  1.0000
  H   H3128     1.0  0.66367  0.29541  0.04599  1.0000
  H   H3129     1.0  0.81153  0.35410  0.03754  1.0000
  C   C1767     1.0  0.58001  0.27051  0.01691  1.0000
  H   H3130     1.0  0.87458  0.47760  0.20510  1.0000
  H   H3131     1.0  0.84828  0.44829  0.24164  1.0000
  H   H3132     1.0  0.63144  0.35006  0.02713  1.0000
  H   H3133     1.0  0.58421  0.26819  0.06014  1.0000
  S   S385      1.0  0.83253  0.45405  0.02247  1.0000
  H   H3134     1.0  0.63876  0.44940  0.06887  1.0000
  H   H3135     1.0  0.51648  0.29118  0.99988  1.0000
  H   H3136     1.0  0.66419  0.32201  0.02006  1.0000
  C   C1768     1.0  0.58537  0.31873  0.00159  1.0000
  H   H3137     1.0  0.52868  0.25972  0.00253  1.0000
  S   S386      1.0  0.60139  0.26690  0.11659  1.0000
  H   H3138     1.0  0.55502  0.27863  0.10280  1.0000
  C   C1769     1.0  0.68971  0.30370  0.04170  1.0000
  C   C1770     1.0  0.67840  0.29115  0.03927  1.0000
  H   H3139     1.0  0.50533  0.28686  0.11618  1.0000
  S   S387      1.0  0.56124  0.24282  0.06913  1.0000
  H   H3140     1.0  0.64606  0.46387  0.15272  1.0000
  H   H3141     1.0  0.73781  0.43660  0.03348  1.0000
  H   H3142     1.0  0.67903  0.29176  0.02468  1.0000
  H   H3143     1.0  0.63734  0.36918  0.00942  1.0000
  C   C1771     1.0  0.59311  0.26643  0.08462  1.0000
  H   H3144     1.0  0.56651  0.29416  0.11608  1.0000
  C   C1772     1.0  0.63354  0.24210  0.05242  1.0000
  S   S388      1.0  0.76922  0.43422  0.99450  1.0000
  H   H3145     1.0  0.57506  0.24596  0.01403  1.0000
  H   H3146     1.0  0.51618  0.28106  0.05893  1.0000
  H   H3147     1.0  0.67752  0.45623  0.16604  1.0000
  H   H3148     1.0  0.57886  0.26390  0.03170  1.0000
  H   H3149     1.0  0.77676  0.35717  0.04910  1.0000
  H   H3150     1.0  0.95719  0.45811  0.22564  1.0000
  C   C1773     1.0  0.56363  0.30858  0.13696  1.0000
  H   H3151     1.0  0.53145  0.42929  0.00095  1.0000
  C   C1774     1.0  0.57264  0.23931  0.10102  1.0000
  C   C1775     1.0  0.59179  0.25852  0.10327  1.0000
  H   H3152     1.0  0.90558  0.44564  0.21236  1.0000
  S   S389      1.0  0.94866  0.42899  0.29167  1.0000
  C   C1776     1.0  0.55828  0.29444  0.13024  1.0000
  C   C1777     1.0  0.97182  0.45564  0.21797  1.0000
  C   C1778     1.0  0.60045  0.26955  0.00793  1.0000
  H   H3153     1.0  0.60658  0.24151  0.04937  1.0000
  H   H3154     1.0  0.52253  0.39944  0.00775  1.0000
  C   C1779     1.0  0.91811  0.45598  0.29984  1.0000
  H   H3155     1.0  0.94670  0.45027  0.20134  1.0000
  H   H3156     1.0  0.75222  0.47304  0.02645  1.0000
  C   C1780     1.0  0.75057  0.40041  0.03570  1.0000
  H   H3157     1.0  0.69516  0.46793  0.03235  1.0000
  H   H3158     1.0  0.70720  0.45777  0.17640  1.0000
  C   C1781     1.0  0.75430  0.37237  0.02547  1.0000
  H   H3159     1.0  0.66665  0.46381  0.03469  1.0000
  H   H3160     1.0  0.75408  0.46866  0.04998  1.0000
  H   H3161     1.0  0.75983  0.40496  0.02241  1.0000
  C   C1782     1.0  0.51344  0.26880  0.05631  1.0000
  H   H3162     1.0  0.96903  0.42813  0.21899  1.0000
  Fe  Fe191     1.0  0.79724  0.47025  0.13871  1.0000
  C   C1783     1.0  0.92971  0.44655  0.28639  1.0000
  H   H3163     1.0  0.96263  0.43414  0.18829  1.0000
  H   H3164     1.0  0.78149  0.46637  0.10411  1.0000
  C   C1784     1.0  0.54757  0.36708  0.00939  1.0000
  H   H3165     1.0  0.57833  0.30390  0.13805  1.0000
  S   S390      1.0  0.63298  0.46924  0.11980  1.0000
  Fe  Fe192     1.0  0.81986  0.46083  0.99766  1.0000
  C   C1785     1.0  0.90456  0.45779  0.21780  1.0000
  C   C1786     1.0  0.64125  0.47839  0.14788  1.0000
  H   H3166     1.0  0.93523  0.44437  0.25813  1.0000
  H   H3167     1.0  0.85114  0.45934  0.19702  1.0000
  H   H3168     1.0  0.55194  0.35196  0.01051  1.0000
  C   C1787     1.0  0.88525  0.46328  0.22961  1.0000
  C   C1788     1.0  0.58190  0.24461  0.11139  1.0000
  H   H3169     1.0  0.71483  0.37911  0.09043  1.0000
  C   C1789     1.0  0.72674  0.36735  0.09216  1.0000
  H   H3170     1.0  0.80871  0.47122  0.20592  1.0000
  H   H3171     1.0  0.57308  0.28508  0.01614  1.0000
  H   H3172     1.0  0.68435  0.45252  0.99171  1.0000
  N   N100      1.0  0.53062  0.28669  0.12340  1.0000
  H   H3173     1.0  0.54309  0.42027  0.11385  1.0000
  H   H3174     1.0  0.90772  0.46924  0.20610  1.0000
  C   C1790     1.0  0.97372  0.43982  0.20857  1.0000
  H   H3175     1.0  0.60815  0.25517  0.00827  1.0000
  N   N101      1.0  0.55496  0.37678  0.99006  1.0000
  H   H3176     1.0  0.57969  0.35307  0.02396  1.0000
  H   H3177     1.0  0.65207  0.47347  0.07308  1.0000
  H   H3178     1.0  0.82228  0.47811  0.26187  1.0000
  H   H3179     1.0  0.53022  0.29885  0.14557  1.0000
  H   H3180     1.0  0.70798  0.45085  0.99247  1.0000
  H   H3181     1.0  0.76436  0.40623  0.05434  1.0000
  H   H3182     1.0  0.60198  0.27718  0.99344  1.0000
  C   C1791     1.0  0.83798  0.46338  0.20687  1.0000
  C   C1792     1.0  0.83519  0.46527  0.05202  1.0000
  C   C1793     1.0  0.90335  0.47038  0.29555  1.0000
  C   C1794     1.0  0.77403  0.37241  0.04523  1.0000
  H   H3183     1.0  0.53991  0.37458  0.03621  1.0000
  H   H3184     1.0  0.53226  0.36954  0.01259  1.0000
  C   C1795     1.0  0.75119  0.41101  0.04964  1.0000
  H   H3185     1.0  0.54948  0.36293  0.12884  1.0000
  H   H3186     1.0  0.72957  0.39057  0.01617  1.0000
  C   C1796     1.0  0.74393  0.37083  0.07728  1.0000
  C   C1797     1.0  0.84514  0.46209  0.24482  1.0000
  H   H3187     1.0  0.88496  0.47498  0.23531  1.0000
  H   H3188     1.0  0.58104  0.23828  0.12579  1.0000
  H   H3189     1.0  0.61804  0.27010  0.04467  1.0000
  H   H3190     1.0  0.75808  0.47579  0.17434  1.0000
  H   H3191     1.0  0.68930  0.46804  0.00191  1.0000
  H   H3192     1.0  0.60652  0.27604  0.01527  1.0000
  H   H3193     1.0  0.80598  0.45355  0.27872  1.0000
  H   H3194     1.0  0.95021  0.47864  0.24090  1.0000
  H   H3195     1.0  0.85362  0.46054  0.25491  1.0000
  H   H3196     1.0  0.51093  0.25787  0.13241  1.0000
  S   S391      1.0  0.50550  0.33112  0.03390  1.0000
  H   H3197     1.0  0.49829  0.26967  0.06028  1.0000
  Fe  Fe193     1.0  0.68197  0.39541  0.99410  1.0000
  H   H3198     1.0  0.81492  0.46904  0.24649  1.0000
  H   H3199     1.0  0.88312  0.45151  0.24126  1.0000
  C   C1798     1.0  0.69685  0.48169  0.03205  1.0000
  H   H3200     1.0  0.96573  0.45724  0.18347  1.0000
  C   C1799     1.0  0.52965  0.29441  0.99120  1.0000
  C   C1800     1.0  0.87021  0.46803  0.21823  1.0000
  C   C1801     1.0  0.82479  0.46628  0.25545  1.0000
  H   H3201     1.0  0.73009  0.47508  0.16332  1.0000
  H   H3202     1.0  0.51878  0.37501  0.98834  1.0000
  H   H3203     1.0  0.80914  0.37347  0.04739  1.0000
  H   H3204     1.0  0.64134  0.26822  0.04620  1.0000
  H   H3205     1.0  0.53107  0.35162  0.99210  1.0000
  S   S392      1.0  0.79996  0.48476  0.15893  1.0000
  H   H3206     1.0  0.64753  0.48603  0.16983  1.0000
  H   H3207     1.0  0.70342  0.48021  0.04350  1.0000
  H   H3208     1.0  0.69947  0.47656  0.14842  1.0000
  H   H3209     1.0  0.50948  0.43169  0.99558  1.0000
  H   H3210     1.0  0.50754  0.30850  0.11735  1.0000
  H   H3211     1.0  0.98824  0.45143  0.28109  1.0000
  H   H3212     1.0  0.88435  0.48556  0.16223  1.0000
  C   C1802     1.0  0.74886  0.47923  0.03865  1.0000
  H   H3213     1.0  0.49756  0.23736  0.02652  1.0000
  H   H3214     1.0  0.71652  0.48290  0.18331  1.0000
  C   C1803     1.0  0.52461  0.42615  0.99164  1.0000
  H   H3215     1.0  0.50228  0.25290  0.99392  1.0000
  H   H3216     1.0  0.73362  0.48350  0.04313  1.0000
  H   H3217     1.0  0.49995  0.30187  0.15097  1.0000
  H   H3218     1.0  0.99303  0.47289  0.30513  1.0000
  H   H3219     1.0  0.49689  0.24844  0.09330  1.0000
  H   H3220     1.0  0.98809  0.43521  0.20111  1.0000
  H   H3221     1.0  0.99003  0.46868  0.24669  1.0000
  H   H3222     1.0  0.74263  0.48474  0.19381  1.0000
  C   C1804     1.0  0.69453  0.48364  0.16018  1.0000
  H   H3223     1.0  0.99281  0.41404  0.23175  1.0000
  C   C1805     1.0  0.99346  0.41752  0.24444  1.0000
  H   H3224     1.0  0.49898  0.27876  0.15194  1.0000
  H   H3225     1.0  0.99552  0.43966  0.30213  1.0000
  H   H3226     1.0  0.99549  0.38919  0.25912  1.0000
  C   C1806     1.0  0.49725  0.29288  0.14353  1.0000
  H   H3227     1.0  0.65881  0.48654  0.09194  1.0000
  H   H3228     1.0  0.82404  0.48613  0.22002  1.0000
  H   H3229     1.0  0.94366  0.36414  0.61115  1.0000
  H   H3230     1.0  0.90828  0.40615  0.55279  1.0000
  S   S393      1.0  0.91400  0.26061  0.49015  1.0000
  H   H3231     1.0  0.98251  0.41954  0.61646  1.0000
  Fe  Fe194     1.0  0.92051  0.36376  0.49625  1.0000
  S   S394      1.0  0.90974  0.39391  0.49483  1.0000
  S   S395      1.0  0.95051  0.34900  0.49168  1.0000
  Fe  Fe195     1.0  0.88208  0.35740  0.50128  1.0000
  S   S396      1.0  0.86836  0.38695  0.50016  1.0000
  S   S397      1.0  0.86516  0.33733  0.50381  1.0000
  Fe  Fe196     1.0  0.89242  0.39214  0.47688  1.0000
  S   S398      1.0  0.89030  0.41201  0.45013  1.0000
  Fe  Fe197     1.0  0.88702  0.38557  0.51842  1.0000
  S   S399      1.0  0.87635  0.40059  0.54173  1.0000
  S   S400      1.0  0.90461  0.36263  0.47666  1.0000
  S   S401      1.0  0.89908  0.35540  0.52121  1.0000
  S   S402      1.0  0.91266  0.32072  0.60305  1.0000
  C   C1807     1.0  0.98771  0.32263  0.54359  1.0000
  Fe  Fe198     1.0  0.93562  0.32772  0.61018  1.0000
  S   S403      1.0  0.95873  0.33728  0.58837  1.0000
  S   S404      1.0  0.94193  0.30115  0.62963  1.0000
  S   S405      1.0  0.86888  0.35551  0.62372  1.0000
  C   C1808     1.0  0.96923  0.34980  0.59647  1.0000
  C   C1809     1.0  0.96700  0.44842  0.40336  1.0000
  H   H3232     1.0  0.84058  0.38199  0.54907  1.0000
  C   C1810     1.0  0.96583  0.36155  0.49265  1.0000
  C   C1811     1.0  0.97623  0.32431  0.64571  1.0000
  C   C1812     1.0  0.90005  0.47947  0.40687  1.0000
  S   S406      1.0  0.91405  0.47572  0.35645  1.0000
  C   C1813     1.0  0.97175  0.38903  0.49684  1.0000
  C   C1814     1.0  0.95938  0.37923  0.49601  1.0000
  C   C1815     1.0  0.98782  0.30540  0.64321  1.0000
  H   H3233     1.0  0.99009  0.38910  0.55636  1.0000
  H   H3234     1.0  0.96687  0.40291  0.49885  1.0000
  H   H3235     1.0  0.94493  0.38543  0.49785  1.0000
  C   C1816     1.0  0.87315  0.38753  0.56431  1.0000
  C   C1817     1.0  0.88090  0.36879  0.56804  1.0000
  C   C1818     1.0  0.87919  0.35885  0.58622  1.0000
  C   C1819     1.0  0.86963  0.36751  0.60083  1.0000
  C   C1820     1.0  0.86102  0.38607  0.59710  1.0000
  C   C1821     1.0  0.86306  0.39614  0.57889  1.0000
  H   H3236     1.0  0.88843  0.36193  0.55697  1.0000
  H   H3237     1.0  0.88497  0.34441  0.58886  1.0000
  H   H3238     1.0  0.85321  0.39276  0.60830  1.0000
  H   H3239     1.0  0.85682  0.41061  0.57610  1.0000
  S   S407      1.0  0.95761  0.43628  0.36509  1.0000
  C   C1822     1.0  0.91521  0.25621  0.59178  1.0000
  Fe  Fe199     1.0  0.97778  0.43737  0.33799  1.0000
  C   C1823     1.0  0.94510  0.43802  0.62510  1.0000
  H   H3240     1.0  0.95100  0.46491  0.42296  1.0000
  C   C1824     1.0  0.90067  0.28228  0.49296  1.0000
  C   C1825     1.0  0.90917  0.29608  0.49279  1.0000
  C   C1826     1.0  0.89830  0.31307  0.49621  1.0000
  C   C1827     1.0  0.87901  0.31636  0.49931  1.0000
  C   C1828     1.0  0.87060  0.30270  0.49901  1.0000
  C   C1829     1.0  0.88141  0.28561  0.49605  1.0000
  H   H3241     1.0  0.92407  0.29343  0.49065  1.0000
  H   H3242     1.0  0.90484  0.32350  0.49670  1.0000
  H   H3243     1.0  0.85569  0.30524  0.50133  1.0000
  H   H3244     1.0  0.87482  0.27504  0.49600  1.0000
  H   H3245     1.0  0.86181  0.26799  0.60768  1.0000
  H   H3246     1.0  0.91656  0.37266  0.54489  1.0000
  C   C1830     1.0  0.93627  0.38463  0.41996  1.0000
  C   C1831     1.0  0.92265  0.39024  0.43484  1.0000
  C   C1832     1.0  0.90739  0.40450  0.43175  1.0000
  C   C1833     1.0  0.90588  0.41318  0.41374  1.0000
  H   H3247     1.0  0.94811  0.37369  0.42241  1.0000
  H   H3248     1.0  0.92443  0.38401  0.44863  1.0000
  H   H3249     1.0  0.89390  0.42385  0.41127  1.0000
  H   H3250     1.0  0.96630  0.30116  0.54730  1.0000
  H   H3251     1.0  0.97674  0.29446  0.51883  1.0000
  H   H3252     1.0  0.94614  0.33727  0.55269  1.0000
  C   C1834     1.0  0.93496  0.39370  0.40196  1.0000
  H   H3253     1.0  0.91347  0.43041  0.46836  1.0000
  Fe  Fe200     1.0  0.89491  0.33382  0.62644  1.0000
  H   H3254     1.0  0.93008  0.37314  0.58613  1.0000
  H   H3255     1.0  0.89374  0.44891  0.46566  1.0000
  N   N102      1.0  0.99484  0.30256  0.54329  1.0000
  H   H3256     1.0  0.89008  0.45472  0.42265  1.0000
  H   H3257     1.0  0.84652  0.33540  0.54150  1.0000
  H   H3258     1.0  0.88131  0.27619  0.62359  1.0000
  H   H3259     1.0  0.97827  0.31799  0.51184  1.0000
  H   H3260     1.0  0.99636  0.35875  0.43580  1.0000
  C   C1835     1.0  0.99503  0.41438  0.64800  1.0000
  H   H3261     1.0  0.93136  0.45099  0.40812  1.0000
  C   C1836     1.0  0.90154  0.39716  0.60658  1.0000
  H   H3262     1.0  0.94276  0.40925  0.52177  1.0000
  H   H3263     1.0  0.98131  0.46599  0.35464  1.0000
  H   H3264     1.0  0.92053  0.42778  0.50287  1.0000
  C   C1837     1.0  0.94187  0.37457  0.55131  1.0000
  C   C1838     1.0  0.85273  0.42469  0.62872  1.0000
  H   H3265     1.0  0.98240  0.30108  0.63356  1.0000
  H   H3266     1.0  0.93011  0.25266  0.58755  1.0000
  C   C1839     1.0  0.98644  0.30376  0.51258  1.0000
  H   H3267     1.0  0.97863  0.44356  0.61129  1.0000
  C   C1840     1.0  0.83677  0.36936  0.54866  1.0000
  C   C1841     1.0  0.85103  0.29742  0.54555  1.0000
  H   H3268     1.0  0.98673  0.35547  0.55325  1.0000
  H   H3269     1.0  0.92938  0.38027  0.64275  1.0000
  C   C1842     1.0  0.92803  0.40919  0.52744  1.0000
  S   S408      1.0  0.87073  0.24920  0.57835  1.0000
  H   H3270     1.0  0.82456  0.28938  0.55239  1.0000
  C   C1843     1.0  0.96037  0.43242  0.63589  1.0000
  C   C1844     1.0  0.91901  0.38989  0.65079  1.0000
  H   H3271     1.0  0.97081  0.44974  0.38827  1.0000
  S   S409      1.0  0.95252  0.38741  0.38342  1.0000
  C   C1845     1.0  0.88495  0.25549  0.58872  1.0000
  H   H3272     1.0  0.90173  0.42724  0.52280  1.0000
  N   N103      1.0  0.90959  0.33044  0.43539  1.0000
  C   C1846     1.0  0.92165  0.33225  0.44690  1.0000
  C   C1847     1.0  0.89420  0.34741  0.43413  1.0000
  C   C1848     1.0  0.90204  0.31345  0.44447  1.0000
  C   C1849     1.0  0.92045  0.32879  0.41625  1.0000
  C   C1850     1.0  0.93071  0.34440  0.40555  1.0000
  C   C1851     1.0  0.93998  0.31762  0.44757  1.0000
  C   C1852     1.0  0.88887  0.30954  0.43477  1.0000
  C   C1853     1.0  0.87865  0.34878  0.45175  1.0000
  C   C1854     1.0  0.86663  0.36814  0.45080  1.0000
  C   C1855     1.0  0.94139  0.34108  0.38651  1.0000
  C   C1856     1.0  0.95067  0.32121  0.45971  1.0000
  C   C1857     1.0  0.87910  0.29449  0.44712  1.0000
  H   H3273     1.0  0.91390  0.33150  0.46136  1.0000
  H   H3274     1.0  0.92516  0.34598  0.44241  1.0000
  H   H3275     1.0  0.89998  0.35990  0.43048  1.0000
  H   H3276     1.0  0.88743  0.34884  0.42269  1.0000
  H   H3277     1.0  0.89486  0.31380  0.45901  1.0000
  H   H3278     1.0  0.91346  0.30106  0.44534  1.0000
  H   H3279     1.0  0.93064  0.31545  0.41651  1.0000
  H   H3280     1.0  0.91109  0.32861  0.40767  1.0000
  H   H3281     1.0  0.94079  0.34545  0.41282  1.0000
  H   H3282     1.0  0.92076  0.35781  0.40362  1.0000
  H   H3283     1.0  0.93727  0.30370  0.45344  1.0000
  H   H3284     1.0  0.94912  0.31777  0.43371  1.0000
  H   H3285     1.0  0.89690  0.30481  0.42196  1.0000
  H   H3286     1.0  0.87810  0.32183  0.43109  1.0000
  H   H3287     1.0  0.86949  0.33933  0.45364  1.0000
  H   H3288     1.0  0.88439  0.34503  0.46416  1.0000
  H   H3289     1.0  0.86001  0.37233  0.43882  1.0000
  H   H3290     1.0  0.85562  0.36856  0.46355  1.0000
  H   H3291     1.0  0.87507  0.37805  0.44969  1.0000
  H   H3292     1.0  0.94860  0.35238  0.37907  1.0000
  H   H3293     1.0  0.95195  0.32804  0.38765  1.0000
  H   H3294     1.0  0.93181  0.34068  0.37829  1.0000
  H   H3295     1.0  0.94235  0.32062  0.47401  1.0000
  H   H3296     1.0  0.96374  0.31067  0.46003  1.0000
  H   H3297     1.0  0.95416  0.33489  0.45427  1.0000
  H   H3298     1.0  0.86990  0.29910  0.45961  1.0000
  H   H3299     1.0  0.87050  0.29120  0.43960  1.0000
  H   H3300     1.0  0.88935  0.28185  0.45137  1.0000
  H   H3301     1.0  0.95096  0.28312  0.59641  1.0000
  H   H3302     1.0  0.97756  0.38982  0.45815  1.0000
  H   H3303     1.0  0.91972  0.43900  0.52071  1.0000
  H   H3304     1.0  0.92549  0.33943  0.54520  1.0000
  C   C1858     1.0  0.97891  0.29314  0.55256  1.0000
  H   H3305     1.0  0.94586  0.25539  0.53435  1.0000
  H   H3306     1.0  0.83070  0.33503  0.56286  1.0000
  C   C1859     1.0  0.92312  0.38636  0.57845  1.0000
  C   C1860     1.0  0.97344  0.28980  0.57388  1.0000
  H   H3307     1.0  0.98214  0.35983  0.53065  1.0000
  H   H3308     1.0  0.98297  0.27748  0.57980  1.0000
  H   H3309     1.0  0.90899  0.29722  0.53087  1.0000
  H   H3310     1.0  0.97444  0.39079  0.41927  1.0000
  H   H3311     1.0  0.94297  0.40142  0.46349  1.0000
  H   H3312     1.0  0.96192  0.43566  0.40988  1.0000
  H   H3313     1.0  0.91859  0.41498  0.38502  1.0000
  C   C1861     1.0  0.95850  0.36219  0.60752  1.0000
  C   C1862     1.0  0.91678  0.42693  0.51795  1.0000
  C   C1863     1.0  0.84556  0.33463  0.55624  1.0000
  C   C1864     1.0  0.95260  0.40598  0.45048  1.0000
  C   C1865     1.0  0.97024  0.25676  0.51190  1.0000
  C   C1866     1.0  0.95219  0.46500  0.40834  1.0000
  H   H3314     1.0  0.94539  0.40947  0.43901  1.0000
  S   S410      1.0  0.92950  0.42692  0.34530  1.0000
  H   H3315     1.0  0.82231  0.36955  0.55653  1.0000
  H   H3316     1.0  0.90985  0.38395  0.57747  1.0000
  H   H3317     1.0  0.98085  0.41303  0.55721  1.0000
  H   H3318     1.0  0.86558  0.29160  0.53934  1.0000
  Fe  Fe201     1.0  0.93633  0.45187  0.34857  1.0000
  C   C1867     1.0  0.85004  0.35259  0.55701  1.0000
  H   H3319     1.0  0.83768  0.36938  0.53408  1.0000
  H   H3320     1.0  0.95937  0.41872  0.64478  1.0000
  H   H3321     1.0  0.91554  0.30899  0.54452  1.0000
  N   N104      1.0  0.85767  0.31704  0.56427  1.0000
  S   S411      1.0  0.97451  0.41136  0.33336  1.0000
  H   H3322     1.0  0.97965  0.44760  0.40804  1.0000
  C   C1868     1.0  0.91978  0.40802  0.39887  1.0000
  H   H3323     1.0  0.91404  0.41476  0.58282  1.0000
  H   H3324     1.0  0.92496  0.39769  0.52383  1.0000
  H   H3325     1.0  0.92026  0.47727  0.44136  1.0000
  C   C1869     1.0  0.93623  0.34673  0.54450  1.0000
  H   H3326     1.0  0.99285  0.26318  0.47772  1.0000
  S   S412      1.0  0.99668  0.38052  0.61954  1.0000
  C   C1870     1.0  0.92309  0.40717  0.54852  1.0000
  C   C1871     1.0  0.95135  0.39695  0.56171  1.0000
  C   C1872     1.0  0.97976  0.43154  0.62283  1.0000
  H   H3327     1.0  0.94357  0.29873  0.57662  1.0000
  C   C1873     1.0  0.97002  0.39087  0.44758  1.0000
  H   H3328     1.0  0.91296  0.44227  0.43571  1.0000
  H   H3329     1.0  0.87696  0.31735  0.53788  1.0000
  C   C1874     1.0  0.98849  0.34735  0.59189  1.0000
  H   H3330     1.0  0.85048  0.30671  0.62183  1.0000
  H   H3331     1.0  0.94354  0.35040  0.52998  1.0000
  H   H3332     1.0  0.97436  0.24204  0.48120  1.0000
  C   C1875     1.0  0.92725  0.36385  0.55246  1.0000
  H   H3333     1.0  0.86635  0.32661  0.58364  1.0000
  C   C1876     1.0  0.98174  0.39482  0.42766  1.0000
  H   H3334     1.0  0.92049  0.35884  0.56691  1.0000
  C   C1877     1.0  0.99054  0.38093  0.49507  1.0000
  Fe  Fe202     1.0  0.90154  0.24021  0.51355  1.0000
  H   H3335     1.0  0.95850  0.38578  0.57153  1.0000
  C   C1878     1.0  0.98478  0.35373  0.49014  1.0000
  C   C1879     1.0  0.89419  0.46165  0.40812  1.0000
  H   H3336     1.0  0.83066  0.33378  0.59249  1.0000
  H   H3337     1.0  0.98215  0.27941  0.54912  1.0000
  H   H3338     1.0  0.98140  0.24451  0.59776  1.0000
  C   C1880     1.0  0.87672  0.26481  0.60313  1.0000
  H   H3339     1.0  0.85348  0.43898  0.62147  1.0000
  H   H3340     1.0  0.95717  0.47745  0.39987  1.0000
  H   H3341     1.0  0.83471  0.30373  0.57150  1.0000
  H   H3342     1.0  0.85615  0.28843  0.57308  1.0000
  H   H3343     1.0  0.98012  0.40987  0.42292  1.0000
  H   H3344     1.0  0.86530  0.47456  0.40733  1.0000
  H   H3345     1.0  0.98880  0.40705  0.39215  1.0000
  S   S413      1.0  0.95703  0.45556  0.32185  1.0000
  C   C1881     1.0  0.98377  0.40268  0.54874  1.0000
  H   H3346     1.0  0.86092  0.41549  0.61924  1.0000
  C   C1882     1.0  0.93326  0.46525  0.40467  1.0000
  C   C1883     1.0  0.87729  0.46575  0.39976  1.0000
  H   H3347     1.0  0.95045  0.27792  0.52496  1.0000
  C   C1884     1.0  0.98631  0.36922  0.60993  1.0000
  N   N105      1.0  0.91680  0.47765  0.41429  1.0000
  C   C1885     1.0  0.96704  0.37219  0.61391  1.0000
  H   H3348     1.0  0.93281  0.44534  0.44094  1.0000
  H   H3349     1.0  0.84400  0.27065  0.55652  1.0000
  H   H3350     1.0  0.99683  0.33769  0.58344  1.0000
  H   H3351     1.0  0.90228  0.48658  0.39220  1.0000
  H   H3352     1.0  0.94692  0.40921  0.56793  1.0000
  H   H3353     1.0  0.94430  0.45233  0.61715  1.0000
  H   H3354     1.0  0.91988  0.28433  0.54965  1.0000
  H   H3355     1.0  0.84917  0.33113  0.61515  1.0000
  C   C1886     1.0  0.83945  0.28376  0.54715  1.0000
  H   H3356     1.0  0.88641  0.28536  0.55791  1.0000
  H   H3357     1.0  0.84115  0.28094  0.53340  1.0000
  H   H3358     1.0  0.83803  0.42358  0.63228  1.0000
  H   H3359     1.0  0.90434  0.38277  0.61430  1.0000
  H   H3360     1.0  0.89904  0.40657  0.61594  1.0000
  H   H3361     1.0  0.97713  0.32897  0.53518  1.0000
  C   C1887     1.0  0.89115  0.29750  0.55810  1.0000
  C   C1888     1.0  0.91004  0.29708  0.54491  1.0000
  H   H3362     1.0  0.89330  0.29612  0.57203  1.0000
  H   H3363     1.0  0.95880  0.38177  0.62245  1.0000
  H   H3364     1.0  0.94902  0.37771  0.53669  1.0000
  C   C1889     1.0  0.90697  0.26498  0.60658  1.0000
  C   C1890     1.0  0.84210  0.32013  0.61614  1.0000
  Fe  Fe203     1.0  0.91701  0.29535  0.62483  1.0000
  H   H3365     1.0  0.86606  0.30314  0.58983  1.0000
  C   C1891     1.0  0.84963  0.30132  0.56459  1.0000
  Fe  Fe204     1.0  0.95275  0.41147  0.35951  1.0000
  H   H3366     1.0  0.97417  0.30132  0.57925  1.0000
  C   C1892     1.0  0.88771  0.26964  0.61201  1.0000
  C   C1893     1.0  0.87707  0.31551  0.55260  1.0000
  H   H3367     1.0  0.96582  0.37765  0.45025  1.0000
  H   H3368     1.0  0.91068  0.24427  0.57180  1.0000
  H   H3369     1.0  0.98038  0.32439  0.55766  1.0000
  H   H3370     1.0  0.88306  0.32674  0.55316  1.0000
  H   H3371     1.0  0.84597  0.30999  0.53586  1.0000
  C   C1894     1.0  0.85836  0.31671  0.58362  1.0000
  N   N106      1.0  0.93488  0.39145  0.55949  1.0000
  S   S414      1.0  0.91781  0.34267  0.63202  1.0000
  H   H3372     1.0  0.92318  0.42037  0.55145  1.0000
  H   H3373     1.0  0.87341  0.45277  0.40064  1.0000
  H   H3374     1.0  0.90546  0.45230  0.40050  1.0000
  H   H3375     1.0  0.88035  0.47268  0.38506  1.0000
  H   H3376     1.0  0.98997  0.34027  0.48714  1.0000
  H   H3377     1.0  0.98209  0.24427  0.63112  1.0000
  H   H3378     1.0  0.93156  0.43721  0.63478  1.0000
  H   H3379     1.0  0.84895  0.35350  0.57132  1.0000
  C   C1895     1.0  0.91270  0.47122  0.43500  1.0000
  S   S415      1.0  0.89730  0.30764  0.64797  1.0000
  C   C1896     1.0  0.83942  0.32029  0.59726  1.0000
  H   H3380     1.0  0.95634  0.41845  0.45140  1.0000
  H   H3381     1.0  0.86414  0.35356  0.54896  1.0000
  C   C1897     1.0  0.91789  0.40060  0.59073  1.0000
  C   C1898     1.0  0.91762  0.45024  0.44271  1.0000
  H   H3382     1.0  0.94768  0.42869  0.61561  1.0000
  H   H3383     1.0  0.93448  0.46939  0.38952  1.0000
  H   H3384     1.0  0.95141  0.23792  0.61436  1.0000
  H   H3385     1.0  0.83182  0.30950  0.59906  1.0000
  H   H3386     1.0  0.91715  0.40382  0.64189  1.0000
  H   H3387     1.0  0.82843  0.32255  0.62578  1.0000
  H   H3388     1.0  0.96070  0.41552  0.53601  1.0000
  H   H3389     1.0  0.97006  0.39173  0.53521  1.0000
  H   H3390     1.0  0.89780  0.47639  0.44091  1.0000
  C   C1899     1.0  0.90423  0.25141  0.58289  1.0000
  C   C1900     1.0  0.95701  0.26320  0.52882  1.0000
  H   H3391     1.0  0.95259  0.27462  0.57645  1.0000
  H   H3392     1.0  0.88893  0.39975  0.60121  1.0000
  C   C1901     1.0  0.90909  0.44537  0.46322  1.0000
  C   C1902     1.0  0.86042  0.41983  0.64605  1.0000
  C   C1903     1.0  0.95391  0.28636  0.58118  1.0000
  H   H3393     1.0  0.97485  0.26819  0.62091  1.0000
  H   H3394     1.0  0.95264  0.36479  0.55826  1.0000
  H   H3395     1.0  0.95769  0.44227  0.64480  1.0000
  H   H3396     1.0  0.92980  0.39963  0.59669  1.0000
  H   H3397     1.0  0.91371  0.45265  0.47106  1.0000
  C   C1904     1.0  0.96606  0.40183  0.54404  1.0000
  H   H3398     1.0  0.89574  0.38457  0.64503  1.0000
  S   S416      1.0  0.92089  0.26717  0.61998  1.0000
  H   H3399     1.0  0.98057  0.26545  0.50657  1.0000
  H   H3400     1.0  0.96192  0.25904  0.50156  1.0000
  H   H3401     1.0  0.95210  0.47701  0.34973  1.0000
  S   S417      1.0  0.87200  0.24470  0.52913  1.0000
  C   C1905     1.0  0.98614  0.46585  0.62633  1.0000
  C   C1906     1.0  0.97238  0.25736  0.63348  1.0000
  H   H3402     1.0  0.99533  0.40165  0.64388  1.0000
  H   H3403     1.0  0.98403  0.30433  0.48518  1.0000
  C   C1907     1.0  0.99507  0.30092  0.49300  1.0000
  H   H3404     1.0  0.95797  0.25572  0.63596  1.0000
  H   H3405     1.0  0.97819  0.33412  0.63238  1.0000
  H   H3406     1.0  0.96455  0.26139  0.53974  1.0000
  H   H3407     1.0  0.98560  0.44689  0.65209  1.0000
  H   H3408     1.0  0.87497  0.42142  0.64170  1.0000
  H   H3409     1.0  0.97080  0.46816  0.62966  1.0000
  H   H3410     1.0  0.86652  0.39111  0.64666  1.0000
  H   H3411     1.0  0.99396  0.40650  0.53586  1.0000
  H   H3412     1.0  0.99550  0.40897  0.44949  1.0000
  C   C1908     1.0  0.99515  0.26464  0.64721  1.0000
  H   H3413     1.0  0.97013  0.24094  0.58191  1.0000
  C   C1909     1.0  0.99304  0.35442  0.53874  1.0000
  C   C1910     1.0  0.99498  0.46463  0.35656  1.0000
  H   H3414     1.0  0.98796  0.48104  0.64553  1.0000
  C   C1911     1.0  0.99437  0.44721  0.63792  1.0000
  C   C1912     1.0  0.97503  0.26270  0.65002  1.0000
  Fe  Fe205     1.0  0.92214  0.31534  0.65116  1.0000
  H   H3415     1.0  0.96133  0.32404  0.65034  1.0000
  H   H3416     1.0  0.96493  0.27559  0.65206  1.0000
  H   H3417     1.0  0.99085  0.46657  0.61138  1.0000
  C   C1913     1.0  0.99131  0.48168  0.63052  1.0000
  H   H3418     1.0  0.85412  0.48245  0.34410  1.0000
  H   H3419     1.0  0.98645  0.48518  0.37300  1.0000
  N   N107      1.0  0.99553  0.43013  0.63153  1.0000
  Fe  Fe206     1.0  0.95182  0.42944  0.31954  1.0000
  C   C1914     1.0  0.75757  0.47311  0.93325  1.0000
  H   H3420     1.0  0.96944  0.43435  0.85073  1.0000
  C   C1915     1.0  0.85875  0.40014  0.70688  1.0000
  H   H3421     1.0  0.83049  0.41020  0.72114  1.0000
  Fe  Fe207     1.0  0.61011  0.31770  0.92837  1.0000
  S   S418      1.0  0.58249  0.33624  0.93606  1.0000
  S   S419      1.0  0.63340  0.33255  0.91531  1.0000
  Fe  Fe208     1.0  0.59435  0.28318  0.94256  1.0000
  S   S420      1.0  0.56584  0.29927  0.95125  1.0000
  S   S421      1.0  0.59455  0.25303  0.95102  1.0000
  Fe  Fe209     1.0  0.57179  0.31874  0.92453  1.0000
  S   S422      1.0  0.55151  0.32990  0.90610  1.0000
  Fe  Fe210     1.0  0.57946  0.31495  0.96197  1.0000
  C   C1916     1.0  0.53008  0.36484  0.98193  1.0000
  S   S423      1.0  0.59969  0.30164  0.91460  1.0000
  S   S424      1.0  0.60777  0.29737  0.95529  1.0000
  H   H3422     1.0  0.93744  0.33536  0.72758  1.0000
  C   C1917     1.0  0.85930  0.40000  0.65670  1.0000
  Fe  Fe211     1.0  0.67919  0.37897  0.96391  1.0000
  H   H3423     1.0  0.93932  0.48477  0.76108  1.0000
  S   S425      1.0  0.67633  0.35103  0.96351  1.0000
  Fe  Fe212     1.0  0.70716  0.40294  0.95640  1.0000
  H   H3424     1.0  0.86472  0.48084  0.74309  1.0000
  S   S426      1.0  0.73563  0.40813  0.94250  1.0000
  H   H3425     1.0  0.68602  0.36446  0.89362  1.0000
  Fe  Fe213     1.0  0.66635  0.41968  0.96166  1.0000
  S   S427      1.0  0.64753  0.44616  0.95197  1.0000
  C   C1918     1.0  0.97751  0.36637  0.67047  1.0000
  S   S428      1.0  0.68579  0.40313  0.94155  1.0000
  C   C1919     1.0  0.86664  0.36098  0.67007  1.0000
  Fe  Fe214     1.0  0.91220  0.39771  0.71527  1.0000
  S   S429      1.0  0.93506  0.40606  0.69182  1.0000
  S   S430      1.0  0.89926  0.37351  0.72146  1.0000
  Fe  Fe215     1.0  0.90661  0.43056  0.73196  1.0000
  S   S431      1.0  0.92904  0.44175  0.71041  1.0000
  S   S432      1.0  0.88900  0.44716  0.75265  1.0000
  Fe  Fe216     1.0  0.91723  0.43444  0.69068  1.0000
  H   H3426     1.0  0.88760  0.40952  0.66602  1.0000
  Fe  Fe217     1.0  0.94493  0.41266  0.71352  1.0000
  S   S433      1.0  0.89342  0.42556  0.71204  1.0000
  S   S434      1.0  0.92353  0.40191  0.73716  1.0000
  H   H3427     1.0  0.68020  0.33975  0.87158  1.0000
  H   H3428     1.0  0.97285  0.38076  0.67224  1.0000
  C   C1920     1.0  0.92167  0.47307  0.66231  1.0000
  C   C1921     1.0  0.64531  0.46106  0.96622  1.0000
  H   H3429     1.0  0.90358  0.36896  0.66439  1.0000
  H   H3430     1.0  0.96817  0.48623  0.87804  1.0000
  H   H3431     1.0  0.52957  0.28848  0.94878  1.0000
  N   N108      1.0  0.50159  0.29831  0.90705  1.0000
  H   H3432     1.0  0.53536  0.35196  0.95864  1.0000
  C   C1922     1.0  0.93896  0.46937  0.66662  1.0000
  C   C1923     1.0  0.51443  0.27787  0.93572  1.0000
  H   H3433     1.0  0.97159  0.47273  0.75495  1.0000
  H   H3434     1.0  0.85829  0.38567  0.71346  1.0000
  S   S435      1.0  0.93146  0.30993  0.67758  1.0000
  H   H3435     1.0  0.85217  0.43001  0.65446  1.0000
  C   C1924     1.0  0.98822  0.35616  0.70074  1.0000
  C   C1925     1.0  0.64281  0.47993  0.95911  1.0000
  C   C1926     1.0  0.90869  0.35626  0.70880  1.0000
  C   C1927     1.0  0.92363  0.35749  0.69371  1.0000
  C   C1928     1.0  0.93045  0.34349  0.68368  1.0000
  C   C1929     1.0  0.92250  0.32816  0.68903  1.0000
  C   C1930     1.0  0.90793  0.32678  0.70442  1.0000
  C   C1931     1.0  0.90088  0.34091  0.71412  1.0000
  H   H3436     1.0  0.92988  0.36918  0.68982  1.0000
  H   H3437     1.0  0.94194  0.34447  0.67196  1.0000
  H   H3438     1.0  0.90199  0.31481  0.70879  1.0000
  H   H3439     1.0  0.88945  0.33983  0.72591  1.0000
  H   H3440     1.0  0.81833  0.44036  0.89692  1.0000
  H   H3441     1.0  0.73265  0.33495  0.89024  1.0000
  H   H3442     1.0  0.96718  0.44063  0.69334  1.0000
  Fe  Fe218     1.0  0.82844  0.45637  0.95803  1.0000
  H   H3443     1.0  0.94103  0.32577  0.75069  1.0000
  C   C1932     1.0  0.98075  0.43728  0.82122  1.0000
  C   C1933     1.0  0.70033  0.46393  0.95628  1.0000
  C   C1934     1.0  0.69183  0.33484  0.90448  1.0000
  C   C1935     1.0  0.51747  0.30497  0.89279  1.0000
  H   H3444     1.0  0.55355  0.40391  0.97277  1.0000
  C   C1936     1.0  0.90252  0.44940  0.76643  1.0000
  C   C1937     1.0  0.89534  0.46167  0.77831  1.0000
  C   C1938     1.0  0.90593  0.46280  0.78994  1.0000
  C   C1939     1.0  0.92350  0.45134  0.78993  1.0000
  C   C1940     1.0  0.93078  0.43941  0.77775  1.0000
  C   C1941     1.0  0.92042  0.43862  0.76584  1.0000
  C   C1942     1.0  0.98827  0.42002  0.70519  1.0000
  H   H3445     1.0  0.70897  0.28403  0.95643  1.0000
  C   C1943     1.0  0.56576  0.25310  0.91463  1.0000
  H   H3446     1.0  0.92609  0.42922  0.75664  1.0000
  H   H3447     1.0  0.98055  0.32923  0.65572  1.0000
  H   H3448     1.0  0.99401  0.34150  0.74528  1.0000
  H   H3449     1.0  0.70936  0.47968  0.97081  1.0000
  H   H3450     1.0  0.89145  0.39021  0.68371  1.0000
  C   C1944     1.0  0.98124  0.43719  0.69504  1.0000
  H   H3451     1.0  0.51414  0.32015  0.97824  1.0000
  C   C1945     1.0  0.53668  0.29180  0.89183  1.0000
  C   C1946     1.0  0.74561  0.41466  0.95698  1.0000
  H   H3452     1.0  0.97775  0.25449  0.71778  1.0000
  C   C1947     1.0  0.87150  0.45784  0.90064  1.0000
  H   H3453     1.0  0.97584  0.43759  0.75964  1.0000
  C   C1948     1.0  0.76996  0.42642  0.96144  1.0000
  C   C1949     1.0  0.76247  0.42031  0.95012  1.0000
  H   H3454     1.0  0.94576  0.45544  0.67156  1.0000
  C   C1950     1.0  0.72485  0.31236  0.88595  1.0000
  H   H3455     1.0  0.78297  0.43073  0.95613  1.0000
  H   H3456     1.0  0.76963  0.42016  0.93600  1.0000
  C   C1951     1.0  0.64137  0.33944  0.93103  1.0000
  C   C1952     1.0  0.64587  0.32687  0.94670  1.0000
  C   C1953     1.0  0.65561  0.33114  0.95725  1.0000
  C   C1954     1.0  0.66064  0.34808  0.95241  1.0000
  C   C1955     1.0  0.65510  0.36117  0.93744  1.0000
  C   C1956     1.0  0.64558  0.35678  0.92667  1.0000
  H   H3457     1.0  0.64272  0.31348  0.95014  1.0000
  H   H3458     1.0  0.65980  0.32104  0.96888  1.0000
  H   H3459     1.0  0.65899  0.37425  0.93359  1.0000
  H   H3460     1.0  0.64209  0.36656  0.91456  1.0000
  C   C1957     1.0  0.52963  0.34143  0.91629  1.0000
  C   C1958     1.0  0.52102  0.33497  0.93449  1.0000
  C   C1959     1.0  0.73969  0.46610  0.94005  1.0000
  C   C1960     1.0  0.57717  0.25764  0.92319  1.0000
  C   C1961     1.0  0.64687  0.45409  0.98450  1.0000
  C   C1962     1.0  0.52028  0.35684  0.90561  1.0000
  H   H3461     1.0  0.52815  0.32298  0.94273  1.0000
  H   H3462     1.0  0.50597  0.28569  0.87466  1.0000
  H   H3463     1.0  0.52228  0.37538  0.95534  1.0000
  H   H3464     1.0  0.52687  0.36183  0.89153  1.0000
  S   S436      1.0  0.93637  0.45077  0.80556  1.0000
  S   S437      1.0  0.65804  0.39562  0.98286  1.0000
  H   H3465     1.0  0.98186  0.41702  0.65837  1.0000
  C   C1963     1.0  0.99367  0.26037  0.68007  1.0000
  C   C1964     1.0  0.69043  0.35165  0.88827  1.0000
  H   H3466     1.0  0.74208  0.45385  0.93435  1.0000
  H   H3467     1.0  0.68467  0.29482  0.95813  1.0000
  C   C1965     1.0  0.76057  0.42685  0.97964  1.0000
  C   C1966     1.0  0.95635  0.34689  0.73517  1.0000
  H   H3468     1.0  0.96075  0.48077  0.66816  1.0000
  C   C1967     1.0  0.57898  0.24835  0.94097  1.0000
  H   H3469     1.0  0.51138  0.35739  0.97023  1.0000
  H   H3470     1.0  0.91016  0.46030  0.91154  1.0000
  N   N109      1.0  0.70882  0.33036  0.91233  1.0000
  C   C1968     1.0  0.70607  0.31671  0.93039  1.0000
  H   H3471     1.0  0.91497  0.48166  0.69983  1.0000
  C   C1969     1.0  0.71044  0.34768  0.91654  1.0000
  C   C1970     1.0  0.50285  0.34369  0.94178  1.0000
  H   H3472     1.0  0.74242  0.29622  0.86616  1.0000
  C   C1971     1.0  0.72585  0.34548  0.92683  1.0000
  C   C1972     1.0  0.72823  0.36404  0.92774  1.0000
  H   H3473     1.0  0.67924  0.33748  0.91539  1.0000
  H   H3474     1.0  0.86071  0.45501  0.70683  1.0000
  H   H3475     1.0  0.69475  0.32325  0.94068  1.0000
  H   H3476     1.0  0.69706  0.35404  0.92487  1.0000
  H   H3477     1.0  0.71320  0.35810  0.90365  1.0000
  H   H3478     1.0  0.98156  0.36991  0.70393  1.0000
  H   H3479     1.0  0.73709  0.31478  0.90708  1.0000
  H   H3480     1.0  0.68248  0.44122  0.90884  1.0000
  C   C1973     1.0  0.67609  0.35191  0.87790  1.0000
  H   H3481     1.0  0.73936  0.33800  0.91996  1.0000
  H   H3482     1.0  0.72217  0.33794  0.94122  1.0000
  S   S438      1.0  0.91079  0.45508  0.66550  1.0000
  C   C1974     1.0  0.69096  0.45629  0.92366  1.0000
  H   H3483     1.0  0.73919  0.36208  0.93531  1.0000
  H   H3484     1.0  0.73225  0.37234  0.91374  1.0000
  H   H3485     1.0  0.71516  0.37161  0.93519  1.0000
  H   H3486     1.0  0.68698  0.45999  0.95829  1.0000
  H   H3487     1.0  0.79728  0.47007  0.89540  1.0000
  H   H3488     1.0  0.99460  0.39345  0.68166  1.0000
  H   H3489     1.0  0.67493  0.36443  0.86683  1.0000
  H   H3490     1.0  0.64145  0.48535  0.94501  1.0000
  S   S439      1.0  0.84963  0.44636  0.93410  1.0000
  C   C1975     1.0  0.93847  0.46420  0.90111  1.0000
  H   H3491     1.0  0.85686  0.41984  0.68190  1.0000
  H   H3492     1.0  0.58513  0.26789  0.91575  1.0000
  C   C1976     1.0  0.98694  0.29152  0.66189  1.0000
  C   C1977     1.0  0.92303  0.45502  0.90195  1.0000
  N   N110      1.0  0.70544  0.47481  0.93705  1.0000
  C   C1978     1.0  0.52450  0.36225  0.96549  1.0000
  H   H3493     1.0  0.72797  0.31382  0.98366  1.0000
  H   H3494     1.0  0.97740  0.48177  0.70611  1.0000
  H   H3495     1.0  0.97837  0.26185  0.68438  1.0000
  H   H3496     1.0  0.85076  0.37379  0.69227  1.0000
  H   H3497     1.0  0.96141  0.35548  0.69636  1.0000
  H   H3498     1.0  0.83994  0.40622  0.68866  1.0000
  H   H3499     1.0  0.52728  0.27229  0.92650  1.0000
  H   H3500     1.0  0.71727  0.30137  0.89313  1.0000
  H   H3501     1.0  0.97212  0.29122  0.66807  1.0000
  H   H3502     1.0  0.95128  0.45777  0.89218  1.0000
  H   H3503     1.0  0.94099  0.46120  0.91516  1.0000
  H   H3504     1.0  0.67894  0.46784  0.92182  1.0000
  C   C1979     1.0  0.88065  0.47049  0.88714  1.0000
  H   H3505     1.0  0.99106  0.29770  0.67110  1.0000
  C   C1980     1.0  0.72642  0.32337  0.89925  1.0000
  C   C1981     1.0  0.94754  0.48369  0.66454  1.0000
  H   H3506     1.0  0.97158  0.43923  0.73735  1.0000
  H   H3507     1.0  0.58194  0.37556  0.95636  1.0000
  H   H3508     1.0  0.92726  0.44001  0.90693  1.0000
  S   S440      1.0  0.79874  0.46671  0.95563  1.0000
  Fe  Fe219     1.0  0.92917  0.47480  0.81891  1.0000
  C   C1982     1.0  0.70826  0.46274  0.92373  1.0000
  H   H3509     1.0  0.96853  0.36409  0.66267  1.0000
  C   C1983     1.0  0.86671  0.34134  0.68071  1.0000
  H   H3510     1.0  0.85698  0.48047  0.93572  1.0000
  H   H3511     1.0  0.50546  0.26778  0.94006  1.0000
  H   H3512     1.0  0.68694  0.44667  0.93675  1.0000
  H   H3513     1.0  0.54899  0.38120  0.96310  1.0000
  C   C1984     1.0  0.58653  0.37888  0.96721  1.0000
  H   H3514     1.0  0.92437  0.39011  0.66260  1.0000
  H   H3515     1.0  0.70657  0.43391  0.90988  1.0000
  H   H3516     1.0  0.94434  0.43052  0.77775  1.0000
  H   H3517     1.0  0.83598  0.44890  0.90089  1.0000
  C   C1985     1.0  0.97423  0.33364  0.72733  1.0000
  C   C1986     1.0  0.81383  0.48434  0.90355  1.0000
  H   H3518     1.0  0.66229  0.35199  0.88735  1.0000
  C   C1987     1.0  0.81203  0.46985  0.89413  1.0000
  H   H3519     1.0  0.84502  0.42678  0.71371  1.0000
  H   H3520     1.0  0.87252  0.40223  0.70630  1.0000
  H   H3521     1.0  0.92687  0.34839  0.74526  1.0000
  H   H3522     1.0  0.55175  0.31291  0.87547  1.0000
  H   H3523     1.0  0.96809  0.47389  0.90091  1.0000
  H   H3524     1.0  0.87927  0.33552  0.68647  1.0000
  H   H3525     1.0  0.98596  0.46790  0.79258  1.0000
  H   H3526     1.0  0.84455  0.39897  0.65994  1.0000
  H   H3527     1.0  0.95377  0.36018  0.72535  1.0000
  H   H3528     1.0  0.69416  0.27423  0.94927  1.0000
  H   H3529     1.0  0.87200  0.46507  0.68393  1.0000
  H   H3530     1.0  0.71866  0.31258  0.93617  1.0000
  C   C1988     1.0  0.55080  0.29902  0.87514  1.0000
  H   H3531     1.0  0.71881  0.44996  0.92685  1.0000
  H   H3532     1.0  0.95420  0.43226  0.83786  1.0000
  H   H3533     1.0  0.97168  0.25184  0.66228  1.0000
  H   H3534     1.0  0.81903  0.47221  0.87938  1.0000
  S   S441      1.0  0.93225  0.47034  0.84784  1.0000
  C   C1989     1.0  0.88647  0.39495  0.67069  1.0000
  C   C1990     1.0  0.73658  0.41468  0.97531  1.0000
  H   H3535     1.0  0.97081  0.32723  0.71789  1.0000
  H   H3536     1.0  0.87477  0.36718  0.69205  1.0000
  H   H3537     1.0  0.50719  0.28481  0.96268  1.0000
  C   C1991     1.0  0.90073  0.38358  0.65733  1.0000
  H   H3538     1.0  0.85420  0.34075  0.69201  1.0000
  H   H3539     1.0  0.81477  0.44756  0.91814  1.0000
  C   C1992     1.0  0.54900  0.37057  0.97604  1.0000
  S   S442      1.0  0.98045  0.47610  0.84339  1.0000
  H   H3540     1.0  0.97350  0.41369  0.84222  1.0000
  H   H3541     1.0  0.51431  0.30905  0.87888  1.0000
  C   C1993     1.0  0.93944  0.33852  0.73995  1.0000
  H   H3542     1.0  0.98696  0.46343  0.67973  1.0000
  H   H3543     1.0  0.98214  0.36303  0.73430  1.0000
  H   H3544     1.0  0.71073  0.45079  0.95851  1.0000
  H   H3545     1.0  0.82853  0.48138  0.90440  1.0000
  H   H3546     1.0  0.80617  0.48141  0.91806  1.0000
  C   C1994     1.0  0.99247  0.45003  0.68718  1.0000
  H   H3547     1.0  0.88150  0.47004  0.77876  1.0000
  C   C1995     1.0  0.49924  0.28036  0.90503  1.0000
  H   H3548     1.0  0.76910  0.46233  0.93803  1.0000
  C   C1996     1.0  0.86356  0.47761  0.92225  1.0000
  H   H3549     1.0  0.90027  0.47202  0.79935  1.0000
  H   H3550     1.0  0.92011  0.45756  0.88812  1.0000
  H   H3551     1.0  0.61470  0.37689  0.95118  1.0000
  H   H3552     1.0  0.85470  0.36548  0.66327  1.0000
  H   H3553     1.0  0.52976  0.43305  0.97727  1.0000
  C   C1997     1.0  0.96883  0.42883  0.83915  1.0000
  H   H3554     1.0  0.91705  0.48111  0.93032  1.0000
  H   H3555     1.0  0.84714  0.46888  0.69043  1.0000
  C   C1998     1.0  0.50257  0.36603  0.91314  1.0000
  S   S443      1.0  0.97470  0.40361  0.71553  1.0000
  H   H3556     1.0  0.87099  0.44532  0.89742  1.0000
  H   H3557     1.0  0.69849  0.45515  0.89463  1.0000
  H   H3558     1.0  0.70395  0.35179  0.87839  1.0000
  H   H3559     1.0  0.75192  0.31423  0.86794  1.0000
  H   H3560     1.0  0.71212  0.31312  0.97064  1.0000
  H   H3561     1.0  0.51940  0.31766  0.89532  1.0000
  N   N111      1.0  0.86666  0.39341  0.67411  1.0000
  C   C1999     1.0  0.82080  0.45052  0.90313  1.0000
  H   H3562     1.0  0.86679  0.33281  0.67126  1.0000
  H   H3563     1.0  0.54184  0.29077  0.90419  1.0000
  S   S444      1.0  0.82906  0.47903  0.97046  1.0000
  H   H3564     1.0  0.56523  0.25969  0.90053  1.0000
  Fe  Fe220     1.0  0.79202  0.44971  0.98385  1.0000
  C   C2000     1.0  0.85882  0.48425  0.70217  1.0000
  H   H3565     1.0  0.97746  0.32216  0.73902  1.0000
  C   C2001     1.0  0.86470  0.37391  0.68301  1.0000
  H   H3566     1.0  0.75182  0.29361  0.88581  1.0000
  H   H3567     1.0  0.54689  0.29956  0.86220  1.0000
  C   C2002     1.0  0.97617  0.35310  0.68915  1.0000
  H   H3568     1.0  0.58450  0.39397  0.96476  1.0000
  H   H3569     1.0  0.56467  0.28981  0.87529  1.0000
  H   H3570     1.0  0.71220  0.33454  0.97534  1.0000
  C   C2003     1.0  0.85490  0.40557  0.68725  1.0000
  H   H3571     1.0  0.68929  0.30102  0.92428  1.0000
  C   C2004     1.0  0.69497  0.44603  0.90825  1.0000
  C   C2005     1.0  0.74396  0.30360  0.87589  1.0000
  S   S445      1.0  0.68814  0.42116  0.97486  1.0000
  C   C2006     1.0  0.86254  0.46158  0.91809  1.0000
  H   H3572     1.0  0.84815  0.40823  0.73316  1.0000
  H   H3573     1.0  0.69039  0.32301  0.90004  1.0000
  H   H3574     1.0  0.71403  0.46954  0.90948  1.0000
  C   C2007     1.0  0.84466  0.41213  0.71942  1.0000
  C   C2008     1.0  0.69741  0.47382  0.97205  1.0000
  H   H3575     1.0  0.98005  0.33907  0.68666  1.0000
  H   H3576     1.0  0.97527  0.45225  0.81901  1.0000
  H   H3577     1.0  0.53633  0.27802  0.89071  1.0000
  H   H3578     1.0  0.72395  0.40981  0.98096  1.0000
  H   H3579     1.0  0.55923  0.35843  0.97169  1.0000
  C   C2009     1.0  0.98222  0.43877  0.74475  1.0000
  H   H3580     1.0  0.93634  0.48693  0.87794  1.0000
  C   C2010     1.0  0.69710  0.28727  0.94973  1.0000
  H   H3581     1.0  0.88767  0.48360  0.69498  1.0000
  C   C2011     1.0  0.60731  0.37074  0.96497  1.0000
  H   H3582     1.0  0.96236  0.47197  0.73655  1.0000
  H   H3583     1.0  0.88088  0.46930  0.71664  1.0000
  C   C2012     1.0  0.70153  0.29860  0.93020  1.0000
  H   H3584     1.0  0.71736  0.32156  0.87536  1.0000
  H   H3585     1.0  0.59917  0.23921  0.88829  1.0000
  S   S446      1.0  0.82163  0.43723  0.98525  1.0000
  H   H3586     1.0  0.73718  0.46183  0.95526  1.0000
  H   H3587     1.0  0.68483  0.48506  0.97208  1.0000
  H   H3588     1.0  0.53840  0.31921  0.97404  1.0000
  C   C2013     1.0  0.55530  0.23994  0.92407  1.0000
  H   H3589     1.0  0.53294  0.28843  0.97894  1.0000
  H   H3590     1.0  0.51098  0.30735  0.92632  1.0000
  H   H3591     1.0  0.88702  0.46778  0.87354  1.0000
  H   H3592     1.0  0.76114  0.47660  0.91800  1.0000
  H   H3593     1.0  0.94853  0.48467  0.92579  1.0000
  C   C2014     1.0  0.85981  0.46722  0.69542  1.0000
  H   H3594     1.0  0.61277  0.37360  0.97552  1.0000
  H   H3595     1.0  0.95760  0.34975  0.74802  1.0000
  H   H3596     1.0  0.89815  0.48116  0.73170  1.0000
  H   H3597     1.0  0.71366  0.29019  0.92243  1.0000
  H   H3598     1.0  0.52651  0.26559  0.95959  1.0000
  H   H3599     1.0  0.60711  0.32162  0.97727  1.0000
  H   H3600     1.0  0.52077  0.40323  0.98410  1.0000
  H   H3601     1.0  0.99415  0.27851  0.69739  1.0000
  C   C2015     1.0  0.51967  0.27934  0.95279  1.0000
  H   H3602     1.0  0.51148  0.26920  0.90728  1.0000
  H   H3603     1.0  0.97889  0.43200  0.81008  1.0000
  C   C2016     1.0  0.52641  0.31514  0.98450  1.0000
  H   H3604     1.0  0.99196  0.36416  0.66227  1.0000
  H   H3605     1.0  0.87950  0.36075  0.65924  1.0000
  C   C2017     1.0  0.88099  0.48684  0.89113  1.0000
  H   H3606     1.0  0.61026  0.35570  0.96615  1.0000
  C   C2018     1.0  0.93370  0.48512  0.89315  1.0000
  C   C2019     1.0  0.99384  0.35118  0.73172  1.0000
  C   C2020     1.0  0.97503  0.47334  0.73991  1.0000
  C   C2021     1.0  0.99312  0.25183  0.71424  1.0000
  C   C2022     1.0  0.50398  0.29665  0.92625  1.0000
  C   C2023     1.0  0.99028  0.45587  0.73715  1.0000
  H   H3607     1.0  0.75617  0.48535  0.93868  1.0000
  H   H3608     1.0  0.84656  0.48545  0.71367  1.0000
  N   N112      1.0  0.99081  0.34206  0.71814  1.0000
  C   C2024     1.0  0.71383  0.31959  0.98102  1.0000
  C   C2025     1.0  0.72313  0.48103  0.93406  1.0000
  H   H3609     1.0  0.99552  0.30969  0.70463  1.0000
  H   H3610     1.0  0.93262  0.48339  0.72170  1.0000
  H   H3611     1.0  0.51056  0.25207  0.88545  1.0000
  S   S447      1.0  0.70264  0.37714  0.97661  1.0000
  C   C2026     1.0  0.87687  0.48314  0.70794  1.0000
  H   H3612     1.0  0.99338  0.42643  0.74280  1.0000
  H   H3613     1.0  0.72782  0.48705  0.91927  1.0000
  H   H3614     1.0  0.54969  0.25952  0.98554  1.0000
  C   C2027     1.0  0.67434  0.52948  0.19063  1.0000
  C   C2028     1.0  0.83361  0.52411  0.24125  1.0000
  C   C2029     1.0  0.99177  0.54732  0.20083  1.0000
  H   H3615     1.0  0.60379  0.53394  0.19097  1.0000
  C   C2030     1.0  0.54623  0.60652  0.01028  1.0000
  H   H3616     1.0  0.95408  0.53773  0.26718  1.0000
  C   C2031     1.0  0.85888  0.57455  0.13080  1.0000
  H   H3617     1.0  0.67573  0.50206  0.18914  1.0000
  N   N113      1.0  0.57227  0.70828  0.15505  1.0000
  Fe  Fe221     1.0  0.88720  0.53264  0.20801  1.0000
  S   S448      1.0  0.90368  0.50479  0.21831  1.0000
  S   S449      1.0  0.86445  0.53821  0.19244  1.0000
  Fe  Fe222     1.0  0.90159  0.55091  0.23046  1.0000
  S   S450      1.0  0.91846  0.52446  0.24273  1.0000
  S   S451      1.0  0.90181  0.57690  0.23799  1.0000
  Fe  Fe223     1.0  0.92660  0.51920  0.21422  1.0000
  S   S452      1.0  0.95686  0.50697  0.20458  1.0000
  Fe  Fe224     1.0  0.89414  0.51277  0.24565  1.0000
  H   H3618     1.0  0.96158  0.50461  0.24301  1.0000
  S   S453      1.0  0.91102  0.54661  0.20139  1.0000
  S   S454      1.0  0.87639  0.53975  0.23587  1.0000
  C   C2032     1.0  0.56077  0.61356  0.01533  1.0000
  C   C2033     1.0  0.86419  0.51285  0.09740  1.0000
  S   S455      1.0  0.68450  0.55785  0.01376  1.0000
  Fe  Fe225     1.0  0.63994  0.57558  0.10576  1.0000
  S   S456      1.0  0.62394  0.57544  0.13469  1.0000
  S   S457      1.0  0.62582  0.58188  0.08234  1.0000
  Fe  Fe226     1.0  0.67714  0.56634  0.11577  1.0000
  S   S458      1.0  0.66471  0.56533  0.14575  1.0000
  S   S459      1.0  0.70710  0.56081  0.10137  1.0000
  Fe  Fe227     1.0  0.64553  0.55036  0.14195  1.0000
  Fe  Fe228     1.0  0.64423  0.59057  0.13612  1.0000
  S   S460      1.0  0.63583  0.61423  0.15030  1.0000
  S   S461      1.0  0.65971  0.54897  0.11290  1.0000
  S   S462      1.0  0.65842  0.59300  0.10643  1.0000
  S   S463      1.0  0.81370  0.51585  0.12289  1.0000
  H   H3619     1.0  0.74414  0.50234  0.15294  1.0000
  S   S464      1.0  0.76463  0.53203  0.15261  1.0000
  S   S465      1.0  0.50506  0.65047  0.00967  1.0000
  H   H3620     1.0  0.78881  0.56164  0.14673  1.0000
  H   H3621     1.0  0.67116  0.49416  0.02301  1.0000
  H   H3622     1.0  0.66294  0.50684  0.10930  1.0000
  H   H3623     1.0  0.86966  0.59675  0.25885  1.0000
  Fe  Fe229     1.0  0.53585  0.69494  0.01693  1.0000
  H   H3624     1.0  0.53318  0.61707  0.01230  1.0000
  Fe  Fe230     1.0  0.80989  0.49879  0.10559  1.0000
  S   S466      1.0  0.55092  0.62502  0.18829  1.0000
  S   S467      1.0  0.54184  0.66438  0.02415  1.0000
  S   S468      1.0  0.54004  0.67073  0.15647  1.0000
  Fe  Fe231     1.0  0.50942  0.68113  0.16049  1.0000
  C   C2034     1.0  0.55091  0.68656  0.05498  1.0000
  C   C2035     1.0  0.55901  0.67729  0.06991  1.0000
  C   C2036     1.0  0.55179  0.68238  0.08686  1.0000
  H   H3625     1.0  0.86277  0.58520  0.11851  1.0000
  C   C2037     1.0  0.71244  0.51276  0.10506  1.0000
  H   H3626     1.0  0.55669  0.68260  0.04188  1.0000
  H   H3627     1.0  0.57038  0.66575  0.06850  1.0000
  C   C2038     1.0  0.85848  0.55721  0.12473  1.0000
  H   H3628     1.0  0.87289  0.52518  0.11420  1.0000
  H   H3629     1.0  0.97230  0.52790  0.24993  1.0000
  H   H3630     1.0  0.82818  0.51541  0.16410  1.0000
  H   H3631     1.0  0.72347  0.51305  0.13632  1.0000
  H   H3632     1.0  0.78062  0.49474  0.07904  1.0000
  C   C2039     1.0  0.67779  0.49553  0.03346  1.0000
  C   C2040     1.0  0.61213  0.61828  0.16038  1.0000
  C   C2041     1.0  0.59926  0.61850  0.15064  1.0000
  C   C2042     1.0  0.58034  0.62138  0.15894  1.0000
  C   C2043     1.0  0.57436  0.62315  0.17729  1.0000
  C   C2044     1.0  0.58725  0.62298  0.18703  1.0000
  C   C2045     1.0  0.60607  0.62098  0.17843  1.0000
  H   H3633     1.0  0.60390  0.61663  0.13663  1.0000
  H   H3634     1.0  0.57047  0.62170  0.15127  1.0000
  H   H3635     1.0  0.58266  0.62447  0.20117  1.0000
  H   H3636     1.0  0.61602  0.62093  0.18594  1.0000
  C   C2046     1.0  0.72301  0.55370  0.11566  1.0000
  C   C2047     1.0  0.71749  0.55515  0.13410  1.0000
  C   C2048     1.0  0.73041  0.54894  0.14535  1.0000
  C   C2049     1.0  0.74882  0.54109  0.13821  1.0000
  C   C2050     1.0  0.75439  0.53992  0.11971  1.0000
  C   C2051     1.0  0.74152  0.54626  0.10844  1.0000
  H   H3637     1.0  0.70335  0.56123  0.13965  1.0000
  H   H3638     1.0  0.72610  0.54999  0.15962  1.0000
  H   H3639     1.0  0.76869  0.53436  0.11397  1.0000
  H   H3640     1.0  0.74592  0.54530  0.09414  1.0000
  C   C2052     1.0  0.66807  0.56528  0.03234  1.0000
  C   C2053     1.0  0.64974  0.57340  0.03105  1.0000
  C   C2054     1.0  0.63675  0.57883  0.04638  1.0000
  C   C2055     1.0  0.64213  0.57595  0.06295  1.0000
  C   C2056     1.0  0.66062  0.56846  0.06394  1.0000
  C   C2057     1.0  0.67356  0.56311  0.04865  1.0000
  H   H3641     1.0  0.64557  0.57548  0.01830  1.0000
  H   H3642     1.0  0.62250  0.58493  0.04549  1.0000
  H   H3643     1.0  0.66507  0.56693  0.07638  1.0000
  H   H3644     1.0  0.68780  0.55714  0.04955  1.0000
  H   H3645     1.0  0.56296  0.73550  0.12234  1.0000
  C   C2058     1.0  0.57251  0.57179  0.00190  1.0000
  N   N114      1.0  0.70649  0.49691  0.15838  1.0000
  C   C2059     1.0  0.86153  0.52277  0.18097  1.0000
  C   C2060     1.0  0.84438  0.52539  0.17648  1.0000
  C   C2061     1.0  0.84156  0.51359  0.16708  1.0000
  H   H3646     1.0  0.57331  0.52605  0.19896  1.0000
  C   C2062     1.0  0.56697  0.72727  0.15911  1.0000
  H   H3647     1.0  0.85084  0.51934  0.12369  1.0000
  H   H3648     1.0  0.83317  0.53647  0.18049  1.0000
  H   H3649     1.0  0.60577  0.57421  0.17155  1.0000
  C   C2063     1.0  0.81108  0.49915  0.04470  1.0000
  H   H3650     1.0  0.84484  0.54897  0.26563  1.0000
  H   H3651     1.0  0.63179  0.58873  0.99118  1.0000
  C   C2064     1.0  0.97250  0.55288  0.20336  1.0000
  C   C2065     1.0  0.96183  0.54037  0.20499  1.0000
  C   C2066     1.0  0.97037  0.52234  0.20342  1.0000
  H   H3652     1.0  0.98444  0.57041  0.30874  1.0000
  H   H3653     1.0  0.57240  0.69298  0.18294  1.0000
  H   H3654     1.0  0.96577  0.56696  0.20402  1.0000
  H   H3655     1.0  0.94698  0.54487  0.20705  1.0000
  H   H3656     1.0  0.53075  0.70084  0.10202  1.0000
  C   C2067     1.0  0.62922  0.51606  0.13531  1.0000
  H   H3657     1.0  0.54753  0.71831  0.11002  1.0000
  H   H3658     1.0  0.81317  0.57969  0.13760  1.0000
  Fe  Fe232     1.0  0.67272  0.55150  0.99349  1.0000
  H   H3659     1.0  0.56266  0.56346  0.00259  1.0000
  H   H3660     1.0  0.62265  0.58577  0.19898  1.0000
  C   C2068     1.0  0.62158  0.67663  0.14315  1.0000
  H   H3661     1.0  0.80817  0.60212  0.07460  1.0000
  H   H3662     1.0  0.71361  0.50071  0.01397  1.0000
  C   C2069     1.0  0.70185  0.51139  0.12508  1.0000
  H   H3663     1.0  0.57270  0.55383  0.24833  1.0000
  H   H3664     1.0  0.55699  0.56637  0.18647  1.0000
  C   C2070     1.0  0.98970  0.51669  0.20090  1.0000
  S   S469      1.0  0.63989  0.52491  0.16231  1.0000
  H   H3665     1.0  0.82583  0.56289  0.15364  1.0000
  C   C2071     1.0  0.83277  0.50865  0.23308  1.0000
  H   H3666     1.0  0.59870  0.70274  0.16222  1.0000
  H   H3667     1.0  0.93088  0.67742  0.31489  1.0000
  C   C2072     1.0  0.87312  0.49662  0.16629  1.0000
  C   C2073     1.0  0.88770  0.58488  0.29704  1.0000
  C   C2074     1.0  0.90426  0.57297  0.29073  1.0000
  C   C2075     1.0  0.90818  0.56946  0.27294  1.0000
  C   C2076     1.0  0.89570  0.57806  0.26137  1.0000
  C   C2077     1.0  0.87917  0.58979  0.26782  1.0000
  C   C2078     1.0  0.87505  0.59292  0.28566  1.0000
  H   H3668     1.0  0.91399  0.56647  0.29952  1.0000
  H   H3669     1.0  0.92107  0.56057  0.26792  1.0000
  C   C2079     1.0  0.85968  0.52542  0.11093  1.0000
  N   N115      1.0  0.62505  0.64031  0.06545  1.0000
  C   C2080     1.0  0.60740  0.63347  0.07430  1.0000
  C   C2081     1.0  0.62476  0.65130  0.04605  1.0000
  C   C2082     1.0  0.64063  0.62359  0.06403  1.0000
  C   C2083     1.0  0.62888  0.65114  0.07692  1.0000
  C   C2084     1.0  0.61369  0.66819  0.08112  1.0000
  C   C2085     1.0  0.60453  0.62481  0.09522  1.0000
  C   C2086     1.0  0.66034  0.62720  0.05506  1.0000
  C   C2087     1.0  0.60608  0.66375  0.04220  1.0000
  C   C2088     1.0  0.60875  0.67664  0.02333  1.0000
  C   C2089     1.0  0.61594  0.67445  0.09729  1.0000
  C   C2090     1.0  0.58685  0.61740  0.10216  1.0000
  C   C2091     1.0  0.67446  0.60943  0.05238  1.0000
  H   H3670     1.0  0.60632  0.62344  0.06694  1.0000
  H   H3671     1.0  0.59506  0.64457  0.07309  1.0000
  H   H3672     1.0  0.63512  0.66004  0.04161  1.0000
  H   H3673     1.0  0.62904  0.64203  0.03614  1.0000
  H   H3674     1.0  0.63784  0.61498  0.05613  1.0000
  H   H3675     1.0  0.64139  0.61474  0.07775  1.0000
  H   H3676     1.0  0.63186  0.64203  0.09010  1.0000
  H   H3677     1.0  0.64168  0.65633  0.07001  1.0000
  H   H3678     1.0  0.59960  0.66561  0.08460  1.0000
  H   H3679     1.0  0.61473  0.67966  0.06895  1.0000
  H   H3680     1.0  0.61621  0.61343  0.09855  1.0000
  H   H3681     1.0  0.60304  0.63518  0.10325  1.0000
  H   H3682     1.0  0.66497  0.63323  0.06398  1.0000
  H   H3683     1.0  0.66080  0.63655  0.04138  1.0000
  H   H3684     1.0  0.59664  0.65517  0.04231  1.0000
  H   H3685     1.0  0.59918  0.67232  0.05248  1.0000
  H   H3686     1.0  0.61690  0.68653  0.02293  1.0000
  H   H3687     1.0  0.61593  0.66878  0.01237  1.0000
  H   H3688     1.0  0.59501  0.68443  0.02052  1.0000
  H   H3689     1.0  0.60514  0.68694  0.09966  1.0000
  H   H3690     1.0  0.61423  0.66362  0.10999  1.0000
  H   H3691     1.0  0.62978  0.67763  0.09444  1.0000
  H   H3692     1.0  0.58518  0.61122  0.11707  1.0000
  H   H3693     1.0  0.57455  0.62862  0.10013  1.0000
  H   H3694     1.0  0.58758  0.60667  0.09484  1.0000
  H   H3695     1.0  0.57932  0.50638  0.17719  1.0000
  H   H3696     1.0  0.68839  0.61235  0.04585  1.0000
  H   H3697     1.0  0.67522  0.59978  0.06579  1.0000
  H   H3698     1.0  0.82715  0.57150  0.08321  1.0000
  H   H3699     1.0  0.55021  0.59966  0.15882  1.0000
  H   H3700     1.0  0.71792  0.49892  0.10185  1.0000
  H   H3701     1.0  0.59284  0.73637  0.15376  1.0000
  C   C2092     1.0  0.85037  0.70444  0.31036  1.0000
  H   H3702     1.0  0.85069  0.58098  0.09392  1.0000
  H   H3703     1.0  0.56716  0.69392  0.13711  1.0000
  H   H3704     1.0  0.56610  0.68178  0.16917  1.0000
  H   H3705     1.0  0.57006  0.70421  0.10261  1.0000
  C   C2093     1.0  0.56948  0.57237  0.18145  1.0000
  S   S470      1.0  0.56212  0.69657  0.99561  1.0000
  H   H3706     1.0  0.72889  0.51207  0.17191  1.0000
  H   H3707     1.0  0.50805  0.62778  0.08746  1.0000
  H   H3708     1.0  0.62683  0.68548  0.12989  1.0000
  N   N116      1.0  0.75795  0.52795  0.01341  1.0000
  C   C2094     1.0  0.75139  0.51033  0.01795  1.0000
  C   C2095     1.0  0.95879  0.49341  0.25510  1.0000
  C   C2096     1.0  0.77882  0.52315  0.00803  1.0000
  C   C2097     1.0  0.75255  0.53694  0.02970  1.0000
  C   C2098     1.0  0.73173  0.54087  0.03910  1.0000
  C   C2099     1.0  0.81848  0.49427  0.06044  1.0000
  H   H3709     1.0  0.59403  0.54739  0.00728  1.0000
  H   H3710     1.0  0.55564  0.60092  0.04453  1.0000
  C   C2100     1.0  0.72874  0.54720  0.05698  1.0000
  C   C2101     1.0  0.53533  0.70080  0.05708  1.0000
  C   C2102     1.0  0.99007  0.57455  0.29377  1.0000
  S   S471      1.0  0.78184  0.49519  0.12253  1.0000
  H   H3711     1.0  0.73609  0.51288  0.02121  1.0000
  H   H3712     1.0  0.81561  0.52367  0.00574  1.0000
  S   S472      1.0  0.50301  0.65368  0.17485  1.0000
  H   H3713     1.0  0.93121  0.73479  0.31063  1.0000
  H   H3714     1.0  0.78463  0.51477  0.01999  1.0000
  H   H3715     1.0  0.76049  0.52872  0.04037  1.0000
  H   H3716     1.0  0.75664  0.55036  0.02562  1.0000
  H   H3717     1.0  0.72580  0.52860  0.04269  1.0000
  H   H3718     1.0  0.72387  0.55200  0.02996  1.0000
  C   C2103     1.0  0.59329  0.54313  0.18325  1.0000
  H   H3719     1.0  0.98714  0.51270  0.27921  1.0000
  H   H3720     1.0  0.50410  0.60780  0.07285  1.0000
  C   C2104     1.0  0.87324  0.57024  0.14245  1.0000
  H   H3721     1.0  0.58446  0.58508  0.15457  1.0000
  C   C2105     1.0  0.71060  0.48747  0.01430  1.0000
  C   C2106     1.0  0.81676  0.56498  0.14402  1.0000
  H   H3722     1.0  0.71377  0.55001  0.06355  1.0000
  H   H3723     1.0  0.73607  0.53645  0.06686  1.0000
  H   H3724     1.0  0.73375  0.55996  0.05428  1.0000
  H   H3725     1.0  0.80156  0.54471  0.16251  1.0000
  H   H3726     1.0  0.92081  0.66195  0.30912  1.0000
  H   H3727     1.0  0.87220  0.55411  0.11519  1.0000
  H   H3728     1.0  0.83176  0.60340  0.07214  1.0000
  H   H3729     1.0  0.69473  0.52547  0.12699  1.0000
  Fe  Fe233     1.0  0.50436  0.65073  0.14641  1.0000
  H   H3730     1.0  0.67688  0.62181  0.00755  1.0000
  H   H3731     1.0  0.50408  0.66280  0.04449  1.0000
  H   H3732     1.0  0.67345  0.52055  0.08837  1.0000
  H   H3733     1.0  0.64767  0.50988  0.08398  1.0000
  H   H3734     1.0  0.70307  0.52110  0.09580  1.0000
  H   H3735     1.0  0.89564  0.51589  0.29184  1.0000
  C   C2107     1.0  0.50876  0.64072  0.07697  1.0000
  H   H3736     1.0  0.98568  0.69852  0.30113  1.0000
  C   C2108     1.0  0.66124  0.50021  0.08434  1.0000
  H   H3737     1.0  0.83632  0.70926  0.31850  1.0000
  H   H3738     1.0  0.67066  0.60278  0.04338  1.0000
  H   H3739     1.0  0.75954  0.49159  0.07553  1.0000
  H   H3740     1.0  0.61841  0.61166  0.01076  1.0000
  C   C2109     1.0  0.74985  0.48844  0.17923  1.0000
  H   H3741     1.0  0.81407  0.61006  0.09158  1.0000
  H   H3742     1.0  0.62747  0.67817  0.15407  1.0000
  H   H3743     1.0  0.54327  0.59410  0.02076  1.0000
  H   H3744     1.0  0.53455  0.65189  0.10137  1.0000
  C   C2110     1.0  0.72198  0.48767  0.16845  1.0000
  C   C2111     1.0  0.73599  0.49913  0.16719  1.0000
  H   H3745     1.0  0.56036  0.59169  0.13766  1.0000
  C   C2112     1.0  0.85094  0.49358  0.23241  1.0000
  H   H3746     1.0  0.87057  0.55537  0.29754  1.0000
  H   H3747     1.0  0.98151  0.55678  0.23632  1.0000
  H   H3748     1.0  0.51946  0.66482  0.07536  1.0000
  C   C2113     1.0  0.53756  0.68737  0.19817  1.0000
  H   H3749     1.0  0.51100  0.61084  0.00386  1.0000
  H   H3750     1.0  0.87321  0.68131  0.31125  1.0000
  H   H3751     1.0  0.85510  0.52557  0.29080  1.0000
  H   H3752     1.0  0.97699  0.53894  0.30767  1.0000
  C   C2114     1.0  0.80951  0.53274  0.99413  1.0000
  S   S473      1.0  0.64470  0.49904  0.00215  1.0000
  H   H3753     1.0  0.98193  0.55061  0.26033  1.0000
  H   H3754     1.0  0.68009  0.49113  0.15935  1.0000
  H   H3755     1.0  0.82005  0.53402  0.24254  1.0000
  H   H3756     1.0  0.59437  0.51985  0.16040  1.0000
  C   C2115     1.0  0.54365  0.70157  0.18113  1.0000
  C   C2116     1.0  0.92949  0.50588  0.29801  1.0000
  H   H3757     1.0  0.72412  0.51955  0.10235  1.0000
  N   N117      1.0  0.84304  0.55850  0.11555  1.0000
  H   H3758     1.0  0.57071  0.57431  0.01577  1.0000
  C   C2117     1.0  0.60189  0.63005  0.99210  1.0000
  C   C2118     1.0  0.71530  0.50263  0.13833  1.0000
  H   H3759     1.0  0.99385  0.62990  0.29595  1.0000
  H   H3760     1.0  0.72130  0.54090  0.00765  1.0000
  H   H3761     1.0  0.69112  0.50352  0.12741  1.0000
  H   H3762     1.0  0.63568  0.50274  0.06350  1.0000
  C   C2119     1.0  0.67126  0.50655  0.09517  1.0000
  H   H3763     1.0  0.77301  0.49036  0.03122  1.0000
  H   H3764     1.0  0.83836  0.54379  0.09768  1.0000
  C   C2120     1.0  0.76816  0.48898  0.08565  1.0000
  H   H3765     1.0  0.84421  0.53152  0.23199  1.0000
  H   H3766     1.0  0.49950  0.63367  0.04846  1.0000
  H   H3767     1.0  0.70292  0.52462  0.16151  1.0000
  C   C2121     1.0  0.98840  0.63010  0.31035  1.0000
  H   H3768     1.0  0.75374  0.50129  0.04680  1.0000
  H   H3769     1.0  0.83028  0.53902  0.13747  1.0000
  N   N118      1.0  0.96772  0.58984  0.25082  1.0000
  C   C2122     1.0  0.95913  0.57381  0.25338  1.0000
  C   C2123     1.0  0.95287  0.60671  0.25461  1.0000
  H   H3770     1.0  0.84309  0.49035  0.20200  1.0000
  C   C2124     1.0  0.98619  0.61117  0.22476  1.0000
  C   C2125     1.0  0.97453  0.57940  0.28341  1.0000
  C   C2126     1.0  0.97277  0.55547  0.25037  1.0000
  C   C2127     1.0  0.99581  0.50951  0.28949  1.0000
  C   C2128     1.0  0.93478  0.60370  0.26892  1.0000
  C   C2129     1.0  0.92299  0.62153  0.27438  1.0000
  Fe  Fe234     1.0  0.56659  0.66599  0.00083  1.0000
  C   C2130     1.0  0.96228  0.54061  0.25291  1.0000
  C   C2131     1.0  0.81905  0.60027  0.08223  1.0000
  H   H3771     1.0  0.94941  0.57737  0.24396  1.0000
  H   H3772     1.0  0.95053  0.57068  0.26741  1.0000
  H   H3773     1.0  0.95866  0.61618  0.25886  1.0000
  H   H3774     1.0  0.94804  0.61466  0.24184  1.0000
  H   H3775     1.0  0.96839  0.59529  0.22171  1.0000
  C   C2132     1.0  0.51661  0.60699  0.99028  1.0000
  H   H3776     1.0  0.87348  0.58286  0.14639  1.0000
  H   H3777     1.0  0.99611  0.58662  0.29148  1.0000
  H   H3778     1.0  0.96843  0.56730  0.28663  1.0000
  H   H3779     1.0  0.96397  0.59073  0.28869  1.0000
  H   H3780     1.0  0.85137  0.51204  0.09402  1.0000
  Fe  Fe235     1.0  0.65530  0.52424  0.98661  1.0000
  S   S474      1.0  0.59340  0.64659  0.00566  1.0000
  H   H3781     1.0  0.53479  0.70332  0.17147  1.0000
  H   H3782     1.0  0.92638  0.59838  0.26286  1.0000
  H   H3783     1.0  0.93749  0.59385  0.28164  1.0000
  H   H3784     1.0  0.90997  0.61885  0.28419  1.0000
  H   H3785     1.0  0.93051  0.62705  0.28123  1.0000
  H   H3786     1.0  0.91937  0.63184  0.26211  1.0000
  H   H3787     1.0  0.98221  0.61839  0.19665  1.0000
  H   H3788     1.0  0.85864  0.54553  0.13686  1.0000
  H   H3789     1.0  0.62639  0.66213  0.14165  1.0000
  C   C2133     1.0  0.87587  0.50827  0.17595  1.0000
  H   H3790     1.0  0.52683  0.63100  0.10605  1.0000
  H   H3791     1.0  0.75055  0.55537  0.99720  1.0000
  C   C2134     1.0  0.67326  0.49908  0.06488  1.0000
  H   H3792     1.0  0.55003  0.55965  0.24298  1.0000
  H   H3793     1.0  0.64124  0.50326  0.03964  1.0000
  H   H3794     1.0  0.59540  0.67917  0.13719  1.0000
  H   H3795     1.0  0.90020  0.53656  0.29301  1.0000
  H   H3796     1.0  0.56167  0.62749  0.00706  1.0000
  S   S475      1.0  0.52413  0.71105  0.03897  1.0000
  H   H3797     1.0  0.80198  0.51241  0.04177  1.0000
  H   H3798     1.0  0.84536  0.58055  0.13887  1.0000
  H   H3799     1.0  0.62129  0.50850  0.11422  1.0000
  H   H3800     1.0  0.97594  0.62354  0.22832  1.0000
  H   H3801     1.0  0.68563  0.59774  0.00790  1.0000
  C   C2135     1.0  0.67464  0.60979  0.00403  1.0000
  C   C2136     1.0  0.59306  0.70157  0.15089  1.0000
  C   C2137     1.0  0.51205  0.72770  0.14362  1.0000
  H   H3802     1.0  0.56057  0.58263  0.21535  1.0000
  H   H3803     1.0  0.66794  0.52729  0.20556  1.0000
  H   H3804     1.0  0.84901  0.70349  0.29676  1.0000
  H   H3805     1.0  0.60119  0.54617  0.16877  1.0000
  C   C2138     1.0  0.86144  0.53767  0.28630  1.0000
  H   H3806     1.0  0.93354  0.51730  0.28674  1.0000
  C   C2139     1.0  0.79880  0.55938  0.15552  1.0000
  H   H3807     1.0  0.61208  0.55671  0.21079  1.0000
  C   C2140     1.0  0.59988  0.57101  0.18651  1.0000
  H   H3808     1.0  0.81583  0.55245  0.12258  1.0000
  H   H3809     1.0  0.54527  0.68584  0.20886  1.0000
  H   H3810     1.0  0.54138  0.62357  0.03877  1.0000
  H   H3811     1.0  0.66310  0.53547  0.18294  1.0000
  C   C2141     1.0  0.60044  0.68147  0.14829  1.0000
  H   H3812     1.0  0.68343  0.53932  0.18739  1.0000
  C   C2142     1.0  0.62720  0.50355  0.12627  1.0000
  C   C2143     1.0  0.56252  0.56483  0.24156  1.0000
  C   C2144     1.0  0.84998  0.54520  0.10275  1.0000
  H   H3813     1.0  0.67739  0.51242  0.05846  1.0000
  H   H3814     1.0  0.52036  0.63716  0.06530  1.0000
  C   C2145     1.0  0.89601  0.52382  0.30169  1.0000
  C   C2146     1.0  0.75780  0.49560  0.03429  1.0000
  H   H3815     1.0  0.55833  0.57645  0.24867  1.0000
  H   H3816     1.0  0.54878  0.71176  0.14338  1.0000
  H   H3817     1.0  0.62467  0.54912  0.18990  1.0000
  C   C2147     1.0  0.56446  0.69542  0.17214  1.0000
  H   H3818     1.0  0.59973  0.71028  0.13834  1.0000
  H   H3819     1.0  0.87462  0.53469  0.27615  1.0000
  H   H3820     1.0  0.51667  0.71611  0.13704  1.0000
  H   H3821     1.0  0.82048  0.50324  0.24125  1.0000
  H   H3822     1.0  0.83052  0.51482  0.21892  1.0000
  H   H3823     1.0  0.79232  0.56770  0.16619  1.0000
  Fe  Fe236     1.0  0.52656  0.66702  0.00270  1.0000
  N   N119      1.0  0.87711  0.52830  0.31413  1.0000
  H   H3824     1.0  0.86222  0.60206  0.29045  1.0000
  H   H3825     1.0  0.56490  0.58588  0.18547  1.0000
  H   H3826     1.0  0.68329  0.52012  0.15756  1.0000
  H   H3827     1.0  0.97348  0.49965  0.31143  1.0000
  H   H3828     1.0  0.58298  0.57699  0.22076  1.0000
  C   C2148     1.0  0.51464  0.65325  0.08588  1.0000
  H   H3829     1.0  0.87074  0.50455  0.30990  1.0000
  S   S476      1.0  0.50829  0.67908  0.13246  1.0000
  C   C2149     1.0  0.97776  0.59394  0.23093  1.0000
  C   C2150     1.0  0.57947  0.53145  0.18440  1.0000
  H   H3830     1.0  0.64895  0.53139  0.05629  1.0000
  H   H3831     1.0  0.54634  0.57863  0.15645  1.0000
  S   S477      1.0  0.56161  0.67001  0.10554  1.0000
  H   H3832     1.0  0.55265  0.73407  0.15709  1.0000
  H   H3833     1.0  0.85512  0.49067  0.24577  1.0000
  H   H3834     1.0  0.53990  0.67385  0.19465  1.0000
  H   H3835     1.0  0.86002  0.55046  0.09031  1.0000
  H   H3836     1.0  0.85087  0.54727  0.31141  1.0000
  H   H3837     1.0  0.69595  0.50549  0.19428  1.0000
  S   S478      1.0  0.88194  0.58973  0.31916  1.0000
  H   H3838     1.0  0.85474  0.56534  0.27009  1.0000
  Fe  Fe237     1.0  0.53373  0.64310  0.16844  1.0000
  H   H3839     1.0  0.65408  0.53086  0.03233  1.0000
  C   C2151     1.0  0.52826  0.70620  0.07395  1.0000
  H   H3840     1.0  0.56495  0.54949  0.21348  1.0000
  H   H3841     1.0  0.80966  0.49055  0.02081  1.0000
  H   H3842     1.0  0.59618  0.67162  0.16115  1.0000
  S   S479      1.0  0.51840  0.69757  0.99726  1.0000
  H   H3843     1.0  0.56813  0.53947  0.17735  1.0000
  C   C2152     1.0  0.64494  0.52683  0.04585  1.0000
  H   H3844     1.0  0.86166  0.50038  0.22211  1.0000
  H   H3845     1.0  0.52253  0.69182  0.20390  1.0000
  C   C2153     1.0  0.75091  0.54098  0.99711  1.0000
  C   C2154     1.0  0.55541  0.61476  0.03556  1.0000
  H   H3846     1.0  0.78643  0.54718  0.01137  1.0000
  S   S480      1.0  0.64330  0.55021  0.99691  1.0000
  C   C2155     1.0  0.57394  0.57662  0.16012  1.0000
  H   H3847     1.0  0.88728  0.56480  0.13467  1.0000
  C   C2156     1.0  0.96915  0.52875  0.30821  1.0000
  C   C2157     1.0  0.98170  0.58553  0.26255  1.0000
  S   S481      1.0  0.95867  0.61941  0.30694  1.0000
  H   H3848     1.0  0.68056  0.50956  0.02878  1.0000
  H   H3849     1.0  0.75983  0.49615  0.09686  1.0000
  H   H3850     1.0  0.83693  0.51875  0.25506  1.0000
  H   H3851     1.0  0.54306  0.63755  0.08475  1.0000
  H   H3852     1.0  0.58737  0.54432  0.21774  1.0000
  Fe  Fe238     1.0  0.78693  0.51011  0.14096  1.0000
  C   C2158     1.0  0.57107  0.57134  0.22130  1.0000
  C   C2159     1.0  0.84821  0.55340  0.27655  1.0000
  C   C2160     1.0  0.58920  0.51509  0.17536  1.0000
  H   H3853     1.0  0.58472  0.71953  0.11635  1.0000
  C   C2161     1.0  0.83807  0.57746  0.10403  1.0000
  H   H3854     1.0  0.60102  0.50663  0.18160  1.0000
  C   C2162     1.0  0.98210  0.50987  0.30834  1.0000
  H   H3855     1.0  0.61568  0.53448  0.05870  1.0000
  C   C2163     1.0  0.69477  0.51390  0.16499  1.0000
  H   H3856     1.0  0.56547  0.62082  0.03852  1.0000
  Fe  Fe239     1.0  0.53854  0.66593  0.12996  1.0000
  H   H3857     1.0  0.63458  0.57894  0.17742  1.0000
  H   H3858     1.0  0.95278  0.54491  0.24328  1.0000
  C   C2164     1.0  0.53078  0.64267  0.09503  1.0000
  H   H3859     1.0  0.96233  0.53312  0.29637  1.0000
  C   C2165     1.0  0.62969  0.57390  0.19237  1.0000
  C   C2166     1.0  0.56953  0.72114  0.12101  1.0000
  H   H3860     1.0  0.75595  0.50404  0.00563  1.0000
  H   H3861     1.0  0.75949  0.49701  0.17851  1.0000
  C   C2167     1.0  0.53636  0.69681  0.08894  1.0000
  C   C2168     1.0  0.61657  0.56124  0.19572  1.0000
  C   C2169     1.0  0.64619  0.50594  0.05062  1.0000
  H   H3862     1.0  0.62413  0.55191  0.04029  1.0000
  C   C2170     1.0  0.82288  0.58058  0.09318  1.0000
  H   H3863     1.0  0.57916  0.56405  0.15447  1.0000
  H   H3864     1.0  0.86971  0.56000  0.15521  1.0000
  H   H3865     1.0  0.62479  0.53061  0.13027  1.0000
  C   C2171     1.0  0.57726  0.55541  0.21089  1.0000
  H   H3866     1.0  0.54069  0.71470  0.18554  1.0000
  H   H3867     1.0  0.57474  0.60451  0.01297  1.0000
  H   H3868     1.0  0.92698  0.49541  0.29224  1.0000
  C   C2172     1.0  0.85601  0.49931  0.16172  1.0000
  C   C2173     1.0  0.62501  0.53701  0.04492  1.0000
  H   H3869     1.0  0.51653  0.71754  0.07548  1.0000
  C   C2174     1.0  0.63680  0.50966  0.15094  1.0000
  H   H3870     1.0  0.80963  0.57813  0.10262  1.0000
  H   H3871     1.0  0.62009  0.53253  0.03500  1.0000
  S   S482      1.0  0.53454  0.63738  0.14146  1.0000
  N   N120      1.0  0.58500  0.56046  0.19050  1.0000
  H   H3872     1.0  0.59394  0.58463  0.19018  1.0000
  C   C2175     1.0  0.56263  0.71775  0.10583  1.0000
  C   C2176     1.0  0.56408  0.70798  0.13956  1.0000
  C   C2177     1.0  0.82641  0.55310  0.12952  1.0000
  H   H3873     1.0  0.94437  0.49746  0.26264  1.0000
  S   S483      1.0  0.81268  0.50987  0.07500  1.0000
  H   H3874     1.0  0.83323  0.58797  0.11254  1.0000
  H   H3875     1.0  0.56526  0.72838  0.09315  1.0000
  H   H3876     1.0  0.88916  0.50620  0.17923  1.0000
  C   C2178     1.0  0.55663  0.58730  0.15285  1.0000
  H   H3877     1.0  0.83505  0.55760  0.28632  1.0000
  H   H3878     1.0  0.64194  0.56635  0.19829  1.0000
  Fe  Fe240     1.0  0.82667  0.48933  0.13951  1.0000
  C   C2179     1.0  0.78864  0.53948  0.00052  1.0000
  C   C2180     1.0  0.68550  0.51123  0.18566  1.0000
  C   C2181     1.0  0.73183  0.54029  0.99476  1.0000
  C   C2182     1.0  0.61440  0.61397  0.99784  1.0000
  H   H3879     1.0  0.72537  0.49075  0.13332  1.0000
  H   H3880     1.0  0.94101  0.49935  0.30527  1.0000
  C   C2183     1.0  0.86475  0.54285  0.30287  1.0000
  N   N121      1.0  0.66491  0.49372  0.05218  1.0000
  C   C2184     1.0  0.62193  0.60093  0.98681  1.0000
  C   C2185     1.0  0.50145  0.72596  0.16160  1.0000
  C   C2186     1.0  0.91208  0.51286  0.31154  1.0000
  H   H3881     1.0  0.85887  0.71461  0.30812  1.0000
  H   H3882     1.0  0.73273  0.52732  0.99083  1.0000
  C   C2187     1.0  0.99362  0.61524  0.20395  1.0000
  C   C2188     1.0  0.64224  0.49086  0.15750  1.0000
  H   H3883     1.0  0.60246  0.56803  0.99668  1.0000
  H   H3884     1.0  0.68480  0.49699  0.09624  1.0000
  C   C2189     1.0  0.95766  0.72234  0.31835  1.0000
  H   H3885     1.0  0.56648  0.72642  0.17384  1.0000
  H   H3886     1.0  0.78344  0.51452  0.99752  1.0000
  H   H3887     1.0  0.96818  0.49151  0.26429  1.0000
  H   H3888     1.0  0.87090  0.49883  0.10373  1.0000
  H   H3889     1.0  0.87380  0.51786  0.08455  1.0000
  H   H3890     1.0  0.66102  0.60694  0.01216  1.0000
  H   H3891     1.0  0.91576  0.52163  0.31856  1.0000
  C   C2190     1.0  0.50316  0.59728  0.98755  1.0000
  C   C2191     1.0  0.56954  0.58994  0.98743  1.0000
  H   H3892     1.0  0.70506  0.48896  0.00211  1.0000
  C   C2192     1.0  0.97113  0.62587  0.31904  1.0000
  H   H3893     1.0  0.98964  0.58248  0.22780  1.0000
  S   S484      1.0  0.88298  0.49480  0.27202  1.0000
  H   H3894     1.0  0.99398  0.57496  0.25792  1.0000
  H   H3895     1.0  0.98731  0.59777  0.26084  1.0000
  H   H3896     1.0  0.68619  0.48900  0.06724  1.0000
  H   H3897     1.0  0.50309  0.65882  0.09651  1.0000
  H   H3898     1.0  0.99645  0.50286  0.19939  1.0000
  C   C2193     1.0  0.59213  0.56041  0.99691  1.0000
  H   H3899     1.0  0.50209  0.58466  0.99837  1.0000
  H   H3900     1.0  0.96493  0.72381  0.30369  1.0000
  H   H3901     1.0  0.81624  0.54460  0.98869  1.0000
  S   S485      1.0  0.68452  0.52417  0.98599  1.0000
  H   H3902     1.0  0.53494  0.58205  0.00035  1.0000
  H   H3903     1.0  0.78356  0.54907  0.98858  1.0000
  C   C2194     1.0  0.53633  0.59448  0.98930  1.0000
  N   N122      1.0  0.55097  0.60292  0.99114  1.0000
  Fe  Fe241     1.0  0.93605  0.56479  0.35011  1.0000
  S   S486      1.0  0.90576  0.57380  0.36135  1.0000
  Fe  Fe242     1.0  0.90499  0.58867  0.33226  1.0000
  H   H3904     1.0  0.93251  0.49619  0.41591  1.0000
  Fe  Fe243     1.0  0.91338  0.59842  0.36430  1.0000
  C   C2195     1.0  0.85493  0.67905  0.38089  1.0000
  S   S487      1.0  0.94383  0.58833  0.35507  1.0000
  H   H3905     1.0  0.91120  0.68430  0.53262  1.0000
  H   H3906     1.0  0.97225  0.60060  0.60254  1.0000
  H   H3907     1.0  0.96712  0.50069  0.35138  1.0000
  H   H3908     1.0  0.88766  0.48815  0.41415  1.0000
  H   H3909     1.0  0.88175  0.69930  0.56426  1.0000
  N   N123      1.0  0.93334  0.58803  0.58038  1.0000
  H   H3910     1.0  0.92045  0.60769  0.63453  1.0000
  H   H3911     1.0  0.93271  0.60294  0.60035  1.0000
  H   H3912     1.0  0.88142  0.68309  0.36449  1.0000
  H   H3913     1.0  0.97378  0.57993  0.62015  1.0000
  H   H3914     1.0  0.95048  0.62374  0.34413  1.0000
  C   C2196     1.0  0.96447  0.59039  0.61191  1.0000
  C   C2197     1.0  0.96923  0.62803  0.40691  1.0000
  H   H3915     1.0  0.87956  0.50031  0.32965  1.0000
  Fe  Fe244     1.0  0.96628  0.64659  0.55071  1.0000
  H   H3916     1.0  0.90210  0.54919  0.63093  1.0000
  S   S488      1.0  0.96901  0.62486  0.53550  1.0000
  Fe  Fe245     1.0  0.94116  0.66657  0.57979  1.0000
  H   H3917     1.0  0.96381  0.64226  0.40003  1.0000
  S   S489      1.0  0.91247  0.67007  0.59747  1.0000
  Fe  Fe246     1.0  0.96739  0.68581  0.54860  1.0000
  C   C2198     1.0  0.87504  0.69274  0.49159  1.0000
  H   H3918     1.0  0.86825  0.69789  0.33786  1.0000
  H   H3919     1.0  0.84940  0.54326  0.34284  1.0000
  S   S490      1.0  0.94473  0.67266  0.54912  1.0000
  S   S491      1.0  0.96127  0.63949  0.58150  1.0000
  S   S492      1.0  0.93418  0.64760  0.46537  1.0000
  C   C2199     1.0  0.95857  0.63204  0.51644  1.0000
  C   C2200     1.0  0.95287  0.65060  0.50862  1.0000
  C   C2201     1.0  0.94527  0.65578  0.49287  1.0000
  C   C2202     1.0  0.94308  0.64233  0.48523  1.0000
  C   C2203     1.0  0.94841  0.62385  0.49336  1.0000
  C   C2204     1.0  0.95631  0.61873  0.50873  1.0000
  H   H3920     1.0  0.95474  0.66085  0.51449  1.0000
  H   H3921     1.0  0.94130  0.67005  0.48652  1.0000
  H   H3922     1.0  0.94675  0.61341  0.48750  1.0000
  H   H3923     1.0  0.96082  0.60439  0.51453  1.0000
  H   H3924     1.0  0.92228  0.63130  0.36282  1.0000
  C   C2205     1.0  0.98120  0.69184  0.34185  1.0000
  S   S493      1.0  0.91102  0.68629  0.38658  1.0000
  H   H3925     1.0  0.88597  0.72233  0.53466  1.0000
  C   C2206     1.0  0.97420  0.63068  0.34761  1.0000
  Fe  Fe247     1.0  0.91802  0.69196  0.41053  1.0000
  C   C2207     1.0  0.91912  0.65494  0.37377  1.0000
  H   H3926     1.0  0.92152  0.59786  0.55615  1.0000
  C   C2208     1.0  0.95879  0.63077  0.63854  1.0000
  S   S494      1.0  0.90936  0.61458  0.33631  1.0000
  Fe  Fe248     1.0  0.93005  0.67559  0.44689  1.0000
  H   H3927     1.0  0.88847  0.57027  0.62058  1.0000
  H   H3928     1.0  0.95813  0.52843  0.32088  1.0000
  H   H3929     1.0  0.93747  0.56617  0.56636  1.0000
  Fe  Fe249     1.0  0.91116  0.71558  0.43821  1.0000
  H   H3930     1.0  0.98241  0.65609  0.43567  1.0000
  H   H3931     1.0  0.90499  0.68196  0.34132  1.0000
  C   C2209     1.0  0.92454  0.49303  0.35623  1.0000
  H   H3932     1.0  0.97666  0.62752  0.45853  1.0000
  H   H3933     1.0  0.98126  0.65352  0.46902  1.0000
  C   C2210     1.0  0.93846  0.71278  0.50379  1.0000
  H   H3934     1.0  0.89535  0.67634  0.56492  1.0000
  C   C2211     1.0  0.90077  0.55909  0.61777  1.0000
  S   S495      1.0  0.94493  0.67600  0.41757  1.0000
  H   H3935     1.0  0.86724  0.53875  0.36667  1.0000
  H   H3936     1.0  0.93966  0.60811  0.55538  1.0000
  C   C2212     1.0  0.95674  0.70381  0.49241  1.0000
  C   C2213     1.0  0.91159  0.63602  0.55340  1.0000
  C   C2214     1.0  0.94146  0.51999  0.35761  1.0000
  C   C2215     1.0  0.92219  0.52337  0.36054  1.0000
  C   C2216     1.0  0.91371  0.50974  0.36022  1.0000
  H   H3937     1.0  0.92892  0.65572  0.33020  1.0000
  H   H3938     1.0  0.98225  0.61584  0.62168  1.0000
  C   C2217     1.0  0.95222  0.50319  0.35390  1.0000
  H   H3939     1.0  0.91377  0.53616  0.36374  1.0000
  H   H3940     1.0  0.89882  0.51193  0.36356  1.0000
  H   H3941     1.0  0.95099  0.56073  0.58289  1.0000
  H   H3942     1.0  0.98309  0.61060  0.64561  1.0000
  H   H3943     1.0  0.86332  0.69281  0.50376  1.0000
  C   C2218     1.0  0.99049  0.63089  0.45470  1.0000
  H   H3944     1.0  0.95778  0.60368  0.41956  1.0000
  C   C2219     1.0  0.88133  0.63218  0.62006  1.0000
  H   H3945     1.0  0.98931  0.53516  0.41071  1.0000
  N   N124      1.0  0.87129  0.66897  0.34998  1.0000
  H   H3946     1.0  0.95076  0.60553  0.58067  1.0000
  N   N125      1.0  0.98650  0.71004  0.33298  1.0000
  C   C2220     1.0  0.94563  0.57209  0.57220  1.0000
  C   C2221     1.0  0.86554  0.55173  0.35623  1.0000
  C   C2222     1.0  0.94308  0.59530  0.59041  1.0000
  C   C2223     1.0  0.99147  0.69226  0.43160  1.0000
  C   C2224     1.0  0.88800  0.71473  0.50098  1.0000
  H   H3947     1.0  0.98266  0.66176  0.40435  1.0000
  C   C2225     1.0  0.95318  0.61825  0.41301  1.0000
  H   H3948     1.0  0.89010  0.54383  0.32426  1.0000
  H   H3949     1.0  0.96497  0.63692  0.43174  1.0000
  S   S496      1.0  0.97590  0.71022  0.52825  1.0000
  C   C2226     1.0  0.94377  0.48986  0.35286  1.0000
  C   C2227     1.0  0.92747  0.60314  0.56474  1.0000
  C   C2228     1.0  0.91599  0.58244  0.59274  1.0000
  H   H3950     1.0  0.88951  0.65646  0.32761  1.0000
  H   H3951     1.0  0.89935  0.61738  0.57630  1.0000
  H   H3952     1.0  0.86848  0.68765  0.39743  1.0000
  C   C2229     1.0  0.85850  0.67900  0.39936  1.0000
  C   C2230     1.0  0.86025  0.65450  0.35400  1.0000
  H   H3953     1.0  0.90033  0.64760  0.55741  1.0000
  H   H3954     1.0  0.86216  0.63958  0.38228  1.0000
  C   C2231     1.0  0.89326  0.61745  0.62882  1.0000
  H   H3955     1.0  0.95782  0.58363  0.54372  1.0000
  H   H3956     1.0  0.87847  0.67931  0.48759  1.0000
  H   H3957     1.0  0.90825  0.63152  0.54248  1.0000
  H   H3958     1.0  0.92670  0.50032  0.39435  1.0000
  H   H3959     1.0  0.97817  0.68895  0.43835  1.0000
  H   H3960     1.0  0.89622  0.68425  0.50715  1.0000
  C   C2232     1.0  0.89829  0.69390  0.53763  1.0000
  H   H3961     1.0  0.86732  0.63124  0.62107  1.0000
  H   H3962     1.0  0.95295  0.70134  0.35757  1.0000
  C   C2233     1.0  0.97693  0.55927  0.55306  1.0000
  H   H3963     1.0  0.87815  0.55731  0.35283  1.0000
  C   C2234     1.0  0.96138  0.67246  0.36676  1.0000
  H   H3964     1.0  0.92569  0.66259  0.36095  1.0000
  C   C2235     1.0  0.90799  0.62767  0.39112  1.0000
  C   C2236     1.0  0.91330  0.62040  0.57021  1.0000
  C   C2237     1.0  0.91729  0.63724  0.37483  1.0000
  H   H3965     1.0  0.96928  0.58573  0.56006  1.0000
  H   H3966     1.0  0.89464  0.62782  0.41950  1.0000
  N   N126      1.0  0.90272  0.71888  0.50783  1.0000
  C   C2238     1.0  0.90386  0.65288  0.40585  1.0000
  C   C2239     1.0  0.97931  0.62174  0.63396  1.0000
  C   C2240     1.0  0.89035  0.66219  0.33899  1.0000
  C   C2241     1.0  0.90172  0.63527  0.40679  1.0000
  H   H3967     1.0  0.89836  0.65901  0.41779  1.0000
  C   C2242     1.0  0.99361  0.64342  0.43527  1.0000
  H   H3968     1.0  0.96856  0.63101  0.36199  1.0000
  C   C2243     1.0  0.91193  0.66299  0.38913  1.0000
  H   H3969     1.0  0.97070  0.54990  0.54929  1.0000
  C   C2244     1.0  0.86608  0.63683  0.36820  1.0000
  H   H3970     1.0  0.88634  0.69055  0.53494  1.0000
  Fe  Fe250     1.0  0.94978  0.70290  0.41770  1.0000
  S   S497      1.0  0.95236  0.53650  0.35863  1.0000
  H   H3971     1.0  0.88416  0.52397  0.34026  1.0000
  C   C2245     1.0  0.89528  0.69094  0.55848  1.0000
  C   C2246     1.0  0.97219  0.55419  0.38686  1.0000
  C   C2247     1.0  0.99167  0.64037  0.46911  1.0000
  H   H3972     1.0  0.95108  0.61975  0.64191  1.0000
  H   H3973     1.0  0.96836  0.70850  0.49418  1.0000
  C   C2248     1.0  0.96072  0.56754  0.39972  1.0000
  H   H3974     1.0  0.98794  0.63194  0.63086  1.0000
  H   H3975     1.0  0.95663  0.66873  0.35626  1.0000
  H   H3976     1.0  0.89857  0.55196  0.60818  1.0000
  C   C2249     1.0  0.92200  0.66726  0.32061  1.0000
  C   C2250     1.0  0.94056  0.56574  0.40613  1.0000
  C   C2251     1.0  0.95869  0.73033  0.52708  1.0000
  H   H3977     1.0  0.84830  0.69329  0.37510  1.0000
  C   C2252     1.0  0.91642  0.69951  0.62785  1.0000
  H   H3978     1.0  0.92979  0.70136  0.61824  1.0000
  H   H3979     1.0  0.96832  0.54064  0.39277  1.0000
  H   H3980     1.0  0.96698  0.55937  0.37407  1.0000
  C   C2253     1.0  0.99167  0.63440  0.33909  1.0000
  H   H3981     1.0  0.97830  0.61430  0.43245  1.0000
  H   H3982     1.0  0.83040  0.49510  0.34686  1.0000
  C   C2254     1.0  0.93279  0.66781  0.64225  1.0000
  H   H3983     1.0  0.86415  0.66483  0.40628  1.0000
  H   H3984     1.0  0.86107  0.60947  0.37901  1.0000
  H   H3985     1.0  0.96074  0.58191  0.39223  1.0000
  H   H3986     1.0  0.96632  0.56501  0.41213  1.0000
  C   C2255     1.0  0.85679  0.62174  0.36850  1.0000
  H   H3987     1.0  0.94164  0.62509  0.42286  1.0000
  H   H3988     1.0  0.86112  0.61775  0.35493  1.0000
  C   C2256     1.0  0.84431  0.49411  0.33752  1.0000
  C   C2257     1.0  0.97668  0.62828  0.42355  1.0000
  H   H3989     1.0  0.85952  0.56203  0.32941  1.0000
  C   C2258     1.0  0.91756  0.63464  0.61717  1.0000
  H   H3990     1.0  0.84523  0.66008  0.35889  1.0000
  H   H3991     1.0  0.84149  0.62632  0.37203  1.0000
  H   H3992     1.0  0.90828  0.71304  0.63068  1.0000
  S   S498      1.0  0.88543  0.59747  0.64106  1.0000
  H   H3993     1.0  0.93238  0.57637  0.41411  1.0000
  H   H3994     1.0  0.93434  0.56766  0.39421  1.0000
  H   H3995     1.0  0.93962  0.55206  0.41505  1.0000
  H   H3996     1.0  0.89488  0.51567  0.40602  1.0000
  H   H3997     1.0  0.89811  0.65055  0.34769  1.0000
  C   C2259     1.0  0.90546  0.64954  0.60891  1.0000
  H   H3998     1.0  0.94042  0.72100  0.55249  1.0000
  S   S499      1.0  0.90241  0.68972  0.43990  1.0000
  C   C2260     1.0  0.96992  0.72524  0.32966  1.0000
  H   H3999     1.0  0.98273  0.55210  0.56541  1.0000
  H   H4000     1.0  0.86122  0.65016  0.34113  1.0000
  C   C2261     1.0  0.91130  0.61883  0.62758  1.0000
  H   H4001     1.0  0.88135  0.66003  0.37512  1.0000
  H   H4002     1.0  0.92089  0.57186  0.62045  1.0000
  H   H4003     1.0  0.84499  0.67022  0.38362  1.0000
  C   C2262     1.0  0.95732  0.58122  0.60096  1.0000
  H   H4004     1.0  0.91744  0.62538  0.58029  1.0000
  H   H4005     1.0  0.90825  0.57880  0.58450  1.0000
  C   C2263     1.0  0.87325  0.67247  0.36751  1.0000
  C   C2264     1.0  0.86217  0.54851  0.33893  1.0000
  C   C2265     1.0  0.91835  0.56659  0.60964  1.0000
  H   H4006     1.0  0.84535  0.68452  0.40844  1.0000
  C   C2266     1.0  0.99503  0.71456  0.34612  1.0000
  H   H4007     1.0  0.95288  0.59741  0.62150  1.0000
  H   H4008     1.0  0.92317  0.69406  0.50305  1.0000
  C   C2267     1.0  0.92168  0.70911  0.49916  1.0000
  H   H4009     1.0  0.90002  0.54106  0.41545  1.0000
  H   H4010     1.0  0.98470  0.71665  0.35905  1.0000
  N   N127      1.0  0.99423  0.63526  0.41940  1.0000
  S   S500      1.0  0.93753  0.70117  0.44778  1.0000
  H   H4011     1.0  0.90645  0.59408  0.59867  1.0000
  H   H4012     1.0  0.92977  0.55488  0.60646  1.0000
  C   C2268     1.0  0.96248  0.57659  0.55670  1.0000
  C   C2269     1.0  0.89199  0.69571  0.49600  1.0000
  H   H4013     1.0  0.96951  0.57507  0.59127  1.0000
  H   H4014     1.0  0.95936  0.68874  0.49696  1.0000
  S   S501      1.0  0.92407  0.71911  0.40816  1.0000
  H   H4015     1.0  0.95542  0.64075  0.62603  1.0000
  H   H4016     1.0  0.92342  0.71280  0.48395  1.0000
  H   H4017     1.0  0.88119  0.63139  0.36500  1.0000
  H   H4018     1.0  0.97367  0.66206  0.37022  1.0000
  S   S502      1.0  0.90279  0.60699  0.39152  1.0000
  H   H4019     1.0  0.93806  0.72757  0.50088  1.0000
  S   S503      1.0  0.96156  0.68259  0.57916  1.0000
  H   H4020     1.0  0.98395  0.55291  0.34896  1.0000
  S   S504      1.0  0.97606  0.71167  0.40205  1.0000
  S   S505      1.0  0.98934  0.66012  0.54741  1.0000
  H   H4021     1.0  0.94637  0.67124  0.63460  1.0000
  H   H4022     1.0  0.91932  0.53374  0.39772  1.0000
  H   H4023     1.0  0.90645  0.69475  0.56217  1.0000
  C   C2270     1.0  0.90501  0.51229  0.41489  1.0000
  H   H4024     1.0  0.92142  0.52746  0.42145  1.0000
  H   H4025     1.0  0.98843  0.56301  0.54149  1.0000
  H   H4026     1.0  0.90332  0.69488  0.48351  1.0000
  H   H4027     1.0  0.95025  0.67239  0.37936  1.0000
  C   C2271     1.0  0.91193  0.52966  0.41220  1.0000
  H   H4028     1.0  0.93128  0.73557  0.33365  1.0000
  H   H4029     1.0  0.92470  0.64090  0.54783  1.0000
  C   C2272     1.0  0.88729  0.64833  0.61047  1.0000
  C   C2273     1.0  0.89928  0.71396  0.52851  1.0000
  H   H4030     1.0  0.90837  0.50081  0.32192  1.0000
  H   H4031     1.0  0.89782  0.50860  0.42948  1.0000
  H   H4032     1.0  0.99368  0.68117  0.34476  1.0000
  H   H4033     1.0  0.98002  0.62135  0.39655  1.0000
  Fe  Fe251     1.0  0.98215  0.65597  0.57799  1.0000
  H   H4034     1.0  0.95134  0.56996  0.61064  1.0000
  H   H4035     1.0  0.93868  0.70710  0.51851  1.0000
  H   H4036     1.0  0.94787  0.61879  0.40087  1.0000
  C   C2274     1.0  0.96595  0.69134  0.35983  1.0000
  H   H4037     1.0  0.93156  0.63551  0.61602  1.0000
  C   C2275     1.0  0.87925  0.53557  0.32949  1.0000
  H   H4038     1.0  0.95669  0.70743  0.47755  1.0000
  H   H4039     1.0  0.87082  0.70362  0.47990  1.0000
  H   H4040     1.0  0.85359  0.56180  0.36216  1.0000
  Fe  Fe252     1.0  0.93940  0.60243  0.32685  1.0000
  H   H4041     1.0  0.97041  0.69429  0.37095  1.0000
  H   H4042     1.0  0.87784  0.65986  0.60416  1.0000
  H   H4043     1.0  0.87444  0.71678  0.51095  1.0000
  H   H4044     1.0  0.92800  0.66327  0.63222  1.0000
  H   H4045     1.0  0.90847  0.69432  0.62118  1.0000
  C   C2276     1.0  0.96399  0.62642  0.33758  1.0000
  C   C2277     1.0  0.86144  0.68649  0.33942  1.0000
  N   N128      1.0  0.99297  0.55175  0.38288  1.0000
  H   H4046     1.0  0.97620  0.68685  0.33240  1.0000
  C   C2278     1.0  0.99407  0.70300  0.41377  1.0000
  C   C2279     1.0  0.85063  0.51198  0.33393  1.0000
  C   C2280     1.0  0.92122  0.49639  0.40943  1.0000
  H   H4047     1.0  0.98895  0.63145  0.48298  1.0000
  H   H4048     1.0  0.92322  0.63413  0.65117  1.0000
  H   H4049     1.0  0.98743  0.72893  0.56098  1.0000
  H   H4050     1.0  0.85082  0.51407  0.34748  1.0000
  H   H4051     1.0  0.84708  0.69075  0.34729  1.0000
  H   H4052     1.0  0.90988  0.71754  0.53337  1.0000
  H   H4053     1.0  0.97121  0.73410  0.44393  1.0000
  C   C2281     1.0  0.90291  0.67626  0.33058  1.0000
  H   H4054     1.0  0.99120  0.57710  0.36249  1.0000
  H   H4055     1.0  0.96099  0.72824  0.34300  1.0000
  H   H4056     1.0  0.99542  0.52619  0.37542  1.0000
  C   C2282     1.0  0.91962  0.68625  0.64583  1.0000
  H   H4057     1.0  0.96498  0.64853  0.65170  1.0000
  H   H4058     1.0  0.99161  0.57951  0.38437  1.0000
  H   H4059     1.0  0.88568  0.72458  0.48803  1.0000
  H   H4060     1.0  0.98346  0.49494  0.62387  1.0000
  H   H4061     1.0  0.99442  0.64578  0.39033  1.0000
  C   C2283     1.0  0.99502  0.65041  0.40243  1.0000
  H   H4062     1.0  0.84345  0.49140  0.32444  1.0000
  H   H4063     1.0  0.91444  0.51960  0.64979  1.0000
  H   H4064     1.0  0.98754  0.73713  0.46136  1.0000
  H   H4065     1.0  0.95395  0.70880  0.32338  1.0000
  H   H4066     1.0  0.84025  0.52314  0.32771  1.0000
  C   C2284     1.0  0.94253  0.73219  0.54084  1.0000
  H   H4067     1.0  0.97580  0.73424  0.58315  1.0000
  H   H4068     1.0  0.93804  0.73396  0.45955  1.0000
  H   H4069     1.0  0.99637  0.68021  0.50683  1.0000
  H   H4070     1.0  0.99665  0.66586  0.49197  1.0000
  H   H4071     1.0  0.85087  0.67596  0.32158  1.0000
  C   C2285     1.0  0.93953  0.73680  0.31928  1.0000
  S   S506      1.0  0.93481  0.57762  0.32076  1.0000
  C   C2286     1.0  0.87021  0.51077  0.32144  1.0000
  H   H4072     1.0  0.89688  0.68780  0.32043  1.0000
  C   C2287     1.0  0.85956  0.68569  0.32022  1.0000
  S   S507      1.0  0.93377  0.57190  0.65239  1.0000
  H   H4073     1.0  0.98941  0.50690  0.31965  1.0000
  H   H4074     1.0  0.50777  0.59368  0.97380  1.0000
  H   H4075     1.0  0.91647  0.51251  0.94766  1.0000
  H   H4076     1.0  0.99397  0.52941  0.79467  1.0000
  C   C2288     1.0  0.94516  0.56310  0.82137  1.0000
  H   H4077     1.0  0.74901  0.52065  0.90450  1.0000
  C   C2289     1.0  0.92064  0.52693  0.89033  1.0000
  S   S508      1.0  0.71066  0.53304  0.93515  1.0000
  H   H4078     1.0  0.97889  0.51076  0.88258  1.0000
  S   S509      1.0  0.92937  0.54069  0.78832  1.0000
  H   H4079     1.0  0.66123  0.59358  0.93172  1.0000
  C   C2290     1.0  0.98476  0.49089  0.70887  1.0000
  C   C2291     1.0  0.95436  0.50691  0.75390  1.0000
  C   C2292     1.0  0.66409  0.60649  0.92220  1.0000
  C   C2293     1.0  0.96537  0.55610  0.81249  1.0000
  S   S510      1.0  0.78651  0.51735  0.95926  1.0000
  H   H4080     1.0  0.93322  0.64728  0.68813  1.0000
  H   H4081     1.0  0.93589  0.55717  0.81703  1.0000
  H   H4082     1.0  0.99023  0.53572  0.84346  1.0000
  H   H4083     1.0  0.67638  0.52688  0.89825  1.0000
  H   H4084     1.0  0.74800  0.54146  0.88719  1.0000
  H   H4085     1.0  0.61860  0.68311  0.94578  1.0000
  Fe  Fe253     1.0  0.93242  0.57691  0.67983  1.0000
  S   S511      1.0  0.90168  0.58603  0.68702  1.0000
  N   N129      1.0  0.94420  0.49625  0.89803  1.0000
  Fe  Fe254     1.0  0.93132  0.54349  0.66753  1.0000
  S   S512      1.0  0.90033  0.54972  0.67374  1.0000
  C   C2294     1.0  0.84632  0.50634  0.76565  1.0000
  H   H4086     1.0  0.69036  0.49443  0.90486  1.0000
  C   C2295     1.0  0.98881  0.55299  0.76263  1.0000
  Fe  Fe255     1.0  0.90248  0.55640  0.69948  1.0000
  S   S513      1.0  0.88605  0.54691  0.72764  1.0000
  H   H4087     1.0  0.76055  0.53830  0.98399  1.0000
  S   S514      1.0  0.93334  0.54770  0.69437  1.0000
  Fe  Fe256     1.0  0.79879  0.48794  0.97010  1.0000
  S   S515      1.0  0.94987  0.51941  0.65617  1.0000
  H   H4088     1.0  0.68962  0.50119  0.94262  1.0000
  H   H4089     1.0  0.67451  0.65665  0.95669  1.0000
  H   H4090     1.0  0.64639  0.62516  0.98518  1.0000
  H   H4091     1.0  0.79610  0.51796  0.91783  1.0000
  C   C2296     1.0  0.97647  0.56753  0.75027  1.0000
  C   C2297     1.0  0.75272  0.50999  0.96196  1.0000
  C   C2298     1.0  0.80839  0.51664  0.90619  1.0000
  C   C2299     1.0  0.89745  0.54602  0.74473  1.0000
  C   C2300     1.0  0.91181  0.55520  0.74070  1.0000
  C   C2301     1.0  0.92120  0.55391  0.75431  1.0000
  C   C2302     1.0  0.91645  0.54323  0.77192  1.0000
  C   C2303     1.0  0.90185  0.53436  0.77603  1.0000
  C   C2304     1.0  0.89231  0.53581  0.76248  1.0000
  H   H4092     1.0  0.91557  0.56347  0.72716  1.0000
  H   H4093     1.0  0.93235  0.56095  0.75109  1.0000
  C   C2305     1.0  0.93871  0.50182  0.65857  1.0000
  C   C2306     1.0  0.69145  0.50268  0.91401  1.0000
  H   H4094     1.0  0.92691  0.50818  0.71480  1.0000
  H   H4095     1.0  0.70656  0.65778  0.92539  1.0000
  C   C2307     1.0  0.67582  0.51977  0.91285  1.0000
  H   H4096     1.0  0.65785  0.60871  0.91024  1.0000
  H   H4097     1.0  0.59479  0.55708  0.98320  1.0000
  H   H4098     1.0  0.88114  0.52881  0.76571  1.0000
  C   C2308     1.0  0.60421  0.61982  0.96442  1.0000
  H   H4099     1.0  0.83803  0.50576  0.90612  1.0000
  C   C2309     1.0  0.84712  0.50833  0.85093  1.0000
  C   C2310     1.0  0.97771  0.56549  0.67707  1.0000
  C   C2311     1.0  0.95428  0.64037  0.65489  1.0000
  C   C2312     1.0  0.96874  0.56109  0.79119  1.0000
  S   S516      1.0  0.89036  0.50398  0.87415  1.0000
  C   C2313     1.0  0.67851  0.65463  0.92841  1.0000
  C   C2314     1.0  0.73121  0.52883  0.94279  1.0000
  C   C2315     1.0  0.74397  0.53984  0.93369  1.0000
  C   C2316     1.0  0.76080  0.53629  0.93901  1.0000
  C   C2317     1.0  0.76532  0.52124  0.95296  1.0000
  H   H4100     1.0  0.98755  0.58368  0.80185  1.0000
  H   H4101     1.0  0.74075  0.55127  0.92261  1.0000
  H   H4102     1.0  0.77043  0.54510  0.93214  1.0000
  H   H4103     1.0  0.94126  0.57826  0.81750  1.0000
  H   H4104     1.0  0.65852  0.63513  0.92158  1.0000
  H   H4105     1.0  0.96519  0.51356  0.69575  1.0000
  H   H4106     1.0  0.60033  0.62216  0.95144  1.0000
  C   C2318     1.0  0.73546  0.51407  0.95718  1.0000
  C   C2319     1.0  0.61673  0.60375  0.97017  1.0000
  H   H4107     1.0  0.68854  0.67778  0.92972  1.0000
  Fe  Fe257     1.0  0.91117  0.49671  0.84883  1.0000
  C   C2320     1.0  0.98576  0.50987  0.84233  1.0000
  H   H4108     1.0  0.92085  0.54240  0.86226  1.0000
  H   H4109     1.0  0.89787  0.52639  0.78962  1.0000
  Fe  Fe258     1.0  0.54500  0.69672  0.97633  1.0000
  N   N130      1.0  0.80698  0.50413  0.89491  1.0000
  H   H4110     1.0  0.96407  0.49976  0.76304  1.0000
  C   C2321     1.0  0.77594  0.52661  0.88947  1.0000
  C   C2322     1.0  0.78673  0.50666  0.89522  1.0000
  H   H4111     1.0  0.85670  0.49618  0.69064  1.0000
  H   H4112     1.0  0.94317  0.55897  0.83655  1.0000
  H   H4113     1.0  0.98089  0.60525  0.68513  1.0000
  C   C2323     1.0  0.88813  0.63663  0.67296  1.0000
  C   C2324     1.0  0.66316  0.61957  0.94934  1.0000
  H   H4114     1.0  0.98741  0.50003  0.77912  1.0000
  H   H4115     1.0  0.53978  0.69849  0.90560  1.0000
  H   H4116     1.0  0.90414  0.55320  0.87963  1.0000
  C   C2325     1.0  0.55455  0.62020  0.95704  1.0000
  H   H4117     1.0  0.67929  0.60504  0.91724  1.0000
  Fe  Fe259     1.0  0.64731  0.56392  0.96710  1.0000
  C   C2326     1.0  0.99622  0.49355  0.73481  1.0000
  H   H4118     1.0  0.64092  0.65412  0.94082  1.0000
  C   C2327     1.0  0.94870  0.66840  0.67574  1.0000
  H   H4119     1.0  0.89562  0.50518  0.72856  1.0000
  H   H4120     1.0  0.63066  0.64057  0.96109  1.0000
  C   C2328     1.0  0.92129  0.50561  0.65442  1.0000
  H   H4121     1.0  0.87338  0.64398  0.67454  1.0000
  C   C2329     1.0  0.94070  0.51548  0.88664  1.0000
  H   H4122     1.0  0.85520  0.54226  0.67886  1.0000
  H   H4123     1.0  0.99186  0.49451  0.80178  1.0000
  H   H4124     1.0  0.72079  0.49233  0.94122  1.0000
  H   H4125     1.0  0.85794  0.55404  0.69484  1.0000
  H   H4126     1.0  0.87317  0.50277  0.91199  1.0000
  H   H4127     1.0  0.96774  0.55890  0.67560  1.0000
  H   H4128     1.0  0.92524  0.48837  0.95616  1.0000
  H   H4129     1.0  0.64043  0.62409  0.93560  1.0000
  C   C2330     1.0  0.97819  0.49863  0.89409  1.0000
  H   H4130     1.0  0.95062  0.52140  0.75526  1.0000
  H   H4131     1.0  0.92351  0.62914  0.67478  1.0000
  H   H4132     1.0  0.67414  0.60041  0.98068  1.0000
  C   C2331     1.0  0.65960  0.62948  0.97786  1.0000
  H   H4133     1.0  0.99311  0.49287  0.74978  1.0000
  H   H4134     1.0  0.92831  0.55305  0.87625  1.0000
  N   N131      1.0  0.98862  0.55771  0.78040  1.0000
  H   H4135     1.0  0.54218  0.64900  0.94784  1.0000
  H   H4136     1.0  0.84175  0.52243  0.84366  1.0000
  H   H4137     1.0  0.73591  0.55642  0.96666  1.0000
  C   C2332     1.0  0.82511  0.51074  0.91550  1.0000
  H   H4138     1.0  0.93927  0.67057  0.70450  1.0000
  H   H4139     1.0  0.98447  0.53975  0.76562  1.0000
  C   C2333     1.0  0.93323  0.65902  0.67604  1.0000
  H   H4140     1.0  0.58770  0.64557  0.97054  1.0000
  H   H4141     1.0  0.68928  0.61577  0.97605  1.0000
  H   H4142     1.0  0.94216  0.50880  0.92048  1.0000
  H   H4143     1.0  0.97112  0.51490  0.84284  1.0000
  H   H4144     1.0  0.71252  0.55408  0.97707  1.0000
  H   H4145     1.0  0.75612  0.49838  0.97281  1.0000
  H   H4146     1.0  0.95444  0.68546  0.69057  1.0000
  C   C2334     1.0  0.90057  0.65043  0.66634  1.0000
  C   C2335     1.0  0.82794  0.52653  0.92185  1.0000
  S   S517      1.0  0.55166  0.66615  0.97969  1.0000
  H   H4147     1.0  0.67739  0.52937  0.92034  1.0000
  C   C2336     1.0  0.83846  0.50565  0.87150  1.0000
  H   H4148     1.0  0.93066  0.50101  0.77567  1.0000
  C   C2337     1.0  0.87283  0.49017  0.90882  1.0000
  H   H4149     1.0  0.65978  0.64084  0.98394  1.0000
  S   S518      1.0  0.62569  0.58742  0.95638  1.0000
  H   H4150     1.0  0.90903  0.50628  0.69370  1.0000
  C   C2338     1.0  0.91184  0.49437  0.70502  1.0000
  H   H4151     1.0  0.84248  0.51562  0.87669  1.0000
  H   H4152     1.0  0.96132  0.65781  0.67829  1.0000
  C   C2339     1.0  0.98032  0.50935  0.69509  1.0000
  N   N132      1.0  0.87636  0.49774  0.71766  1.0000
  C   C2340     1.0  0.53092  0.71241  0.90580  1.0000
  H   H4153     1.0  0.68922  0.63632  0.95086  1.0000
  H   H4154     1.0  0.95251  0.67760  0.66226  1.0000
  H   H4155     1.0  0.98576  0.52071  0.66579  1.0000
  H   H4156     1.0  0.56691  0.64413  0.94614  1.0000
  C   C2341     1.0  0.72522  0.55604  0.97967  1.0000
  H   H4157     1.0  0.87561  0.50031  0.75548  1.0000
  H   H4158     1.0  0.97384  0.50332  0.90726  1.0000
  H   H4159     1.0  0.96193  0.57109  0.75790  1.0000
  C   C2342     1.0  0.63546  0.66516  0.96496  1.0000
  H   H4160     1.0  0.69506  0.67201  0.90744  1.0000
  C   C2343     1.0  0.99636  0.55642  0.67510  1.0000
  C   C2344     1.0  0.67582  0.64588  0.94916  1.0000
  H   H4161     1.0  0.89109  0.62782  0.66290  1.0000
  H   H4162     1.0  0.54304  0.61574  0.95476  1.0000
  C   C2345     1.0  0.89523  0.49441  0.72178  1.0000
  H   H4163     1.0  0.70471  0.50724  0.90861  1.0000
  C   C2346     1.0  0.87235  0.51657  0.70552  1.0000
  C   C2347     1.0  0.85183  0.52708  0.70736  1.0000
  H   H4164     1.0  0.96767  0.57140  0.72489  1.0000
  H   H4165     1.0  0.98190  0.58021  0.74490  1.0000
  C   C2348     1.0  0.94285  0.67949  0.69075  1.0000
  H   H4166     1.0  0.94917  0.52376  0.88895  1.0000
  C   C2349     1.0  0.85000  0.54497  0.69297  1.0000
  C   C2350     1.0  0.86311  0.50648  0.74958  1.0000
  H   H4167     1.0  0.72563  0.50554  0.96434  1.0000
  H   H4168     1.0  0.51656  0.61972  0.97950  1.0000
  Fe  Fe260     1.0  0.90284  0.57875  0.66061  1.0000
  C   C2351     1.0  0.55543  0.63903  0.94457  1.0000
  H   H4169     1.0  0.93073  0.69084  0.68841  1.0000
  H   H4170     1.0  0.96996  0.54839  0.73830  1.0000
  C   C2352     1.0  0.93935  0.49632  0.91833  1.0000
  H   H4171     1.0  0.87966  0.52578  0.70804  1.0000
  H   H4172     1.0  0.87823  0.51585  0.69080  1.0000
  H   H4173     1.0  0.84624  0.53074  0.72102  1.0000
  H   H4174     1.0  0.84292  0.51894  0.70572  1.0000
  C   C2353     1.0  0.51305  0.71115  0.92039  1.0000
  H   H4175     1.0  0.86352  0.52087  0.74273  1.0000
  H   H4176     1.0  0.66212  0.51610  0.91876  1.0000
  H   H4177     1.0  0.54057  0.58950  0.97623  1.0000
  H   H4178     1.0  0.83336  0.51314  0.76069  1.0000
  H   H4179     1.0  0.89697  0.65864  0.67699  1.0000
  H   H4180     1.0  0.92616  0.50727  0.75297  1.0000
  H   H4181     1.0  0.51716  0.70419  0.93366  1.0000
  H   H4182     1.0  0.82283  0.49948  0.92772  1.0000
  H   H4183     1.0  0.83524  0.55224  0.69451  1.0000
  H   H4184     1.0  0.84749  0.51389  0.77542  1.0000
  H   H4185     1.0  0.95684  0.62960  0.66729  1.0000
  C   C2354     1.0  0.64160  0.64860  0.95544  1.0000
  H   H4186     1.0  0.66556  0.66369  0.92481  1.0000
  H   H4187     1.0  0.96568  0.52004  0.72640  1.0000
  H   H4188     1.0  0.53874  0.72076  0.90901  1.0000
  H   H4189     1.0  0.96080  0.55289  0.78788  1.0000
  S   S519      1.0  0.65691  0.53770  0.95687  1.0000
  H   H4190     1.0  0.96155  0.57560  0.78702  1.0000
  C   C2355     1.0  0.92127  0.64065  0.66282  1.0000
  H   H4191     1.0  0.56775  0.61071  0.95246  1.0000
  C   C2356     1.0  0.86254  0.49547  0.73584  1.0000
  C   C2357     1.0  0.97213  0.58307  0.68079  1.0000
  H   H4192     1.0  0.81235  0.52391  0.86944  1.0000
  H   H4193     1.0  0.57203  0.58596  0.97405  1.0000
  S   S520      1.0  0.90572  0.49957  0.82092  1.0000
  S   S521      1.0  0.94904  0.59469  0.68304  1.0000
  H   H4194     1.0  0.81354  0.50193  0.86642  1.0000
  H   H4195     1.0  0.90109  0.49690  0.95560  1.0000
  H   H4196     1.0  0.77600  0.53532  0.89866  1.0000
  H   H4197     1.0  0.75474  0.51969  0.88045  1.0000
  C   C2358     1.0  0.75572  0.52706  0.89047  1.0000
  H   H4198     1.0  0.63317  0.66047  0.98012  1.0000
  C   C2359     1.0  0.69307  0.66624  0.92246  1.0000
  H   H4199     1.0  0.98458  0.52052  0.69801  1.0000
  H   H4200     1.0  0.81509  0.53257  0.93093  1.0000
  C   C2360     1.0  0.93663  0.49948  0.76124  1.0000
  S   S522      1.0  0.54732  0.71469  0.94813  1.0000
  Fe  Fe261     1.0  0.92825  0.51536  0.81081  1.0000
  H   H4201     1.0  0.50596  0.70245  0.91677  1.0000
  H   H4202     1.0  0.78198  0.53285  0.87516  1.0000
  C   C2361     1.0  0.65571  0.62265  0.93177  1.0000
  S   S523      1.0  0.93232  0.51418  0.83873  1.0000
  C   C2362     1.0  0.91536  0.49842  0.94825  1.0000
  H   H4203     1.0  0.94108  0.49461  0.69840  1.0000
  H   H4204     1.0  0.78499  0.49889  0.88592  1.0000
  H   H4205     1.0  0.89024  0.62784  0.68647  1.0000
  C   C2363     1.0  0.50058  0.73046  0.92153  1.0000
  H   H4206     1.0  0.60603  0.66962  0.96569  1.0000
  H   H4207     1.0  0.68361  0.64375  0.92030  1.0000
  C   C2364     1.0  0.81708  0.50911  0.87516  1.0000
  H   H4208     1.0  0.91710  0.53038  0.90407  1.0000
  H   H4209     1.0  0.53917  0.63151  0.98116  1.0000
  C   C2365     1.0  0.98516  0.59163  0.68234  1.0000
  S   S524      1.0  0.67598  0.56730  0.96444  1.0000
  H   H4210     1.0  0.80820  0.53075  0.89771  1.0000
  H   H4211     1.0  0.97408  0.56170  0.81780  1.0000
  H   H4212     1.0  0.83911  0.52137  0.92966  1.0000
  H   H4213     1.0  0.83207  0.53730  0.90982  1.0000
  H   H4214     1.0  0.64593  0.67370  0.96020  1.0000
  N   N133      1.0  0.93513  0.65242  0.65885  1.0000
  C   C2366     1.0  0.96295  0.50629  0.73328  1.0000
  H   H4215     1.0  0.52785  0.71861  0.89197  1.0000
  H   H4216     1.0  0.72193  0.56929  0.98397  1.0000
  C   C2367     1.0  0.91845  0.54500  0.87623  1.0000
  H   H4217     1.0  0.94514  0.51512  0.87175  1.0000
  H   H4218     1.0  0.84423  0.49826  0.84490  1.0000
  H   H4219     1.0  0.64087  0.50624  0.96447  1.0000
  Fe  Fe262     1.0  0.68536  0.53970  0.95712  1.0000
  H   H4220     1.0  0.56337  0.62618  0.97827  1.0000
  H   H4221     1.0  0.67815  0.61282  0.94657  1.0000
  S   S525      1.0  0.95108  0.49092  0.80673  1.0000
  H   H4222     1.0  0.55790  0.63809  0.93000  1.0000
  H   H4223     1.0  0.86238  0.50618  0.84880  1.0000
  C   C2368     1.0  0.91924  0.49499  0.92889  1.0000
  C   C2369     1.0  0.97620  0.56058  0.73370  1.0000
  N   N134      1.0  0.66011  0.63607  0.95751  1.0000
  H   H4224     1.0  0.81250  0.52512  0.98301  1.0000
  H   H4225     1.0  0.95197  0.50539  0.72704  1.0000
  H   H4226     1.0  0.91968  0.66848  0.67944  1.0000
  C   C2370     1.0  0.50389  0.66224  0.97350  1.0000
  H   H4227     1.0  0.65607  0.60904  0.95943  1.0000
  H   H4228     1.0  0.51847  0.66174  0.97101  1.0000
  H   H4229     1.0  0.96855  0.54099  0.81717  1.0000
  C   C2371     1.0  0.67543  0.61322  0.98348  1.0000
  N   N135      1.0  0.97987  0.49135  0.72912  1.0000
  C   C2372     1.0  0.59685  0.63297  0.97536  1.0000
  C   C2373     1.0  0.55176  0.62083  0.97752  1.0000
  C   C2374     1.0  0.61718  0.67741  0.96077  1.0000
  H   H4230     1.0  0.58091  0.59681  0.98584  1.0000
  H   H4231     1.0  0.98638  0.58679  0.76956  1.0000
  C   C2375     1.0  0.69012  0.49154  0.93407  1.0000
  H   H4232     1.0  0.98593  0.49667  0.67166  1.0000
  C   C2376     1.0  0.64265  0.49172  0.97006  1.0000
  H   H4233     1.0  0.61296  0.68897  0.96797  1.0000
  H   H4234     1.0  0.84472  0.49156  0.87790  1.0000
  H   H4235     1.0  0.77931  0.50105  0.90933  1.0000
  C   C2377     1.0  0.98994  0.50761  0.67536  1.0000
  C   C2378     1.0  0.92920  0.49514  0.71038  1.0000
  C   C2379     1.0  0.91287  0.49119  0.65606  1.0000
  H   H4236     1.0  0.91854  0.49012  0.89733  1.0000
  H   H4237     1.0  0.99043  0.55710  0.72527  1.0000
  H   H4238     1.0  0.84819  0.49896  0.73387  1.0000
  H   H4239     1.0  0.67640  0.48782  0.93898  1.0000
  H   H4240     1.0  0.90595  0.68444  0.65451  1.0000
  H   H4241     1.0  0.84568  0.49206  0.77305  1.0000
  H   H4242     1.0  0.50312  0.67047  0.94480  1.0000
  H   H4243     1.0  0.99271  0.52355  0.72537  1.0000
  H   H4244     1.0  0.91048  0.51965  0.88967  1.0000
  H   H4245     1.0  0.51598  0.73330  0.97290  1.0000
  C   C2380     1.0  0.99387  0.49149  0.84200  1.0000
  H   H4246     1.0  0.90869  0.50486  0.92182  1.0000
  C   C2381     1.0  0.99621  0.57476  0.77563  1.0000
  C   C2382     1.0  0.99653  0.52158  0.84276  1.0000
  Fe  Fe263     1.0  0.95292  0.48795  0.83561  1.0000
  C   C2383     1.0  0.96461  0.48793  0.89250  1.0000
  H   H4247     1.0  0.92570  0.69301  0.65288  1.0000
  H   H4248     1.0  0.89716  0.65943  0.65334  1.0000
  H   H4249     1.0  0.89943  0.49410  0.65283  1.0000
  H   H4250     1.0  0.55225  0.95685  0.28224  1.0000
  H   H4251     1.0  0.64462  0.91972  0.30465  1.0000
  S   S526      1.0  0.51622  0.78064  0.13056  1.0000
  C   C2384     1.0  0.50939  0.87242  0.15885  1.0000
  Fe  Fe264     1.0  0.52902  0.91551  0.23005  1.0000
  H   H4252     1.0  0.51424  0.85830  0.30768  1.0000
  S   S527      1.0  0.55420  0.91950  0.23654  1.0000
  H   H4253     1.0  0.54990  0.95683  0.26020  1.0000
  C   C2385     1.0  0.51120  0.96960  0.15085  1.0000
  C   C2386     1.0  0.52248  0.81299  0.19596  1.0000
  C   C2387     1.0  0.51286  0.93324  0.14433  1.0000
  S   S528      1.0  0.52125  0.88936  0.23115  1.0000
  S   S529      1.0  0.52368  0.92813  0.20183  1.0000
  H   H4254     1.0  0.51523  0.74940  0.01673  1.0000
  H   H4255     1.0  0.67689  0.98496  0.29779  1.0000
  C   C2388     1.0  0.57998  0.74058  0.14839  1.0000
  H   H4256     1.0  0.52268  0.97548  0.29059  1.0000
  C   C2389     1.0  0.57676  0.97418  0.25584  1.0000
  H   H4257     1.0  0.52728  0.75149  0.18316  1.0000
  H   H4258     1.0  0.53772  0.80029  0.14305  1.0000
  C   C2390     1.0  0.51680  0.95481  0.28083  1.0000
  H   H4259     1.0  0.54210  0.91665  0.11917  1.0000
  C   C2391     1.0  0.51297  0.91945  0.13317  1.0000
  H   H4260     1.0  0.61470  0.94894  0.27511  1.0000
  C   C2392     1.0  0.50383  0.88048  0.17428  1.0000
  H   H4261     1.0  0.58440  0.96924  0.28256  1.0000
  C   C2393     1.0  0.55171  0.90590  0.29822  1.0000
  H   H4262     1.0  0.57421  0.91952  0.29142  1.0000
  H   H4263     1.0  0.52565  0.96144  0.14865  1.0000
  H   H4264     1.0  0.53462  0.97749  0.23743  1.0000
  H   H4265     1.0  0.58395  0.98555  0.24840  1.0000
  H   H4266     1.0  0.61124  0.94963  0.25280  1.0000
  H   H4267     1.0  0.66178  0.94494  0.29663  1.0000
  C   C2394     1.0  0.56552  0.91957  0.26712  1.0000
  C   C2395     1.0  0.55315  0.91433  0.26028  1.0000
  C   C2396     1.0  0.54007  0.90488  0.27243  1.0000
  C   C2397     1.0  0.53956  0.90042  0.29132  1.0000
  C   C2398     1.0  0.58695  0.96220  0.27120  1.0000
  H   H4268     1.0  0.57578  0.92669  0.25770  1.0000
  H   H4269     1.0  0.53065  0.90061  0.26722  1.0000
  H   H4270     1.0  0.52981  0.89261  0.30055  1.0000
  C   C2399     1.0  0.64286  0.98160  0.28451  1.0000
  H   H4271     1.0  0.50597  0.73878  0.00423  1.0000
  C   C2400     1.0  0.50472  0.75164  0.00856  1.0000
  H   H4272     1.0  0.53776  0.90010  0.14046  1.0000
  C   C2401     1.0  0.52900  0.81408  0.14430  1.0000
  C   C2402     1.0  0.70441  0.97022  0.27324  1.0000
  C   C2403     1.0  0.51012  0.75977  0.14233  1.0000
  H   H4273     1.0  0.51889  0.98250  0.26771  1.0000
  C   C2404     1.0  0.49821  0.81325  0.17969  1.0000
  H   H4274     1.0  0.52871  0.84165  0.12747  1.0000
  H   H4275     1.0  0.51995  0.92562  0.15583  1.0000
  C   C2405     1.0  0.52907  0.81861  0.16258  1.0000
  H   H4276     1.0  0.52397  0.94263  0.28960  1.0000
  H   H4277     1.0  0.52424  0.78437  0.16823  1.0000
  H   H4278     1.0  0.53717  0.82361  0.11484  1.0000
  C   C2406     1.0  0.60786  0.95748  0.26379  1.0000
  C   C2407     1.0  0.65850  0.94678  0.31095  1.0000
  H   H4279     1.0  0.50282  0.94885  0.17439  1.0000
  H   H4280     1.0  0.52966  0.83075  0.21936  1.0000
  H   H4281     1.0  0.55159  0.82723  0.12774  1.0000
  C   C2408     1.0  0.54683  0.98384  0.23158  1.0000
  H   H4282     1.0  0.58239  0.94909  0.27693  1.0000
  C   C2409     1.0  0.57071  0.76015  0.15077  1.0000
  H   H4283     1.0  0.52101  0.74525  0.20785  1.0000
  H   H4284     1.0  0.50507  0.84102  0.19117  1.0000
  S   S530      1.0  0.51995  0.88915  0.18012  1.0000
  C   C2410     1.0  0.52563  0.97108  0.27739  1.0000
  H   H4285     1.0  0.50116  0.85971  0.14159  1.0000
  C   C2411     1.0  0.56461  0.91561  0.28613  1.0000
  H   H4286     1.0  0.58415  0.74082  0.13351  1.0000
  H   H4287     1.0  0.52943  0.84005  0.18585  1.0000
  C   C2412     1.0  0.51664  0.74454  0.13409  1.0000
  H   H4288     1.0  0.53737  0.80760  0.19647  1.0000
  H   H4289     1.0  0.50210  0.95832  0.28798  1.0000
  C   C2413     1.0  0.67791  0.96988  0.30143  1.0000
  C   C2414     1.0  0.51816  0.83380  0.19566  1.0000
  H   H4290     1.0  0.50766  0.76245  0.99613  1.0000
  C   C2415     1.0  0.54682  0.96580  0.27017  1.0000
  H   H4291     1.0  0.58033  0.76936  0.14318  1.0000
  H   H4292     1.0  0.50787  0.97682  0.13731  1.0000
  Fe  Fe265     1.0  0.51289  0.90327  0.20425  1.0000
  C   C2416     1.0  0.52632  0.78805  0.18032  1.0000
  H   H4293     1.0  0.55795  0.76512  0.14517  1.0000
  H   H4294     1.0  0.67829  0.96479  0.27438  1.0000
  H   H4295     1.0  0.55446  0.98389  0.28982  1.0000
  H   H4296     1.0  0.66937  0.93644  0.31751  1.0000
  H   H4297     1.0  0.53210  0.89790  0.12022  1.0000
  C   C2417     1.0  0.53245  0.90786  0.12796  1.0000
  H   H4298     1.0  0.62878  0.94982  0.31258  1.0000
  H   H4299     1.0  0.54155  0.78479  0.17929  1.0000
  H   H4300     1.0  0.55913  0.97289  0.22821  1.0000
  H   H4301     1.0  0.52487  0.74592  0.12019  1.0000
  C   C2418     1.0  0.53713  0.82752  0.12763  1.0000
  H   H4302     1.0  0.57927  0.96554  0.24569  1.0000
  H   H4303     1.0  0.52343  0.87147  0.15085  1.0000
  H   H4304     1.0  0.61334  0.97013  0.25824  1.0000
  H   H4305     1.0  0.52207  0.94213  0.13479  1.0000
  H   H4306     1.0  0.54382  0.81643  0.16322  1.0000
  H   H4307     1.0  0.51752  0.95135  0.26760  1.0000
  H   H4308     1.0  0.50867  0.92687  0.12011  1.0000
  H   H4309     1.0  0.56711  0.76080  0.16552  1.0000
  C   C2419     1.0  0.68760  0.96209  0.28384  1.0000
  H   H4310     1.0  0.71137  0.96402  0.26105  1.0000
  H   H4311     1.0  0.54247  0.75245  0.19688  1.0000
  H   H4312     1.0  0.64417  0.96808  0.28159  1.0000
  H   H4313     1.0  0.71451  0.96732  0.28205  1.0000
  N   N136      1.0  0.55629  0.98161  0.26199  1.0000
  H   H4314     1.0  0.52332  0.83356  0.16120  1.0000
  S   S531      1.0  0.50113  0.92844  0.24504  1.0000
  C   C2420     1.0  0.52780  0.75475  0.19610  1.0000
  H   H4315     1.0  0.50375  0.90999  0.14100  1.0000
  C   C2421     1.0  0.51771  0.77453  0.19700  1.0000
  H   H4316     1.0  0.69263  0.94702  0.28773  1.0000
  C   C2422     1.0  0.64370  0.98015  0.30460  1.0000
  N   N137      1.0  0.51859  0.80821  0.17996  1.0000
  C   C2423     1.0  0.51062  0.98397  0.16122  1.0000
  C   C2424     1.0  0.51665  0.83746  0.21448  1.0000
  H   H4317     1.0  0.51473  0.81452  0.14354  1.0000
  H   H4318     1.0  0.51845  0.77699  0.21019  1.0000
  H   H4319     1.0  0.70009  0.98525  0.26842  1.0000
  H   H4320     1.0  0.51473  0.97726  0.17454  1.0000
  H   H4321     1.0  0.51493  0.80618  0.20929  1.0000
  S   S532      1.0  0.57658  0.97780  0.31762  1.0000
  H   H4322     1.0  0.50486  0.83243  0.22465  1.0000
  H   H4323     1.0  0.94230  0.75078  0.31413  1.0000
  H   H4324     1.0  0.50308  0.77567  0.19683  1.0000
  H   H4325     1.0  0.51420  0.85245  0.21344  1.0000
  H   H4326     1.0  0.63013  0.97812  0.31362  1.0000
  N   N138      1.0  0.65923  0.96575  0.31173  1.0000
  H   H4327     1.0  0.68810  0.96409  0.31047  1.0000
  H   H4328     1.0  0.50186  0.98021  0.31819  1.0000
  H   H4329     1.0  0.61288  0.98699  0.28833  1.0000
  C   C2425     1.0  0.49890  0.86071  0.31167  1.0000
  C   C2426     1.0  0.49938  0.75804  0.16025  1.0000
  C   C2427     1.0  0.49756  0.95703  0.16194  1.0000
  C   C2428     1.0  0.49689  0.86561  0.15363  1.0000
  C   C2429     1.0  0.64131  0.92129  0.31912  1.0000
  C   C2430     1.0  0.60846  0.94677  0.62344  1.0000
  H   H4330     1.0  0.66673  0.96238  0.60368  1.0000
  C   C2431     1.0  0.64153  0.90334  0.42272  1.0000
  Fe  Fe266     1.0  0.59030  0.91440  0.35593  1.0000
  S   S533      1.0  0.57570  0.94074  0.36453  1.0000
  S   S534      1.0  0.61615  0.89742  0.36533  1.0000
  H   H4331     1.0  0.96550  0.76741  0.45361  1.0000
  H   H4332     1.0  0.83301  0.98272  0.50040  1.0000
  H   H4333     1.0  0.63165  0.90951  0.61266  1.0000
  H   H4334     1.0  0.51338  0.87071  0.33459  1.0000
  Fe  Fe267     1.0  0.54969  0.93083  0.36996  1.0000
  S   S535      1.0  0.52913  0.93219  0.39683  1.0000
  C   C2432     1.0  0.49789  0.92119  0.34552  1.0000
  S   S536      1.0  0.56461  0.90334  0.36392  1.0000
  H   H4335     1.0  0.81154  0.94937  0.59162  1.0000
  Fe  Fe268     1.0  0.94762  0.83252  0.47649  1.0000
  S   S537      1.0  0.92405  0.83498  0.50136  1.0000
  H   H4336     1.0  0.65462  0.88464  0.36370  1.0000
  Fe  Fe269     1.0  0.92649  0.81753  0.45770  1.0000
  S   S538      1.0  0.90192  0.81849  0.48109  1.0000
  S   S539      1.0  0.92891  0.80707  0.43242  1.0000
  Fe  Fe270     1.0  0.90589  0.84617  0.48056  1.0000
  S   S540      1.0  0.87776  0.86526  0.48086  1.0000
  Fe  Fe271     1.0  0.92197  0.80727  0.49948  1.0000
  S   S541      1.0  0.91597  0.78451  0.52412  1.0000
  S   S542      1.0  0.92958  0.84581  0.45583  1.0000
  S   S543      1.0  0.94645  0.80421  0.47610  1.0000
  H   H4337     1.0  0.51933  0.88972  0.38720  1.0000
  C   C2433     1.0  0.96722  0.79761  0.54029  1.0000
  S   S544      1.0  0.62052  0.97536  0.54908  1.0000
  H   H4338     1.0  0.96895  0.76189  0.53726  1.0000
  H   H4339     1.0  0.61212  0.93537  0.40440  1.0000
  C   C2434     1.0  0.49768  0.88356  0.36645  1.0000
  H   H4340     1.0  0.99542  0.76621  0.37511  1.0000
  H   H4341     1.0  0.93377  0.75796  0.45901  1.0000
  C   C2435     1.0  0.49840  0.94164  0.38175  1.0000
  C   C2436     1.0  0.65784  0.88712  0.41996  1.0000
  S   S545      1.0  0.54450  0.94301  0.34164  1.0000
  Fe  Fe272     1.0  0.77815  0.94866  0.50046  1.0000
  S   S546      1.0  0.76216  0.97364  0.48479  1.0000
  S   S547      1.0  0.76750  0.92577  0.52185  1.0000
  Fe  Fe273     1.0  0.81540  0.95790  0.48053  1.0000
  H   H4342     1.0  0.83806  0.96518  0.52023  1.0000
  S   S548      1.0  0.84567  0.94898  0.48166  1.0000
  C   C2437     1.0  0.58636  0.93588  0.65062  1.0000
  Fe  Fe274     1.0  0.78435  0.96737  0.46021  1.0000
  H   H4343     1.0  0.77701  0.97629  0.54184  1.0000
  S   S549      1.0  0.79568  0.96383  0.50669  1.0000
  S   S550      1.0  0.79883  0.94090  0.47548  1.0000
  Fe  Fe275     1.0  0.67191  0.94537  0.39898  1.0000
  S   S551      1.0  0.64735  0.96730  0.40691  1.0000
  S   S552      1.0  0.67700  0.93254  0.37468  1.0000
  Fe  Fe276     1.0  0.68948  0.94535  0.42973  1.0000
  S   S553      1.0  0.66643  0.96728  0.44029  1.0000
  S   S554      1.0  0.71161  0.93121  0.44567  1.0000
  Fe  Fe277     1.0  0.64791  0.95198  0.43592  1.0000
  S   S555      1.0  0.62205  0.94594  0.45621  1.0000
  C   C2438     1.0  0.56181  0.90633  0.62419  1.0000
  H   H4344     1.0  0.57941  0.88824  0.43807  1.0000
  S   S556      1.0  0.67081  0.92879  0.42773  1.0000
  S   S557      1.0  0.69282  0.95998  0.40019  1.0000
  Fe  Fe278     1.0  0.62432  0.96868  0.57796  1.0000
  C   C2439     1.0  0.59083  0.91072  0.41868  1.0000
  Fe  Fe279     1.0  0.63749  0.94705  0.54787  1.0000
  H   H4345     1.0  0.67467  0.96346  0.62314  1.0000
  S   S558      1.0  0.62736  0.92691  0.53938  1.0000
  Fe  Fe280     1.0  0.66519  0.95064  0.56680  1.0000
  C   C2440     1.0  0.59514  0.96263  0.61912  1.0000
  C   C2441     1.0  0.50705  0.93076  0.39598  1.0000
  S   S559      1.0  0.63937  0.93971  0.57737  1.0000
  H   H4346     1.0  0.64273  0.96498  0.33958  1.0000
  C   C2442     1.0  0.62337  0.94149  0.47932  1.0000
  C   C2443     1.0  0.61169  0.93116  0.49261  1.0000
  C   C2444     1.0  0.61303  0.92671  0.51104  1.0000
  C   C2445     1.0  0.62559  0.93313  0.51636  1.0000
  C   C2446     1.0  0.63689  0.94395  0.50321  1.0000
  C   C2447     1.0  0.63597  0.94787  0.48464  1.0000
  H   H4347     1.0  0.60184  0.92632  0.48859  1.0000
  H   H4348     1.0  0.60426  0.91835  0.52119  1.0000
  H   H4349     1.0  0.64666  0.94889  0.50727  1.0000
  H   H4350     1.0  0.64500  0.95581  0.47450  1.0000
  C   C2448     1.0  0.74597  0.92970  0.53721  1.0000
  C   C2449     1.0  0.71144  0.93374  0.56203  1.0000
  C   C2450     1.0  0.72491  0.91759  0.56462  1.0000
  C   C2451     1.0  0.74193  0.91544  0.55208  1.0000
  H   H4351     1.0  0.72206  0.90658  0.57626  1.0000
  H   H4352     1.0  0.75208  0.90271  0.55401  1.0000
  C   C2452     1.0  0.75801  0.96063  0.43678  1.0000
  C   C2453     1.0  0.75643  0.94504  0.45074  1.0000
  C   C2454     1.0  0.74233  0.93593  0.45308  1.0000
  C   C2455     1.0  0.72928  0.94281  0.44205  1.0000
  C   C2456     1.0  0.73057  0.95866  0.42834  1.0000
  C   C2457     1.0  0.74516  0.96736  0.42547  1.0000
  H   H4353     1.0  0.76638  0.93971  0.45942  1.0000
  H   H4354     1.0  0.74165  0.92347  0.46338  1.0000
  H   H4355     1.0  0.72048  0.96406  0.41984  1.0000
  H   H4356     1.0  0.52603  0.88826  0.35450  1.0000
  H   H4357     1.0  0.94641  0.80070  0.52445  1.0000
  H   H4358     1.0  0.53638  0.92248  0.63808  1.0000
  C   C2458     1.0  0.73277  0.94620  0.53483  1.0000
  H   H4359     1.0  0.62220  0.94487  0.61479  1.0000
  H   H4360     1.0  0.57994  0.89344  0.39722  1.0000
  C   C2459     1.0  0.57349  0.97001  0.56616  1.0000
  C   C2460     1.0  0.59818  0.88635  0.47828  1.0000
  S   S560      1.0  0.58862  0.92471  0.32624  1.0000
  S   S561      1.0  0.89245  0.73896  0.45076  1.0000
  H   H4361     1.0  0.58176  0.96815  0.55229  1.0000
  H   H4362     1.0  0.96936  0.81172  0.53361  1.0000
  C   C2461     1.0  0.87183  0.88921  0.47808  1.0000
  C   C2462     1.0  0.88005  0.89855  0.48562  1.0000
  C   C2463     1.0  0.87240  0.91717  0.48603  1.0000
  C   C2464     1.0  0.85651  0.92639  0.47906  1.0000
  C   C2465     1.0  0.84893  0.91721  0.47079  1.0000
  C   C2466     1.0  0.85655  0.89871  0.47033  1.0000
  H   H4363     1.0  0.89176  0.89126  0.49176  1.0000
  H   H4364     1.0  0.56022  0.90172  0.41429  1.0000
  H   H4365     1.0  0.83710  0.92431  0.46485  1.0000
  H   H4366     1.0  0.85026  0.89158  0.46435  1.0000
  C   C2467     1.0  0.91702  0.78961  0.43604  1.0000
  C   C2468     1.0  0.90185  0.78761  0.45072  1.0000
  C   C2469     1.0  0.89372  0.77256  0.45446  1.0000
  H   H4367     1.0  0.72868  0.97178  0.38478  1.0000
  H   H4368     1.0  0.73585  0.95976  0.36622  1.0000
  C   C2470     1.0  0.92348  0.77688  0.42463  1.0000
  H   H4369     1.0  0.89629  0.79771  0.45913  1.0000
  H   H4370     1.0  0.88186  0.77125  0.46567  1.0000
  H   H4371     1.0  0.58609  0.94475  0.44066  1.0000
  H   H4372     1.0  0.93498  0.77852  0.41301  1.0000
  C   C2471     1.0  0.94790  0.76110  0.51071  1.0000
  C   C2472     1.0  0.93205  0.76339  0.52472  1.0000
  C   C2473     1.0  0.92928  0.74881  0.53972  1.0000
  H   H4373     1.0  0.67876  0.90506  0.56874  1.0000
  H   H4374     1.0  0.95003  0.77194  0.49898  1.0000
  H   H4375     1.0  0.91699  0.75043  0.55058  1.0000
  Fe  Fe281     1.0  0.64785  0.98321  0.54157  1.0000
  H   H4376     1.0  0.87843  0.92426  0.49232  1.0000
  H   H4377     1.0  0.92155  0.75123  0.42053  1.0000
  C   C2474     1.0  0.57319  0.89109  0.41207  1.0000
  H   H4378     1.0  0.96676  0.82241  0.41438  1.0000
  H   H4379     1.0  0.59422  0.86835  0.57785  1.0000
  H   H4380     1.0  0.96371  0.84791  0.50523  1.0000
  H   H4381     1.0  0.64556  0.91562  0.41280  1.0000
  H   H4382     1.0  0.96830  0.76723  0.56902  1.0000
  C   C2475     1.0  0.49888  0.90561  0.33620  1.0000
  H   H4383     1.0  0.60280  0.89534  0.48425  1.0000
  H   H4384     1.0  0.94452  0.78351  0.54554  1.0000
  C   C2476     1.0  0.71529  0.94808  0.54704  1.0000
  N   N139      1.0  0.60588  0.91261  0.42663  1.0000
  H   H4385     1.0  0.52466  0.86470  0.36050  1.0000
  H   H4386     1.0  0.63571  0.98026  0.61493  1.0000
  H   H4387     1.0  0.98048  0.85035  0.52742  1.0000
  C   C2477     1.0  0.63257  0.90831  0.36712  1.0000
  C   C2478     1.0  0.65082  0.89836  0.36623  1.0000
  C   C2479     1.0  0.66426  0.90605  0.36842  1.0000
  C   C2480     1.0  0.65945  0.92347  0.37238  1.0000
  C   C2481     1.0  0.64116  0.93356  0.37338  1.0000
  C   C2482     1.0  0.62775  0.92607  0.37047  1.0000
  H   H4388     1.0  0.59887  0.96986  0.40362  1.0000
  H   H4389     1.0  0.67840  0.89829  0.36743  1.0000
  H   H4390     1.0  0.63744  0.94718  0.37612  1.0000
  H   H4391     1.0  0.61367  0.93385  0.37117  1.0000
  H   H4392     1.0  0.74839  0.97609  0.36648  1.0000
  C   C2483     1.0  0.97967  0.79900  0.43296  1.0000
  C   C2484     1.0  0.96719  0.76454  0.43981  1.0000
  H   H4393     1.0  0.57744  0.91987  0.42345  1.0000
  H   H4394     1.0  0.50242  0.94867  0.33864  1.0000
  C   C2485     1.0  0.49798  0.87384  0.33869  1.0000
  N   N140      1.0  0.98317  0.78382  0.53195  1.0000
  H   H4395     1.0  0.67930  0.98254  0.46812  1.0000
  C   C2486     1.0  0.55625  0.97562  0.38565  1.0000
  H   H4396     1.0  0.79643  0.96510  0.56571  1.0000
  C   C2487     1.0  0.59716  0.97994  0.34045  1.0000
  C   C2488     1.0  0.83852  0.97953  0.51301  1.0000
  H   H4397     1.0  0.58283  0.88974  0.48084  1.0000
  H   H4398     1.0  0.60130  0.87674  0.55348  1.0000
  H   H4399     1.0  0.86943  0.78083  0.50398  1.0000
  S   S562      1.0  0.80276  0.98396  0.46285  1.0000
  Fe  Fe282     1.0  0.66809  0.98065  0.41058  1.0000
  H   H4400     1.0  0.61752  0.96661  0.64739  1.0000
  H   H4401     1.0  0.90806  0.74307  0.48706  1.0000
  H   H4402     1.0  0.87490  0.75240  0.49462  1.0000
  H   H4403     1.0  0.66815  0.97100  0.36205  1.0000
  H   H4404     1.0  0.51353  0.90117  0.32935  1.0000
  H   H4405     1.0  0.99459  0.78609  0.56340  1.0000
  H   H4406     1.0  0.91899  0.81077  0.54722  1.0000
  H   H4407     1.0  0.81977  0.96763  0.56057  1.0000
  H   H4408     1.0  0.99318  0.75461  0.53410  1.0000
  H   H4409     1.0  0.66637  0.95384  0.33835  1.0000
  C   C2489     1.0  0.97979  0.75813  0.56134  1.0000
  H   H4410     1.0  0.71210  0.95778  0.48145  1.0000
  H   H4411     1.0  0.93515  0.82522  0.54234  1.0000
  H   H4412     1.0  0.57346  0.89541  0.62842  1.0000
  S   S563      1.0  0.97747  0.83510  0.47073  1.0000
  H   H4413     1.0  0.96590  0.79777  0.44167  1.0000
  H   H4414     1.0  0.63513  0.94217  0.33447  1.0000
  C   C2490     1.0  0.52385  0.87628  0.38305  1.0000
  H   H4415     1.0  0.67052  0.89021  0.42144  1.0000
  C   C2491     1.0  0.98834  0.83527  0.48795  1.0000
  C   C2492     1.0  0.65764  0.98220  0.35606  1.0000
  H   H4416     1.0  0.97380  0.82812  0.43205  1.0000
  H   H4417     1.0  0.58554  0.91340  0.45221  1.0000
  H   H4418     1.0  0.53909  0.87180  0.38156  1.0000
  C   C2493     1.0  0.98657  0.78541  0.41980  1.0000
  H   H4419     1.0  0.88744  0.77214  0.51673  1.0000
  H   H4420     1.0  0.66041  0.88448  0.40597  1.0000
  H   H4421     1.0  0.97432  0.73821  0.32215  1.0000
  C   C2494     1.0  0.90115  0.75903  0.44402  1.0000
  C   C2495     1.0  0.73442  0.97307  0.36977  1.0000
  H   H4422     1.0  0.59673  0.96591  0.34678  1.0000
  H   H4423     1.0  0.64508  0.98569  0.47710  1.0000
  C   C2496     1.0  0.80567  0.97189  0.56887  1.0000
  C   C2497     1.0  0.88321  0.77153  0.50438  1.0000
  H   H4424     1.0  0.99369  0.80849  0.54880  1.0000
  C   C2498     1.0  0.94767  0.79717  0.53898  1.0000
  N   N141      1.0  0.98647  0.76552  0.42855  1.0000
  H   H4425     1.0  0.56694  0.96712  0.39337  1.0000
  S   S564      1.0  0.77600  0.97172  0.43350  1.0000
  H   H4426     1.0  0.97062  0.78418  0.50994  1.0000
  N   N142      1.0  0.69962  0.90639  0.50475  1.0000
  C   C2499     1.0  0.68185  0.90338  0.50264  1.0000
  C   C2500     1.0  0.70152  0.89839  0.52438  1.0000
  C   C2501     1.0  0.69893  0.92664  0.49973  1.0000
  C   C2502     1.0  0.71624  0.89704  0.49229  1.0000
  C   C2503     1.0  0.71732  0.87670  0.49290  1.0000
  C   C2504     1.0  0.67834  0.90924  0.48284  1.0000
  C   C2505     1.0  0.71562  0.93247  0.50224  1.0000
  C   C2506     1.0  0.68764  0.90849  0.53912  1.0000
  C   C2507     1.0  0.68836  0.89721  0.55852  1.0000
  C   C2508     1.0  0.73496  0.86881  0.48002  1.0000
  C   C2509     1.0  0.66201  0.90229  0.48184  1.0000
  C   C2510     1.0  0.71368  0.95315  0.49594  1.0000
  H   H4427     1.0  0.66967  0.91121  0.51106  1.0000
  H   H4428     1.0  0.68093  0.88881  0.50818  1.0000
  H   H4429     1.0  0.69997  0.88395  0.52836  1.0000
  H   H4430     1.0  0.71569  0.89772  0.52586  1.0000
  H   H4431     1.0  0.68600  0.93417  0.50757  1.0000
  H   H4432     1.0  0.69823  0.93208  0.48503  1.0000
  H   H4433     1.0  0.71722  0.90460  0.47777  1.0000
  H   H4434     1.0  0.72925  0.89741  0.49566  1.0000
  H   H4435     1.0  0.70544  0.87515  0.48843  1.0000
  H   H4436     1.0  0.71742  0.86833  0.50697  1.0000
  H   H4437     1.0  0.67502  0.92440  0.47857  1.0000
  H   H4438     1.0  0.69045  0.90385  0.47263  1.0000
  H   H4439     1.0  0.72882  0.92604  0.49400  1.0000
  H   H4440     1.0  0.71678  0.92856  0.51679  1.0000
  H   H4441     1.0  0.69117  0.92163  0.53813  1.0000
  H   H4442     1.0  0.67316  0.91137  0.53763  1.0000
  C   C2511     1.0  0.60403  0.93334  0.63915  1.0000
  H   H4443     1.0  0.68406  0.88417  0.56066  1.0000
  H   H4444     1.0  0.70255  0.89422  0.56094  1.0000
  H   H4445     1.0  0.73527  0.87659  0.46563  1.0000
  H   H4446     1.0  0.74742  0.86941  0.48420  1.0000
  H   H4447     1.0  0.73541  0.85430  0.48052  1.0000
  H   H4448     1.0  0.66558  0.88714  0.48389  1.0000
  H   H4449     1.0  0.64963  0.90641  0.49248  1.0000
  H   H4450     1.0  0.65853  0.90818  0.46814  1.0000
  H   H4451     1.0  0.60088  0.90145  0.62415  1.0000
  H   H4452     1.0  0.91023  0.74328  0.50931  1.0000
  C   C2512     1.0  0.59529  0.96619  0.41889  1.0000
  C   C2513     1.0  0.57757  0.96530  0.63073  1.0000
  N   N143      1.0  0.81877  0.88253  0.51885  1.0000
  C   C2514     1.0  0.82999  0.89432  0.52159  1.0000
  C   C2515     1.0  0.83113  0.86444  0.51512  1.0000
  C   C2516     1.0  0.81098  0.89246  0.50203  1.0000
  C   C2517     1.0  0.80266  0.87963  0.53485  1.0000
  C   C2518     1.0  0.80697  0.87224  0.55420  1.0000
  C   C2519     1.0  0.81944  0.91390  0.52413  1.0000
  C   C2520     1.0  0.80069  0.88185  0.49526  1.0000
  C   C2521     1.0  0.84721  0.85590  0.52543  1.0000
  C   C2522     1.0  0.85612  0.83624  0.52314  1.0000
  C   C2523     1.0  0.78910  0.87303  0.56907  1.0000
  C   C2524     1.0  0.83104  0.92317  0.53035  1.0000
  C   C2525     1.0  0.79323  0.89359  0.47845  1.0000
  H   H4453     1.0  0.84183  0.89582  0.50959  1.0000
  H   H4454     1.0  0.83655  0.88768  0.53348  1.0000
  H   H4455     1.0  0.82272  0.85406  0.51783  1.0000
  H   H4456     1.0  0.83813  0.86594  0.50026  1.0000
  H   H4457     1.0  0.82217  0.89660  0.49032  1.0000
  H   H4458     1.0  0.80102  0.90540  0.50445  1.0000
  H   H4459     1.0  0.79188  0.89252  0.53517  1.0000
  H   H4460     1.0  0.79560  0.86979  0.53303  1.0000
  H   H4461     1.0  0.81524  0.88030  0.55709  1.0000
  H   H4462     1.0  0.81437  0.85769  0.55565  1.0000
  H   H4463     1.0  0.81635  0.92252  0.51088  1.0000
  H   H4464     1.0  0.80628  0.91378  0.53453  1.0000
  H   H4465     1.0  0.78868  0.87808  0.50602  1.0000
  H   H4466     1.0  0.81009  0.86921  0.49128  1.0000
  H   H4467     1.0  0.85814  0.86396  0.51970  1.0000
  H   H4468     1.0  0.84268  0.85575  0.54028  1.0000
  H   H4469     1.0  0.84611  0.82726  0.52980  1.0000
  H   H4470     1.0  0.86098  0.83569  0.50835  1.0000
  H   H4471     1.0  0.86829  0.83091  0.52961  1.0000
  H   H4472     1.0  0.78133  0.88743  0.56876  1.0000
  H   H4473     1.0  0.78016  0.86503  0.56706  1.0000
  H   H4474     1.0  0.79246  0.86715  0.58282  1.0000
  H   H4475     1.0  0.82343  0.93737  0.53135  1.0000
  H   H4476     1.0  0.83380  0.91562  0.54404  1.0000
  H   H4477     1.0  0.84440  0.92378  0.52029  1.0000
  H   H4478     1.0  0.78288  0.90597  0.48203  1.0000
  H   H4479     1.0  0.80467  0.89789  0.46711  1.0000
  H   H4480     1.0  0.78637  0.88562  0.47351  1.0000
  N   N144      1.0  0.58293  0.91904  0.59294  1.0000
  C   C2526     1.0  0.58067  0.90279  0.58729  1.0000
  C   C2527     1.0  0.56856  0.92289  0.61014  1.0000
  C   C2528     1.0  0.57968  0.93549  0.57753  1.0000
  C   C2529     1.0  0.60217  0.91649  0.59567  1.0000
  C   C2530     1.0  0.60876  0.89960  0.61017  1.0000
  C   C2531     1.0  0.59437  0.89746  0.56966  1.0000
  C   C2532     1.0  0.58028  0.95404  0.58098  1.0000
  Fe  Fe283     1.0  0.57203  0.95059  0.33545  1.0000
  H   H4481     1.0  0.59432  0.91514  0.40338  1.0000
  C   C2533     1.0  0.62922  0.89724  0.60979  1.0000
  C   C2534     1.0  0.59152  0.88008  0.56627  1.0000
  C   C2535     1.0  0.96038  0.74681  0.44232  1.0000
  H   H4482     1.0  0.56637  0.90536  0.58514  1.0000
  H   H4483     1.0  0.58205  0.89035  0.59836  1.0000
  H   H4484     1.0  0.57361  0.93020  0.61768  1.0000
  H   H4485     1.0  0.55569  0.93240  0.60649  1.0000
  H   H4486     1.0  0.56608  0.93699  0.57420  1.0000
  H   H4487     1.0  0.59033  0.93375  0.56473  1.0000
  H   H4488     1.0  0.61246  0.91624  0.58238  1.0000
  H   H4489     1.0  0.60328  0.92847  0.60013  1.0000
  H   H4490     1.0  0.60716  0.88679  0.60777  1.0000
  C   C2536     1.0  0.98803  0.84404  0.51587  1.0000
  H   H4491     1.0  0.59227  0.90836  0.55732  1.0000
  H   H4492     1.0  0.60895  0.89480  0.57081  1.0000
  H   H4493     1.0  0.59475  0.95421  0.58048  1.0000
  H   H4494     1.0  0.57167  0.95661  0.59448  1.0000
  C   C2537     1.0  0.91586  0.76140  0.42886  1.0000
  H   H4495     1.0  0.55388  0.90041  0.61815  1.0000
  H   H4496     1.0  0.80584  0.97749  0.53470  1.0000
  S   S565      1.0  0.55087  0.89968  0.32192  1.0000
  H   H4497     1.0  0.60243  0.87884  0.45250  1.0000
  Fe  Fe284     1.0  0.56147  0.91612  0.33499  1.0000
  H   H4498     1.0  0.59894  0.88073  0.42039  1.0000
  H   H4499     1.0  0.57718  0.88206  0.56462  1.0000
  C   C2538     1.0  0.51893  0.87807  0.36474  1.0000
  C   C2539     1.0  0.58640  0.89155  0.42337  1.0000
  H   H4500     1.0  0.60701  0.96672  0.42427  1.0000
  C   C2540     1.0  0.80648  0.96447  0.58910  1.0000
  C   C2541     1.0  0.57316  0.95193  0.64648  1.0000
  H   H4501     1.0  0.57925  0.94767  0.41941  1.0000
  H   H4502     1.0  0.56728  0.97765  0.62749  1.0000
  H   H4503     1.0  0.55607  0.91808  0.64822  1.0000
  C   C2542     1.0  0.96130  0.74475  0.51198  1.0000
  H   H4504     1.0  0.63925  0.90555  0.43683  1.0000
  H   H4505     1.0  0.95531  0.74733  0.43004  1.0000
  H   H4506     1.0  0.98235  0.80203  0.50548  1.0000
  H   H4507     1.0  0.67523  0.98456  0.32929  1.0000
  H   H4508     1.0  0.72630  0.95689  0.49667  1.0000
  C   C2543     1.0  0.97851  0.84265  0.50335  1.0000
  H   H4509     1.0  0.93281  0.80803  0.56352  1.0000
  H   H4510     1.0  0.99293  0.74035  0.41882  1.0000
  H   H4511     1.0  0.73595  0.95734  0.52351  1.0000
  H   H4512     1.0  0.95680  0.77556  0.43340  1.0000
  C   C2544     1.0  0.99127  0.75526  0.41325  1.0000
  H   H4513     1.0  0.60275  0.87194  0.48530  1.0000
  C   C2545     1.0  0.93281  0.81118  0.54866  1.0000
  H   H4514     1.0  0.70155  0.96028  0.50497  1.0000
  H   H4515     1.0  0.87337  0.74726  0.51878  1.0000
  H   H4516     1.0  0.99102  0.82103  0.41266  1.0000
  H   H4517     1.0  0.61937  0.93437  0.42454  1.0000
  C   C2546     1.0  0.60076  0.90872  0.44740  1.0000
  H   H4518     1.0  0.50764  0.91682  0.35487  1.0000
  H   H4519     1.0  0.74397  0.97642  0.55049  1.0000
  C   C2547     1.0  0.67302  0.97056  0.60899  1.0000
  C   C2548     1.0  0.98313  0.78728  0.51180  1.0000
  C   C2549     1.0  0.62384  0.90034  0.41921  1.0000
  C   C2550     1.0  0.60803  0.93221  0.41965  1.0000
  H   H4520     1.0  0.62593  0.90213  0.40412  1.0000
  H   H4521     1.0  0.89333  0.77646  0.49194  1.0000
  H   H4522     1.0  0.56957  0.87748  0.41609  1.0000
  H   H4523     1.0  0.70497  0.96069  0.54512  1.0000
  H   H4524     1.0  0.97943  0.75887  0.40635  1.0000
  C   C2551     1.0  0.60663  0.88863  0.45768  1.0000
  H   H4525     1.0  0.96662  0.79610  0.55507  1.0000
  H   H4526     1.0  0.65507  0.87464  0.43035  1.0000
  H   H4527     1.0  0.85320  0.98074  0.50878  1.0000
  H   H4528     1.0  0.63793  0.89499  0.59618  1.0000
  C   C2552     1.0  0.98116  0.76439  0.54041  1.0000
  H   H4529     1.0  0.62189  0.88462  0.45604  1.0000
  S   S566      1.0  0.69024  0.93550  0.57815  1.0000
  C   C2553     1.0  0.54885  0.91217  0.64148  1.0000
  H   H4530     1.0  0.51709  0.93445  0.32301  1.0000
  C   C2554     1.0  0.59085  0.94720  0.42548  1.0000
  H   H4531     1.0  0.62348  0.88570  0.42455  1.0000
  H   H4532     1.0  0.60709  0.91688  0.45277  1.0000
  H   H4533     1.0  0.98610  0.78043  0.47757  1.0000
  H   H4534     1.0  0.54502  0.96818  0.38852  1.0000
  H   H4535     1.0  0.56244  0.97776  0.37067  1.0000
  S   S567      1.0  0.66469  0.95568  0.53704  1.0000
  C   C2555     1.0  0.66075  0.98317  0.33548  1.0000
  C   C2556     1.0  0.88218  0.75195  0.50530  1.0000
  H   H4536     1.0  0.96278  0.73840  0.56580  1.0000
  H   H4537     1.0  0.63353  0.88522  0.62050  1.0000
  H   H4538     1.0  0.67200  0.96759  0.48965  1.0000
  C   C2557     1.0  0.90185  0.73926  0.50203  1.0000
  H   H4539     1.0  0.94995  0.74223  0.47178  1.0000
  C   C2558     1.0  0.65698  0.96601  0.33173  1.0000
  C   C2559     1.0  0.50288  0.93801  0.33139  1.0000
  H   H4540     1.0  0.57504  0.98295  0.56845  1.0000
  H   H4541     1.0  0.61431  0.92103  0.64250  1.0000
  C   C2560     1.0  0.97778  0.81883  0.42227  1.0000
  H   H4542     1.0  0.51718  0.86606  0.39397  1.0000
  C   C2561     1.0  0.94454  0.74511  0.45920  1.0000
  H   H4543     1.0  0.97773  0.79036  0.40944  1.0000
  H   H4544     1.0  0.61279  0.98216  0.35855  1.0000
  H   H4545     1.0  0.64360  0.98000  0.36337  1.0000
  H   H4546     1.0  0.58309  0.97642  0.42411  1.0000
  S   S568      1.0  0.65027  0.97881  0.57062  1.0000
  S   S569      1.0  0.60018  0.97924  0.59923  1.0000
  H   H4547     1.0  0.55865  0.97117  0.56676  1.0000
  H   H4548     1.0  0.99302  0.74428  0.33504  1.0000
  H   H4549     1.0  0.81611  0.97048  0.59281  1.0000
  H   H4550     1.0  0.65217  0.91188  0.32621  1.0000
  C   C2562     1.0  0.97625  0.73875  0.56818  1.0000
  H   H4551     1.0  0.50401  0.97543  0.42091  1.0000
  H   H4552     1.0  0.50532  0.95124  0.37102  1.0000
  H   H4553     1.0  0.76735  0.97899  0.56527  1.0000
  H   H4554     1.0  0.62799  0.91722  0.32617  1.0000
  H   H4555     1.0  0.68695  0.97124  0.60006  1.0000
  C   C2563     1.0  0.50207  0.98078  0.40660  1.0000
  C   C2564     1.0  0.76796  0.98583  0.55061  1.0000
  H   H4556     1.0  0.98940  0.79658  0.44200  1.0000
  C   C2565     1.0  0.67163  0.98212  0.48262  1.0000
  H   H4557     1.0  0.50437  0.91050  0.42120  1.0000
  H   H4558     1.0  0.97368  0.74324  0.50118  1.0000
  H   H4559     1.0  0.70864  0.98360  0.36106  1.0000
  H   H4560     1.0  0.99303  0.75776  0.56462  1.0000
  C   C2566     1.0  0.63973  0.94109  0.31991  1.0000
  H   H4561     1.0  0.50825  0.96983  0.39862  1.0000
  C   C2567     1.0  0.49779  0.91881  0.41011  1.0000
  H   H4562     1.0  0.79250  0.96766  0.59805  1.0000
  H   H4563     1.0  0.64267  0.98216  0.63421  1.0000
  H   H4564     1.0  0.54432  0.90011  0.65139  1.0000
  H   H4565     1.0  0.74632  0.97944  0.41469  1.0000
  H   H4566     1.0  0.99684  0.76689  0.45113  1.0000
  C   C2568     1.0  0.52945  0.93522  0.77230  1.0000
  C   C2569     1.0  0.53797  0.92956  0.78727  1.0000
  C   C2570     1.0  0.49949  0.94156  0.79327  1.0000
  H   H4567     1.0  0.50357  0.94075  0.88561  1.0000
  H   H4568     1.0  0.51155  0.86237  0.87659  1.0000
  H   H4569     1.0  0.51318  0.91115  0.87589  1.0000
  H   H4570     1.0  0.55543  0.97203  0.75943  1.0000
  H   H4571     1.0  0.58393  0.96992  0.73793  1.0000
  H   H4572     1.0  0.50210  0.90890  0.90000  1.0000
  C   C2571     1.0  0.51000  0.88374  0.85280  1.0000
  H   H4573     1.0  0.49770  0.83456  0.93604  1.0000
  H   H4574     1.0  0.54957  0.74560  0.91871  1.0000
  Fe  Fe285     1.0  0.55289  0.92821  0.68725  1.0000
  C   C2572     1.0  0.59183  0.96306  0.71102  1.0000
  C   C2573     1.0  0.54750  0.98625  0.75568  1.0000
  C   C2574     1.0  0.50803  0.76070  0.95728  1.0000
  C   C2575     1.0  0.50742  0.88585  0.75800  1.0000
  C   C2576     1.0  0.52180  0.87271  0.74685  1.0000
  H   H4575     1.0  0.50356  0.94585  0.76366  1.0000
  H   H4576     1.0  0.52041  0.85837  0.75295  1.0000
  H   H4577     1.0  0.60942  0.96772  0.67123  1.0000
  H   H4578     1.0  0.52835  0.98306  0.78227  1.0000
  S   S570      1.0  0.54154  0.91043  0.71370  1.0000
  S   S571      1.0  0.49879  0.79544  0.93589  1.0000
  C   C2577     1.0  0.57706  0.97118  0.72661  1.0000
  H   H4579     1.0  0.53565  0.86383  0.84572  1.0000
  H   H4580     1.0  0.53593  0.87373  0.74675  1.0000
  C   C2578     1.0  0.51916  0.74284  0.96011  1.0000
  H   H4581     1.0  0.55287  0.92508  0.78506  1.0000
  H   H4582     1.0  0.60144  0.97215  0.70334  1.0000
  C   C2579     1.0  0.52722  0.76754  0.92685  1.0000
  Fe  Fe286     1.0  0.51998  0.95999  0.69226  1.0000
  C   C2580     1.0  0.60736  0.97460  0.65718  1.0000
  C   C2581     1.0  0.49807  0.84925  0.93099  1.0000
  H   H4583     1.0  0.50839  0.73790  0.92603  1.0000
  C   C2582     1.0  0.53808  0.74975  0.92955  1.0000
  H   H4584     1.0  0.56768  0.96138  0.73212  1.0000
  C   C2583     1.0  0.53005  0.87883  0.84236  1.0000
  S   S572      1.0  0.58087  0.91879  0.66990  1.0000
  H   H4585     1.0  0.61329  0.93870  0.70714  1.0000
  Fe  Fe287     1.0  0.53413  0.93560  0.72541  1.0000
  H   H4586     1.0  0.53417  0.92503  0.81660  1.0000
  C   C2584     1.0  0.53409  0.73730  0.94612  1.0000
  H   H4587     1.0  0.50027  0.84783  0.90328  1.0000
  C   C2585     1.0  0.49979  0.91404  0.88582  1.0000
  H   H4588     1.0  0.51972  0.88104  0.87737  1.0000
  S   S573      1.0  0.52647  0.93734  0.67729  1.0000
  C   C2586     1.0  0.50818  0.93563  0.80821  1.0000
  C   C2587     1.0  0.51014  0.94117  0.77525  1.0000
  C   C2588     1.0  0.51214  0.77307  0.94061  1.0000
  H   H4589     1.0  0.50992  0.89975  0.75147  1.0000
  H   H4590     1.0  0.51004  0.88180  0.77207  1.0000
  S   S574      1.0  0.50584  0.94510  0.71923  1.0000
  H   H4591     1.0  0.55953  0.95402  0.65536  1.0000
  S   S575      1.0  0.54762  0.95252  0.69950  1.0000
  H   H4592     1.0  0.61097  0.94577  0.72817  1.0000
  H   H4593     1.0  0.50183  0.87668  0.84834  1.0000
  H   H4594     1.0  0.53045  0.77704  0.91395  1.0000
  H   H4595     1.0  0.53068  0.88318  0.82734  1.0000
  H   H4596     1.0  0.53879  0.88607  0.84581  1.0000
  H   H4597     1.0  0.49964  0.73778  0.90730  1.0000
  C   C2589     1.0  0.60322  0.94444  0.71863  1.0000
  H   H4598     1.0  0.59405  0.93472  0.72604  1.0000
  C   C2590     1.0  0.50828  0.87755  0.87380  1.0000
  Fe  Fe288     1.0  0.51448  0.92168  0.70482  1.0000
  H   H4599     1.0  0.52017  0.87632  0.73240  1.0000
  H   H4600     1.0  0.58494  0.96083  0.70120  1.0000
  H   H4601     1.0  0.53940  0.98312  0.73229  1.0000
  S   S576      1.0  0.54388  0.93541  0.75028  1.0000
  H   H4602     1.0  0.51256  0.85052  0.92883  1.0000
  C   C2591     1.0  0.52739  0.92957  0.80513  1.0000
  H   H4603     1.0  0.59317  0.97447  0.65656  1.0000
  H   H4604     1.0  0.55459  0.98487  0.70187  1.0000
  H   H4605     1.0  0.50430  0.87923  0.90772  1.0000
  H   H4606     1.0  0.50521  0.89867  0.84865  1.0000
  H   H4607     1.0  0.50969  0.98005  0.71786  1.0000
  H   H4608     1.0  0.52122  0.97758  0.76455  1.0000
  C   C2592     1.0  0.52787  0.98714  0.76749  1.0000
