data_image0
_chemical_formula_structural       HC2SCSH2SHFeHCH4CHFe2S4HCHFeS2FeS2FeSFeS3FeSHC6H4C6H6CSHCHCHCH2C6H4CH2CH2SH2CH3CH2SFeCSH2SHSHC3FeCH2CHCSH2NC5SHSHCH7CH3CHCHSH4FeSHFeCHCFeNC10HCH10SH3CH2CH10C4H7CH4SH2NC10H19CHCH2CFeH3C2H2CHCHCH4CHFeNHCH3C2H3FeCSH4CHSFeSHCH2CFeC4H4CH3SH4CFeH2NH2CH5C2H4C2H2CH3CHCNH2CHCH3CH5C4H8FeHCH5CHFeHC2FeS3H5C2H2CH3FeH2SCH2NCHCH2SH2CHCFeCHFeC4H3CHSH5CH6CHNC2HC3HC4H3C2H3CH4C2HSH2C2H2SH2S2H4CHSHCH3SH2CH3FeSC2H3CHC2H2FeHCSH5NHCHC2H5CH3NH2CHSHC3HCH2NHFeSCHCH4C2H2CHCHSHCHFeCHCH2CH3CSH4C2HSC2HFeCHC2HNC2H3CFeCH3CHFeSHCH2C2FeHCH3C2HC2H2CHCHCH4CHSHC2HSHCH4CHCH5C2H5SH2C3HCH2CH6Fe2SH2SFeS3H2C2FeSCFeS2FeSFeSHS2HCHCHSH5FeS2FeS2FeSFeS3C6H4SC2H2FeH3FeH4C6H4C6HCH2CH2FeHCHS2CH2SH2CH3SC6H4CH4CH2CH2CH3CSC2H6NC5HC2H6CH13C2HCH2SCHS2HCH5CSH3CHCHCNCSH3SHC2H7SHCH2FeC2HC2NH2CH2C2HCH12CNC12H28C2H2C2H2C3H3C3HCSHCH2FeCSH4CH2FeC5H2SH2NCH4CH8CHCNC9H2CH11CH8C2H7C2H8C2HC2HCFeCNC7H18NC8SCH5CH14CHCH3C2H3C6HCH2CSCH4C3HC2H8C3H2FeHSFeHFeH2S2H2CH2SHFeH3CH6FeS2HFeH3FeHCHCH2FeSHSFeS2CHCHSH3NS2H2NH2C6H4CH4CH2SHSH2C2HCH3SCHC3H4C4FeCH4CHSC2H2CH2SC2HC2H3CHC2HCH2CH4C2HCHSHCHCSHCHCH6FeHSHCHC3H3CSCH3SHCH4CSCSCH7CHCNC6HC5H17CH8NC2HC2HC2H7CH2CHSH6CHCFeSH2C2H2NCFeH2CH2CH2C2HCH2CH5SH3SH7CHCHCSC4HCHCH2SH2CHCHC2HCHCH2C2HC3H3CH3C3HC2H3C2HFeCHCNHCH4C5HC3HCH2CHCNC3H2CHCFeSHCSHC2H2SC2HNH2CFeSH2SFeS2CH2SFeHCNSHCS2HC3H2FeCSH3SHCHFeH5CH3SCH3FeCH2C2HCH5SC6H10CH8C2H7C2NH3C4H5CHC2HCHC2HCSH7SCHFeH3S2H2CH2C2H5SH2CHCS2C4H3CH5SH5FeH2C3H3CH2CHC3SH2C2H2CH3CHNC2H3C2HC3HC4HSH3C2HSHCH6C2H2SH4C2HC2HNCH4CHC2H2CSHCH2C2H2C3H2CNH2C3H2CNC9H21SHCH4FeH2C3HCH2SC2FeSH4SH3C2H2CHC2FeCHCHC2HCHCHFeHCNCH2C2H8CH3CH3S2C2HC2H3SCHC2HFeCHC3H4C2H5CFe2H3C2HCHCHC2H2C3HCHCHCH2CHFeH2C2SHC2SHC4HC3H14CHNSCSH4CH5SHC4H4CH3CH2CH2CH4CH3C2HC2HSCH4CH6CHCSHCHCH2C2H2C2H2SH5NCH2SHCHCH2CH4CFeHCHCSH3CHCSH2SC2HC2HSC2H2CH4CHCH3CH3CN2HCHSC2HCHCH2CH2CH2FeH2S2FeCH2CHCHCH8C2HCH4SHC2H10C4H7FeCSH2CHNH3CHCHSH5CH4C2H2CHFeSHSHSHCSHCFeS2FeS2FeSFeS3FeS2FeS2FeSFeS3CH2C6H4CHC2H4C3H5C6H5SC6H4C6H4C4HCSCH4SCH5C2H2CH5C2HCFeH3CHCHC3H3SH2CH5CH4NC3HCH2CH3FeHCH3CH2FeH2C2HSCH2CHFeH2SH4C3H4CHCH4CH2CHC2H3CHCH3FeCH2CHCHC2HSCH7SH3CNH2CH7CFeHCHC2H2FeC2HNHCH2CHCFeHC2H4CHCSH2C2HC2H2CH5CH5C2H2SH2C2H2C2SC3HC4H4CHCH4CSH2CH2CHCH2CH2C4HCHNH3NCH8C2H6C3H4C2NHFeC2H2NH4SCHCHC2H6NHCH4CH4C2H6C3H5CHSCHCH2CH2CHC2H6CHSHCH2CH4FeH6SHCH6CFeCHCH2FeH2CHSCHNC2HC2H2FeH3C3H2C2SHSHCHFeSCSCNHCH2CHSHC5H7FeH2C2HSH6CSCH2CH2C6H3FeH3SHC2HSH8CH3C2H3FeH2FeH2C2HC2HCHCFeH7C2HCH3FeH3SHFeS2H2FeS2FeS2FeCFeS3FeHSFeS2FeCHS2FeSCH3SHFeCH2CHSCFeS2FeSFeS2HFeSFeS2FeS3C6H4C5HCH7SH2C6H4SHCHSHC3HSCH3C6H4C6H2C2NH2C2SH4C8H5CH9C4H5CHNC7HNC3H16CH2FeH9CH5CH4C2NC11H25NCHC2H4C2HC2HCH2CH6CSC2H6CHCH2C4SHSC3HC2HC2HC2HSH3CH6C2HCH2CHCNC3HC2H2CH6CH12SCH3S2CHCH3CH3CFeH2CH2SH3CH3Fe2HCH2CHCH2CH3CHFeH3CHSH4NC2NHCHCHCH2CH3CH6CHCHCH5CHCHNH2CH6C3H2CHC2HCHC2HCH2C4HC2NH4CHCH7CHFeH3CH2CH3CSH2FeC2H3C2H2CH7CHNCHC2HSCH2C2HCHCH2CH3SFeSFeHSFeSHCSCFeSFeS2H3CH4NCH3C2H5C10H4FeH2CHCHCHC4H2CH4CH2CFeH2CH2NC8H2CH17C3SH9C3HCH2C2H3SCH3CH2CH3CH6FeCSHC2HCH3C5HSH2CH2CH2NH3SC2HCHSHFeH3CHSH3SH2C2H4CHSHFeSFeH2CHSC4HC2SH2CHC3SFeH2CH8CHFeHCHSCHC2HCH2CH5SC2HFeCH3NC2H3CFeCNH2CHCHC2H6CH5SH2C2FeS2HSFeSHFeS4CSCHCSH2SFeHSCHCFeSH2SHFeS2FeS2FeSFeS2HCH5CHC4H3C6H4NC2H5C4SHFeH3CH3CHC8H4C6H3C3H18C2H3CH2CSCSCHSHCNH2CHC2HCNC2H4CH4CH9C3SHC2HSH4CH2CHFeH3C2H2C2HCH7C3HCHCHCH2CH3CH3C4H2CSCH3CH4CH4CH2CH6CH3CH8CHC2HFeCH2SH3CH2CS3CHCH2SC2NHFeH6CFeCHCHCSH3CHCH2CHC2H5CH3CH2CH4C2HCH2C4H6CH2C2HCH6NH6NCHCH2C2H2NHCH5C2H2CHCH2CHC2HSHCNHC2H3CH3C3H2FeH5C2H4CHC2HCH4C4HFeHC2H3CH6CHSHFeCFeHS3H2FeHSCH2CH4C2HC3HNCH7FeHC2HSH2C2HC3H2CHC2SCH2C6H4S2CS2H5SH4CH4CH2CH2CHC5H2C2HCHC2H3CHFeHCHCH2NH3CH3CH3CHCHFeHNFeHCH3SCH2CH3CH6CSH6CFeSC3HC2H2FeNC12H26CSHSH8CHCHFeH2CH3C2H3CHC2H2FeS2H4S2H3FeS2FeS2FeS2FeSFeS3H2FeH3CHSHFeS2HSH3CH2CH3FeS2CFeSHS2HCH4NHC2HCH3NCFeNHSHCHC6H4C6H4C6H6CH2CHC2HCH4SCH2C7H5C4H4CH2CHCH2NC12H27CHCSH4C2H2SHCSH3FeH3SH2CH3C2H2CH4CHCHFeC2HC3H2C2H2CH3FeHCH2SHCH2CH4NH4C3H2C2H2CH2SHNC9H19C4H8CHNC4NC7H9CH9CH2C2H4NC8H17CHCH4FeC5H2CHSFeC2SC2H2C3H4C3H2CH9CH3CH4SFe2S2Fe2S3HCH2FeS2FeSFeS3CH8SCSH4C2HSC3H3C6H2C2HC2SHC2H4C6H4CH2CSHSC3H2CH4NHFeH13CH3CH6NH2C3H2CH5CNC5HC2HCHCH18SHCH4CH3C2H3CH2CH7CHCHFeHC2HCHCHC2H2C5H3CHN2H2CHC2HC2HCH5C3H5C2H2CHCH2C3HCSC2H3CH7CH4C3SC2H2FeH8C2HCHC2H5CHCHCH3CSHCH2CHCSCHCHC2H6CH2C2HCH6CH2CH4CSH2FeSCHSCFeSFeS3FeS2FeS2FeSFeS3FeS2FeSFeSHS2HCHSH5C6H4C3H2C6H4C6H4CHCFeHCHC6H4C2HSHCH5FeHC2HS2H2CH4CH2CSH2CHCHCH3CHCH2NC6HC2HCHCHCH5CH2CHSH3SH2NHC11H10C2H6CH5CHCHNC4HCH3CH11CH2C2NCHNC8HC2H27CHCH9CH3CH3C2FeH4C2H6CHCH3CH4C2H4CH3FeH2CH2C2H2CH4C2HCNH2CH4CH4C2HCH2CH5CHCH5N2C2FeH2SH4CH4CH4CHCH2CHCSH2CFeC2HSCH6FeCHC3H3SHSCH3SCHCHNHCHC2H3C2NCHCHCH2C2HSH6SH3CHCH2C2H2S2H3CSH2SHFeSFeH2Fe2S2FeS2FeSFeS3CH2C6H9CFeH4C5H3CHC3SCHCHC6H6C2HC2HCH4CH2SCHCFeH2CFeSCH2CH2CH3C2HC2NC2HC3SH2C2H5C2H3CH3CFe2C3H6CH2CHCHCH2CH3CSHCHSHCH2CHCH5CH3NH4C2HC3HFeSCFeCHCSH2CNC12H16CH11CSC2HC2S2NC6H2C3H5NH9SH3CH9NC8FeC2H14FeH2CH8CH4NCHCH2CHC2HSH5FeH2CFeCHCH3CH3SHC2HNSH2SH3C2HC3HFeH5CSCH3SHCH2SC2H2C2HC2S2CH2FeHC2HNH6FeSH7C2HCH2CH2CH2CH3C2H2CSHNHCHCH3C4H3C2HCHFeCSHCH2SCHNHCH5CH5C2H3CFeH5S2H4CHCSHSCH6C4H2C4H4CH3C3H5NCH6CH2C3HNC2H2CHC3H3CH2CHC2H13CHC3H2C2HNH2CH4CH7SHC2H5CHCH2CHCH2SHNH2CHC2H4SHCH3FeS2FeS2FeSFeS3FeS2FeS2Fe2S3H2CH5NCH3CH4CH9CH3C2H2CHC2HC2SNCHC2H3SHCHCHCHCHCNH6CH4C2SH7CHC2H3CH2C6H4C6H4C6H5CH3C3H6C2H2CH4CH3C4HCHC3H9C2H7CHCH3CHCH4C2HCH4CSH2CH3C2HNC12H38CH2C3H4CH3C2HCHCH5CHCH3C4H4NC5HC3HCHSH12CH5NCSC2NHC2HCH2CHCH2CH2CHCHCH2C3H2CH6FeCFeHSH4S2FeS2FeSHFeSFeS3HSC4HCH5C2H3CHC3H6C6H6CH2CHCH4C2HC4H3NC12H28FeCFeCSH2C3H2CH2SCH2CHCH2CH3C4H4CHNC7HCH7NH6CH2CH6C2H4CH3CSCH3CH4C3HSH2C2HC5HCHCFeCH6CH3C2H2NHC2H2CH2CHCH3FeC3H2S2NH8C2HNHSH6SCH4CH2C2H9C3SHSCHCHC2HFeCH3CHC2HCH10FeS2FeS2FeSFeS3H4C2H6FeSFeS2FeSFeS5FeSFeSH2CHC2HCHCH2C6H3CH2CHCHCHFeH3C6H4C3HC2H2CHC6H7C3H2SHC4H4SC2FeCH2CHCHCHCH6CHNSHFeHCHSH2CHCH3CH3C2SCHNHFeNC12H29C2HNH5FeC2HSH3CH4CNH2C3HCH5CH2C3H2C3SH3C3SH9CHCNH4CHCH2CHCH3NC2H3CH2C2H2CH3CH3C2HCH3FeC2H3C2H3CHCH2CH5CH3CSH2CH2C2HCHSHCH5C2HCHSH2CH3CHCHCH2CSHCH3CH3CH8CSHSH4CH2FeS2FeSFeSFeS4H7CHC2SCH4CHSCHCHCH3CHNSC7H2C4NH4C5H7CH2C2H7NH2CH5CHC3HCH4CHNC3H7CH2CHC3HCHSHC2HC4NCH5CH3C3H3C2H2CFeH2CSH3C2SHSHCH2C2HFeHNCH3CH2CHCHCHCH6CFeHSH3C2SH7C2NHCHCHCFeH4CHCH2CH2CHCH6CH2CH7CH5CH4
_chemical_formula_sum              "H4608 C2592 S576 Fe288 N144"
_cell_length_a       72.0923
_cell_length_b       72.7145
_cell_length_c       73.521
_cell_angle_alpha    77.9794
_cell_angle_beta     77.8459
_cell_angle_gamma    77.7205

_space_group_name_H-M_alt    "P 1"
_space_group_IT_number       1

loop_
  _space_group_symop_operation_xyz
  'x, y, z'

loop_
  _atom_site_type_symbol
  _atom_site_label
  _atom_site_symmetry_multiplicity
  _atom_site_fract_x
  _atom_site_fract_y
  _atom_site_fract_z
  _atom_site_occupancy
  H   H1        1.0  0.46972  0.09744  0.29384  1.0000
  C   C1        1.0  0.47441  0.14368  0.29222  1.0000
  C   C2        1.0  0.48282  0.12141  0.24261  1.0000
  S   S1        1.0  0.48596  0.00245  0.28006  1.0000
  C   C3        1.0  0.47581  0.10927  0.29546  1.0000
  S   S2        1.0  0.46310  0.16727  0.28474  1.0000
  H   H2        1.0  0.46211  0.23020  0.03488  1.0000
  H   H3        1.0  0.47515  0.22785  0.01145  1.0000
  S   S3        1.0  0.45713  0.21884  0.29560  1.0000
  H   H4        1.0  0.46726  0.21562  0.22983  1.0000
  Fe  Fe1       1.0  0.47631  0.19151  0.28875  1.0000
  H   H5        1.0  0.47120  0.13417  0.24172  1.0000
  C   C4        1.0  0.46609  0.12820  0.29115  1.0000
  H   H6        1.0  0.47786  0.11063  0.25477  1.0000
  H   H7        1.0  0.48539  0.11540  0.22941  1.0000
  H   H8        1.0  0.45240  0.13088  0.28637  1.0000
  H   H9        1.0  0.45857  0.22938  0.19843  1.0000
  C   C5        1.0  0.46001  0.23074  0.22682  1.0000
  H   H10       1.0  0.44426  0.23144  0.23177  1.0000
  Fe  Fe2       1.0  0.49089  0.01722  0.30256  1.0000
  Fe  Fe3       1.0  0.36788  0.06194  0.57206  1.0000
  S   S4        1.0  0.34511  0.05305  0.59634  1.0000
  S   S5        1.0  0.35833  0.07662  0.54445  1.0000
  S   S6        1.0  0.37981  0.07816  0.58849  1.0000
  S   S7        1.0  0.38906  0.03461  0.57730  1.0000
  H   H11       1.0  0.48647  0.18208  0.36645  1.0000
  C   C6        1.0  0.42412  0.22841  0.34497  1.0000
  H   H12       1.0  0.32935  0.05486  0.51230  1.0000
  Fe  Fe4       1.0  0.37273  0.03938  0.45560  1.0000
  S   S8        1.0  0.34215  0.04042  0.47012  1.0000
  S   S9        1.0  0.39505  0.03598  0.47368  1.0000
  Fe  Fe5       1.0  0.36201  0.04490  0.41680  1.0000
  S   S10       1.0  0.33050  0.04612  0.42853  1.0000
  S   S11       1.0  0.37236  0.05043  0.38540  1.0000
  Fe  Fe6       1.0  0.33562  0.06503  0.44702  1.0000
  S   S12       1.0  0.31667  0.09340  0.45152  1.0000
  Fe  Fe7       1.0  0.34055  0.02132  0.45034  1.0000
  S   S13       1.0  0.32850  0.99430  0.46337  1.0000
  S   S14       1.0  0.36649  0.06516  0.43384  1.0000
  S   S15       1.0  0.37181  0.01868  0.43719  1.0000
  Fe  Fe8       1.0  0.47977  0.02642  0.34207  1.0000
  S   S16       1.0  0.46207  0.02229  0.37115  1.0000
  H   H13       1.0  0.37696  0.14370  0.35296  1.0000
  C   C7        1.0  0.32904  0.11242  0.44958  1.0000
  C   C8        1.0  0.34857  0.10877  0.45089  1.0000
  C   C9        1.0  0.35860  0.12388  0.44828  1.0000
  C   C10       1.0  0.34909  0.14284  0.44504  1.0000
  C   C11       1.0  0.32941  0.14668  0.44420  1.0000
  C   C12       1.0  0.31941  0.13144  0.44638  1.0000
  H   H14       1.0  0.35592  0.09431  0.45427  1.0000
  H   H15       1.0  0.37379  0.12083  0.44899  1.0000
  H   H16       1.0  0.46048  0.13525  0.60464  1.0000
  H   H17       1.0  0.30424  0.13439  0.44552  1.0000
  C   C13       1.0  0.39750  0.04427  0.38082  1.0000
  C   C14       1.0  0.40740  0.04349  0.36235  1.0000
  C   C15       1.0  0.42746  0.03724  0.35901  1.0000
  C   C16       1.0  0.43748  0.03183  0.37419  1.0000
  C   C17       1.0  0.42760  0.03316  0.39251  1.0000
  C   C18       1.0  0.40766  0.03940  0.39583  1.0000
  H   H18       1.0  0.39952  0.04726  0.35071  1.0000
  H   H19       1.0  0.43508  0.03616  0.34483  1.0000
  H   H20       1.0  0.43543  0.02923  0.40419  1.0000
  H   H21       1.0  0.40017  0.04023  0.41009  1.0000
  H   H22       1.0  0.34492  0.02129  0.50811  1.0000
  H   H23       1.0  0.41119  0.14042  0.49754  1.0000
  C   C19       1.0  0.44978  0.05031  0.62464  1.0000
  S   S17       1.0  0.37913  0.22394  0.58183  1.0000
  H   H24       1.0  0.29409  0.03431  0.52408  1.0000
  C   C20       1.0  0.35869  0.20656  0.50063  1.0000
  H   H25       1.0  0.32827  0.99658  0.50377  1.0000
  C   C21       1.0  0.46304  0.14631  0.36187  1.0000
  H   H26       1.0  0.30706  0.06380  0.48842  1.0000
  C   C22       1.0  0.48083  0.09859  0.61533  1.0000
  H   H27       1.0  0.37453  0.10103  0.36455  1.0000
  H   H28       1.0  0.40407  0.14141  0.41325  1.0000
  C   C23       1.0  0.36889  0.06532  0.52484  1.0000
  C   C24       1.0  0.38522  0.05096  0.52536  1.0000
  C   C25       1.0  0.39361  0.04243  0.50940  1.0000
  C   C26       1.0  0.38533  0.04776  0.49307  1.0000
  C   C27       1.0  0.36911  0.06224  0.49248  1.0000
  C   C28       1.0  0.36111  0.07121  0.50821  1.0000
  H   H29       1.0  0.39160  0.04659  0.53793  1.0000
  H   H30       1.0  0.40626  0.03135  0.50989  1.0000
  H   H31       1.0  0.36285  0.06674  0.47980  1.0000
  H   H32       1.0  0.34866  0.08253  0.50758  1.0000
  C   C29       1.0  0.41746  0.11787  0.61237  1.0000
  H   H33       1.0  0.34842  0.02828  0.52854  1.0000
  H   H34       1.0  0.31289  0.03068  0.50451  1.0000
  C   C30       1.0  0.34109  0.10718  0.63727  1.0000
  H   H35       1.0  0.37689  0.99493  0.57597  1.0000
  H   H36       1.0  0.28656  0.08387  0.61001  1.0000
  S   S18       1.0  0.36115  0.21561  0.62752  1.0000
  H   H37       1.0  0.38606  0.98491  0.52386  1.0000
  H   H38       1.0  0.39748  0.98328  0.42391  1.0000
  C   C31       1.0  0.43861  0.10887  0.61481  1.0000
  H   H39       1.0  0.45682  0.98661  0.35900  1.0000
  H   H40       1.0  0.40721  0.11337  0.62530  1.0000
  H   H41       1.0  0.40279  0.13233  0.32819  1.0000
  C   C32       1.0  0.43669  0.00010  0.63652  1.0000
  H   H42       1.0  0.42066  0.00768  0.43087  1.0000
  H   H43       1.0  0.43771  0.14592  0.61537  1.0000
  S   S19       1.0  0.37945  0.18000  0.60373  1.0000
  Fe  Fe9       1.0  0.36712  0.02681  0.60286  1.0000
  C   C33       1.0  0.46510  0.16680  0.36280  1.0000
  S   S20       1.0  0.49197  0.18741  0.31289  1.0000
  H   H44       1.0  0.46231  0.04355  0.61587  1.0000
  H   H45       1.0  0.31047  0.08198  0.61465  1.0000
  S   S21       1.0  0.33811  0.20786  0.59648  1.0000
  H   H46       1.0  0.46895  0.13637  0.37384  1.0000
  S   S22       1.0  0.42991  0.04938  0.59714  1.0000
  H   H47       1.0  0.41517  0.13369  0.60954  1.0000
  C   C34       1.0  0.31672  0.01572  0.58630  1.0000
  C   C35       1.0  0.44155  0.21052  0.63677  1.0000
  C   C36       1.0  0.43638  0.15411  0.34330  1.0000
  Fe  Fe10      1.0  0.38862  0.20612  0.60835  1.0000
  C   C37       1.0  0.40858  0.98569  0.41097  1.0000
  H   H48       1.0  0.34316  0.14252  0.38057  1.0000
  H   H49       1.0  0.43991  0.21279  0.38687  1.0000
  C   C38       1.0  0.35267  0.13621  0.39127  1.0000
  H   H50       1.0  0.32168  0.03769  0.55068  1.0000
  C   C39       1.0  0.31838  0.09144  0.39782  1.0000
  S   S23       1.0  0.37896  0.03998  0.62197  1.0000
  H   H51       1.0  0.41327  0.19937  0.32419  1.0000
  H   H52       1.0  0.39743  0.09254  0.54842  1.0000
  N   N1        1.0  0.32128  0.01857  0.53176  1.0000
  C   C40       1.0  0.31422  0.00014  0.53296  1.0000
  C   C41       1.0  0.31665  0.02413  0.55112  1.0000
  C   C42       1.0  0.37452  0.22835  0.51003  1.0000
  C   C43       1.0  0.34255  0.01743  0.52377  1.0000
  C   C44       1.0  0.35574  0.99777  0.52808  1.0000
  S   S24       1.0  0.34055  0.08345  0.63553  1.0000
  H   H53       1.0  0.45061  0.11357  0.37424  1.0000
  S   S25       1.0  0.41831  0.20151  0.61611  1.0000
  H   H54       1.0  0.34137  0.01028  0.56487  1.0000
  C   C45       1.0  0.37702  0.99934  0.52201  1.0000
  H   H55       1.0  0.38129  0.12347  0.32815  1.0000
  H   H56       1.0  0.42103  0.11660  0.58240  1.0000
  H   H57       1.0  0.29902  0.00112  0.54056  1.0000
  H   H58       1.0  0.47123  0.11519  0.34225  1.0000
  H   H59       1.0  0.30934  0.22237  0.57051  1.0000
  H   H60       1.0  0.30071  0.02693  0.55583  1.0000
  H   H61       1.0  0.45106  0.99147  0.63228  1.0000
  C   C46       1.0  0.46854  0.16357  0.61654  1.0000
  H   H62       1.0  0.41029  0.17436  0.35219  1.0000
  H   H63       1.0  0.46391  0.08681  0.33405  1.0000
  H   H64       1.0  0.48023  0.15835  0.60534  1.0000
  C   C47       1.0  0.41006  0.22234  0.38394  1.0000
  H   H65       1.0  0.42943  0.23101  0.32995  1.0000
  C   C48       1.0  0.39282  0.12262  0.33638  1.0000
  H   H66       1.0  0.35892  0.02067  0.36988  1.0000
  S   S26       1.0  0.37455  0.20896  0.43264  1.0000
  H   H67       1.0  0.38069  0.22079  0.53846  1.0000
  H   H68       1.0  0.39185  0.00712  0.37384  1.0000
  H   H69       1.0  0.31909  0.03022  0.58667  1.0000
  H   H70       1.0  0.45253  0.19995  0.63055  1.0000
  Fe  Fe11      1.0  0.35536  0.22729  0.45263  1.0000
  S   S27       1.0  0.46229  0.21685  0.34952  1.0000
  H   H71       1.0  0.42319  0.99311  0.37601  1.0000
  Fe  Fe12      1.0  0.31980  0.22938  0.43621  1.0000
  C   C49       1.0  0.35241  0.17106  0.39194  1.0000
  H   H72       1.0  0.42312  0.08558  0.54181  1.0000
  C   C50       1.0  0.38037  0.00153  0.38483  1.0000
  Fe  Fe13      1.0  0.39897  0.05016  0.59591  1.0000
  N   N2        1.0  0.38878  0.12567  0.49558  1.0000
  C   C51       1.0  0.39541  0.14347  0.49740  1.0000
  C   C52       1.0  0.38936  0.11171  0.51381  1.0000
  C   C53       1.0  0.40191  0.11739  0.47922  1.0000
  C   C54       1.0  0.36848  0.13012  0.49162  1.0000
  C   C55       1.0  0.35289  0.14002  0.50620  1.0000
  C   C56       1.0  0.39162  0.16105  0.48167  1.0000
  C   C57       1.0  0.39996  0.09698  0.47747  1.0000
  C   C58       1.0  0.40943  0.10524  0.51987  1.0000
  C   C59       1.0  0.40916  0.08882  0.53665  1.0000
  C   C60       1.0  0.33453  0.14875  0.49798  1.0000
  H   H73       1.0  0.40479  0.22020  0.39898  1.0000
  C   C61       1.0  0.41268  0.09082  0.45958  1.0000
  H   H74       1.0  0.47473  0.17118  0.62480  1.0000
  H   H75       1.0  0.38878  0.14796  0.51126  1.0000
  H   H76       1.0  0.37954  0.11796  0.52566  1.0000
  H   H77       1.0  0.38352  0.09891  0.51328  1.0000
  H   H78       1.0  0.41730  0.11710  0.47966  1.0000
  H   H79       1.0  0.39936  0.12681  0.46563  1.0000
  H   H80       1.0  0.36803  0.13904  0.47747  1.0000
  H   H81       1.0  0.36350  0.11688  0.49087  1.0000
  H   H82       1.0  0.35767  0.15164  0.51061  1.0000
  H   H83       1.0  0.34921  0.12936  0.51899  1.0000
  S   S28       1.0  0.33565  0.21043  0.41511  1.0000
  H   H84       1.0  0.37595  0.16676  0.48268  1.0000
  H   H85       1.0  0.38494  0.09628  0.47678  1.0000
  H   H86       1.0  0.40442  0.08631  0.48965  1.0000
  C   C62       1.0  0.45519  0.09255  0.34668  1.0000
  H   H87       1.0  0.41370  0.11728  0.52418  1.0000
  H   H88       1.0  0.43614  0.18645  0.31449  1.0000
  C   C63       1.0  0.36638  0.20031  0.53226  1.0000
  H   H89       1.0  0.40701  0.07578  0.53237  1.0000
  H   H90       1.0  0.32373  0.15623  0.50838  1.0000
  H   H91       1.0  0.33764  0.15941  0.48502  1.0000
  H   H92       1.0  0.32834  0.13745  0.49443  1.0000
  H   H93       1.0  0.44015  0.09027  0.34811  1.0000
  H   H94       1.0  0.37622  0.14149  0.57110  1.0000
  H   H95       1.0  0.38107  0.00803  0.53082  1.0000
  H   H96       1.0  0.40853  0.10073  0.44683  1.0000
  H   H97       1.0  0.42810  0.09044  0.45987  1.0000
  H   H98       1.0  0.41083  0.07624  0.45872  1.0000
  C   C64       1.0  0.38062  0.11064  0.39778  1.0000
  C   C65       1.0  0.38416  0.12853  0.35560  1.0000
  C   C66       1.0  0.39423  0.09177  0.39375  1.0000
  C   C67       1.0  0.41004  0.08643  0.40584  1.0000
  H   H99       1.0  0.37558  0.10940  0.41334  1.0000
  H   H100      1.0  0.39004  0.12152  0.39418  1.0000
  H   H101      1.0  0.39619  0.12743  0.36312  1.0000
  H   H102      1.0  0.30101  0.01547  0.58943  1.0000
  H   H103      1.0  0.38631  0.07976  0.39688  1.0000
  H   H104      1.0  0.40138  0.09315  0.37872  1.0000
  H   H105      1.0  0.37076  0.14736  0.40535  1.0000
  C   C68       1.0  0.46020  0.14691  0.62962  1.0000
  H   H106      1.0  0.41431  0.14602  0.37782  1.0000
  H   H107      1.0  0.41861  0.09799  0.40324  1.0000
  H   H108      1.0  0.40365  0.08364  0.42106  1.0000
  H   H109      1.0  0.41991  0.07323  0.40224  1.0000
  S   S29       1.0  0.36269  0.16101  0.44209  1.0000
  H   H110      1.0  0.41514  0.16162  0.41294  1.0000
  H   H111      1.0  0.43902  0.09323  0.61934  1.0000
  N   N3        1.0  0.31734  0.13776  0.58548  1.0000
  C   C69       1.0  0.31816  0.11650  0.59201  1.0000
  C   C70       1.0  0.33745  0.14238  0.57868  1.0000
  C   C71       1.0  0.30810  0.14737  0.60237  1.0000
  C   C72       1.0  0.30506  0.14557  0.57037  1.0000
  C   C73       1.0  0.31057  0.13601  0.55259  1.0000
  C   C74       1.0  0.29848  0.10992  0.60012  1.0000
  C   C75       1.0  0.30953  0.16879  0.60018  1.0000
  C   C76       1.0  0.29513  0.14289  0.54008  1.0000
  C   C77       1.0  0.42199  0.18488  0.32358  1.0000
  C   C78       1.0  0.29635  0.17781  0.61638  1.0000
  H   H112      1.0  0.32732  0.11133  0.60312  1.0000
  H   H113      1.0  0.32542  0.10829  0.58057  1.0000
  H   H114      1.0  0.33705  0.15645  0.56904  1.0000
  H   H115      1.0  0.34362  0.14408  0.59075  1.0000
  H   H116      1.0  0.31461  0.13979  0.61498  1.0000
  H   H117      1.0  0.29252  0.14639  0.60633  1.0000
  H   H118      1.0  0.28961  0.14512  0.57633  1.0000
  H   H119      1.0  0.30549  0.16099  0.56516  1.0000
  H   H120      1.0  0.31216  0.12026  0.55610  1.0000
  H   H121      1.0  0.32423  0.13998  0.54414  1.0000
  H   H122      1.0  0.29200  0.11504  0.61367  1.0000
  H   H123      1.0  0.28826  0.11527  0.59008  1.0000
  H   H124      1.0  0.30546  0.17725  0.58680  1.0000
  H   H125      1.0  0.32449  0.17023  0.60045  1.0000
  H   H126      1.0  0.34815  0.12261  0.55781  1.0000
  H   H127      1.0  0.29942  0.13588  0.52740  1.0000
  H   H128      1.0  0.28110  0.13909  0.54782  1.0000
  H   H129      1.0  0.29335  0.15862  0.53538  1.0000
  H   H130      1.0  0.47544  0.09186  0.60571  1.0000
  C   C79       1.0  0.42321  0.21469  0.63172  1.0000
  H   H131      1.0  0.36411  0.99677  0.36474  1.0000
  C   C80       1.0  0.41583  0.06398  0.62990  1.0000
  H   H132      1.0  0.35280  0.20234  0.49015  1.0000
  H   H133      1.0  0.28098  0.17832  0.61578  1.0000
  C   C81       1.0  0.31481  0.99414  0.51374  1.0000
  Fe  Fe14      1.0  0.36700  0.19876  0.57935  1.0000
  H   H134      1.0  0.45010  0.12110  0.33142  1.0000
  H   H135      1.0  0.28713  0.06940  0.50706  1.0000
  H   H136      1.0  0.29951  0.16954  0.63023  1.0000
  C   C82       1.0  0.30294  0.06841  0.50241  1.0000
  C   C83       1.0  0.39712  0.22991  0.37138  1.0000
  H   H137      1.0  0.32342  0.00547  0.59754  1.0000
  H   H138      1.0  0.35325  0.99167  0.54323  1.0000
  C   C84       1.0  0.35374  0.11824  0.62482  1.0000
  H   H139      1.0  0.30886  0.06010  0.53045  1.0000
  C   C85       1.0  0.32572  0.00996  0.56708  1.0000
  H   H140      1.0  0.45466  0.17275  0.37441  1.0000
  C   C86       1.0  0.35265  0.13750  0.62647  1.0000
  H   H141      1.0  0.34036  0.17089  0.40419  1.0000
  H   H142      1.0  0.37693  0.15227  0.38015  1.0000
  H   H143      1.0  0.29873  0.19262  0.61534  1.0000
  H   H144      1.0  0.32242  0.98804  0.54158  1.0000
  C   C87       1.0  0.45114  0.13614  0.61866  1.0000
  H   H145      1.0  0.41398  0.09560  0.59812  1.0000
  Fe  Fe15      1.0  0.47415  0.21553  0.31864  1.0000
  N   N4        1.0  0.44308  0.14333  0.36144  1.0000
  H   H146      1.0  0.38328  0.12348  0.55637  1.0000
  C   C88       1.0  0.31377  0.05454  0.51697  1.0000
  H   H147      1.0  0.48826  0.15806  0.37943  1.0000
  H   H148      1.0  0.31591  0.08883  0.41348  1.0000
  H   H149      1.0  0.30412  0.09539  0.39324  1.0000
  C   C89       1.0  0.37159  0.13519  0.56062  1.0000
  C   C90       1.0  0.42997  0.21818  0.37704  1.0000
  H   H150      1.0  0.33118  0.10991  0.37433  1.0000
  H   H151      1.0  0.44887  0.15462  0.33139  1.0000
  H   H152      1.0  0.32124  0.12064  0.39505  1.0000
  Fe  Fe16      1.0  0.35141  0.19056  0.62103  1.0000
  C   C91       1.0  0.41202  0.11143  0.59597  1.0000
  S   S30       1.0  0.47199  0.04276  0.31432  1.0000
  H   H153      1.0  0.30656  0.08285  0.50071  1.0000
  H   H154      1.0  0.30685  0.08219  0.59095  1.0000
  H   H155      1.0  0.39667  0.11739  0.59505  1.0000
  H   H156      1.0  0.33909  0.99631  0.42294  1.0000
  C   C92       1.0  0.36216  0.00530  0.37612  1.0000
  H   H157      1.0  0.41731  0.17284  0.48066  1.0000
  S   S31       1.0  0.35821  0.99803  0.61477  1.0000
  Fe  Fe17      1.0  0.35915  0.22772  0.41022  1.0000
  S   S32       1.0  0.36609  0.18553  0.55445  1.0000
  H   H158      1.0  0.39677  0.18111  0.49766  1.0000
  C   C93       1.0  0.36648  0.22331  0.49638  1.0000
  H   H159      1.0  0.32614  0.07807  0.39264  1.0000
  H   H160      1.0  0.35649  0.12097  0.35969  1.0000
  C   C94       1.0  0.42869  0.14900  0.37841  1.0000
  Fe  Fe18      1.0  0.35891  0.06701  0.61325  1.0000
  C   C95       1.0  0.30987  0.03394  0.51909  1.0000
  C   C96       1.0  0.35869  0.19507  0.51851  1.0000
  C   C97       1.0  0.36921  0.11608  0.36685  1.0000
  C   C98       1.0  0.32988  0.10759  0.38987  1.0000
  H   H161      1.0  0.35258  0.18218  0.52174  1.0000
  H   H162      1.0  0.37711  0.00984  0.39652  1.0000
  H   H163      1.0  0.38845  0.98609  0.47110  1.0000
  H   H164      1.0  0.36510  0.98601  0.48574  1.0000
  C   C99       1.0  0.40139  0.17718  0.48336  1.0000
  H   H165      1.0  0.40108  0.10779  0.33820  1.0000
  H   H166      1.0  0.38005  0.00595  0.50689  1.0000
  H   H167      1.0  0.39732  0.19002  0.47282  1.0000
  S   S33       1.0  0.33202  0.20960  0.46046  1.0000
  H   H168      1.0  0.36228  0.14602  0.61679  1.0000
  H   H169      1.0  0.43889  0.98880  0.40525  1.0000
  H   H170      1.0  0.46305  0.17621  0.34917  1.0000
  H   H171      1.0  0.30637  0.22678  0.54619  1.0000
  C   C100      1.0  0.45586  0.11382  0.34442  1.0000
  Fe  Fe19      1.0  0.35018  0.19257  0.43867  1.0000
  H   H172      1.0  0.40553  0.00119  0.40531  1.0000
  H   H173      1.0  0.42070  0.10025  0.50830  1.0000
  N   N5        1.0  0.44694  0.11664  0.62831  1.0000
  H   H174      1.0  0.36945  0.14627  0.54797  1.0000
  H   H175      1.0  0.44761  0.11054  0.60047  1.0000
  C   C101      1.0  0.42484  0.17477  0.34345  1.0000
  H   H176      1.0  0.36418  0.11201  0.61391  1.0000
  H   H177      1.0  0.43592  0.01436  0.62741  1.0000
  H   H178      1.0  0.33012  0.21827  0.55236  1.0000
  H   H179      1.0  0.43203  0.18369  0.34927  1.0000
  H   H180      1.0  0.39716  0.15732  0.46740  1.0000
  C   C102      1.0  0.44405  0.12220  0.36206  1.0000
  C   C103      1.0  0.43710  0.22135  0.35755  1.0000
  H   H181      1.0  0.32194  0.16131  0.44176  1.0000
  H   H182      1.0  0.34963  0.00195  0.38706  1.0000
  H   H183      1.0  0.43584  0.12370  0.40008  1.0000
  H   H184      1.0  0.41823  0.98536  0.44663  1.0000
  C   C104      1.0  0.35298  0.12739  0.56910  1.0000
  C   C105      1.0  0.43195  0.05505  0.61860  1.0000
  H   H185      1.0  0.42928  0.11890  0.36427  1.0000
  H   H186      1.0  0.42657  0.14642  0.33909  1.0000
  C   C106      1.0  0.41770  0.14584  0.41392  1.0000
  H   H187      1.0  0.42637  0.16461  0.37829  1.0000
  H   H188      1.0  0.44720  0.14352  0.39994  1.0000
  H   H189      1.0  0.32365  0.99513  0.56800  1.0000
  C   C107      1.0  0.34995  0.10256  0.39612  1.0000
  H   H190      1.0  0.48587  0.11185  0.60734  1.0000
  C   C108      1.0  0.36477  0.15123  0.39205  1.0000
  N   N6        1.0  0.36347  0.11667  0.38772  1.0000
  H   H191      1.0  0.36141  0.18131  0.39304  1.0000
  H   H192      1.0  0.42182  0.13917  0.42786  1.0000
  C   C109      1.0  0.30081  0.08816  0.60413  1.0000
  H   H193      1.0  0.35652  0.11468  0.57989  1.0000
  C   C110      1.0  0.37434  0.21695  0.52802  1.0000
  H   H194      1.0  0.34281  0.13496  0.40523  1.0000
  H   H195      1.0  0.34713  0.10080  0.41184  1.0000
  H   H196      1.0  0.34646  0.17606  0.37865  1.0000
  C   C111      1.0  0.43380  0.13946  0.39809  1.0000
  H   H197      1.0  0.35659  0.08818  0.39272  1.0000
  H   H198      1.0  0.47317  0.14256  0.34897  1.0000
  H   H199      1.0  0.41443  0.17673  0.31715  1.0000
  H   H200      1.0  0.30250  0.00270  0.50708  1.0000
  H   H201      1.0  0.46132  0.08433  0.35924  1.0000
  C   C112      1.0  0.42714  0.99231  0.43390  1.0000
  C   C113      1.0  0.46501  0.10287  0.63254  1.0000
  C   C114      1.0  0.48530  0.16723  0.36589  1.0000
  C   C115      1.0  0.31602  0.22766  0.55582  1.0000
  H   H202      1.0  0.40208  0.06806  0.62516  1.0000
  H   H203      1.0  0.31032  0.22736  0.38163  1.0000
  H   H204      1.0  0.35295  0.98738  0.52034  1.0000
  H   H205      1.0  0.42547  0.99296  0.63412  1.0000
  H   H206      1.0  0.45710  0.17385  0.60986  1.0000
  H   H207      1.0  0.44180  0.99124  0.43700  1.0000
  H   H208      1.0  0.47205  0.13769  0.63639  1.0000
  H   H209      1.0  0.39519  0.23248  0.63539  1.0000
  Fe  Fe20      1.0  0.35077  0.23190  0.60083  1.0000
  H   H210      1.0  0.39153  0.21469  0.68203  1.0000
  C   C116      1.0  0.48670  0.13862  0.72465  1.0000
  H   H211      1.0  0.43122  0.15544  0.69464  1.0000
  H   H212      1.0  0.46028  0.17099  0.68388  1.0000
  H   H213      1.0  0.45475  0.17708  0.66030  1.0000
  H   H214      1.0  0.35885  0.05692  0.69544  1.0000
  H   H215      1.0  0.31609  0.14045  0.66403  1.0000
  C   C117      1.0  0.39497  0.03400  0.68682  1.0000
  H   H216      1.0  0.41541  0.03209  0.71558  1.0000
  Fe  Fe21      1.0  0.48960  0.02196  0.70598  1.0000
  H   H217      1.0  0.39646  0.17639  0.75668  1.0000
  C   C118      1.0  0.43974  0.11683  0.66481  1.0000
  C   C119      1.0  0.38706  0.16864  0.75201  1.0000
  Fe  Fe22      1.0  0.46542  0.19088  0.71846  1.0000
  S   S34       1.0  0.45232  0.16409  0.72462  1.0000
  S   S35       1.0  0.48423  0.02864  0.67623  1.0000
  S   S36       1.0  0.47749  0.20225  0.68857  1.0000
  H   H218      1.0  0.37321  0.16915  0.76210  1.0000
  H   H219      1.0  0.31791  0.10690  0.66110  1.0000
  H   H220      1.0  0.43568  0.00077  0.69241  1.0000
  H   H221      1.0  0.41272  0.18304  0.72335  1.0000
  H   H222      1.0  0.40309  0.01110  0.65762  1.0000
  C   C120      1.0  0.33893  0.14564  0.64057  1.0000
  C   C121      1.0  0.42308  0.11865  0.68143  1.0000
  H   H223      1.0  0.45998  0.21646  0.65371  1.0000
  H   H224      1.0  0.41292  0.13226  0.67869  1.0000
  C   C122      1.0  0.41752  0.06785  0.64733  1.0000
  H   H225      1.0  0.40929  0.00858  0.72292  1.0000
  H   H226      1.0  0.42880  0.11825  0.69442  1.0000
  H   H227      1.0  0.38860  0.03432  0.70195  1.0000
  Fe  Fe23      1.0  0.46610  0.05575  0.68413  1.0000
  H   H228      1.0  0.47376  0.99416  0.69009  1.0000
  H   H229      1.0  0.45077  0.01609  0.71538  1.0000
  S   S37       1.0  0.46959  0.04826  0.71466  1.0000
  C   C123      1.0  0.43830  0.00993  0.72412  1.0000
  H   H230      1.0  0.37757  0.17548  0.64617  1.0000
  H   H231      1.0  0.39417  0.15346  0.75231  1.0000
  N   N7        1.0  0.40812  0.01510  0.68452  1.0000
  C   C124      1.0  0.37787  0.03944  0.67579  1.0000
  H   H232      1.0  0.40884  0.16174  0.71824  1.0000
  C   C125      1.0  0.40928  0.22891  0.63940  1.0000
  H   H233      1.0  0.43362  0.02558  0.68575  1.0000
  H   H234      1.0  0.46040  0.15245  0.67120  1.0000
  S   S38       1.0  0.43675  0.06645  0.67602  1.0000
  H   H235      1.0  0.38823  0.15561  0.66189  1.0000
  H   H236      1.0  0.43021  0.19162  0.69419  1.0000
  C   C126      1.0  0.32666  0.13436  0.65308  1.0000
  H   H237      1.0  0.38856  0.00217  0.70792  1.0000
  C   C127      1.0  0.39089  0.20733  0.69698  1.0000
  Fe  Fe24      1.0  0.45805  0.22982  0.69357  1.0000
  C   C128      1.0  0.46757  0.14206  0.72189  1.0000
  H   H238      1.0  0.46519  0.05012  0.64675  1.0000
  Fe  Fe25      1.0  0.46861  0.22703  0.73266  1.0000
  C   C129      1.0  0.44581  0.21990  0.64991  1.0000
  C   C130      1.0  0.47168  0.10943  0.71618  1.0000
  C   C131      1.0  0.46008  0.12738  0.71778  1.0000
  C   C132      1.0  0.39681  0.99932  0.69389  1.0000
  H   H239      1.0  0.37344  0.16999  0.72842  1.0000
  H   H240      1.0  0.46577  0.09819  0.71304  1.0000
  H   H241      1.0  0.44519  0.12979  0.71608  1.0000
  C   C133      1.0  0.36501  0.05816  0.68015  1.0000
  H   H242      1.0  0.44811  0.12816  0.66370  1.0000
  S   S39       1.0  0.44483  0.21801  0.72300  1.0000
  H   H243      1.0  0.35292  0.06165  0.67211  1.0000
  H   H244      1.0  0.40505  0.07487  0.65595  1.0000
  H   H245      1.0  0.36431  0.16853  0.66937  1.0000
  H   H246      1.0  0.40340  0.04586  0.68241  1.0000
  H   H247      1.0  0.37329  0.07008  0.67590  1.0000
  C   C134      1.0  0.42528  0.01422  0.69361  1.0000
  H   H248      1.0  0.42445  0.10538  0.64939  1.0000
  H   H249      1.0  0.41638  0.02934  0.65587  1.0000
  H   H250      1.0  0.43530  0.01441  0.73815  1.0000
  H   H251      1.0  0.38319  0.04151  0.66035  1.0000
  H   H252      1.0  0.37524  0.20819  0.70282  1.0000
  H   H253      1.0  0.41515  0.10656  0.68391  1.0000
  C   C135      1.0  0.41451  0.01481  0.66358  1.0000
  H   H254      1.0  0.36874  0.02826  0.67950  1.0000
  N   N8        1.0  0.40092  0.18682  0.69774  1.0000
  C   C136      1.0  0.38945  0.17637  0.68969  1.0000
  C   C137      1.0  0.40244  0.17712  0.71776  1.0000
  H   H255      1.0  0.40174  0.18512  0.65942  1.0000
  C   C138      1.0  0.42108  0.18640  0.68655  1.0000
  C   C139      1.0  0.43188  0.16662  0.68192  1.0000
  C   C140      1.0  0.38766  0.18364  0.66860  1.0000
  H   H256      1.0  0.37581  0.19278  0.73278  1.0000
  C   C141      1.0  0.38329  0.17788  0.73215  1.0000
  C   C142      1.0  0.43520  0.06241  0.65371  1.0000
  C   C143      1.0  0.45309  0.16692  0.67378  1.0000
  C   C144      1.0  0.37890  0.16992  0.66115  1.0000
  H   H257      1.0  0.44612  0.00824  0.65903  1.0000
  H   H258      1.0  0.37440  0.17748  0.69757  1.0000
  H   H259      1.0  0.39541  0.16081  0.69170  1.0000
  C   C145      1.0  0.32770  0.11533  0.65142  1.0000
  C   C146      1.0  0.39928  0.21962  0.70703  1.0000
  H   H260      1.0  0.37813  0.19783  0.66696  1.0000
  H   H261      1.0  0.43506  0.98742  0.66560  1.0000
  H   H262      1.0  0.42103  0.19652  0.67299  1.0000
  C   C147      1.0  0.42056  0.01672  0.71465  1.0000
  H   H263      1.0  0.42553  0.16232  0.67132  1.0000
  H   H264      1.0  0.41449  0.22023  0.70053  1.0000
  H   H265      1.0  0.44920  0.10293  0.66853  1.0000
  H   H266      1.0  0.42104  0.13082  0.64438  1.0000
  C   C148      1.0  0.43222  0.11771  0.64627  1.0000
  C   C149      1.0  0.43395  0.00193  0.65730  1.0000
  H   H267      1.0  0.39868  0.21376  0.72228  1.0000
  S   S40       1.0  0.49018  0.07255  0.67487  1.0000
  H   H268      1.0  0.46115  0.08896  0.64029  1.0000
  H   H269      1.0  0.37195  0.98906  0.65143  1.0000
  C   C150      1.0  0.49061  0.10580  0.71952  1.0000
  C   C151      1.0  0.45137  0.05385  0.64224  1.0000
  H   H270      1.0  0.38555  0.99920  0.68567  1.0000
  H   H271      1.0  0.44207  0.99410  0.72624  1.0000
  S   S41       1.0  0.33600  0.16981  0.64305  1.0000
  H   H272      1.0  0.47200  0.10773  0.64230  1.0000
  H   H273      1.0  0.44881  0.15302  0.64053  1.0000
  S   S42       1.0  0.48813  0.19851  0.73078  1.0000
  S   S43       1.0  0.49135  0.99179  0.72278  1.0000
  H   H274      1.0  0.45305  0.29789  0.20214  1.0000
  H   H275      1.0  0.48297  0.27335  0.17414  1.0000
  H   H276      1.0  0.25485  0.46434  0.19034  1.0000
  H   H277      1.0  0.37307  0.45569  0.02412  1.0000
  C   C152      1.0  0.99894  0.44512  0.28012  1.0000
  H   H278      1.0  0.45432  0.35919  0.05959  1.0000
  S   S44       1.0  0.39281  0.44135  0.98437  1.0000
  H   H279      1.0  0.43130  0.25040  0.18706  1.0000
  C   C153      1.0  0.44614  0.42486  0.13166  1.0000
  H   H280      1.0  0.39938  0.42612  0.15317  1.0000
  H   H281      1.0  0.35588  0.43258  0.01787  1.0000
  H   H282      1.0  0.30955  0.46890  0.14479  1.0000
  S   S45       1.0  0.47354  0.26274  0.25883  1.0000
  H   H283      1.0  0.45580  0.43417  0.12326  1.0000
  H   H284      1.0  0.38439  0.42162  0.08845  1.0000
  C   C154      1.0  0.48615  0.27002  0.23597  1.0000
  H   H285      1.0  0.45498  0.31523  0.03992  1.0000
  H   H286      1.0  0.48292  0.30962  0.01776  1.0000
  H   H287      1.0  0.46809  0.39939  0.13165  1.0000
  Fe  Fe26      1.0  0.37656  0.47064  0.97552  1.0000
  S   S46       1.0  0.44884  0.36816  0.15356  1.0000
  C   C155      1.0  0.44074  0.39300  0.14719  1.0000
  C   C156      1.0  0.42134  0.40070  0.15322  1.0000
  H   H288      1.0  0.34800  0.40416  0.19021  1.0000
  H   H289      1.0  0.43889  0.31905  0.97926  1.0000
  H   H290      1.0  0.41168  0.39139  0.16163  1.0000
  C   C157      1.0  0.46853  0.35066  0.05676  1.0000
  H   H291      1.0  0.25108  0.43036  0.22292  1.0000
  C   C158      1.0  0.45561  0.25996  0.20102  1.0000
  C   C159      1.0  0.42907  0.26634  0.15952  1.0000
  H   H292      1.0  0.41864  0.43000  0.10215  1.0000
  H   H293      1.0  0.42373  0.46458  0.02139  1.0000
  Fe  Fe27      1.0  0.34936  0.47548  0.12086  1.0000
  H   H294      1.0  0.28042  0.47095  0.16782  1.0000
  C   C160      1.0  0.42637  0.41664  0.97790  1.0000
  S   S47       1.0  0.33619  0.46543  0.10026  1.0000
  H   H295      1.0  0.34613  0.42968  0.18406  1.0000
  H   H296      1.0  0.45057  0.43678  0.02061  1.0000
  H   H297      1.0  0.26854  0.45911  0.15614  1.0000
  H   H298      1.0  0.46888  0.26299  0.14133  1.0000
  H   H299      1.0  0.31499  0.44971  0.17480  1.0000
  N   N9        1.0  0.39474  0.45032  0.05387  1.0000
  H   H300      1.0  0.47239  0.34477  0.08593  1.0000
  C   C161      1.0  0.45339  0.30191  0.18669  1.0000
  H   H301      1.0  0.02105  0.43219  0.29733  1.0000
  C   C162      1.0  0.42044  0.25212  0.15263  1.0000
  C   C163      1.0  0.46717  0.25706  0.01658  1.0000
  H   H302      1.0  0.06119  0.42434  0.30014  1.0000
  H   H303      1.0  0.41480  0.42593  0.04467  1.0000
  H   H304      1.0  0.28692  0.45056  0.19812  1.0000
  H   H305      1.0  0.42768  0.32375  0.19111  1.0000
  H   H306      1.0  0.23426  0.45245  0.21916  1.0000
  C   C164      1.0  0.41433  0.42038  0.14846  1.0000
  H   H307      1.0  0.40531  0.41091  0.11222  1.0000
  H   H308      1.0  0.42180  0.40920  0.99198  1.0000
  H   H309      1.0  0.47209  0.29942  0.23505  1.0000
  N   N10       1.0  0.45377  0.26774  0.18061  1.0000
  H   H310      1.0  0.43531  0.32597  0.01974  1.0000
  H   H311      1.0  0.31676  0.40596  0.18071  1.0000
  C   C165      1.0  0.45570  0.29951  0.04402  1.0000
  H   H312      1.0  0.44238  0.32756  0.16791  1.0000
  S   S48       1.0  0.46248  0.35596  0.02034  1.0000
  H   H313      1.0  0.29392  0.38866  0.15341  1.0000
  C   C166      1.0  0.32005  0.41910  0.18379  1.0000
  C   C167      1.0  0.29228  0.41957  0.14617  1.0000
  C   C168      1.0  0.47646  0.34748  0.03831  1.0000
  H   H314      1.0  0.36521  0.44586  0.06098  1.0000
  C   C169      1.0  0.01978  0.43638  0.28216  1.0000
  H   H315      1.0  0.47164  0.27806  0.06424  1.0000
  H   H316      1.0  0.28650  0.41055  0.17659  1.0000
  N   N11       1.0  0.28958  0.44024  0.17188  1.0000
  H   H317      1.0  0.48559  0.38206  0.07096  1.0000
  Fe  Fe28      1.0  0.22208  0.46899  0.29094  1.0000
  S   S49       1.0  0.36153  0.45480  0.14452  1.0000
  C   C170      1.0  0.44375  0.28835  0.17945  1.0000
  H   H318      1.0  0.48722  0.23287  0.02848  1.0000
  C   C171      1.0  0.31114  0.43716  0.17096  1.0000
  H   H319      1.0  0.25736  0.45266  0.22464  1.0000
  H   H320      1.0  0.46851  0.30179  0.17942  1.0000
  H   H321      1.0  0.44067  0.29730  0.05023  1.0000
  H   H322      1.0  0.37419  0.47663  0.05315  1.0000
  C   C172      1.0  0.44351  0.31901  0.00767  1.0000
  C   C173      1.0  0.45313  0.40515  0.13635  1.0000
  H   H323      1.0  0.41689  0.27671  0.16565  1.0000
  H   H324      1.0  0.29350  0.39841  0.12885  1.0000
  C   C174      1.0  0.38924  0.47139  0.04667  1.0000
  H   H325      1.0  0.31907  0.43652  0.15638  1.0000
  C   C175      1.0  0.46350  0.26860  0.03296  1.0000
  H   H326      1.0  0.42883  0.28904  0.18771  1.0000
  S   S50       1.0  0.04076  0.46960  0.29924  1.0000
  H   H327      1.0  0.35039  0.28974  0.30392  1.0000
  C   C176      1.0  0.46786  0.29371  0.06001  1.0000
  H   H328      1.0  0.45020  0.33201  0.18799  1.0000
  Fe  Fe29      1.0  0.34777  0.47776  0.16204  1.0000
  C   C177      1.0  0.33340  0.47406  0.06266  1.0000
  H   H329      1.0  0.43541  0.42316  0.01412  1.0000
  C   C178      1.0  0.44269  0.32251  0.18320  1.0000
  H   H330      1.0  0.26765  0.42654  0.16697  1.0000
  H   H331      1.0  0.25013  0.44146  0.18894  1.0000
  C   C179      1.0  0.29658  0.46550  0.14129  1.0000
  H   H332      1.0  0.35927  0.41739  0.04009  1.0000
  H   H333      1.0  0.30975  0.46535  0.22928  1.0000
  H   H334      1.0  0.46540  0.23916  0.23490  1.0000
  C   C180      1.0  0.42672  0.43255  0.13765  1.0000
  S   S51       1.0  0.33324  0.47034  0.19253  1.0000
  H   H335      1.0  0.30818  0.41813  0.14320  1.0000
  H   H336      1.0  0.28264  0.42687  0.20118  1.0000
  H   H337      1.0  0.45233  0.39627  0.97300  1.0000
  H   H338      1.0  0.46747  0.28742  0.14396  1.0000
  C   C181      1.0  0.44169  0.25605  0.17468  1.0000
  C   C182      1.0  0.25805  0.44877  0.19580  1.0000
  H   H339      1.0  0.43732  0.27429  0.14704  1.0000
  S   S52       1.0  0.41839  0.45729  0.13081  1.0000
  C   C183      1.0  0.39544  0.44795  0.07466  1.0000
  C   C184      1.0  0.28016  0.44122  0.19219  1.0000
  H   H340      1.0  0.46512  0.26749  0.20581  1.0000
  Fe  Fe30      1.0  0.18820  0.47983  0.27018  1.0000
  C   C185      1.0  0.28748  0.40091  0.14351  1.0000
  H   H341      1.0  0.44125  0.26274  0.21026  1.0000
  C   C186      1.0  0.47872  0.34251  0.07168  1.0000
  C   C187      1.0  0.43818  0.43776  0.01346  1.0000
  H   H342      1.0  0.40741  0.45439  0.07669  1.0000
  N   N12       1.0  0.46294  0.28983  0.02692  1.0000
  C   C188      1.0  0.47377  0.26586  0.16894  1.0000
  C   C189      1.0  0.18815  0.42849  0.30044  1.0000
  H   H343      1.0  0.46671  0.29912  0.08822  1.0000
  H   H344      1.0  0.32914  0.46028  0.06473  1.0000
  H   H345      1.0  0.40937  0.41749  0.07724  1.0000
  C   C190      1.0  0.39820  0.42706  0.08546  1.0000
  Fe  Fe31      1.0  0.38663  0.47033  0.13602  1.0000
  C   C191      1.0  0.37903  0.44023  0.05224  1.0000
  H   H346      1.0  0.31458  0.41997  0.19893  1.0000
  H   H347      1.0  0.39360  0.43532  0.11315  1.0000
  H   H348      1.0  0.44436  0.29460  0.08416  1.0000
  C   C192      1.0  0.35763  0.43241  0.03258  1.0000
  H   H349      1.0  0.38906  0.47430  0.03128  1.0000
  Fe  Fe32      1.0  0.47942  0.35357  0.14372  1.0000
  S   S53       1.0  0.16277  0.46892  0.26537  1.0000
  H   H350      1.0  0.12537  0.46119  0.26523  1.0000
  C   C193      1.0  0.37539  0.44093  0.03211  1.0000
  H   H351      1.0  0.38785  0.43211  0.02443  1.0000
  H   H352      1.0  0.45684  0.32508  0.00197  1.0000
  C   C194      1.0  0.34198  0.41704  0.18074  1.0000
  C   C195      1.0  0.48232  0.28927  0.22740  1.0000
  Fe  Fe33      1.0  0.47742  0.35468  0.99025  1.0000
  H   H353      1.0  0.45372  0.25897  0.01075  1.0000
  C   C196      1.0  0.33711  0.48045  0.07806  1.0000
  H   H354      1.0  0.27162  0.40161  0.14591  1.0000
  H   H355      1.0  0.45351  0.29112  0.00044  1.0000
  H   H356      1.0  0.09267  0.47286  0.28232  1.0000
  C   C197      1.0  0.49155  0.29550  0.20894  1.0000
  C   C198      1.0  0.41414  0.44154  0.04379  1.0000
  H   H357      1.0  0.41754  0.31794  0.99733  1.0000
  C   C199      1.0  0.45697  0.30168  0.07773  1.0000
  C   C200      1.0  0.40427  0.42581  0.10440  1.0000
  H   H358      1.0  0.38233  0.42474  0.05802  1.0000
  H   H359      1.0  0.38195  0.45587  0.08215  1.0000
  C   C201      1.0  0.24977  0.44583  0.21692  1.0000
  H   H360      1.0  0.19329  0.41750  0.29119  1.0000
  C   C202      1.0  0.28281  0.45905  0.15976  1.0000
  H   H361      1.0  0.28599  0.43105  0.13553  1.0000
  C   C203      1.0  0.28351  0.42389  0.16626  1.0000
  H   H362      1.0  0.44203  0.44412  0.99835  1.0000
  H   H363      1.0  0.42594  0.44251  0.05102  1.0000
  H   H364      1.0  0.34846  0.41548  0.16591  1.0000
  H   H365      1.0  0.44207  0.29498  0.16475  1.0000
  C   C204      1.0  0.43086  0.32422  0.99242  1.0000
  H   H366      1.0  0.40877  0.45174  0.01433  1.0000
  S   S54       1.0  0.21799  0.46293  0.26341  1.0000
  H   H367      1.0  0.02916  0.44711  0.27543  1.0000
  C   C205      1.0  0.42024  0.45018  0.02269  1.0000
  C   C206      1.0  0.47510  0.27258  0.14738  1.0000
  H   H368      1.0  0.34445  0.44095  0.03960  1.0000
  S   S55       1.0  0.48237  0.32280  0.14059  1.0000
  H   H369      1.0  0.02492  0.42372  0.27503  1.0000
  C   C207      1.0  0.28091  0.47994  0.22613  1.0000
  H   H370      1.0  0.42660  0.33999  0.98915  1.0000
  H   H371      1.0  0.30156  0.45442  0.13225  1.0000
  H   H372      1.0  0.45102  0.24320  0.16952  1.0000
  H   H373      1.0  0.43450  0.29201  0.02033  1.0000
  C   C208      1.0  0.44837  0.29704  0.01379  1.0000
  H   H374      1.0  0.45188  0.31732  0.07429  1.0000
  C   C209      1.0  0.12357  0.47129  0.27466  1.0000
  H   H375      1.0  0.18707  0.44278  0.29135  1.0000
  H   H376      1.0  0.41111  0.25993  0.14222  1.0000
  H   H377      1.0  0.48127  0.29982  0.05540  1.0000
  H   H378      1.0  0.44960  0.26578  0.04207  1.0000
  H   H379      1.0  0.05925  0.40088  0.29717  1.0000
  C   C210      1.0  0.48223  0.29475  0.01665  1.0000
  C   C211      1.0  0.30066  0.47397  0.21955  1.0000
  H   H380      1.0  0.99884  0.45093  0.26493  1.0000
  H   H381      1.0  0.48111  0.25068  0.17072  1.0000
  H   H382      1.0  0.99446  0.45720  0.28807  1.0000
  H   H383      1.0  0.48850  0.31037  0.20248  1.0000
  H   H384      1.0  0.47454  0.26216  0.04199  1.0000
  S   S56       1.0  0.34534  0.47695  0.98882  1.0000
  H   H385      1.0  0.48020  0.23620  0.20119  1.0000
  H   H386      1.0  0.48383  0.29478  0.00123  1.0000
  C   C212      1.0  0.46428  0.23835  0.20564  1.0000
  C   C213      1.0  0.30864  0.47887  0.20042  1.0000
  C   C214      1.0  0.13977  0.47765  0.27726  1.0000
  H   H387      1.0  0.47849  0.26195  0.00488  1.0000
  C   C215      1.0  0.10508  0.47790  0.28426  1.0000
  H   H388      1.0  0.41151  0.24415  0.16462  1.0000
  H   H389      1.0  0.43204  0.24185  0.14565  1.0000
  C   C216      1.0  0.47328  0.23569  0.02335  1.0000
  H   H390      1.0  0.27135  0.47666  0.29537  1.0000
  H   H391      1.0  0.33325  0.48000  0.03260  1.0000
  H   H392      1.0  0.27485  0.47596  0.24086  1.0000
  H   H393      1.0  0.41736  0.47798  0.04839  1.0000
  H   H394      1.0  0.15857  0.42623  0.30248  1.0000
  H   H395      1.0  0.27415  0.48081  0.12512  1.0000
  Fe  Fe34      1.0  0.48064  0.23360  0.27685  1.0000
  Fe  Fe35      1.0  0.03426  0.33976  0.58664  1.0000
  S   S57       1.0  0.01772  0.36687  0.59608  1.0000
  H   H396      1.0  0.07268  0.30884  0.53909  1.0000
  H   H397      1.0  0.28265  0.32693  0.34921  1.0000
  S   S58       1.0  0.05879  0.38390  0.58111  1.0000
  Fe  Fe36      1.0  0.03358  0.38116  0.56910  1.0000
  S   S59       1.0  0.01827  0.40470  0.54976  1.0000
  S   S60       1.0  0.04823  0.35401  0.55864  1.0000
  S   S61       1.0  0.24324  0.35461  0.52752  1.0000
  H   H398      1.0  0.19895  0.42714  0.30965  1.0000
  H   H399      1.0  0.28115  0.37327  0.61692  1.0000
  C   C217      1.0  0.05536  0.38439  0.33552  1.0000
  C   C218      1.0  0.12891  0.36067  0.59712  1.0000
  Fe  Fe37      1.0  0.01531  0.36532  0.46689  1.0000
  S   S62       1.0  0.03281  0.33865  0.45736  1.0000
  C   C219      1.0  0.20590  0.47073  0.44220  1.0000
  Fe  Fe38      1.0  0.03253  0.39084  0.43257  1.0000
  S   S63       1.0  0.05140  0.36628  0.41993  1.0000
  S   S64       1.0  0.03594  0.42095  0.41972  1.0000
  Fe  Fe39      1.0  0.02499  0.35257  0.42918  1.0000
  S   S65       1.0  0.01892  0.33452  0.41053  1.0000
  Fe  Fe40      1.0  0.05748  0.35463  0.44917  1.0000
  S   S66       1.0  0.08606  0.34130  0.45838  1.0000
  H   H400      1.0  0.00389  0.31912  0.53452  1.0000
  S   S67       1.0  0.04056  0.38032  0.46114  1.0000
  S   S68       1.0  0.00688  0.44613  0.34181  1.0000
  H   H401      1.0  0.12717  0.45097  0.36378  1.0000
  C   C220      1.0  0.29897  0.30054  0.63813  1.0000
  H   H402      1.0  0.18967  0.43187  0.59726  1.0000
  C   C221      1.0  0.15416  0.35067  0.57188  1.0000
  H   H403      1.0  0.10175  0.45118  0.34990  1.0000
  S   S69       1.0  0.10296  0.34822  0.55841  1.0000
  H   H404      1.0  0.28469  0.31898  0.54984  1.0000
  H   H405      1.0  0.07114  0.37972  0.33448  1.0000
  H   H406      1.0  0.19694  0.47786  0.45390  1.0000
  H   H407      1.0  0.04134  0.40745  0.60740  1.0000
  H   H408      1.0  0.35051  0.31198  0.40905  1.0000
  Fe  Fe41      1.0  0.20383  0.38502  0.40706  1.0000
  S   S70       1.0  0.21228  0.36095  0.39051  1.0000
  S   S71       1.0  0.19987  0.41683  0.39562  1.0000
  Fe  Fe42      1.0  0.19510  0.35795  0.44469  1.0000
  S   S72       1.0  0.20218  0.33183  0.43113  1.0000
  S   S73       1.0  0.18303  0.35688  0.47569  1.0000
  Fe  Fe43      1.0  0.22767  0.34466  0.41442  1.0000
  S   S74       1.0  0.25902  0.32985  0.41165  1.0000
  Fe  Fe44      1.0  0.18614  0.35029  0.40879  1.0000
  S   S75       1.0  0.16226  0.34403  0.39699  1.0000
  S   S76       1.0  0.22135  0.36994  0.42938  1.0000
  S   S77       1.0  0.17693  0.37521  0.42386  1.0000
  C   C222      1.0  0.27932  0.26619  0.43300  1.0000
  C   C223      1.0  0.25995  0.27290  0.43103  1.0000
  C   C224      1.0  0.25331  0.29248  0.42500  1.0000
  C   C225      1.0  0.26610  0.30541  0.42068  1.0000
  C   C226      1.0  0.28530  0.29875  0.42321  1.0000
  C   C227      1.0  0.29177  0.27931  0.42968  1.0000
  H   H409      1.0  0.25015  0.26287  0.43375  1.0000
  H   H410      1.0  0.23847  0.29743  0.42314  1.0000
  H   H411      1.0  0.29525  0.30867  0.42005  1.0000
  H   H412      1.0  0.30647  0.27443  0.43185  1.0000
  S   S78       1.0  0.16554  0.36001  0.60204  1.0000
  C   C228      1.0  0.20891  0.42357  0.37144  1.0000
  C   C229      1.0  0.19989  0.44038  0.36114  1.0000
  H   H413      1.0  0.07109  0.41729  0.37293  1.0000
  H   H414      1.0  0.18691  0.44860  0.36790  1.0000
  Fe  Fe45      1.0  0.23142  0.35347  0.55857  1.0000
  H   H415      1.0  0.36005  0.30176  0.31796  1.0000
  H   H416      1.0  0.07942  0.40422  0.30653  1.0000
  H   H417      1.0  0.22354  0.47672  0.37349  1.0000
  Fe  Fe46      1.0  0.04415  0.36719  0.60749  1.0000
  H   H418      1.0  0.08938  0.28996  0.56524  1.0000
  H   H419      1.0  0.00035  0.27699  0.53834  1.0000
  H   H420      1.0  0.27746  0.23946  0.49128  1.0000
  H   H421      1.0  0.15792  0.45503  0.31457  1.0000
  C   C230      1.0  0.10703  0.34169  0.44099  1.0000
  C   C231      1.0  0.12511  0.33686  0.44663  1.0000
  C   C232      1.0  0.14206  0.33791  0.43322  1.0000
  C   C233      1.0  0.14107  0.34308  0.41398  1.0000
  C   C234      1.0  0.12303  0.34748  0.40826  1.0000
  C   C235      1.0  0.10603  0.34702  0.42175  1.0000
  H   H422      1.0  0.12599  0.33242  0.46144  1.0000
  H   H423      1.0  0.15592  0.33436  0.43774  1.0000
  H   H424      1.0  0.12221  0.35142  0.39339  1.0000
  H   H425      1.0  0.09221  0.35057  0.41723  1.0000
  C   C236      1.0  0.02706  0.42872  0.39855  1.0000
  C   C237      1.0  0.01201  0.42119  0.39531  1.0000
  C   C238      1.0  0.00544  0.42709  0.37802  1.0000
  C   C239      1.0  0.01426  0.44010  0.36381  1.0000
  C   C240      1.0  0.02935  0.44759  0.36706  1.0000
  C   C241      1.0  0.03552  0.44215  0.38455  1.0000
  H   H426      1.0  0.00532  0.41098  0.40621  1.0000
  C   C242      1.0  0.99811  0.31250  0.58972  1.0000
  H   H427      1.0  0.03648  0.45734  0.35605  1.0000
  H   H428      1.0  0.04719  0.44798  0.38706  1.0000
  C   C243      1.0  0.05214  0.40585  0.32630  1.0000
  H   H429      1.0  0.09041  0.39988  0.38175  1.0000
  H   H430      1.0  0.02052  0.45641  0.58489  1.0000
  Fe  Fe47      1.0  0.01771  0.47240  0.32479  1.0000
  H   H431      1.0  0.25941  0.47284  0.37694  1.0000
  C   C244      1.0  0.31252  0.27219  0.59791  1.0000
  H   H432      1.0  0.16928  0.34771  0.56580  1.0000
  S   S79       1.0  0.04111  0.37354  0.63670  1.0000
  S   S80       1.0  0.33752  0.26341  0.59542  1.0000
  C   C245      1.0  0.04926  0.35840  0.36288  1.0000
  H   H433      1.0  0.00820  0.31963  0.38269  1.0000
  H   H434      1.0  0.26392  0.28730  0.54403  1.0000
  S   S81       1.0  0.34222  0.24804  0.42958  1.0000
  H   H435      1.0  0.20066  0.45959  0.33440  1.0000
  H   H436      1.0  0.06733  0.29419  0.58209  1.0000
  C   C246      1.0  0.16901  0.42089  0.45768  1.0000
  H   H437      1.0  0.35401  0.27575  0.35468  1.0000
  H   H438      1.0  0.12511  0.45340  0.31796  1.0000
  H   H439      1.0  0.14323  0.47876  0.63346  1.0000
  S   S82       1.0  0.24833  0.29820  0.60946  1.0000
  C   C247      1.0  0.22640  0.35437  0.51357  1.0000
  C   C248      1.0  0.20739  0.35240  0.52159  1.0000
  C   C249      1.0  0.19418  0.35259  0.50993  1.0000
  C   C250      1.0  0.20003  0.35459  0.49030  1.0000
  C   C251      1.0  0.21921  0.35581  0.48244  1.0000
  C   C252      1.0  0.23230  0.35599  0.49400  1.0000
  H   H440      1.0  0.20278  0.35101  0.53673  1.0000
  H   H441      1.0  0.17941  0.35133  0.51617  1.0000
  H   H442      1.0  0.22396  0.35677  0.46743  1.0000
  H   H443      1.0  0.24705  0.35735  0.48780  1.0000
  C   C253      1.0  0.01023  0.39354  0.53474  1.0000
  H   H444      1.0  0.01862  0.48147  0.58518  1.0000
  H   H445      1.0  0.30689  0.34260  0.61889  1.0000
  H   H446      1.0  0.48602  0.24998  0.34295  1.0000
  H   H447      1.0  0.01035  0.30815  0.46181  1.0000
  C   C254      1.0  0.01031  0.40185  0.51578  1.0000
  H   H448      1.0  0.13101  0.41699  0.61837  1.0000
  H   H449      1.0  0.25251  0.34437  0.63476  1.0000
  C   C255      1.0  0.09047  0.44149  0.32959  1.0000
  H   H450      1.0  0.01484  0.41553  0.51047  1.0000
  H   H451      1.0  0.17757  0.39113  0.38011  1.0000
  C   C256      1.0  0.23574  0.47241  0.36227  1.0000
  H   H452      1.0  0.24014  0.43714  0.38599  1.0000
  H   H453      1.0  0.28980  0.23343  0.39945  1.0000
  H   H454      1.0  0.32886  0.24819  0.56372  1.0000
  C   C257      1.0  0.23901  0.40169  0.62260  1.0000
  S   S83       1.0  0.02260  0.31272  0.58945  1.0000
  C   C258      1.0  0.05759  0.33708  0.51263  1.0000
  C   C259      1.0  0.04996  0.35797  0.50558  1.0000
  H   H455      1.0  0.06812  0.33676  0.52175  1.0000
  H   H456      1.0  0.06525  0.33066  0.50007  1.0000
  H   H457      1.0  0.06175  0.36474  0.49623  1.0000
  H   H458      1.0  0.03846  0.35901  0.49738  1.0000
  H   H459      1.0  0.04404  0.36578  0.51758  1.0000
  H   H460      1.0  0.15984  0.42881  0.62050  1.0000
  N   N13       1.0  0.32994  0.27692  0.52983  1.0000
  C   C260      1.0  0.31080  0.28971  0.53467  1.0000
  C   C261      1.0  0.32670  0.25655  0.53344  1.0000
  C   C262      1.0  0.34344  0.27941  0.54193  1.0000
  C   C263      1.0  0.36283  0.26515  0.54132  1.0000
  C   C264      1.0  0.31883  0.24824  0.55417  1.0000
  H   H461      1.0  0.35400  0.30189  0.37848  1.0000
  C   C265      1.0  0.29051  0.32285  0.53457  1.0000
  C   C266      1.0  0.37651  0.27090  0.55158  1.0000
  H   H462      1.0  0.30541  0.28692  0.55016  1.0000
  H   H463      1.0  0.29960  0.28633  0.52815  1.0000
  H   H464      1.0  0.31621  0.25517  0.52489  1.0000
  H   H465      1.0  0.34019  0.24687  0.52857  1.0000
  H   H466      1.0  0.33627  0.27855  0.55694  1.0000
  H   H467      1.0  0.34710  0.29399  0.53778  1.0000
  C   C267      1.0  0.04962  0.39087  0.36855  1.0000
  H   H468      1.0  0.37041  0.26461  0.52667  1.0000
  H   H469      1.0  0.36036  0.25059  0.54822  1.0000
  H   H470      1.0  0.36535  0.27595  0.32055  1.0000
  H   H471      1.0  0.30461  0.25655  0.55936  1.0000
  H   H472      1.0  0.08926  0.45550  0.31999  1.0000
  H   H473      1.0  0.25315  0.46991  0.32738  1.0000
  H   H474      1.0  0.29996  0.24303  0.49588  1.0000
  H   H475      1.0  0.29093  0.33839  0.53148  1.0000
  H   H476      1.0  0.38013  0.28510  0.54468  1.0000
  H   H477      1.0  0.36997  0.27139  0.56659  1.0000
  H   H478      1.0  0.39009  0.26023  0.55119  1.0000
  H   H479      1.0  0.22139  0.46936  0.44291  1.0000
  H   H480      1.0  0.00996  0.46371  0.61709  1.0000
  C   C268      1.0  0.11489  0.35812  0.58764  1.0000
  C   C269      1.0  0.27933  0.26901  0.61123  1.0000
  H   H481      1.0  0.15153  0.45392  0.35725  1.0000
  C   C270      1.0  0.05834  0.29479  0.51559  1.0000
  H   H482      1.0  0.07552  0.37362  0.37850  1.0000
  H   H483      1.0  0.24669  0.42953  0.61215  1.0000
  S   S84       1.0  0.21530  0.33071  0.57595  1.0000
  C   C271      1.0  0.29257  0.36653  0.58934  1.0000
  H   H484      1.0  0.32674  0.28940  0.46434  1.0000
  S   S85       1.0  0.24046  0.39703  0.59960  1.0000
  S   S86       1.0  0.37213  0.23661  0.37948  1.0000
  H   H485      1.0  0.08131  0.35480  0.35736  1.0000
  C   C272      1.0  0.07116  0.38796  0.37023  1.0000
  H   H486      1.0  0.01320  0.36306  0.37828  1.0000
  H   H487      1.0  0.00132  0.28258  0.60154  1.0000
  H   H488      1.0  0.15171  0.39379  0.38491  1.0000
  H   H489      1.0  0.26475  0.31249  0.35070  1.0000
  H   H490      1.0  0.05707  0.28955  0.46962  1.0000
  C   C273      1.0  0.07310  0.32741  0.36802  1.0000
  S   S87       1.0  0.99553  0.36094  0.49476  1.0000
  H   H491      1.0  0.08064  0.38943  0.35625  1.0000
  H   H492      1.0  0.03941  0.35080  0.35855  1.0000
  H   H493      1.0  0.28163  0.31404  0.58729  1.0000
  C   C274      1.0  0.07491  0.40255  0.38062  1.0000
  H   H494      1.0  0.23143  0.46125  0.35655  1.0000
  C   C275      1.0  0.33890  0.28198  0.50934  1.0000
  H   H495      1.0  0.06168  0.27929  0.52131  1.0000
  C   C276      1.0  0.06400  0.28389  0.55732  1.0000
  N   N14       1.0  0.14262  0.43877  0.33912  1.0000
  C   C277      1.0  0.01013  0.30445  0.53167  1.0000
  S   S88       1.0  0.28766  0.24139  0.43910  1.0000
  H   H496      1.0  0.14527  0.40788  0.34395  1.0000
  H   H497      1.0  0.06642  0.40127  0.39513  1.0000
  H   H498      1.0  0.26421  0.45408  0.36298  1.0000
  S   S89       1.0  0.21655  0.34953  0.61273  1.0000
  H   H499      1.0  0.99456  0.35260  0.53475  1.0000
  C   C278      1.0  0.20365  0.43814  0.46270  1.0000
  C   C279      1.0  0.00005  0.37411  0.51023  1.0000
  H   H500      1.0  0.24292  0.27662  0.52666  1.0000
  H   H501      1.0  0.26371  0.32236  0.62781  1.0000
  H   H502      1.0  0.17633  0.41644  0.59094  1.0000
  H   H503      1.0  0.29345  0.35521  0.58096  1.0000
  H   H504      1.0  0.29303  0.25293  0.47327  1.0000
  H   H505      1.0  0.03217  0.28111  0.54134  1.0000
  H   H506      1.0  0.16551  0.38331  0.36481  1.0000
  S   S90       1.0  0.00547  0.37821  0.43925  1.0000
  H   H507      1.0  0.21727  0.44016  0.46630  1.0000
  C   C280      1.0  0.12620  0.44019  0.32883  1.0000
  H   H508      1.0  0.01065  0.38583  0.38498  1.0000
  H   H509      1.0  0.25915  0.44066  0.39667  1.0000
  Fe  Fe48      1.0  0.23585  0.32794  0.59591  1.0000
  C   C281      1.0  0.33592  0.28974  0.47461  1.0000
  C   C282      1.0  0.32601  0.28280  0.49465  1.0000
  H   H510      1.0  0.06206  0.31921  0.36708  1.0000
  C   C283      1.0  0.00552  0.39198  0.50343  1.0000
  C   C284      1.0  0.30611  0.29129  0.59017  1.0000
  N   N15       1.0  0.04489  0.37966  0.35553  1.0000
  H   H511      1.0  0.04303  0.44082  0.60868  1.0000
  H   H512      1.0  0.00366  0.28561  0.46209  1.0000
  C   C285      1.0  0.02352  0.38515  0.35502  1.0000
  H   H513      1.0  0.30778  0.30361  0.62390  1.0000
  H   H514      1.0  0.07097  0.27387  0.48631  1.0000
  C   C286      1.0  0.02878  0.29693  0.54031  1.0000
  C   C287      1.0  0.24652  0.44808  0.38995  1.0000
  H   H515      1.0  0.23281  0.40011  0.37049  1.0000
  C   C288      1.0  0.04080  0.32658  0.52335  1.0000
  H   H516      1.0  0.17232  0.44305  0.33161  1.0000
  H   H517      1.0  0.00435  0.36941  0.55624  1.0000
  H   H518      1.0  0.04290  0.31110  0.49250  1.0000
  H   H519      1.0  0.17868  0.38617  0.62705  1.0000
  H   H520      1.0  0.15813  0.39515  0.61639  1.0000
  H   H521      1.0  0.09979  0.36096  0.59385  1.0000
  H   H522      1.0  0.14294  0.43035  0.44545  1.0000
  H   H523      1.0  0.07277  0.27374  0.54814  1.0000
  H   H524      1.0  0.28060  0.32016  0.52613  1.0000
  H   H525      1.0  0.07548  0.29798  0.47711  1.0000
  H   H526      1.0  0.14446  0.34307  0.54902  1.0000
  H   H527      1.0  0.07269  0.29927  0.51083  1.0000
  C   C289      1.0  0.14522  0.41949  0.35175  1.0000
  N   N16       1.0  0.11532  0.37531  0.49237  1.0000
  C   C290      1.0  0.11653  0.35514  0.50322  1.0000
  C   C291      1.0  0.09546  0.38694  0.49757  1.0000
  C   C292      1.0  0.11828  0.37404  0.47166  1.0000
  C   C293      1.0  0.13078  0.38499  0.49519  1.0000
  C   C294      1.0  0.13154  0.38600  0.51583  1.0000
  C   C295      1.0  0.13644  0.34184  0.50016  1.0000
  C   C296      1.0  0.11613  0.39334  0.45778  1.0000
  C   C297      1.0  0.08483  0.38257  0.51826  1.0000
  C   C298      1.0  0.06668  0.39744  0.52209  1.0000
  C   C299      1.0  0.14940  0.39360  0.51694  1.0000
  C   C300      1.0  0.13564  0.32201  0.51205  1.0000
  C   C301      1.0  0.11724  0.39016  0.43764  1.0000
  H   H528      1.0  0.10558  0.34814  0.49989  1.0000
  H   H529      1.0  0.11281  0.35499  0.51862  1.0000
  H   H530      1.0  0.09608  0.40248  0.49422  1.0000
  H   H531      1.0  0.08540  0.38495  0.48879  1.0000
  H   H532      1.0  0.10790  0.36573  0.46936  1.0000
  H   H533      1.0  0.13292  0.36621  0.46682  1.0000
  H   H534      1.0  0.14521  0.37805  0.48859  1.0000
  H   H535      1.0  0.12903  0.40001  0.48766  1.0000
  H   H536      1.0  0.13199  0.37180  0.52501  1.0000
  H   H537      1.0  0.11886  0.39602  0.52158  1.0000
  H   H538      1.0  0.14125  0.33993  0.48524  1.0000
  H   H539      1.0  0.14757  0.34763  0.50451  1.0000
  H   H540      1.0  0.12793  0.40098  0.45758  1.0000
  H   H541      1.0  0.10214  0.40271  0.46168  1.0000
  H   H542      1.0  0.08034  0.36840  0.52098  1.0000
  H   H543      1.0  0.09393  0.38226  0.52870  1.0000
  H   H544      1.0  0.07035  0.41188  0.52013  1.0000
  H   H545      1.0  0.05644  0.39767  0.51263  1.0000
  H   H546      1.0  0.05946  0.39379  0.53692  1.0000
  H   H547      1.0  0.14884  0.40851  0.50924  1.0000
  H   H548      1.0  0.15000  0.39340  0.53197  1.0000
  H   H549      1.0  0.16269  0.38452  0.51081  1.0000
  H   H550      1.0  0.12504  0.31526  0.50793  1.0000
  H   H551      1.0  0.15006  0.31282  0.50974  1.0000
  H   H552      1.0  0.13152  0.32297  0.52732  1.0000
  H   H553      1.0  0.13100  0.38079  0.43291  1.0000
  H   H554      1.0  0.10499  0.38348  0.43684  1.0000
  H   H555      1.0  0.11644  0.40406  0.42785  1.0000
  C   C302      1.0  0.06975  0.34745  0.35629  1.0000
  C   C303      1.0  0.28750  0.24977  0.48866  1.0000
  H   H556      1.0  0.05112  0.37618  0.32629  1.0000
  H   H557      1.0  0.23570  0.45551  0.40042  1.0000
  C   C304      1.0  0.16852  0.42567  0.31233  1.0000
  C   C305      1.0  0.31078  0.31152  0.52951  1.0000
  H   H558      1.0  0.16644  0.43445  0.46320  1.0000
  H   H559      1.0  0.01274  0.30500  0.51622  1.0000
  C   C306      1.0  0.06416  0.28890  0.48184  1.0000
  C   C307      1.0  0.14009  0.34808  0.56240  1.0000
  C   C308      1.0  0.14856  0.35688  0.58934  1.0000
  H   H560      1.0  0.99930  0.41726  0.60938  1.0000
  H   H561      1.0  0.26901  0.26041  0.61965  1.0000
  H   H562      1.0  0.31219  0.29273  0.49735  1.0000
  C   C309      1.0  0.22504  0.43659  0.33369  1.0000
  C   C310      1.0  0.07579  0.28464  0.57210  1.0000
  C   C311      1.0  0.12043  0.35174  0.57031  1.0000
  H   H563      1.0  0.19757  0.40640  0.60153  1.0000
  C   C312      1.0  0.17223  0.41682  0.62116  1.0000
  S   S91       1.0  0.05949  0.33855  0.60063  1.0000
  H   H564      1.0  0.07240  0.32827  0.38309  1.0000
  C   C313      1.0  0.22571  0.41305  0.36266  1.0000
  H   H565      1.0  0.24738  0.30983  0.54477  1.0000
  H   H566      1.0  0.05091  0.27811  0.56502  1.0000
  Fe  Fe49      1.0  0.23208  0.37123  0.59262  1.0000
  C   C314      1.0  0.29147  0.34199  0.61950  1.0000
  S   S92       1.0  0.21189  0.37740  0.57174  1.0000
  H   H567      1.0  0.08758  0.31960  0.36271  1.0000
  H   H568      1.0  0.01918  0.40093  0.35166  1.0000
  H   H569      1.0  0.33831  0.30461  0.47315  1.0000
  H   H570      1.0  0.02002  0.37928  0.34353  1.0000
  C   C315      1.0  0.16057  0.44145  0.32469  1.0000
  H   H571      1.0  0.35201  0.27130  0.50563  1.0000
  H   H572      1.0  0.19204  0.44446  0.47343  1.0000
  Fe  Fe50      1.0  0.19752  0.35428  0.59093  1.0000
  C   C316      1.0  0.24329  0.41906  0.62458  1.0000
  C   C317      1.0  0.20767  0.44663  0.34217  1.0000
  C   C318      1.0  0.10606  0.43949  0.34146  1.0000
  C   C319      1.0  0.23390  0.41972  0.34397  1.0000
  C   C320      1.0  0.16451  0.39443  0.37348  1.0000
  H   H573      1.0  0.05677  0.41469  0.33454  1.0000
  H   H574      1.0  0.15932  0.41090  0.43591  1.0000
  S   S93       1.0  0.25312  0.34926  0.57756  1.0000
  H   H575      1.0  0.12448  0.36548  0.61059  1.0000
  H   H576      1.0  0.24731  0.41186  0.33750  1.0000
  N   N17       1.0  0.04647  0.30558  0.53080  1.0000
  C   C321      1.0  0.34530  0.29886  0.40837  1.0000
  H   H577      1.0  0.35684  0.28637  0.41129  1.0000
  H   H578      1.0  0.10603  0.42567  0.35128  1.0000
  H   H579      1.0  0.03678  0.41136  0.32519  1.0000
  H   H580      1.0  0.16305  0.42455  0.37056  1.0000
  C   C322      1.0  0.00974  0.37860  0.37343  1.0000
  H   H581      1.0  0.30735  0.36848  0.58968  1.0000
  H   H582      1.0  0.04625  0.35566  0.37865  1.0000
  H   H583      1.0  0.28481  0.38014  0.58225  1.0000
  H   H584      1.0  0.31650  0.30007  0.58231  1.0000
  H   H585      1.0  0.35000  0.28032  0.47107  1.0000
  H   H586      1.0  0.07949  0.27012  0.58031  1.0000
  H   H587      1.0  0.04166  0.38723  0.38312  1.0000
  H   H588      1.0  0.03283  0.33416  0.53517  1.0000
  C   C323      1.0  0.40423  0.23277  0.35188  1.0000
  H   H589      1.0  0.38101  0.24101  0.50661  1.0000
  C   C324      1.0  0.29905  0.26095  0.60814  1.0000
  N   N18       1.0  0.24982  0.29738  0.49020  1.0000
  C   C325      1.0  0.25259  0.30226  0.50835  1.0000
  C   C326      1.0  0.25786  0.31139  0.47372  1.0000
  C   C327      1.0  0.22835  0.30016  0.49056  1.0000
  C   C328      1.0  0.25872  0.27704  0.48773  1.0000
  C   C329      1.0  0.27741  0.26820  0.49597  1.0000
  C   C330      1.0  0.24148  0.29209  0.52682  1.0000
  C   C331      1.0  0.22213  0.29833  0.47215  1.0000
  C   C332      1.0  0.27949  0.31242  0.47128  1.0000
  C   C333      1.0  0.28443  0.33000  0.45701  1.0000
  H   H590      1.0  0.13270  0.41859  0.36349  1.0000
  H   H591      1.0  0.33233  0.29747  0.41945  1.0000
  C   C334      1.0  0.20051  0.29817  0.47529  1.0000
  H   H592      1.0  0.24799  0.31789  0.50830  1.0000
  H   H593      1.0  0.26797  0.29937  0.50970  1.0000
  H   H594      1.0  0.25615  0.30809  0.46012  1.0000
  H   H595      1.0  0.24943  0.32598  0.47449  1.0000
  H   H596      1.0  0.22111  0.31446  0.49409  1.0000
  H   H597      1.0  0.22181  0.28951  0.50192  1.0000
  H   H598      1.0  0.24835  0.26716  0.49438  1.0000
  H   H599      1.0  0.26178  0.27585  0.47245  1.0000
  H   H600      1.0  0.27397  0.26475  0.51161  1.0000
  H   H601      1.0  0.28782  0.27804  0.49226  1.0000
  H   H602      1.0  0.22591  0.29852  0.52846  1.0000
  C   C335      1.0  0.24867  0.29444  0.54421  1.0000
  H   H603      1.0  0.22996  0.28500  0.46699  1.0000
  H   H604      1.0  0.22503  0.31071  0.46093  1.0000
  H   H605      1.0  0.28372  0.31350  0.48458  1.0000
  H   H606      1.0  0.28838  0.29961  0.46581  1.0000
  H   H607      1.0  0.30024  0.32966  0.45435  1.0000
  H   H608      1.0  0.27990  0.33038  0.44340  1.0000
  H   H609      1.0  0.27708  0.34328  0.46257  1.0000
  H   H610      1.0  0.30387  0.24625  0.61421  1.0000
  C   C336      1.0  0.16339  0.41426  0.36125  1.0000
  C   C337      1.0  0.13854  0.45402  0.35128  1.0000
  H   H611      1.0  0.03042  0.32911  0.51353  1.0000
  H   H612      1.0  0.00618  0.39813  0.48864  1.0000
  H   H613      1.0  0.23980  0.28787  0.55723  1.0000
  H   H614      1.0  0.19666  0.28590  0.48625  1.0000
  H   H615      1.0  0.19210  0.31171  0.47969  1.0000
  H   H616      1.0  0.19644  0.29679  0.46195  1.0000
  H   H617      1.0  0.02440  0.29948  0.55516  1.0000
  C   C338      1.0  0.28638  0.29925  0.59300  1.0000
  C   C339      1.0  0.01025  0.46975  0.58744  1.0000
  H   H618      1.0  0.04429  0.40638  0.36445  1.0000
  H   H619      1.0  0.32026  0.31570  0.53745  1.0000
  H   H620      1.0  0.03781  0.28729  0.50151  1.0000
  H   H621      1.0  0.32303  0.26837  0.49494  1.0000
  H   H622      1.0  0.07135  0.34588  0.34129  1.0000
  H   H623      1.0  0.34407  0.29584  0.50671  1.0000
  H   H624      1.0  0.39434  0.23864  0.34206  1.0000
  H   H625      1.0  0.17685  0.41411  0.35064  1.0000
  C   C340      1.0  0.18467  0.41791  0.60151  1.0000
  C   C341      1.0  0.99900  0.36629  0.52940  1.0000
  H   H626      1.0  0.20964  0.44488  0.43118  1.0000
  C   C342      1.0  0.20083  0.45110  0.44340  1.0000
  C   C343      1.0  0.28167  0.36141  0.60938  1.0000
  H   H627      1.0  0.05139  0.31375  0.55582  1.0000
  C   C344      1.0  0.15839  0.42443  0.44100  1.0000
  Fe  Fe51      1.0  0.07215  0.35522  0.57329  1.0000
  C   C345      1.0  0.05875  0.30405  0.54558  1.0000
  N   N19       1.0  0.20361  0.41707  0.46424  1.0000
  C   C346      1.0  0.19088  0.41315  0.45211  1.0000
  C   C347      1.0  0.22383  0.40637  0.45904  1.0000
  C   C348      1.0  0.19603  0.40897  0.48449  1.0000
  C   C349      1.0  0.20845  0.40910  0.49934  1.0000
  C   C350      1.0  0.23467  0.41242  0.43883  1.0000
  C   C351      1.0  0.25455  0.39985  0.43535  1.0000
  C   C352      1.0  0.19725  0.40533  0.51946  1.0000
  H   H628      1.0  0.19239  0.39745  0.45271  1.0000
  H   H629      1.0  0.19557  0.41868  0.43697  1.0000
  H   H630      1.0  0.23328  0.40798  0.46855  1.0000
  H   H631      1.0  0.22364  0.39083  0.46110  1.0000
  H   H632      1.0  0.19415  0.39393  0.48566  1.0000
  H   H633      1.0  0.18140  0.41692  0.48923  1.0000
  H   H634      1.0  0.16242  0.41029  0.46904  1.0000
  H   H635      1.0  0.21330  0.42299  0.49726  1.0000
  H   H636      1.0  0.22135  0.39761  0.49831  1.0000
  H   H637      1.0  0.22665  0.41129  0.42790  1.0000
  H   H638      1.0  0.23719  0.42728  0.43694  1.0000
  H   H639      1.0  0.26372  0.40159  0.44506  1.0000
  H   H640      1.0  0.25333  0.38455  0.43748  1.0000
  H   H641      1.0  0.26176  0.40405  0.42058  1.0000
  H   H642      1.0  0.16462  0.43482  0.42917  1.0000
  H   H643      1.0  0.20686  0.40449  0.52973  1.0000
  H   H644      1.0  0.18477  0.41702  0.52185  1.0000
  H   H645      1.0  0.19200  0.39156  0.52220  1.0000
  N   N20       1.0  0.32503  0.28289  0.36974  1.0000
  C   C353      1.0  0.32034  0.26345  0.37042  1.0000
  C   C354      1.0  0.34075  0.28673  0.35300  1.0000
  C   C355      1.0  0.33324  0.28206  0.38725  1.0000
  C   C356      1.0  0.30758  0.29869  0.36925  1.0000
  C   C357      1.0  0.29157  0.29645  0.35907  1.0000
  C   C358      1.0  0.30702  0.25571  0.38865  1.0000
  C   C359      1.0  0.34054  0.30021  0.38877  1.0000
  C   C360      1.0  0.33609  0.28751  0.33322  1.0000
  S   S94       1.0  0.36602  0.23837  0.47431  1.0000
  C   C361      1.0  0.27624  0.31455  0.35766  1.0000
  H   H646      1.0  0.29178  0.33131  0.61052  1.0000
  H   H647      1.0  0.26672  0.36074  0.60840  1.0000
  H   H648      1.0  0.33385  0.25263  0.36901  1.0000
  H   H649      1.0  0.31362  0.26326  0.35825  1.0000
  H   H650      1.0  0.34489  0.30075  0.35235  1.0000
  C   C362      1.0  0.04919  0.29624  0.49797  1.0000
  H   H651      1.0  0.34540  0.26981  0.38862  1.0000
  H   H652      1.0  0.32223  0.27941  0.40003  1.0000
  H   H653      1.0  0.30015  0.30048  0.38386  1.0000
  H   H654      1.0  0.31217  0.31265  0.36280  1.0000
  H   H655      1.0  0.28410  0.28460  0.36704  1.0000
  H   H656      1.0  0.29733  0.29335  0.34465  1.0000
  H   H657      1.0  0.31541  0.25037  0.40031  1.0000
  H   H658      1.0  0.29496  0.26698  0.39318  1.0000
  H   H659      1.0  0.32955  0.31324  0.38616  1.0000
  H   H660      1.0  0.12910  0.42828  0.32068  1.0000
  H   H661      1.0  0.33067  0.27466  0.33226  1.0000
  H   H662      1.0  0.32531  0.30047  0.32970  1.0000
  H   H663      1.0  0.18556  0.45339  0.44162  1.0000
  H   H664      1.0  0.31579  0.31597  0.51420  1.0000
  C   C363      1.0  0.04133  0.41138  0.62073  1.0000
  H   H665      1.0  0.26949  0.31777  0.37197  1.0000
  C   C364      1.0  0.99489  0.29196  0.54059  1.0000
  H   H666      1.0  0.99266  0.33385  0.63638  1.0000
  H   H667      1.0  0.99357  0.42157  0.37564  1.0000
  H   H668      1.0  0.28915  0.24390  0.37509  1.0000
  C   C365      1.0  0.27295  0.28822  0.60384  1.0000
  C   C366      1.0  0.99512  0.32712  0.39010  1.0000
  H   H669      1.0  0.11665  0.40033  0.63327  1.0000
  H   H670      1.0  0.17049  0.41117  0.32090  1.0000
  H   H671      1.0  0.07630  0.44076  0.33899  1.0000
  C   C367      1.0  0.25293  0.46235  0.37244  1.0000
  C   C368      1.0  0.99911  0.46690  0.60766  1.0000
  C   C369      1.0  0.00448  0.37582  0.54157  1.0000
  C   C370      1.0  0.99854  0.30129  0.46031  1.0000
  C   C371      1.0  0.04193  0.43037  0.62152  1.0000
  C   C372      1.0  0.35411  0.28883  0.31804  1.0000
  H   H672      1.0  0.09377  0.42987  0.32110  1.0000
  C   C373      1.0  0.04100  0.39760  0.63716  1.0000
  H   H673      1.0  0.09629  0.43112  0.62481  1.0000
  H   H674      1.0  0.26924  0.47690  0.33887  1.0000
  C   C374      1.0  0.29860  0.23908  0.38594  1.0000
  S   S95       1.0  0.23706  0.44550  0.31108  1.0000
  C   C375      1.0  0.12264  0.41333  0.63271  1.0000
  H   H675      1.0  0.14369  0.47895  0.32913  1.0000
  H   H676      1.0  0.20313  0.47985  0.42857  1.0000
  H   H677      1.0  0.11870  0.47650  0.33616  1.0000
  H   H678      1.0  0.00030  0.47313  0.57707  1.0000
  C   C376      1.0  0.13248  0.47481  0.34127  1.0000
  C   C377      1.0  0.16540  0.39726  0.62754  1.0000
  C   C378      1.0  0.10561  0.42970  0.63547  1.0000
  H   H679      1.0  0.13989  0.37479  0.63682  1.0000
  C   C379      1.0  0.06375  0.40891  0.30631  1.0000
  C   C380      1.0  0.99594  0.33586  0.40504  1.0000
  H   H680      1.0  0.99512  0.30635  0.44583  1.0000
  H   H681      1.0  0.30425  0.36428  0.63730  1.0000
  H   H682      1.0  0.18114  0.41895  0.63089  1.0000
  H   H683      1.0  0.28551  0.29645  0.63656  1.0000
  H   H684      1.0  0.23099  0.37499  0.63744  1.0000
  H   H685      1.0  0.29042  0.48013  0.30620  1.0000
  H   H686      1.0  0.00273  0.39237  0.63785  1.0000
  H   H687      1.0  0.11079  0.44338  0.63370  1.0000
  C   C381      1.0  0.25608  0.48230  0.33240  1.0000
  C   C382      1.0  0.10943  0.37439  0.73229  1.0000
  C   C383      1.0  0.48412  0.28580  0.90165  1.0000
  H   H688      1.0  0.41235  0.45633  0.94685  1.0000
  H   H689      1.0  0.01107  0.38404  0.71993  1.0000
  Fe  Fe52      1.0  0.08574  0.45234  0.68895  1.0000
  H   H690      1.0  0.37882  0.39484  0.77585  1.0000
  S   S96       1.0  0.11710  0.43817  0.68611  1.0000
  Fe  Fe53      1.0  0.04529  0.44633  0.70913  1.0000
  H   H691      1.0  0.43516  0.36163  0.74564  1.0000
  Fe  Fe54      1.0  0.05234  0.46049  0.66700  1.0000
  H   H692      1.0  0.48262  0.27226  0.89874  1.0000
  H   H693      1.0  0.49053  0.39398  0.89330  1.0000
  S   S97       1.0  0.06562  0.43448  0.68518  1.0000
  S   S98       1.0  0.06653  0.46213  0.71462  1.0000
  H   H694      1.0  0.43581  0.47913  0.82970  1.0000
  H   H695      1.0  0.41210  0.41881  0.88325  1.0000
  C   C384      1.0  0.38811  0.24008  0.70546  1.0000
  H   H696      1.0  0.07126  0.39964  0.71080  1.0000
  H   H697      1.0  0.26881  0.46954  0.85245  1.0000
  S   S99       1.0  0.04383  0.45908  0.63962  1.0000
  H   H698      1.0  0.28138  0.38821  0.65428  1.0000
  Fe  Fe55      1.0  0.48005  0.37827  0.95085  1.0000
  H   H699      1.0  0.43763  0.41783  0.88031  1.0000
  H   H700      1.0  0.34508  0.45818  0.93912  1.0000
  H   H701      1.0  0.08769  0.37545  0.66889  1.0000
  C   C385      1.0  0.29294  0.43486  0.89881  1.0000
  H   H702      1.0  0.29504  0.47900  0.78441  1.0000
  H   H703      1.0  0.01412  0.48072  0.73165  1.0000
  H   H704      1.0  0.37396  0.48153  0.90083  1.0000
  H   H705      1.0  0.00830  0.45918  0.66726  1.0000
  H   H706      1.0  0.46660  0.39863  0.87169  1.0000
  H   H707      1.0  0.41122  0.38593  0.96250  1.0000
  Fe  Fe56      1.0  0.45957  0.35083  0.82595  1.0000
  S   S100      1.0  0.46423  0.31922  0.82596  1.0000
  S   S101      1.0  0.43018  0.36639  0.83751  1.0000
  H   H708      1.0  0.34475  0.43067  0.78403  1.0000
  Fe  Fe57      1.0  0.48951  0.31796  0.83989  1.0000
  H   H709      1.0  0.29657  0.41680  0.93653  1.0000
  H   H710      1.0  0.41106  0.37766  0.76526  1.0000
  H   H711      1.0  0.40299  0.36994  0.78971  1.0000
  Fe  Fe58      1.0  0.48449  0.32516  0.79858  1.0000
  H   H712      1.0  0.21991  0.44199  0.89525  1.0000
  C   C386      1.0  0.08602  0.39124  0.71119  1.0000
  H   H713      1.0  0.39482  0.24857  0.71237  1.0000
  C   C387      1.0  0.42223  0.48098  0.82413  1.0000
  H   H714      1.0  0.44249  0.44234  0.92701  1.0000
  H   H715      1.0  0.21999  0.42571  0.87980  1.0000
  Fe  Fe59      1.0  0.23763  0.44184  0.68890  1.0000
  S   S102      1.0  0.24327  0.41223  0.68095  1.0000
  H   H716      1.0  0.26163  0.43415  0.79722  1.0000
  S   S103      1.0  0.22610  0.44280  0.71984  1.0000
  Fe  Fe60      1.0  0.35742  0.45257  0.80676  1.0000
  S   S104      1.0  0.33743  0.43713  0.82936  1.0000
  S   S105      1.0  0.38308  0.43653  0.78940  1.0000
  C   C388      1.0  0.23158  0.31958  0.65658  1.0000
  H   H717      1.0  0.37669  0.46424  0.88608  1.0000
  C   C389      1.0  0.40178  0.47883  0.85701  1.0000
  H   H718      1.0  0.04818  0.38710  0.75111  1.0000
  S   S106      1.0  0.33339  0.47220  0.79355  1.0000
  H   H719      1.0  0.25163  0.32762  0.66979  1.0000
  H   H720      1.0  0.44321  0.31256  0.76480  1.0000
  H   H721      1.0  0.11079  0.34861  0.71988  1.0000
  N   N21       1.0  0.42246  0.33540  0.77627  1.0000
  S   S107      1.0  0.47402  0.31074  0.94777  1.0000
  S   S108      1.0  0.46242  0.23888  0.76016  1.0000
  H   H722      1.0  0.14088  0.46075  0.65448  1.0000
  H   H723      1.0  0.25525  0.41854  0.87385  1.0000
  N   N22       1.0  0.08855  0.38325  0.73132  1.0000
  H   H724      1.0  0.37287  0.24029  0.71250  1.0000
  H   H725      1.0  0.45605  0.34308  0.74607  1.0000
  C   C390      1.0  0.41756  0.38570  0.82359  1.0000
  C   C391      1.0  0.42470  0.39184  0.80454  1.0000
  C   C392      1.0  0.41399  0.40736  0.79402  1.0000
  C   C393      1.0  0.39636  0.41700  0.80261  1.0000
  C   C394      1.0  0.38943  0.41089  0.82168  1.0000
  C   C395      1.0  0.39984  0.39515  0.83203  1.0000
  H   H726      1.0  0.43844  0.38472  0.79797  1.0000
  H   H727      1.0  0.41950  0.41209  0.77929  1.0000
  H   H728      1.0  0.37605  0.41829  0.82854  1.0000
  H   H729      1.0  0.39426  0.39048  0.84676  1.0000
  C   C396      1.0  0.47088  0.28169  0.78368  1.0000
  H   H730      1.0  0.40617  0.47237  0.90683  1.0000
  H   H731      1.0  0.07556  0.43573  0.75184  1.0000
  H   H732      1.0  0.09426  0.42138  0.76437  1.0000
  H   H733      1.0  0.30999  0.40888  0.87377  1.0000
  C   C397      1.0  0.22799  0.42884  0.88985  1.0000
  H   H734      1.0  0.08298  0.39398  0.75764  1.0000
  H   H735      1.0  0.14127  0.33086  0.72976  1.0000
  S   S109      1.0  0.03102  0.42600  0.73254  1.0000
  H   H736      1.0  0.41443  0.41774  0.84962  1.0000
  S   S110      1.0  0.43682  0.24596  0.67435  1.0000
  H   H737      1.0  0.39997  0.31379  0.76519  1.0000
  H   H738      1.0  0.06823  0.40732  0.74113  1.0000
  C   C398      1.0  0.48802  0.32070  0.90948  1.0000
  C   C399      1.0  0.46554  0.26507  0.78090  1.0000
  H   H739      1.0  0.10908  0.34433  0.74504  1.0000
  C   C400      1.0  0.45967  0.36915  0.75285  1.0000
  H   H740      1.0  0.28936  0.45797  0.91507  1.0000
  H   H741      1.0  0.16822  0.40873  0.65997  1.0000
  H   H742      1.0  0.24848  0.47177  0.87166  1.0000
  S   S111      1.0  0.03049  0.47117  0.69075  1.0000
  C   C401      1.0  0.32212  0.47641  0.89387  1.0000
  H   H743      1.0  0.08164  0.36494  0.70323  1.0000
  C   C402      1.0  0.24011  0.40911  0.65861  1.0000
  C   C403      1.0  0.23542  0.39187  0.65669  1.0000
  C   C404      1.0  0.44915  0.41799  0.94847  1.0000
  H   H744      1.0  0.43214  0.31337  0.79867  1.0000
  H   H745      1.0  0.30190  0.27889  0.66331  1.0000
  H   H746      1.0  0.23266  0.38118  0.66910  1.0000
  H   H747      1.0  0.48951  0.33419  0.91244  1.0000
  C   C405      1.0  0.13238  0.44682  0.69689  1.0000
  C   C406      1.0  0.15242  0.44215  0.69140  1.0000
  C   C407      1.0  0.16495  0.44961  0.69905  1.0000
  C   C408      1.0  0.15749  0.46167  0.71241  1.0000
  Fe  Fe61      1.0  0.31350  0.45837  0.81773  1.0000
  C   C409      1.0  0.12492  0.45861  0.71046  1.0000
  H   H748      1.0  0.15828  0.43322  0.68078  1.0000
  H   H749      1.0  0.18036  0.44621  0.69446  1.0000
  H   H750      1.0  0.26741  0.36293  0.64677  1.0000
  H   H751      1.0  0.10950  0.46237  0.71473  1.0000
  C   C410      1.0  0.11553  0.35269  0.73162  1.0000
  H   H752      1.0  0.99925  0.43723  0.67626  1.0000
  S   S112      1.0  0.46925  0.40674  0.93416  1.0000
  C   C411      1.0  0.29947  0.43163  0.93213  1.0000
  C   C412      1.0  0.99549  0.43744  0.72088  1.0000
  H   H753      1.0  0.42525  0.43690  0.85237  1.0000
  H   H754      1.0  0.99632  0.41593  0.64327  1.0000
  C   C413      1.0  0.04199  0.36017  0.74937  1.0000
  H   H755      1.0  0.29604  0.43864  0.94480  1.0000
  H   H756      1.0  0.34818  0.46747  0.71646  1.0000
  S   S113      1.0  0.48026  0.24135  0.70353  1.0000
  C   C414      1.0  0.04010  0.40310  0.65446  1.0000
  C   C415      1.0  0.03998  0.42216  0.65536  1.0000
  H   H757      1.0  0.29082  0.46805  0.87619  1.0000
  C   C416      1.0  0.26861  0.46670  0.75684  1.0000
  C   C417      1.0  0.40085  0.36939  0.77541  1.0000
  H   H758      1.0  0.03960  0.39254  0.66716  1.0000
  H   H759      1.0  0.03848  0.42635  0.66887  1.0000
  H   H760      1.0  0.01120  0.33848  0.64693  1.0000
  C   C418      1.0  0.40419  0.34858  0.77149  1.0000
  H   H761      1.0  0.27178  0.44248  0.92383  1.0000
  C   C419      1.0  0.01061  0.38916  0.70469  1.0000
  C   C420      1.0  0.41517  0.30647  0.76490  1.0000
  H   H762      1.0  0.16702  0.35599  0.66556  1.0000
  C   C421      1.0  0.13747  0.46582  0.71836  1.0000
  H   H763      1.0  0.31603  0.48174  0.88115  1.0000
  H   H764      1.0  0.48957  0.29808  0.73820  1.0000
  C   C422      1.0  0.49071  0.29965  0.88683  1.0000
  H   H765      1.0  0.04470  0.35326  0.76377  1.0000
  H   H766      1.0  0.07784  0.36338  0.75545  1.0000
  H   H767      1.0  0.07895  0.35631  0.73361  1.0000
  H   H768      1.0  0.41954  0.30500  0.73485  1.0000
  C   C423      1.0  0.41361  0.33596  0.81236  1.0000
  C   C424      1.0  0.41120  0.32289  0.83159  1.0000
  H   H769      1.0  0.21638  0.47320  0.76521  1.0000
  C   C425      1.0  0.00673  0.42478  0.73317  1.0000
  H   H770      1.0  0.38346  0.45117  0.92514  1.0000
  S   S114      1.0  0.21508  0.46564  0.67794  1.0000
  H   H771      1.0  0.40706  0.31627  0.79802  1.0000
  C   C426      1.0  0.41905  0.32428  0.79610  1.0000
  H   H772      1.0  0.47034  0.37347  0.87263  1.0000
  C   C427      1.0  0.99869  0.41032  0.74611  1.0000
  S   S115      1.0  0.34509  0.44749  0.87580  1.0000
  H   H773      1.0  0.43510  0.35737  0.78283  1.0000
  C   C428      1.0  0.05344  0.37640  0.74157  1.0000
  H   H774      1.0  0.01033  0.40483  0.70157  1.0000
  C   C429      1.0  0.09003  0.37663  0.69762  1.0000
  H   H775      1.0  0.42490  0.34429  0.81196  1.0000
  H   H776      1.0  0.39958  0.34564  0.81159  1.0000
  H   H777      1.0  0.42449  0.31219  0.83326  1.0000
  H   H778      1.0  0.40824  0.33160  0.84298  1.0000
  H   H779      1.0  0.22870  0.41666  0.90180  1.0000
  H   H780      1.0  0.11322  0.37605  0.74575  1.0000
  Fe  Fe62      1.0  0.20441  0.46728  0.70858  1.0000
  H   H781      1.0  0.24737  0.43613  0.64378  1.0000
  S   S116      1.0  0.47781  0.35709  0.79745  1.0000
  H   H782      1.0  0.41972  0.36601  0.93767  1.0000
  C   C430      1.0  0.08458  0.38614  0.67844  1.0000
  H   H783      1.0  0.41608  0.47248  0.86092  1.0000
  C   C431      1.0  0.16427  0.39444  0.66153  1.0000
  C   C432      1.0  0.15406  0.38988  0.68234  1.0000
  C   C433      1.0  0.47769  0.27217  0.74744  1.0000
  H   H784      1.0  0.42103  0.40503  0.91182  1.0000
  H   H785      1.0  0.06896  0.39225  0.68005  1.0000
  H   H786      1.0  0.11153  0.40925  0.73504  1.0000
  C   C434      1.0  0.16803  0.38763  0.69601  1.0000
  S   S117      1.0  0.48733  0.31433  0.77102  1.0000
  C   C435      1.0  0.42282  0.38077  0.93391  1.0000
  H   H787      1.0  0.37782  0.38055  0.75884  1.0000
  H   H788      1.0  0.47370  0.27875  0.93144  1.0000
  H   H789      1.0  0.17371  0.35734  0.64048  1.0000
  S   S118      1.0  0.07433  0.47756  0.66847  1.0000
  H   H790      1.0  0.39007  0.43634  0.90704  1.0000
  C   C436      1.0  0.40884  0.39229  0.94789  1.0000
  H   H791      1.0  0.47293  0.36194  0.75861  1.0000
  H   H792      1.0  0.14805  0.37656  0.68521  1.0000
  H   H793      1.0  0.14205  0.40165  0.68572  1.0000
  H   H794      1.0  0.46812  0.28526  0.79768  1.0000
  C   C437      1.0  0.09105  0.42902  0.75034  1.0000
  S   S119      1.0  0.26438  0.47324  0.73340  1.0000
  C   C438      1.0  0.13314  0.47351  0.64619  1.0000
  S   S120      1.0  0.28676  0.44816  0.81501  1.0000
  C   C439      1.0  0.13741  0.34654  0.72942  1.0000
  H   H795      1.0  0.40538  0.38908  0.91179  1.0000
  H   H796      1.0  0.39136  0.34215  0.77902  1.0000
  H   H797      1.0  0.22483  0.31143  0.66995  1.0000
  H   H798      1.0  0.16018  0.38540  0.71079  1.0000
  H   H799      1.0  0.17974  0.37515  0.69407  1.0000
  H   H800      1.0  0.17453  0.40066  0.69372  1.0000
  H   H801      1.0  0.42689  0.32846  0.88831  1.0000
  C   C440      1.0  0.34441  0.45342  0.91128  1.0000
  H   H802      1.0  0.41147  0.28455  0.75055  1.0000
  C   C441      1.0  0.44699  0.35458  0.75357  1.0000
  N   N23       1.0  0.32469  0.43933  0.73214  1.0000
  C   C442      1.0  0.30777  0.42955  0.73368  1.0000
  C   C443      1.0  0.32799  0.43928  0.75179  1.0000
  C   C444      1.0  0.31912  0.45992  0.72307  1.0000
  C   C445      1.0  0.34286  0.43046  0.72027  1.0000
  C   C446      1.0  0.34597  0.40856  0.72069  1.0000
  C   C447      1.0  0.29997  0.43153  0.71508  1.0000
  H   H803      1.0  0.09984  0.44050  0.74535  1.0000
  C   C448      1.0  0.33339  0.41955  0.76407  1.0000
  C   C449      1.0  0.33407  0.42165  0.78416  1.0000
  C   C450      1.0  0.36656  0.40096  0.71167  1.0000
  C   C451      1.0  0.28579  0.41798  0.71720  1.0000
  C   C452      1.0  0.31035  0.28318  0.64913  1.0000
  H   H804      1.0  0.29543  0.43535  0.74408  1.0000
  H   H805      1.0  0.31108  0.41413  0.73948  1.0000
  H   H806      1.0  0.43034  0.32840  0.74802  1.0000
  H   H807      1.0  0.31495  0.44726  0.75976  1.0000
  H   H808      1.0  0.31502  0.43117  0.92622  1.0000
  H   H809      1.0  0.31739  0.46081  0.70820  1.0000
  H   H810      1.0  0.34347  0.43706  0.70508  1.0000
  H   H811      1.0  0.35573  0.43375  0.72426  1.0000
  H   H812      1.0  0.33607  0.40524  0.71262  1.0000
  H   H813      1.0  0.34323  0.40038  0.73514  1.0000
  H   H814      1.0  0.29205  0.44625  0.71130  1.0000
  H   H815      1.0  0.31181  0.42866  0.70313  1.0000
  H   H816      1.0  0.25082  0.44577  0.90223  1.0000
  H   H817      1.0  0.30919  0.32163  0.64799  1.0000
  H   H818      1.0  0.32285  0.41012  0.76516  1.0000
  H   H819      1.0  0.34802  0.41258  0.75815  1.0000
  H   H820      1.0  0.33840  0.40740  0.79261  1.0000
  C   C453      1.0  0.16137  0.35729  0.65236  1.0000
  H   H821      1.0  0.31969  0.42818  0.79113  1.0000
  H   H822      1.0  0.37708  0.40311  0.71978  1.0000
  H   H823      1.0  0.36823  0.38542  0.71166  1.0000
  H   H824      1.0  0.36982  0.40833  0.69683  1.0000
  H   H825      1.0  0.29294  0.40287  0.72052  1.0000
  H   H826      1.0  0.27331  0.42114  0.72856  1.0000
  H   H827      1.0  0.28025  0.41993  0.70379  1.0000
  H   H828      1.0  0.27912  0.43873  0.85619  1.0000
  N   N24       1.0  0.43484  0.38090  0.89790  1.0000
  C   C454      1.0  0.42900  0.39065  0.87918  1.0000
  C   C455      1.0  0.43342  0.36000  0.90098  1.0000
  H   H829      1.0  0.43737  0.35248  0.91479  1.0000
  C   C456      1.0  0.45476  0.38331  0.89940  1.0000
  C   C457      1.0  0.46992  0.38462  0.88092  1.0000
  H   H830      1.0  0.14287  0.35005  0.74111  1.0000
  C   C458      1.0  0.44652  0.34812  0.88646  1.0000
  C   C459      1.0  0.44199  0.32796  0.88988  1.0000
  H   H831      1.0  0.24677  0.44348  0.86762  1.0000
  H   H832      1.0  0.29491  0.41903  0.90276  1.0000
  H   H833      1.0  0.41518  0.38684  0.87793  1.0000
  H   H834      1.0  0.43947  0.38540  0.86719  1.0000
  H   H835      1.0  0.32431  0.28632  0.65067  1.0000
  H   H836      1.0  0.41619  0.29580  0.77804  1.0000
  H   H837      1.0  0.09338  0.42379  0.72228  1.0000
  C   C460      1.0  0.24364  0.42286  0.64251  1.0000
  H   H838      1.0  0.45404  0.39661  0.90498  1.0000
  H   H839      1.0  0.45179  0.38061  0.76096  1.0000
  C   C461      1.0  0.41496  0.43351  0.97061  1.0000
  H   H840      1.0  0.34001  0.44687  0.75123  1.0000
  S   S121      1.0  0.46002  0.35856  0.96727  1.0000
  H   H841      1.0  0.35514  0.44054  0.91223  1.0000
  H   H842      1.0  0.44479  0.35461  0.87182  1.0000
  H   H843      1.0  0.46176  0.34668  0.88785  1.0000
  H   H844      1.0  0.44426  0.32032  0.90421  1.0000
  H   H845      1.0  0.30707  0.34844  0.65926  1.0000
  H   H846      1.0  0.45175  0.31978  0.87932  1.0000
  C   C462      1.0  0.27651  0.46353  0.88097  1.0000
  H   H847      1.0  0.04986  0.38291  0.72742  1.0000
  C   C463      1.0  0.46905  0.26014  0.76281  1.0000
  Fe  Fe63      1.0  0.24526  0.46442  0.71701  1.0000
  S   S122      1.0  0.36023  0.47326  0.82446  1.0000
  H   H848      1.0  0.31345  0.27099  0.64134  1.0000
  H   H849      1.0  0.17832  0.38448  0.65948  1.0000
  C   C464      1.0  0.42630  0.41282  0.87546  1.0000
  C   C465      1.0  0.26351  0.47414  0.86638  1.0000
  H   H850      1.0  0.27301  0.34554  0.66630  1.0000
  H   H851      1.0  0.41352  0.45710  0.88912  1.0000
  N   N25       1.0  0.27917  0.44199  0.88489  1.0000
  C   C466      1.0  0.32435  0.47963  0.92570  1.0000
  Fe  Fe64      1.0  0.33860  0.45900  0.84641  1.0000
  H   H852      1.0  0.44040  0.41531  0.84588  1.0000
  H   H853      1.0  0.09581  0.40170  0.70466  1.0000
  C   C467      1.0  0.29786  0.40516  0.85073  1.0000
  H   H854      1.0  0.00150  0.44880  0.71107  1.0000
  H   H855      1.0  0.41962  0.46678  0.82293  1.0000
  C   C468      1.0  0.26687  0.44607  0.78752  1.0000
  H   H856      1.0  0.00720  0.40059  0.75575  1.0000
  H   H857      1.0  0.45876  0.25587  0.79285  1.0000
  C   C469      1.0  0.26020  0.43537  0.89352  1.0000
  C   C470      1.0  0.33321  0.47353  0.72247  1.0000
  H   H858      1.0  0.28892  0.31379  0.66332  1.0000
  C   C471      1.0  0.25230  0.32043  0.65774  1.0000
  H   H859      1.0  0.39894  0.31531  0.83328  1.0000
  H   H860      1.0  0.30754  0.43807  0.89217  1.0000
  C   C472      1.0  0.29568  0.41252  0.86922  1.0000
  H   H861      1.0  0.11919  0.38217  0.72085  1.0000
  H   H862      1.0  0.12119  0.46928  0.64158  1.0000
  H   H863      1.0  0.46411  0.37581  0.73796  1.0000
  H   H864      1.0  0.30483  0.46627  0.73038  1.0000
  H   H865      1.0  0.25999  0.30551  0.66094  1.0000
  S   S123      1.0  0.25886  0.46123  0.68705  1.0000
  H   H866      1.0  0.38860  0.24690  0.69043  1.0000
  H   H867      1.0  0.12562  0.40717  0.66190  1.0000
  H   H868      1.0  0.13963  0.42393  0.64826  1.0000
  S   S124      1.0  0.17267  0.47259  0.72108  1.0000
  H   H869      1.0  0.40761  0.43808  0.92039  1.0000
  H   H870      1.0  0.39559  0.46646  0.85562  1.0000
  H   H871      1.0  0.28373  0.40784  0.84598  1.0000
  H   H872      1.0  0.48042  0.26858  0.73345  1.0000
  H   H873      1.0  0.41823  0.35851  0.90149  1.0000
  H   H874      1.0  0.14435  0.48246  0.67809  1.0000
  H   H875      1.0  0.39368  0.39222  0.94697  1.0000
  C   C473      1.0  0.13533  0.41013  0.64813  1.0000
  H   H876      1.0  0.00332  0.39563  0.67078  1.0000
  C   C474      1.0  0.24824  0.43168  0.87973  1.0000
  H   H877      1.0  0.28561  0.40472  0.88009  1.0000
  C   C475      1.0  0.40123  0.46310  0.89925  1.0000
  S   S125      1.0  0.31275  0.47887  0.83699  1.0000
  C   C476      1.0  0.33650  0.46011  0.89477  1.0000
  C   C477      1.0  0.28586  0.47118  0.78033  1.0000
  C   C478      1.0  0.42871  0.32101  0.76298  1.0000
  C   C479      1.0  0.39513  0.44619  0.91383  1.0000
  H   H878      1.0  0.30155  0.44121  0.86017  1.0000
  C   C480      1.0  0.42034  0.38964  0.91324  1.0000
  H   H879      1.0  0.14089  0.33822  0.66589  1.0000
  C   C481      1.0  0.42105  0.44316  0.95245  1.0000
  H   H880      1.0  0.41123  0.40728  0.94503  1.0000
  H   H881      1.0  0.04593  0.34931  0.73994  1.0000
  S   S126      1.0  0.48341  0.34896  0.84197  1.0000
  H   H882      1.0  0.43607  0.28757  0.74788  1.0000
  H   H883      1.0  0.30814  0.41234  0.83949  1.0000
  C   C482      1.0  0.27875  0.35092  0.65132  1.0000
  H   H884      1.0  0.26249  0.42172  0.90366  1.0000
  C   C483      1.0  0.07544  0.36899  0.74065  1.0000
  H   H885      1.0  0.00072  0.47942  0.75535  1.0000
  C   C484      1.0  0.48284  0.28889  0.75019  1.0000
  C   C485      1.0  0.42095  0.29529  0.74850  1.0000
  H   H886      1.0  0.40361  0.35007  0.75622  1.0000
  C   C486      1.0  0.42664  0.42113  0.85454  1.0000
  H   H887      1.0  0.02633  0.36599  0.75025  1.0000
  C   C487      1.0  0.38049  0.37997  0.77331  1.0000
  H   H888      1.0  0.02389  0.38190  0.69656  1.0000
  H   H889      1.0  0.09297  0.39769  0.67179  1.0000
  C   C488      1.0  0.28869  0.43449  0.86689  1.0000
  C   C489      1.0  0.29672  0.35930  0.65169  1.0000
  H   H890      1.0  0.28329  0.37245  0.67659  1.0000
  C   C490      1.0  0.26155  0.45151  0.76949  1.0000
  C   C491      1.0  0.43188  0.23400  0.65772  1.0000
  C   C492      1.0  0.99510  0.45273  0.67105  1.0000
  H   H891      1.0  0.46088  0.37154  0.91004  1.0000
  H   H892      1.0  0.30343  0.38955  0.85280  1.0000
  H   H893      1.0  0.30402  0.38191  0.66267  1.0000
  C   C493      1.0  0.43897  0.34588  0.77418  1.0000
  H   H894      1.0  0.14764  0.33959  0.64054  1.0000
  H   H895      1.0  0.33291  0.47618  0.73687  1.0000
  H   H896      1.0  0.45120  0.33611  0.78005  1.0000
  C   C494      1.0  0.28060  0.47657  0.76242  1.0000
  C   C495      1.0  0.29095  0.37647  0.66196  1.0000
  C   C496      1.0  0.08310  0.39960  0.74230  1.0000
  H   H897      1.0  0.43768  0.38048  0.93601  1.0000
  C   C497      1.0  0.43810  0.43527  0.94127  1.0000
  C   C498      1.0  0.33869  0.46335  0.92652  1.0000
  H   H898      1.0  0.36960  0.37284  0.78383  1.0000
  H   H899      1.0  0.25233  0.44378  0.76529  1.0000
  H   H900      1.0  0.23130  0.31228  0.64483  1.0000
  C   C499      1.0  0.15295  0.33935  0.65375  1.0000
  C   C500      1.0  0.27927  0.45573  0.79286  1.0000
  H   H901      1.0  0.22293  0.33420  0.65440  1.0000
  Fe  Fe65      1.0  0.48252  0.33553  0.95580  1.0000
  C   C501      1.0  0.28712  0.44294  0.91757  1.0000
  H   H902      1.0  0.10565  0.37060  0.69505  1.0000
  C   C502      1.0  0.09593  0.41527  0.73618  1.0000
  N   N26       1.0  0.15271  0.39437  0.64668  1.0000
  H   H903      1.0  0.40305  0.24998  0.65766  1.0000
  C   C503      1.0  0.99545  0.33871  0.64877  1.0000
  H   H904      1.0  0.13362  0.37449  0.66139  1.0000
  H   H905      1.0  0.16432  0.32650  0.65573  1.0000
  H   H906      1.0  0.26997  0.46948  0.89410  1.0000
  H   H907      1.0  0.99578  0.44887  0.64293  1.0000
  C   C504      1.0  0.41374  0.23875  0.65210  1.0000
  C   C505      1.0  0.47908  0.28949  0.92017  1.0000
  C   C506      1.0  0.44357  0.40911  0.96701  1.0000
  C   C507      1.0  0.29485  0.31816  0.64813  1.0000
  C   C508      1.0  0.49013  0.38286  0.88513  1.0000
  H   H908      1.0  0.09671  0.42701  0.64971  1.0000
  C   C509      1.0  0.99280  0.38434  0.69987  1.0000
  C   C510      1.0  0.14587  0.37558  0.64937  1.0000
  C   C511      1.0  0.47980  0.29355  0.76834  1.0000
  H   H909      1.0  0.14458  0.35373  0.71571  1.0000
  C   C512      1.0  0.48101  0.30688  0.92420  1.0000
  H   H910      1.0  0.00398  0.36620  0.66432  1.0000
  H   H911      1.0  0.99491  0.36860  0.70119  1.0000
  C   C513      1.0  0.38417  0.47464  0.88959  1.0000
  H   H912      1.0  0.13162  0.47507  0.72875  1.0000
  C   C514      1.0  0.26257  0.33100  0.63897  1.0000
  N   N27       1.0  0.28196  0.33550  0.63948  1.0000
  C   C515      1.0  0.23456  0.38829  0.63878  1.0000
  C   C516      1.0  0.04165  0.43569  0.63882  1.0000
  C   C517      1.0  0.24928  0.71126  0.27893  1.0000
  H   H913      1.0  0.47174  0.65782  0.99454  1.0000
  H   H914      1.0  0.37289  0.58883  0.06891  1.0000
  C   C518      1.0  0.35283  0.56573  0.00309  1.0000
  H   H915      1.0  0.38293  0.55395  0.99391  1.0000
  C   C519      1.0  0.29918  0.55984  0.15332  1.0000
  Fe  Fe66      1.0  0.37369  0.63415  0.00052  1.0000
  S   S127      1.0  0.36627  0.62288  0.03195  1.0000
  H   H916      1.0  0.34170  0.57611  0.18149  1.0000
  C   C520      1.0  0.35579  0.51007  0.19939  1.0000
  S   S128      1.0  0.40388  0.63683  0.98576  1.0000
  H   H917      1.0  0.23330  0.60967  0.22171  1.0000
  C   C521      1.0  0.11012  0.66887  0.29209  1.0000
  C   C522      1.0  0.42045  0.71140  0.97312  1.0000
  H   H918      1.0  0.29182  0.54621  0.08102  1.0000
  H   H919      1.0  0.43034  0.66114  0.98853  1.0000
  S   S129      1.0  0.08561  0.67912  0.29756  1.0000
  C   C523      1.0  0.46053  0.66403  0.98558  1.0000
  C   C524      1.0  0.28210  0.73145  0.28008  1.0000
  H   H920      1.0  0.10394  0.59322  0.30023  1.0000
  N   N28       1.0  0.24990  0.71961  0.29591  1.0000
  H   H921      1.0  0.38902  0.68285  0.99879  1.0000
  H   H922      1.0  0.27814  0.53416  0.26573  1.0000
  C   C525      1.0  0.47670  0.69502  0.10094  1.0000
  Fe  Fe67      1.0  0.35768  0.66237  0.12465  1.0000
  S   S130      1.0  0.38419  0.65226  0.13796  1.0000
  H   H923      1.0  0.34900  0.55476  0.99680  1.0000
  H   H924      1.0  0.34512  0.57674  0.02934  1.0000
  S   S131      1.0  0.35531  0.64554  0.17879  1.0000
  Fe  Fe68      1.0  0.36843  0.62900  0.15510  1.0000
  S   S132      1.0  0.38207  0.59776  0.16148  1.0000
  S   S133      1.0  0.34291  0.63805  0.14032  1.0000
  C   C526      1.0  0.27398  0.68778  0.30406  1.0000
  H   H925      1.0  0.38127  0.60341  0.09208  1.0000
  H   H926      1.0  0.39724  0.70677  0.12248  1.0000
  S   S134      1.0  0.22747  0.63409  0.27653  1.0000
  Fe  Fe69      1.0  0.35278  0.50395  0.99318  1.0000
  H   H927      1.0  0.28117  0.57079  0.07388  1.0000
  C   C527      1.0  0.33885  0.56852  0.02174  1.0000
  N   N29       1.0  0.40144  0.57306  0.07148  1.0000
  S   S135      1.0  0.37395  0.49189  0.15534  1.0000
  H   H928      1.0  0.32572  0.57036  0.98206  1.0000
  C   C528      1.0  0.44298  0.65449  0.99544  1.0000
  S   S136      1.0  0.01352  0.49231  0.25625  1.0000
  S   S137      1.0  0.03265  0.51620  0.28982  1.0000
  H   H929      1.0  0.99724  0.72874  0.29800  1.0000
  C   C529      1.0  0.33575  0.48518  0.04448  1.0000
  C   C530      1.0  0.40692  0.58137  0.08646  1.0000
  C   C531      1.0  0.09635  0.54359  0.26446  1.0000
  H   H930      1.0  0.22465  0.72999  0.26727  1.0000
  H   H931      1.0  0.99805  0.49513  0.22306  1.0000
  Fe  Fe70      1.0  0.36052  0.50947  0.13099  1.0000
  C   C532      1.0  0.23806  0.55827  0.29983  1.0000
  S   S138      1.0  0.35625  0.54123  0.12061  1.0000
  H   H932      1.0  0.08333  0.55247  0.19553  1.0000
  H   H933      1.0  0.25945  0.53476  0.19827  1.0000
  H   H934      1.0  0.06839  0.58056  0.25340  1.0000
  S   S139      1.0  0.04846  0.64603  0.29778  1.0000
  H   H935      1.0  0.31828  0.53421  0.16185  1.0000
  C   C533      1.0  0.30290  0.55566  0.98219  1.0000
  H   H936      1.0  0.23509  0.62747  0.23466  1.0000
  Fe  Fe71      1.0  0.45380  0.72850  0.01556  1.0000
  H   H937      1.0  0.28140  0.49822  0.28776  1.0000
  H   H938      1.0  0.37910  0.56990  0.01061  1.0000
  H   H939      1.0  0.12725  0.71364  0.28717  1.0000
  H   H940      1.0  0.16012  0.69642  0.28952  1.0000
  H   H941      1.0  0.31057  0.54098  0.98670  1.0000
  C   C534      1.0  0.27757  0.55486  0.19913  1.0000
  H   H942      1.0  0.32427  0.59835  0.99506  1.0000
  H   H943      1.0  0.47371  0.60261  0.97831  1.0000
  H   H944      1.0  0.42285  0.58051  0.08415  1.0000
  S   S140      1.0  0.19170  0.48381  0.29860  1.0000
  C   C535      1.0  0.41439  0.58985  0.01682  1.0000
  H   H945      1.0  0.40158  0.59887  0.11756  1.0000
  H   H946      1.0  0.40950  0.56338  0.03440  1.0000
  H   H947      1.0  0.37420  0.57288  0.09049  1.0000
  Fe  Fe72      1.0  0.01976  0.49269  0.28489  1.0000
  C   C536      1.0  0.37984  0.57436  0.07512  1.0000
  H   H948      1.0  0.24792  0.55292  0.21223  1.0000
  H   H949      1.0  0.38227  0.70044  0.10954  1.0000
  C   C537      1.0  0.34109  0.50308  0.04182  1.0000
  C   C538      1.0  0.34395  0.50981  0.05738  1.0000
  H   H950      1.0  0.30624  0.60945  0.29939  1.0000
  C   C539      1.0  0.11896  0.49728  0.29900  1.0000
  H   H951      1.0  0.33824  0.51438  0.17820  1.0000
  H   H952      1.0  0.42800  0.55267  0.06761  1.0000
  H   H953      1.0  0.05197  0.52281  0.24859  1.0000
  H   H954      1.0  0.34477  0.50368  0.08722  1.0000
  H   H955      1.0  0.40505  0.51477  0.08213  1.0000
  S   S141      1.0  0.38442  0.49645  0.98207  1.0000
  C   C540      1.0  0.37538  0.58191  0.14988  1.0000
  C   C541      1.0  0.38050  0.56209  0.15544  1.0000
  C   C542      1.0  0.37486  0.54932  0.14653  1.0000
  C   C543      1.0  0.36400  0.55640  0.13209  1.0000
  C   C544      1.0  0.35884  0.57616  0.12664  1.0000
  C   C545      1.0  0.36479  0.58882  0.13525  1.0000
  H   H956      1.0  0.38883  0.55663  0.16668  1.0000
  H   H957      1.0  0.37892  0.53408  0.15083  1.0000
  H   H958      1.0  0.35017  0.58178  0.11570  1.0000
  H   H959      1.0  0.36128  0.60394  0.13040  1.0000
  H   H960      1.0  0.40065  0.61255  0.07529  1.0000
  H   H961      1.0  0.39533  0.62318  0.10617  1.0000
  H   H962      1.0  0.25004  0.65525  0.23521  1.0000
  H   H963      1.0  0.26352  0.64920  0.20250  1.0000
  H   H964      1.0  0.31627  0.56681  0.12539  1.0000
  H   H965      1.0  0.28650  0.55273  0.15916  1.0000
  C   C546      1.0  0.30727  0.57792  0.04032  1.0000
  H   H966      1.0  0.41902  0.54240  0.10067  1.0000
  H   H967      1.0  0.08567  0.57586  0.19881  1.0000
  H   H968      1.0  0.40395  0.50296  0.02321  1.0000
  H   H969      1.0  0.33612  0.61008  0.17402  1.0000
  H   H970      1.0  0.14707  0.61917  0.28446  1.0000
  H   H971      1.0  0.30112  0.60379  0.00888  1.0000
  H   H972      1.0  0.28408  0.54520  0.24149  1.0000
  H   H973      1.0  0.10166  0.62777  0.28755  1.0000
  C   C547      1.0  0.11752  0.66493  0.27390  1.0000
  C   C548      1.0  0.13739  0.65919  0.26833  1.0000
  H   H974      1.0  0.32682  0.64179  0.01310  1.0000
  H   H975      1.0  0.10791  0.66673  0.26391  1.0000
  H   H976      1.0  0.14295  0.65633  0.25414  1.0000
  H   H977      1.0  0.31626  0.54729  0.05225  1.0000
  H   H978      1.0  0.41419  0.72582  0.06338  1.0000
  H   H979      1.0  0.07767  0.51435  0.27037  1.0000
  H   H980      1.0  0.44851  0.64762  0.02436  1.0000
  C   C549      1.0  0.15014  0.65759  0.28079  1.0000
  C   C550      1.0  0.00148  0.70734  0.28017  1.0000
  N   N30       1.0  0.40725  0.71159  0.09224  1.0000
  H   H981      1.0  0.29246  0.55301  0.04682  1.0000
  H   H982      1.0  0.44631  0.63896  0.99533  1.0000
  H   H983      1.0  0.40070  0.68665  0.08488  1.0000
  C   C551      1.0  0.36534  0.63746  0.04872  1.0000
  C   C552      1.0  0.35815  0.63120  0.06781  1.0000
  C   C553      1.0  0.35776  0.64212  0.08164  1.0000
  C   C554      1.0  0.36420  0.65962  0.07642  1.0000
  H   H984      1.0  0.35259  0.61799  0.07195  1.0000
  H   H985      1.0  0.35213  0.63719  0.09629  1.0000
  H   H986      1.0  0.34808  0.52362  0.05540  1.0000
  H   H987      1.0  0.42973  0.64511  0.10918  1.0000
  H   H988      1.0  0.30078  0.53570  0.21032  1.0000
  C   C555      1.0  0.29484  0.56027  0.07290  1.0000
  H   H989      1.0  0.41338  0.50963  0.10438  1.0000
  C   C556      1.0  0.31070  0.57029  0.98934  1.0000
  C   C557      1.0  0.40184  0.48440  0.05076  1.0000
  H   H990      1.0  0.05838  0.55027  0.22473  1.0000
  C   C558      1.0  0.27728  0.48737  0.30022  1.0000
  H   H991      1.0  0.02305  0.69332  0.29774  1.0000
  C   C559      1.0  0.37189  0.65490  0.04350  1.0000
  C   C560      1.0  0.03942  0.58252  0.26907  1.0000
  H   H992      1.0  0.00514  0.63434  0.29437  1.0000
  C   C561      1.0  0.40955  0.53966  0.09176  1.0000
  S   S142      1.0  0.46299  0.71351  0.15199  1.0000
  H   H993      1.0  0.29920  0.62706  0.26805  1.0000
  H   H994      1.0  0.29306  0.58766  0.04014  1.0000
  H   H995      1.0  0.31425  0.55029  0.01548  1.0000
  H   H996      1.0  0.43731  0.72562  0.98495  1.0000
  H   H997      1.0  0.14660  0.53241  0.26130  1.0000
  H   H998      1.0  0.41932  0.61003  0.10003  1.0000
  H   H999      1.0  0.14976  0.49584  0.29133  1.0000
  S   S143      1.0  0.19691  0.50762  0.25518  1.0000
  C   C562      1.0  0.31623  0.54942  0.16342  1.0000
  H   H1000     1.0  0.33041  0.58293  0.16075  1.0000
  Fe  Fe73      1.0  0.19879  0.65021  0.28832  1.0000
  H   H1001     1.0  0.30530  0.56484  0.07942  1.0000
  H   H1002     1.0  0.29612  0.52943  0.18991  1.0000
  H   H1003     1.0  0.43030  0.58594  0.01566  1.0000
  S   S144      1.0  0.34238  0.68132  0.14583  1.0000
  S   S145      1.0  0.42689  0.71574  0.02528  1.0000
  H   H1004     1.0  0.06680  0.57278  0.27825  1.0000
  H   H1005     1.0  0.30213  0.58456  0.98491  1.0000
  C   C563      1.0  0.30423  0.55900  0.13220  1.0000
  H   H1006     1.0  0.99605  0.69396  0.28091  1.0000
  H   H1007     1.0  0.26538  0.53335  0.22130  1.0000
  C   C564      1.0  0.33269  0.54065  0.19060  1.0000
  C   C565      1.0  0.29767  0.54182  0.19584  1.0000
  H   H1008     1.0  0.27987  0.59148  0.28303  1.0000
  H   H1009     1.0  0.23333  0.53325  0.29105  1.0000
  H   H1010     1.0  0.09678  0.72672  0.29022  1.0000
  H   H1011     1.0  0.27353  0.56362  0.18586  1.0000
  H   H1012     1.0  0.30215  0.67374  0.23733  1.0000
  S   S146      1.0  0.47980  0.71431  0.99738  1.0000
  H   H1013     1.0  0.30977  0.57214  0.20182  1.0000
  H   H1014     1.0  0.06039  0.57335  0.22780  1.0000
  C   C566      1.0  0.41486  0.51851  0.09005  1.0000
  H   H1015     1.0  0.00037  0.56426  0.24739  1.0000
  C   C567      1.0  0.06040  0.57234  0.26590  1.0000
  S   S147      1.0  0.29966  0.65331  0.17814  1.0000
  S   S148      1.0  0.23403  0.49589  0.27753  1.0000
  C   C568      1.0  0.20663  0.55220  0.29816  1.0000
  C   C569      1.0  0.06191  0.55120  0.26388  1.0000
  C   C570      1.0  0.29682  0.48999  0.18793  1.0000
  C   C571      1.0  0.38597  0.71875  0.06640  1.0000
  H   H1016     1.0  0.17241  0.61598  0.25572  1.0000
  H   H1017     1.0  0.31131  0.61143  0.17209  1.0000
  H   H1018     1.0  0.13166  0.55555  0.26268  1.0000
  C   C572      1.0  0.06866  0.56012  0.22276  1.0000
  H   H1019     1.0  0.02898  0.71455  0.28160  1.0000
  H   H1020     1.0  0.09274  0.53715  0.27968  1.0000
  H   H1021     1.0  0.06255  0.48937  0.26400  1.0000
  H   H1022     1.0  0.23510  0.70278  0.24968  1.0000
  H   H1023     1.0  0.43332  0.65471  0.08421  1.0000
  S   S149      1.0  0.33340  0.49705  0.13906  1.0000
  H   H1024     1.0  0.40826  0.54572  0.06190  1.0000
  H   H1025     1.0  0.42394  0.69175  0.07400  1.0000
  H   H1026     1.0  0.44834  0.68293  0.14392  1.0000
  H   H1027     1.0  0.01060  0.55264  0.26826  1.0000
  H   H1028     1.0  0.29153  0.56579  0.12536  1.0000
  Fe  Fe74      1.0  0.22725  0.49111  0.25054  1.0000
  H   H1029     1.0  0.25786  0.71071  0.23997  1.0000
  H   H1030     1.0  0.39276  0.70677  0.05860  1.0000
  C   C573      1.0  0.08584  0.55154  0.23349  1.0000
  C   C574      1.0  0.26902  0.49076  0.21355  1.0000
  C   C575      1.0  0.28693  0.48356  0.12964  1.0000
  H   H1031     1.0  0.37406  0.54579  0.01826  1.0000
  H   H1032     1.0  0.47390  0.70677  0.08896  1.0000
  H   H1033     1.0  0.44749  0.73148  0.11493  1.0000
  C   C576      1.0  0.27524  0.66464  0.23862  1.0000
  H   H1034     1.0  0.41028  0.58652  0.00427  1.0000
  H   H1035     1.0  0.14429  0.55984  0.29264  1.0000
  C   C577      1.0  0.41774  0.68731  0.15453  1.0000
  H   H1036     1.0  0.08208  0.48628  0.24432  1.0000
  C   C578      1.0  0.42370  0.65610  0.09799  1.0000
  C   C579      1.0  0.40433  0.57876  0.03487  1.0000
  C   C580      1.0  0.00198  0.55097  0.25801  1.0000
  S   S150      1.0  0.35993  0.66152  0.98412  1.0000
  H   H1037     1.0  0.16091  0.60278  0.29969  1.0000
  H   H1038     1.0  0.31554  0.66785  0.20462  1.0000
  C   C581      1.0  0.08095  0.52104  0.25526  1.0000
  C   C582      1.0  0.41330  0.69169  0.08745  1.0000
  H   H1039     1.0  0.11913  0.51848  0.26021  1.0000
  H   H1040     1.0  0.32695  0.63265  0.99211  1.0000
  C   C583      1.0  0.06707  0.51572  0.24455  1.0000
  H   H1041     1.0  0.12132  0.53863  0.24148  1.0000
  H   H1042     1.0  0.39759  0.48647  0.06574  1.0000
  H   H1043     1.0  0.27766  0.56475  0.20876  1.0000
  C   C584      1.0  0.43748  0.65665  0.01626  1.0000
  H   H1044     1.0  0.42972  0.70725  0.10902  1.0000
  N   N31       1.0  0.13183  0.59768  0.30264  1.0000
  C   C585      1.0  0.28685  0.54426  0.25597  1.0000
  C   C586      1.0  0.11734  0.53428  0.25696  1.0000
  H   H1045     1.0  0.45638  0.67950  0.98676  1.0000
  H   H1046     1.0  0.43681  0.67780  0.10322  1.0000
  H   H1047     1.0  0.05737  0.49065  0.24084  1.0000
  C   C587      1.0  0.11697  0.59787  0.29084  1.0000
  C   C588      1.0  0.13184  0.53990  0.26630  1.0000
  H   H1048     1.0  0.34397  0.55380  0.06575  1.0000
  C   C589      1.0  0.42356  0.72041  0.16499  1.0000
  C   C590      1.0  0.16010  0.59253  0.27462  1.0000
  C   C591      1.0  0.11008  0.61726  0.27857  1.0000
  H   H1049     1.0  0.43629  0.67168  0.01793  1.0000
  C   C592      1.0  0.32323  0.60323  0.17951  1.0000
  C   C593      1.0  0.14282  0.66129  0.29914  1.0000
  C   C594      1.0  0.17731  0.60123  0.26289  1.0000
  C   C595      1.0  0.09679  0.61495  0.26580  1.0000
  H   H1050     1.0  0.03089  0.69264  0.27295  1.0000
  S   S151      1.0  0.36930  0.61601  0.98096  1.0000
  H   H1051     1.0  0.12223  0.58732  0.28117  1.0000
  H   H1052     1.0  0.32534  0.51190  0.20207  1.0000
  H   H1053     1.0  0.24113  0.69920  0.28346  1.0000
  C   C596      1.0  0.24240  0.71542  0.24567  1.0000
  C   C597      1.0  0.10281  0.49082  0.29656  1.0000
  H   H1054     1.0  0.16021  0.72151  0.28129  1.0000
  S   S152      1.0  0.26651  0.66860  0.26210  1.0000
  H   H1055     1.0  0.15026  0.59266  0.26486  1.0000
  C   C598      1.0  0.28844  0.61889  0.27743  1.0000
  H   H1056     1.0  0.28246  0.49539  0.13794  1.0000
  H   H1057     1.0  0.12242  0.62325  0.26936  1.0000
  H   H1058     1.0  0.37744  0.55808  0.05343  1.0000
  H   H1059     1.0  0.36803  0.51584  0.18961  1.0000
  H   H1060     1.0  0.43688  0.71574  0.08447  1.0000
  H   H1061     1.0  0.12845  0.53567  0.28186  1.0000
  C   C599      1.0  0.19818  0.56959  0.30418  1.0000
  C   C600      1.0  0.34967  0.56463  0.07055  1.0000
  H   H1062     1.0  0.31760  0.61249  0.03313  1.0000
  H   H1063     1.0  0.18492  0.59244  0.25197  1.0000
  S   S153      1.0  0.37538  0.48933  0.11096  1.0000
  H   H1064     1.0  0.18769  0.60168  0.27196  1.0000
  H   H1065     1.0  0.09179  0.62909  0.25748  1.0000
  H   H1066     1.0  0.10454  0.60512  0.25586  1.0000
  H   H1067     1.0  0.08392  0.60932  0.27439  1.0000
  C   C601      1.0  0.33686  0.51859  0.19214  1.0000
  C   C602      1.0  0.06735  0.49418  0.24871  1.0000
  H   H1068     1.0  0.31524  0.58388  0.04848  1.0000
  C   C603      1.0  0.29367  0.66833  0.22980  1.0000
  C   C604      1.0  0.13348  0.71477  0.29936  1.0000
  H   H1069     1.0  0.09540  0.51344  0.24960  1.0000
  N   N32       1.0  0.31419  0.55108  0.18388  1.0000
  C   C605      1.0  0.30132  0.66497  0.21127  1.0000
  H   H1070     1.0  0.41306  0.67653  0.11677  1.0000
  H   H1071     1.0  0.37506  0.54503  0.07699  1.0000
  H   H1072     1.0  0.34312  0.56502  0.08559  1.0000
  H   H1073     1.0  0.07175  0.51960  0.22909  1.0000
  C   C606      1.0  0.14997  0.60378  0.29073  1.0000
  H   H1074     1.0  0.40925  0.65344  0.09732  1.0000
  C   C607      1.0  0.40454  0.69857  0.01051  1.0000
  C   C608      1.0  0.34219  0.49847  0.07540  1.0000
  H   H1075     1.0  0.38865  0.58235  0.03450  1.0000
  H   H1076     1.0  0.35271  0.57922  0.99279  1.0000
  C   C609      1.0  0.42207  0.67600  0.10262  1.0000
  S   S154      1.0  0.37883  0.69267  0.17034  1.0000
  H   H1077     1.0  0.34540  0.57886  0.06203  1.0000
  C   C610      1.0  0.40137  0.72476  0.07482  1.0000
  H   H1078     1.0  0.09619  0.54127  0.22525  1.0000
  H   H1079     1.0  0.41566  0.67436  0.15081  1.0000
  C   C611      1.0  0.37347  0.55843  0.00677  1.0000
  C   C612      1.0  0.42470  0.71713  0.09659  1.0000
  H   H1080     1.0  0.43000  0.51506  0.08278  1.0000
  H   H1081     1.0  0.30852  0.54395  0.12983  1.0000
  C   C613      1.0  0.29055  0.65795  0.20137  1.0000
  C   C614      1.0  0.37654  0.73034  0.11081  1.0000
  C   C615      1.0  0.43927  0.70863  0.15610  1.0000
  H   H1082     1.0  0.40779  0.51331  0.04209  1.0000
  H   H1083     1.0  0.04990  0.55024  0.25706  1.0000
  C   C616      1.0  0.32805  0.58259  0.17619  1.0000
  N   N33       1.0  0.08105  0.54206  0.25383  1.0000
  H   H1084     1.0  0.29819  0.58025  0.18193  1.0000
  H   H1085     1.0  0.48292  0.63387  0.97659  1.0000
  C   C617      1.0  0.40212  0.69879  0.16394  1.0000
  C   C618      1.0  0.30313  0.55839  0.05230  1.0000
  C   C619      1.0  0.31156  0.57160  0.18651  1.0000
  H   H1086     1.0  0.09359  0.56356  0.23243  1.0000
  H   H1087     1.0  0.39451  0.54239  0.09931  1.0000
  C   C620      1.0  0.37162  0.55937  0.06835  1.0000
  N   N34       1.0  0.28737  0.59860  0.25264  1.0000
  C   C621      1.0  0.29315  0.57836  0.24894  1.0000
  C   C622      1.0  0.29934  0.61110  0.23788  1.0000
  C   C623      1.0  0.29046  0.59886  0.27227  1.0000
  C   C624      1.0  0.26638  0.60622  0.25157  1.0000
  C   C625      1.0  0.25945  0.60380  0.23371  1.0000
  C   C626      1.0  0.28103  0.56386  0.26198  1.0000
  C   C627      1.0  0.32143  0.60610  0.23748  1.0000
  C   C628      1.0  0.33155  0.62193  0.22500  1.0000
  C   C629      1.0  0.23798  0.61188  0.23443  1.0000
  H   H1088     1.0  0.29124  0.72157  0.28965  1.0000
  H   H1089     1.0  0.30837  0.57269  0.25077  1.0000
  H   H1090     1.0  0.29293  0.57791  0.23396  1.0000
  H   H1091     1.0  0.29717  0.61058  0.22350  1.0000
  H   H1092     1.0  0.29436  0.62636  0.23931  1.0000
  H   H1093     1.0  0.30479  0.59051  0.27480  1.0000
  H   H1094     1.0  0.26793  0.50412  0.18464  1.0000
  H   H1095     1.0  0.25690  0.59971  0.26423  1.0000
  H   H1096     1.0  0.26310  0.62176  0.25203  1.0000
  H   H1097     1.0  0.26149  0.58854  0.23246  1.0000
  H   H1098     1.0  0.26734  0.61143  0.22070  1.0000
  H   H1099     1.0  0.46909  0.69976  0.11441  1.0000
  H   H1100     1.0  0.26540  0.56859  0.26177  1.0000
  H   H1101     1.0  0.32514  0.60415  0.25171  1.0000
  H   H1102     1.0  0.32748  0.59274  0.23163  1.0000
  H   H1103     1.0  0.32750  0.62549  0.21075  1.0000
  H   H1104     1.0  0.32763  0.63502  0.23152  1.0000
  H   H1105     1.0  0.34743  0.61727  0.22336  1.0000
  H   H1106     1.0  0.31905  0.60385  0.19477  1.0000
  H   H1107     1.0  0.40999  0.60544  0.01678  1.0000
  H   H1108     1.0  0.22929  0.60460  0.24716  1.0000
  S   S155      1.0  0.17494  0.65060  0.27259  1.0000
  H   H1109     1.0  0.40293  0.57291  0.10072  1.0000
  C   C630      1.0  0.24030  0.72517  0.26271  1.0000
  H   H1110     1.0  0.29300  0.56797  0.01640  1.0000
  H   H1111     1.0  0.47082  0.68263  0.09936  1.0000
  H   H1112     1.0  0.30467  0.63754  0.00841  1.0000
  H   H1113     1.0  0.37425  0.71387  0.07759  1.0000
  Fe  Fe75      1.0  0.20312  0.51033  0.28304  1.0000
  H   H1114     1.0  0.03074  0.57423  0.28098  1.0000
  H   H1115     1.0  0.09673  0.55884  0.26429  1.0000
  C   C631      1.0  0.42644  0.71671  0.98794  1.0000
  C   C632      1.0  0.39716  0.60229  0.08839  1.0000
  C   C633      1.0  0.40381  0.60891  0.10399  1.0000
  H   H1116     1.0  0.37609  0.67956  0.05316  1.0000
  C   C634      1.0  0.30886  0.56581  0.01121  1.0000
  H   H1117     1.0  0.40090  0.59987  0.05181  1.0000
  H   H1118     1.0  0.28724  0.55635  0.98776  1.0000
  S   S156      1.0  0.36327  0.67409  0.09326  1.0000
  C   C635      1.0  0.37122  0.66598  0.05730  1.0000
  C   C636      1.0  0.39924  0.69250  0.99571  1.0000
  Fe  Fe76      1.0  0.24029  0.65787  0.28083  1.0000
  S   S157      1.0  0.34409  0.51758  0.01940  1.0000
  H   H1119     1.0  0.28296  0.72525  0.26732  1.0000
  H   H1120     1.0  0.37741  0.65991  0.02884  1.0000
  H   H1121     1.0  0.30234  0.53852  0.25641  1.0000
  H   H1122     1.0  0.34017  0.60759  0.01738  1.0000
  S   S158      1.0  0.21134  0.67552  0.28984  1.0000
  H   H1123     1.0  0.27381  0.62720  0.27637  1.0000
  H   H1124     1.0  0.42336  0.65210  0.02234  1.0000
  H   H1125     1.0  0.42390  0.58479  0.05077  1.0000
  C   C637      1.0  0.22667  0.54658  0.29583  1.0000
  C   C638      1.0  0.41222  0.55278  0.07215  1.0000
  H   H1126     1.0  0.35719  0.71755  0.13478  1.0000
  H   H1127     1.0  0.06326  0.57201  0.19434  1.0000
  C   C639      1.0  0.26438  0.65778  0.22869  1.0000
  H   H1128     1.0  0.33297  0.54383  0.20472  1.0000
  C   C640      1.0  0.41854  0.71025  0.00664  1.0000
  C   C641      1.0  0.40817  0.58471  0.05258  1.0000
  Fe  Fe77      1.0  0.36836  0.66997  0.15992  1.0000
  C   C642      1.0  0.27203  0.65442  0.21015  1.0000
  H   H1129     1.0  0.28520  0.69303  0.29261  1.0000
  C   C643      1.0  0.26170  0.54321  0.20832  1.0000
  H   H1130     1.0  0.05870  0.54317  0.27852  1.0000
  C   C644      1.0  0.32437  0.61186  0.01823  1.0000
  C   C645      1.0  0.07575  0.56542  0.20157  1.0000
  H   H1131     1.0  0.16578  0.57759  0.28048  1.0000
  C   C646      1.0  0.32042  0.63216  0.00724  1.0000
  H   H1132     1.0  0.32952  0.55438  0.15512  1.0000
  C   C647      1.0  0.39114  0.71140  0.10919  1.0000
  H   H1133     1.0  0.35501  0.51326  0.21369  1.0000
  Fe  Fe78      1.0  0.33042  0.65573  0.16326  1.0000
  H   H1134     1.0  0.34538  0.54571  0.18090  1.0000
  C   C648      1.0  0.13740  0.49072  0.28940  1.0000
  N   N35       1.0  0.31818  0.57747  0.02037  1.0000
  C   C649      1.0  0.31653  0.59777  0.00986  1.0000
  H   H1135     1.0  0.33964  0.55409  0.03048  1.0000
  H   H1136     1.0  0.29527  0.57513  0.15471  1.0000
  C   C650      1.0  0.43624  0.69219  0.15069  1.0000
  C   C651      1.0  0.27707  0.49581  0.19447  1.0000
  H   H1137     1.0  0.00986  0.53896  0.25065  1.0000
  H   H1138     1.0  0.39839  0.69356  0.02498  1.0000
  H   H1139     1.0  0.03306  0.58435  0.25616  1.0000
  H   H1140     1.0  0.28331  0.56199  0.27677  1.0000
  H   H1141     1.0  0.38375  0.51111  0.04058  1.0000
  H   H1142     1.0  0.29729  0.48807  0.11680  1.0000
  H   H1143     1.0  0.39308  0.72438  0.17627  1.0000
  H   H1144     1.0  0.23571  0.72555  0.23433  1.0000
  C   C652      1.0  0.02237  0.70169  0.28334  1.0000
  H   H1145     1.0  0.25349  0.55372  0.29846  1.0000
  H   H1146     1.0  0.26388  0.70479  0.27250  1.0000
  H   H1147     1.0  0.03869  0.59685  0.27255  1.0000
  C   C653      1.0  0.40510  0.71544  0.16896  1.0000
  H   H1148     1.0  0.35866  0.49431  0.20030  1.0000
  H   H1149     1.0  0.00128  0.71541  0.26564  1.0000
  H   H1150     1.0  0.30279  0.49385  0.17319  1.0000
  S   S159      1.0  0.19141  0.53795  0.29422  1.0000
  S   S160      1.0  0.24404  0.49809  0.22082  1.0000
  C   C654      1.0  0.40736  0.69875  0.97700  1.0000
  C   C655      1.0  0.15542  0.71080  0.29360  1.0000
  H   H1151     1.0  0.26741  0.67803  0.29858  1.0000
  C   C656      1.0  0.29155  0.61731  0.29766  1.0000
  C   C657      1.0  0.39913  0.50415  0.03838  1.0000
  H   H1152     1.0  0.36635  0.73249  0.10083  1.0000
  H   H1153     1.0  0.28998  0.63186  0.30095  1.0000
  H   H1154     1.0  0.36674  0.73001  0.04613  1.0000
  S   S161      1.0  0.46966  0.73184  0.03762  1.0000
  C   C658      1.0  0.36469  0.73001  0.13067  1.0000
  H   H1155     1.0  0.37414  0.72922  0.14105  1.0000
  C   C659      1.0  0.22936  0.72747  0.30403  1.0000
  C   C660      1.0  0.12280  0.66697  0.30476  1.0000
  H   H1156     1.0  0.11990  0.56063  0.30507  1.0000
  Fe  Fe79      1.0  0.01097  0.51582  0.31643  1.0000
  C   C661      1.0  0.15853  0.67956  0.37959  1.0000
  H   H1157     1.0  0.00031  0.70172  0.42957  1.0000
  C   C662      1.0  0.04973  0.55830  0.31709  1.0000
  C   C663      1.0  0.23589  0.67806  0.35716  1.0000
  C   C664      1.0  0.21707  0.68700  0.35523  1.0000
  H   H1158     1.0  0.05510  0.69320  0.56820  1.0000
  H   H1159     1.0  0.12495  0.50371  0.34719  1.0000
  H   H1160     1.0  0.28864  0.71998  0.44430  1.0000
  H   H1161     1.0  0.21358  0.71172  0.58162  1.0000
  C   C665      1.0  0.12320  0.61181  0.31588  1.0000
  C   C666      1.0  0.27759  0.63235  0.47719  1.0000
  H   H1162     1.0  0.02949  0.70152  0.56995  1.0000
  H   H1163     1.0  0.19694  0.70018  0.51666  1.0000
  H   H1164     1.0  0.20490  0.65580  0.42259  1.0000
  H   H1165     1.0  0.17076  0.70600  0.56208  1.0000
  H   H1166     1.0  0.09428  0.69384  0.35118  1.0000
  C   C667      1.0  0.22315  0.69936  0.44435  1.0000
  Fe  Fe80      1.0  0.21445  0.66045  0.31939  1.0000
  Fe  Fe81      1.0  0.02305  0.65400  0.31996  1.0000
  H   H1167     1.0  0.22010  0.70633  0.51585  1.0000
  H   H1168     1.0  0.17231  0.51366  0.35173  1.0000
  H   H1169     1.0  0.10928  0.60817  0.32423  1.0000
  C   C668      1.0  0.19101  0.66320  0.39775  1.0000
  C   C669      1.0  0.10280  0.71193  0.60308  1.0000
  H   H1170     1.0  0.19355  0.65825  0.38397  1.0000
  C   C670      1.0  0.26376  0.69336  0.45389  1.0000
  H   H1171     1.0  0.19327  0.65974  0.62261  1.0000
  C   C671      1.0  0.14636  0.69208  0.56963  1.0000
  H   H1172     1.0  0.06136  0.72225  0.50844  1.0000
  C   C672      1.0  0.09572  0.72925  0.32721  1.0000
  C   C673      1.0  0.18308  0.69855  0.60864  1.0000
  H   H1173     1.0  0.22339  0.72171  0.54754  1.0000
  H   H1174     1.0  0.16714  0.73069  0.41483  1.0000
  C   C674      1.0  0.20997  0.72962  0.55493  1.0000
  C   C675      1.0  0.13498  0.56040  0.30659  1.0000
  C   C676      1.0  0.16327  0.70465  0.40729  1.0000
  H   H1175     1.0  0.05553  0.67367  0.36999  1.0000
  C   C677      1.0  0.10258  0.69969  0.62048  1.0000
  H   H1176     1.0  0.20091  0.58476  0.60800  1.0000
  C   C678      1.0  0.02416  0.72038  0.60016  1.0000
  H   H1177     1.0  0.09899  0.71513  0.57425  1.0000
  C   C679      1.0  0.05385  0.65095  0.39395  1.0000
  H   H1178     1.0  0.08695  0.68476  0.57912  1.0000
  H   H1179     1.0  0.12971  0.70338  0.31132  1.0000
  C   C680      1.0  0.09792  0.70620  0.58797  1.0000
  H   H1180     1.0  0.05327  0.63117  0.42021  1.0000
  Fe  Fe82      1.0  0.04658  0.64200  0.35187  1.0000
  H   H1181     1.0  0.18109  0.56571  0.63697  1.0000
  H   H1182     1.0  0.11296  0.61679  0.35415  1.0000
  C   C681      1.0  0.08818  0.71170  0.32459  1.0000
  C   C682      1.0  0.14370  0.64572  0.61155  1.0000
  S   S162      1.0  0.04444  0.63622  0.38343  1.0000
  H   H1183     1.0  0.29511  0.66428  0.31478  1.0000
  C   C683      1.0  0.99866  0.66348  0.40275  1.0000
  C   C684      1.0  0.22137  0.49548  0.33765  1.0000
  S   S163      1.0  0.02984  0.49420  0.33410  1.0000
  H   H1184     1.0  0.01834  0.70757  0.60855  1.0000
  C   C685      1.0  0.24336  0.50489  0.35525  1.0000
  C   C686      1.0  0.23776  0.52580  0.34519  1.0000
  C   C687      1.0  0.20203  0.49941  0.35152  1.0000
  C   C688      1.0  0.02089  0.71265  0.44893  1.0000
  H   H1185     1.0  0.27620  0.70151  0.47546  1.0000
  C   C689      1.0  0.03469  0.54807  0.31976  1.0000
  C   C690      1.0  0.24586  0.53977  0.35296  1.0000
  C   C691      1.0  0.18608  0.51205  0.34155  1.0000
  H   H1186     1.0  0.09926  0.70272  0.31590  1.0000
  H   H1187     1.0  0.27342  0.66931  0.33157  1.0000
  H   H1188     1.0  0.22244  0.50836  0.32660  1.0000
  H   H1189     1.0  0.02925  0.71506  0.47510  1.0000
  H   H1190     1.0  0.22019  0.71626  0.30655  1.0000
  H   H1191     1.0  0.20547  0.63582  0.41114  1.0000
  H   H1192     1.0  0.03907  0.68428  0.58892  1.0000
  H   H1193     1.0  0.23572  0.50446  0.37014  1.0000
  H   H1194     1.0  0.04738  0.72524  0.57604  1.0000
  H   H1195     1.0  0.22186  0.53027  0.34728  1.0000
  H   H1196     1.0  0.24310  0.52754  0.32984  1.0000
  H   H1197     1.0  0.29107  0.68493  0.32604  1.0000
  H   H1198     1.0  0.20369  0.50649  0.36293  1.0000
  H   H1199     1.0  0.14238  0.59920  0.33706  1.0000
  C   C692      1.0  0.00046  0.64957  0.42127  1.0000
  H   H1200     1.0  0.23317  0.70820  0.43473  1.0000
  N   N36       1.0  0.23914  0.48928  0.34678  1.0000
  S   S164      1.0  0.24433  0.64472  0.31058  1.0000
  C   C693      1.0  0.28396  0.67591  0.32016  1.0000
  S   S165      1.0  0.09010  0.72441  0.37695  1.0000
  H   H1201     1.0  0.24127  0.55457  0.34568  1.0000
  H   H1202     1.0  0.24038  0.53909  0.36834  1.0000
  H   H1203     1.0  0.26187  0.53657  0.35039  1.0000
  H   H1204     1.0  0.01244  0.63739  0.41890  1.0000
  C   C694      1.0  0.13723  0.54661  0.62466  1.0000
  H   H1205     1.0  0.09557  0.67311  0.63668  1.0000
  H   H1206     1.0  0.02411  0.71893  0.38186  1.0000
  H   H1207     1.0  0.13436  0.70361  0.37550  1.0000
  H   H1208     1.0  0.25897  0.50236  0.35612  1.0000
  H   H1209     1.0  0.11979  0.62653  0.30795  1.0000
  S   S166      1.0  0.07384  0.63257  0.33256  1.0000
  H   H1210     1.0  0.06708  0.65086  0.43580  1.0000
  C   C695      1.0  0.04705  0.73108  0.51253  1.0000
  C   C696      1.0  0.19616  0.55807  0.60338  1.0000
  C   C697      1.0  0.02828  0.72347  0.63211  1.0000
  C   C698      1.0  0.21908  0.69062  0.49384  1.0000
  H   H1211     1.0  0.15181  0.68287  0.55866  1.0000
  H   H1212     1.0  0.20503  0.71924  0.49889  1.0000
  H   H1213     1.0  0.00754  0.65419  0.37551  1.0000
  H   H1214     1.0  0.24278  0.67282  0.44339  1.0000
  C   C699      1.0  0.17184  0.68573  0.62493  1.0000
  H   H1215     1.0  0.26626  0.62529  0.48712  1.0000
  H   H1216     1.0  0.99559  0.63824  0.39258  1.0000
  H   H1217     1.0  0.11728  0.63892  0.33887  1.0000
  C   C700      1.0  0.09137  0.68888  0.59065  1.0000
  H   H1218     1.0  0.25786  0.70837  0.44826  1.0000
  H   H1219     1.0  0.19527  0.60754  0.62681  1.0000
  C   C701      1.0  0.08963  0.67736  0.60847  1.0000
  H   H1220     1.0  0.14792  0.62103  0.32224  1.0000
  H   H1221     1.0  0.22830  0.68510  0.63135  1.0000
  C   C702      1.0  0.25584  0.66477  0.47728  1.0000
  H   H1222     1.0  0.14368  0.73166  0.40960  1.0000
  H   H1223     1.0  0.00641  0.65929  0.62962  1.0000
  H   H1224     1.0  0.14351  0.68797  0.42559  1.0000
  H   H1225     1.0  0.06894  0.69371  0.38587  1.0000
  C   C703      1.0  0.12429  0.62459  0.34523  1.0000
  H   H1226     1.0  0.15296  0.64741  0.59739  1.0000
  H   H1227     1.0  0.25965  0.64572  0.45659  1.0000
  H   H1228     1.0  0.14524  0.70438  0.60140  1.0000
  C   C704      1.0  0.06925  0.67347  0.41177  1.0000
  C   C705      1.0  0.26944  0.70229  0.62834  1.0000
  H   H1229     1.0  0.13092  0.54103  0.33352  1.0000
  C   C706      1.0  0.16325  0.69803  0.57513  1.0000
  C   C707      1.0  0.25799  0.70413  0.31091  1.0000
  H   H1230     1.0  0.17555  0.69660  0.41416  1.0000
  S   S167      1.0  0.08024  0.49913  0.30949  1.0000
  C   C708      1.0  0.99284  0.68993  0.35920  1.0000
  H   H1231     1.0  0.16977  0.66230  0.42358  1.0000
  H   H1232     1.0  0.09442  0.71847  0.48031  1.0000
  H   H1233     1.0  0.15585  0.54102  0.32246  1.0000
  H   H1234     1.0  0.13906  0.65993  0.61601  1.0000
  C   C709      1.0  0.12951  0.48903  0.35472  1.0000
  H   H1235     1.0  0.24634  0.69663  0.31979  1.0000
  H   H1236     1.0  0.20814  0.68983  0.48559  1.0000
  H   H1237     1.0  0.18415  0.55090  0.60294  1.0000
  H   H1238     1.0  0.06991  0.70745  0.35216  1.0000
  H   H1239     1.0  0.17293  0.68480  0.58021  1.0000
  H   H1240     1.0  0.19389  0.70934  0.36310  1.0000
  C   C710      1.0  0.06454  0.65593  0.42146  1.0000
  H   H1241     1.0  0.18089  0.58645  0.59620  1.0000
  C   C711      1.0  0.18548  0.66854  0.63347  1.0000
  S   S168      1.0  0.20320  0.67873  0.34241  1.0000
  H   H1242     1.0  0.07701  0.68673  0.34078  1.0000
  C   C712      1.0  0.20978  0.70498  0.50711  1.0000
  H   H1243     1.0  0.12153  0.66823  0.43387  1.0000
  C   C713      1.0  0.13660  0.66420  0.40537  1.0000
  H   H1244     1.0  0.16939  0.64593  0.40885  1.0000
  H   H1245     1.0  0.99357  0.49562  0.61242  1.0000
  C   C714      1.0  0.14194  0.69093  0.36918  1.0000
  C   C715      1.0  0.13000  0.65635  0.42659  1.0000
  H   H1246     1.0  0.20236  0.70782  0.42530  1.0000
  H   H1247     1.0  0.15973  0.70780  0.34705  1.0000
  C   C716      1.0  0.14961  0.69780  0.34842  1.0000
  C   C717      1.0  0.11709  0.64156  0.42890  1.0000
  H   H1248     1.0  0.00550  0.68649  0.36641  1.0000
  H   H1249     1.0  0.05521  0.70829  0.59557  1.0000
  S   S169      1.0  0.07791  0.65779  0.61262  1.0000
  H   H1250     1.0  0.23332  0.71150  0.47335  1.0000
  H   H1251     1.0  0.13982  0.65214  0.39731  1.0000
  H   H1252     1.0  0.12357  0.67382  0.40076  1.0000
  H   H1253     1.0  0.26339  0.71053  0.32086  1.0000
  H   H1254     1.0  0.17120  0.61338  0.60743  1.0000
  N   N37       1.0  0.17112  0.71603  0.59898  1.0000
  C   C718      1.0  0.15545  0.72237  0.41652  1.0000
  H   H1255     1.0  0.13128  0.68177  0.36960  1.0000
  H   H1256     1.0  0.26064  0.67786  0.36951  1.0000
  S   S170      1.0  0.25079  0.70869  0.39072  1.0000
  H   H1257     1.0  0.19134  0.68915  0.59852  1.0000
  C   C719      1.0  0.05675  0.64479  0.41264  1.0000
  H   H1258     1.0  0.05082  0.69894  0.62611  1.0000
  C   C720      1.0  0.05815  0.66869  0.38429  1.0000
  H   H1259     1.0  0.24569  0.71094  0.61316  1.0000
  H   H1260     1.0  0.13737  0.70545  0.34134  1.0000
  C   C721      1.0  0.01145  0.57743  0.32039  1.0000
  H   H1261     1.0  0.15713  0.68553  0.34127  1.0000
  H   H1262     1.0  0.10505  0.64742  0.42093  1.0000
  H   H1263     1.0  0.12551  0.62846  0.42365  1.0000
  H   H1264     1.0  0.11089  0.63766  0.44405  1.0000
  C   C722      1.0  0.16056  0.72787  0.61394  1.0000
  Fe  Fe83      1.0  0.08178  0.71642  0.40809  1.0000
  H   H1265     1.0  0.13393  0.62649  0.35440  1.0000
  C   C723      1.0  0.20852  0.70262  0.36438  1.0000
  H   H1266     1.0  0.14787  0.60776  0.61717  1.0000
  C   C724      1.0  0.06573  0.68002  0.39327  1.0000
  S   S171      1.0  0.08008  0.68649  0.42298  1.0000
  H   H1267     1.0  0.24993  0.50464  0.30792  1.0000
  H   H1268     1.0  0.19924  0.70410  0.56860  1.0000
  H   H1269     1.0  0.16845  0.70963  0.39215  1.0000
  C   C725      1.0  0.09611  0.68232  0.62312  1.0000
  H   H1270     1.0  0.24390  0.65758  0.48582  1.0000
  C   C726      1.0  0.04154  0.69710  0.57809  1.0000
  S   S172      1.0  0.20001  0.63603  0.31828  1.0000
  H   H1271     1.0  0.22263  0.67651  0.50280  1.0000
  H   H1272     1.0  0.03804  0.53276  0.32078  1.0000
  S   S173      1.0  0.24363  0.59046  0.31067  1.0000
  C   C727      1.0  0.99488  0.65379  0.38715  1.0000
  C   C728      1.0  0.13599  0.61338  0.32989  1.0000
  H   H1273     1.0  0.15257  0.66004  0.30886  1.0000
  C   C729      1.0  0.26852  0.65027  0.46492  1.0000
  C   C730      1.0  0.14106  0.54186  0.31984  1.0000
  H   H1274     1.0  0.20466  0.54932  0.61416  1.0000
  S   S174      1.0  0.02864  0.62693  0.34054  1.0000
  C   C731      1.0  0.24610  0.68491  0.36799  1.0000
  C   C732      1.0  0.16068  0.61161  0.62080  1.0000
  H   H1275     1.0  0.16408  0.66627  0.37340  1.0000
  H   H1276     1.0  0.16107  0.68024  0.61973  1.0000
  C   C733      1.0  0.01553  0.55757  0.32133  1.0000
  H   H1277     1.0  0.22396  0.67195  0.46320  1.0000
  H   H1278     1.0  0.14222  0.64945  0.43401  1.0000
  H   H1279     1.0  0.26417  0.66662  0.48774  1.0000
  H   H1280     1.0  0.24717  0.69787  0.49017  1.0000
  C   C734      1.0  0.23743  0.69669  0.48073  1.0000
  H   H1281     1.0  0.11805  0.48583  0.36702  1.0000
  C   C735      1.0  0.08202  0.69922  0.34341  1.0000
  H   H1282     1.0  0.28634  0.62209  0.46807  1.0000
  H   H1283     1.0  0.18396  0.50566  0.32986  1.0000
  H   H1284     1.0  0.19715  0.48566  0.35819  1.0000
  C   C736      1.0  0.13616  0.57814  0.31469  1.0000
  H   H1285     1.0  0.24243  0.66570  0.35058  1.0000
  H   H1286     1.0  0.07535  0.71644  0.31752  1.0000
  H   H1287     1.0  0.16778  0.63764  0.62599  1.0000
  C   C737      1.0  0.25180  0.70076  0.62423  1.0000
  N   N38       1.0  0.24787  0.68390  0.46665  1.0000
  N   N39       1.0  0.15356  0.67452  0.40083  1.0000
  H   H1288     1.0  0.01674  0.69857  0.45493  1.0000
  C   C738      1.0  0.15606  0.71104  0.59026  1.0000
  H   H1289     1.0  0.28888  0.67966  0.46776  1.0000
  S   S175      1.0  0.99692  0.54462  0.32353  1.0000
  C   C739      1.0  0.26222  0.49706  0.31490  1.0000
  C   C740      1.0  0.17037  0.66109  0.40860  1.0000
  H   H1290     1.0  0.18973  0.52648  0.33580  1.0000
  C   C741      1.0  0.21052  0.69448  0.43235  1.0000
  H   H1291     1.0  0.17044  0.68784  0.37534  1.0000
  C   C742      1.0  0.17424  0.57767  0.62702  1.0000
  H   H1292     1.0  0.28039  0.65637  0.45495  1.0000
  H   H1293     1.0  0.12584  0.57720  0.32836  1.0000
  C   C743      1.0  0.28105  0.69418  0.46306  1.0000
  H   H1294     1.0  0.13813  0.68393  0.58207  1.0000
  H   H1295     1.0  0.20003  0.68569  0.44126  1.0000
  C   C744      1.0  0.23449  0.68095  0.45467  1.0000
  H   H1296     1.0  0.18277  0.57385  0.30629  1.0000
  H   H1297     1.0  0.15037  0.51823  0.63438  1.0000
  Fe  Fe84      1.0  0.05516  0.61997  0.31940  1.0000
  H   H1298     1.0  0.19329  0.67814  0.39488  1.0000
  H   H1299     1.0  0.20577  0.55889  0.58939  1.0000
  S   S176      1.0  0.99635  0.49426  0.31005  1.0000
  S   S177      1.0  0.03877  0.66998  0.33322  1.0000
  Fe  Fe85      1.0  0.22979  0.62171  0.30658  1.0000
  C   C745      1.0  0.18840  0.57820  0.60788  1.0000
  H   H1300     1.0  0.00370  0.65700  0.43168  1.0000
  H   H1301     1.0  0.15063  0.57584  0.31864  1.0000
  C   C746      1.0  0.14774  0.69208  0.41005  1.0000
  H   H1302     1.0  0.13053  0.64062  0.61057  1.0000
  C   C747      1.0  0.20206  0.71679  0.57285  1.0000
  H   H1303     1.0  0.21359  0.70813  0.45448  1.0000
  C   C748      1.0  0.23761  0.70078  0.37690  1.0000
  H   H1304     1.0  0.00572  0.70436  0.39020  1.0000
  H   H1305     1.0  0.02599  0.70061  0.40235  1.0000
  H   H1306     1.0  0.28721  0.63602  0.48537  1.0000
  H   H1307     1.0  0.21190  0.72168  0.38200  1.0000
  H   H1308     1.0  0.14761  0.72423  0.58326  1.0000
  H   H1309     1.0  0.06018  0.72006  0.62634  1.0000
  H   H1310     1.0  0.30772  0.70548  0.45593  1.0000
  H   H1311     1.0  0.12445  0.54234  0.62157  1.0000
  C   C749      1.0  0.20647  0.65120  0.40878  1.0000
  C   C750      1.0  0.15472  0.63188  0.62600  1.0000
  H   H1312     1.0  0.14806  0.54787  0.61148  1.0000
  C   C751      1.0  0.01572  0.71149  0.39467  1.0000
  H   H1313     1.0  0.11720  0.67033  0.31875  1.0000
  H   H1314     1.0  0.22095  0.65312  0.40055  1.0000
  H   H1315     1.0  0.14313  0.48856  0.35974  1.0000
  H   H1316     1.0  0.14994  0.71837  0.43184  1.0000
  S   S178      1.0  0.28184  0.72095  0.61600  1.0000
  H   H1317     1.0  0.00223  0.71586  0.34289  1.0000
  C   C752      1.0  0.03558  0.71550  0.45991  1.0000
  C   C753      1.0  0.21872  0.70960  0.37506  1.0000
  H   H1318     1.0  0.04838  0.70391  0.45864  1.0000
  H   H1319     1.0  0.02843  0.71197  0.43422  1.0000
  H   H1320     1.0  0.16100  0.57340  0.62498  1.0000
  H   H1321     1.0  0.01813  0.71328  0.63799  1.0000
  H   H1322     1.0  0.13458  0.70124  0.40538  1.0000
  H   H1323     1.0  0.13650  0.70486  0.56378  1.0000
  H   H1324     1.0  0.26951  0.68653  0.44113  1.0000
  H   H1325     1.0  0.10674  0.70390  0.63211  1.0000
  H   H1326     1.0  0.30134  0.69794  0.43652  1.0000
  H   H1327     1.0  0.20276  0.59504  0.31197  1.0000
  C   C754      1.0  0.29553  0.70505  0.44905  1.0000
  C   C755      1.0  0.04335  0.71338  0.58745  1.0000
  C   C756      1.0  0.18405  0.72781  0.58434  1.0000
  C   C757      1.0  0.00329  0.72929  0.44933  1.0000
  H   H1328     1.0  0.01246  0.66892  0.39774  1.0000
  H   H1329     1.0  0.99658  0.68291  0.34660  1.0000
  H   H1330     1.0  0.19422  0.70298  0.61449  1.0000
  H   H1331     1.0  0.14839  0.72119  0.62291  1.0000
  H   H1332     1.0  0.21960  0.68668  0.42116  1.0000
  H   H1333     1.0  0.11720  0.50738  0.30842  1.0000
  H   H1334     1.0  0.99670  0.58491  0.32141  1.0000
  Fe  Fe86      1.0  0.06489  0.65939  0.31283  1.0000
  C   C758      1.0  0.24195  0.68611  0.63459  1.0000
  S   S179      1.0  0.99266  0.66662  0.31503  1.0000
  H   H1335     1.0  0.26889  0.50763  0.31907  1.0000
  H   H1336     1.0  0.03584  0.72203  0.51506  1.0000
  C   C759      1.0  0.02656  0.58771  0.31766  1.0000
  H   H1337     1.0  0.17030  0.72838  0.62371  1.0000
  N   N40       1.0  0.16902  0.59583  0.63533  1.0000
  H   H1338     1.0  0.14925  0.72901  0.51382  1.0000
  H   H1339     1.0  0.13270  0.56079  0.62914  1.0000
  H   H1340     1.0  0.06448  0.55078  0.31590  1.0000
  C   C760      1.0  0.04573  0.57812  0.31608  1.0000
  H   H1341     1.0  0.01410  0.72704  0.59005  1.0000
  C   C761      1.0  0.04871  0.71158  0.63304  1.0000
  H   H1342     1.0  0.02337  0.60308  0.31630  1.0000
  S   S180      1.0  0.06496  0.59061  0.31209  1.0000
  H   H1343     1.0  0.14098  0.52941  0.31333  1.0000
  H   H1344     1.0  0.22007  0.48438  0.32979  1.0000
  H   H1345     1.0  0.04052  0.72937  0.45411  1.0000
  H   H1346     1.0  0.23177  0.72399  0.33411  1.0000
  H   H1347     1.0  0.10590  0.72417  0.33739  1.0000
  C   C762      1.0  0.00433  0.72589  0.40715  1.0000
  H   H1348     1.0  0.28067  0.60983  0.30783  1.0000
  H   H1349     1.0  0.03886  0.65569  0.63655  1.0000
  H   H1350     1.0  0.16428  0.69366  0.63652  1.0000
  H   H1351     1.0  0.16971  0.73048  0.49504  1.0000
  C   C763      1.0  0.20953  0.58156  0.30749  1.0000
  C   C764      1.0  0.99217  0.71617  0.42518  1.0000
  H   H1352     1.0  0.99849  0.73181  0.46417  1.0000
  H   H1353     1.0  0.19657  0.73102  0.33195  1.0000
  C   C765      1.0  0.22948  0.57587  0.30553  1.0000
  H   H1354     1.0  0.16255  0.71109  0.30553  1.0000
  Fe  Fe87      1.0  0.05122  0.49349  0.30704  1.0000
  S   S181      1.0  0.04417  0.51528  0.70189  1.0000
  H   H1355     1.0  0.34891  0.49982  0.89139  1.0000
  S   S182      1.0  0.23981  0.51313  0.66002  1.0000
  H   H1356     1.0  0.37692  0.70694  0.84621  1.0000
  S   S183      1.0  0.32808  0.52353  0.80441  1.0000
  H   H1357     1.0  0.08908  0.53803  0.72297  1.0000
  C   C766      1.0  0.23357  0.69050  0.69780  1.0000
  S   S184      1.0  0.12799  0.64422  0.67696  1.0000
  H   H1358     1.0  0.33504  0.55499  0.93504  1.0000
  C   C767      1.0  0.21390  0.48692  0.77050  1.0000
  Fe  Fe88      1.0  0.36491  0.60511  0.82780  1.0000
  S   S185      1.0  0.33505  0.62154  0.82604  1.0000
  S   S186      1.0  0.37372  0.57306  0.83448  1.0000
  Fe  Fe89      1.0  0.38296  0.64134  0.81817  1.0000
  S   S187      1.0  0.35462  0.66059  0.81528  1.0000
  S   S188      1.0  0.41199  0.64986  0.81571  1.0000
  Fe  Fe90      1.0  0.34327  0.64136  0.84170  1.0000
  S   S189      1.0  0.32251  0.65333  0.86570  1.0000
  Fe  Fe91      1.0  0.34905  0.63902  0.79986  1.0000
  S   S190      1.0  0.34033  0.64694  0.77079  1.0000
  S   S191      1.0  0.37191  0.62356  0.84551  1.0000
  S   S192      1.0  0.37857  0.62116  0.80069  1.0000
  Fe  Fe92      1.0  0.24350  0.63410  0.68824  1.0000
  S   S193      1.0  0.22763  0.63971  0.71696  1.0000
  S   S194      1.0  0.23586  0.65563  0.66250  1.0000
  Fe  Fe93      1.0  0.25900  0.59256  0.70334  1.0000
  S   S195      1.0  0.24398  0.59522  0.73280  1.0000
  S   S196      1.0  0.27579  0.56297  0.70048  1.0000
  Fe  Fe94      1.0  0.21859  0.61151  0.71976  1.0000
  S   S197      1.0  0.18848  0.60525  0.73115  1.0000
  Fe  Fe95      1.0  0.25461  0.62305  0.72756  1.0000
  S   S198      1.0  0.26377  0.62811  0.75370  1.0000
  S   S199      1.0  0.23281  0.60659  0.69073  1.0000
  S   S200      1.0  0.27139  0.61957  0.69853  1.0000
  C   C768      1.0  0.15356  0.59286  0.65255  1.0000
  H   H1359     1.0  0.11996  0.49876  0.69941  1.0000
  H   H1360     1.0  0.01139  0.54444  0.68019  1.0000
  C   C769      1.0  0.31909  0.64153  0.76610  1.0000
  C   C770      1.0  0.31644  0.64365  0.74729  1.0000
  C   C771      1.0  0.29972  0.63942  0.74312  1.0000
  C   C772      1.0  0.28537  0.63327  0.75779  1.0000
  C   C773      1.0  0.28800  0.63130  0.77656  1.0000
  C   C774      1.0  0.30481  0.63524  0.78071  1.0000
  H   H1361     1.0  0.32734  0.64863  0.73589  1.0000
  H   H1362     1.0  0.29781  0.64116  0.72862  1.0000
  H   H1363     1.0  0.27692  0.62676  0.78801  1.0000
  H   H1364     1.0  0.30657  0.63364  0.79524  1.0000
  C   C775      1.0  0.32647  0.65130  0.88901  1.0000
  H   H1365     1.0  0.00964  0.54036  0.71268  1.0000
  C   C776      1.0  0.31284  0.65715  0.92089  1.0000
  C   C777      1.0  0.31092  0.65832  0.90212  1.0000
  H   H1366     1.0  0.38564  0.71685  0.77237  1.0000
  H   H1367     1.0  0.30056  0.66254  0.93084  1.0000
  H   H1368     1.0  0.29719  0.66464  0.89777  1.0000
  H   H1369     1.0  0.35434  0.59772  0.76169  1.0000
  C   C778      1.0  0.40404  0.70778  0.81006  1.0000
  C   C779      1.0  0.40066  0.68915  0.81138  1.0000
  C   C780      1.0  0.41509  0.67342  0.81521  1.0000
  H   H1370     1.0  0.35612  0.60709  0.94597  1.0000
  H   H1371     1.0  0.18234  0.67877  0.67422  1.0000
  H   H1372     1.0  0.36367  0.48698  0.86154  1.0000
  H   H1373     1.0  0.38698  0.68696  0.80916  1.0000
  H   H1374     1.0  0.33755  0.59617  0.69677  1.0000
  C   C781      1.0  0.14424  0.63307  0.69251  1.0000
  C   C782      1.0  0.14004  0.61844  0.70757  1.0000
  C   C783      1.0  0.15365  0.60994  0.71947  1.0000
  C   C784      1.0  0.17147  0.61603  0.71629  1.0000
  C   C785      1.0  0.17554  0.63076  0.70133  1.0000
  C   C786      1.0  0.16192  0.63930  0.68959  1.0000
  H   H1375     1.0  0.12628  0.61380  0.71015  1.0000
  H   H1376     1.0  0.15035  0.59868  0.73116  1.0000
  H   H1377     1.0  0.18913  0.63570  0.69892  1.0000
  H   H1378     1.0  0.16512  0.65072  0.67810  1.0000
  H   H1379     1.0  0.40353  0.64542  0.77843  1.0000
  S   S201      1.0  0.33128  0.64780  0.95096  1.0000
  C   C787      1.0  0.34068  0.53699  0.81324  1.0000
  C   C788      1.0  0.33245  0.55588  0.81533  1.0000
  C   C789      1.0  0.34249  0.56709  0.82180  1.0000
  C   C790      1.0  0.36089  0.55950  0.82606  1.0000
  C   C791      1.0  0.36914  0.54063  0.82393  1.0000
  C   C792      1.0  0.35904  0.52936  0.81759  1.0000
  H   H1380     1.0  0.31822  0.56184  0.81207  1.0000
  H   H1381     1.0  0.33595  0.58157  0.82351  1.0000
  H   H1382     1.0  0.38347  0.53483  0.82699  1.0000
  H   H1383     1.0  0.36559  0.51493  0.81566  1.0000
  C   C793      1.0  0.25022  0.52699  0.67086  1.0000
  C   C794      1.0  0.26085  0.51832  0.68523  1.0000
  C   C795      1.0  0.26909  0.52942  0.69378  1.0000
  C   C796      1.0  0.26601  0.54938  0.68873  1.0000
  C   C797      1.0  0.25524  0.55812  0.67446  1.0000
  C   C798      1.0  0.24767  0.54691  0.66532  1.0000
  H   H1384     1.0  0.26300  0.50297  0.68958  1.0000
  H   H1385     1.0  0.27760  0.52247  0.70457  1.0000
  H   H1386     1.0  0.25303  0.57347  0.67025  1.0000
  H   H1387     1.0  0.23952  0.55372  0.65420  1.0000
  C   C799      1.0  0.05608  0.53275  0.68680  1.0000
  C   C800      1.0  0.06684  0.52928  0.66932  1.0000
  C   C801      1.0  0.07860  0.54207  0.65860  1.0000
  C   C802      1.0  0.07968  0.55832  0.66541  1.0000
  H   H1388     1.0  0.06624  0.51669  0.66411  1.0000
  C   C803      1.0  0.27105  0.52959  0.74936  1.0000
  S   S202      1.0  0.37188  0.48412  0.94620  1.0000
  C   C804      1.0  0.00141  0.53665  0.67653  1.0000
  H   H1389     1.0  0.34474  0.56982  0.75153  1.0000
  H   H1390     1.0  0.08301  0.52095  0.71163  1.0000
  H   H1391     1.0  0.20954  0.58042  0.79000  1.0000
  H   H1392     1.0  0.33503  0.56865  0.72383  1.0000
  S   S203      1.0  0.08606  0.60925  0.69030  1.0000
  C   C805      1.0  0.06777  0.56260  0.68219  1.0000
  H   H1393     1.0  0.28262  0.55293  0.77818  1.0000
  H   H1394     1.0  0.46109  0.63262  0.94505  1.0000
  H   H1395     1.0  0.06832  0.57530  0.68738  1.0000
  H   H1396     1.0  0.44762  0.60825  0.77863  1.0000
  H   H1397     1.0  0.42003  0.51578  0.89803  1.0000
  C   C806      1.0  0.15829  0.57472  0.66736  1.0000
  C   C807      1.0  0.32003  0.57470  0.72986  1.0000
  H   H1398     1.0  0.10035  0.51323  0.72735  1.0000
  H   H1399     1.0  0.27319  0.66426  0.66458  1.0000
  C   C808      1.0  0.45976  0.67219  0.93175  1.0000
  H   H1400     1.0  0.15802  0.56172  0.66182  1.0000
  H   H1401     1.0  0.17275  0.57355  0.67088  1.0000
  H   H1402     1.0  0.42658  0.71645  0.95867  1.0000
  H   H1403     1.0  0.00568  0.57700  0.72519  1.0000
  H   H1404     1.0  0.14320  0.58717  0.69201  1.0000
  C   C809      1.0  0.42173  0.71081  0.81296  1.0000
  C   C810      1.0  0.33041  0.64916  0.92687  1.0000
  H   H1405     1.0  0.23929  0.68053  0.68750  1.0000
  C   C811      1.0  0.26861  0.57951  0.78691  1.0000
  Fe  Fe96      1.0  0.08875  0.60095  0.66194  1.0000
  H   H1406     1.0  0.06625  0.69596  0.65380  1.0000
  H   H1407     1.0  0.30466  0.49855  0.90883  1.0000
  H   H1408     1.0  0.21613  0.52139  0.77313  1.0000
  C   C812      1.0  0.15162  0.51542  0.68308  1.0000
  H   H1409     1.0  0.00840  0.52143  0.67718  1.0000
  C   C813      1.0  0.13110  0.52992  0.65871  1.0000
  H   H1410     1.0  0.19396  0.52656  0.76516  1.0000
  C   C814      1.0  0.11120  0.52905  0.69993  1.0000
  C   C815      1.0  0.20757  0.54008  0.72831  1.0000
  C   C816      1.0  0.09492  0.52503  0.71646  1.0000
  H   H1411     1.0  0.04737  0.55268  0.70630  1.0000
  H   H1412     1.0  0.15043  0.53068  0.68412  1.0000
  H   H1413     1.0  0.15021  0.50757  0.69795  1.0000
  S   S204      1.0  0.03034  0.63549  0.70077  1.0000
  H   H1414     1.0  0.29740  0.56376  0.78819  1.0000
  H   H1415     1.0  0.39671  0.72058  0.92172  1.0000
  C   C817      1.0  0.05591  0.54980  0.69288  1.0000
  H   H1416     1.0  0.39143  0.68766  0.91026  1.0000
  H   H1417     1.0  0.42712  0.54731  0.91676  1.0000
  H   H1418     1.0  0.10588  0.54228  0.69052  1.0000
  H   H1419     1.0  0.12300  0.53180  0.70595  1.0000
  H   H1420     1.0  0.18801  0.55443  0.69788  1.0000
  C   C818      1.0  0.14333  0.57474  0.68546  1.0000
  H   H1421     1.0  0.31511  0.58793  0.78241  1.0000
  H   H1422     1.0  0.34380  0.69260  0.94259  1.0000
  H   H1423     1.0  0.44962  0.65092  0.69324  1.0000
  H   H1424     1.0  0.40066  0.65956  0.89769  1.0000
  N   N41       1.0  0.21647  0.53926  0.74541  1.0000
  C   C819      1.0  0.20875  0.55795  0.75251  1.0000
  C   C820      1.0  0.21071  0.55710  0.71198  1.0000
  C   C821      1.0  0.21518  0.56028  0.77058  1.0000
  H   H1425     1.0  0.24455  0.53097  0.76885  1.0000
  C   C822      1.0  0.20370  0.55477  0.69454  1.0000
  H   H1426     1.0  0.21339  0.56998  0.74169  1.0000
  H   H1427     1.0  0.19266  0.56077  0.75483  1.0000
  C   C823      1.0  0.20983  0.52314  0.76025  1.0000
  H   H1428     1.0  0.22614  0.55839  0.70800  1.0000
  H   H1429     1.0  0.20231  0.57067  0.71610  1.0000
  H   H1430     1.0  0.21211  0.54858  0.78248  1.0000
  Fe  Fe97      1.0  0.37676  0.51081  0.95388  1.0000
  H   H1431     1.0  0.18885  0.57947  0.78026  1.0000
  C   C824      1.0  0.35049  0.55936  0.90605  1.0000
  H   H1432     1.0  0.29389  0.59142  0.75823  1.0000
  H   H1433     1.0  0.21157  0.54137  0.68954  1.0000
  H   H1434     1.0  0.20634  0.56701  0.68304  1.0000
  C   C825      1.0  0.31639  0.54587  0.75294  1.0000
  H   H1435     1.0  0.32893  0.60185  0.72953  1.0000
  H   H1436     1.0  0.18094  0.60272  0.66984  1.0000
  Fe  Fe98      1.0  0.35845  0.64359  0.96306  1.0000
  H   H1437     1.0  0.25762  0.58277  0.77758  1.0000
  H   H1438     1.0  0.18804  0.69328  0.70880  1.0000
  C   C826      1.0  0.27710  0.68904  0.64294  1.0000
  C   C827      1.0  0.39029  0.55747  0.95257  1.0000
  H   H1439     1.0  0.31200  0.61559  0.86924  1.0000
  S   S205      1.0  0.38729  0.64711  0.94570  1.0000
  C   C828      1.0  0.40156  0.54808  0.93809  1.0000
  H   H1440     1.0  0.40210  0.68367  0.77552  1.0000
  H   H1441     1.0  0.47787  0.68932  0.95763  1.0000
  C   C829      1.0  0.33262  0.55468  0.92070  1.0000
  H   H1442     1.0  0.32495  0.52500  0.87910  1.0000
  Fe  Fe99      1.0  0.05927  0.62905  0.68197  1.0000
  H   H1443     1.0  0.18526  0.53177  0.67662  1.0000
  H   H1444     1.0  0.42225  0.65862  0.76830  1.0000
  S   S206      1.0  0.09731  0.57202  0.65395  1.0000
  H   H1445     1.0  0.28523  0.57516  0.74893  1.0000
  H   H1446     1.0  0.30759  0.59668  0.85921  1.0000
  H   H1447     1.0  0.08712  0.53919  0.64519  1.0000
  H   H1448     1.0  0.41748  0.69779  0.89205  1.0000
  C   C830      1.0  0.01198  0.62355  0.69918  1.0000
  C   C831      1.0  0.99320  0.62884  0.70881  1.0000
  C   C832      1.0  0.28675  0.56670  0.77858  1.0000
  H   H1449     1.0  0.00586  0.51065  0.70778  1.0000
  H   H1450     1.0  0.14962  0.60537  0.65993  1.0000
  H   H1451     1.0  0.37781  0.70879  0.89905  1.0000
  H   H1452     1.0  0.39654  0.70997  0.86816  1.0000
  C   C833      1.0  0.37979  0.70632  0.76721  1.0000
  H   H1453     1.0  0.21528  0.60584  0.65754  1.0000
  C   C834      1.0  0.33730  0.51941  0.86874  1.0000
  H   H1454     1.0  0.35456  0.71267  0.92927  1.0000
  H   H1455     1.0  0.11694  0.53011  0.65504  1.0000
  H   H1456     1.0  0.20167  0.62661  0.66703  1.0000
  H   H1457     1.0  0.32786  0.49148  0.69563  1.0000
  C   C835      1.0  0.00820  0.65548  0.64459  1.0000
  H   H1458     1.0  0.37719  0.55266  0.96031  1.0000
  H   H1459     1.0  0.36473  0.62726  0.73662  1.0000
  C   C836      1.0  0.31578  0.48594  0.90949  1.0000
  H   H1460     1.0  0.44844  0.67688  0.90587  1.0000
  C   C837      1.0  0.14072  0.49435  0.66652  1.0000
  C   C838      1.0  0.31826  0.59662  0.72395  1.0000
  H   H1461     1.0  0.46725  0.68464  0.92649  1.0000
  H   H1462     1.0  0.44329  0.63131  0.78570  1.0000
  H   H1463     1.0  0.43754  0.57439  0.92502  1.0000
  C   C839      1.0  0.32919  0.53470  0.92085  1.0000
  H   H1464     1.0  0.27807  0.52376  0.73630  1.0000
  C   C840      1.0  0.36095  0.68764  0.91548  1.0000
  H   H1465     1.0  0.23564  0.73111  0.70767  1.0000
  H   H1466     1.0  0.35151  0.58363  0.95765  1.0000
  H   H1467     1.0  0.04105  0.69453  0.66084  1.0000
  Fe  Fe100     1.0  0.34123  0.49269  0.95979  1.0000
  C   C841      1.0  0.39584  0.57337  0.95675  1.0000
  H   H1468     1.0  0.43292  0.68895  0.92400  1.0000
  H   H1469     1.0  0.99285  0.56017  0.65449  1.0000
  C   C842      1.0  0.32246  0.60222  0.70245  1.0000
  H   H1470     1.0  0.31249  0.49968  0.71627  1.0000
  C   C843      1.0  0.48417  0.67382  0.95829  1.0000
  H   H1471     1.0  0.37955  0.68173  0.84674  1.0000
  C   C844      1.0  0.21042  0.72029  0.70357  1.0000
  C   C845      1.0  0.33620  0.51284  0.75081  1.0000
  H   H1472     1.0  0.34949  0.50475  0.74343  1.0000
  S   S207      1.0  0.40247  0.68986  0.95839  1.0000
  C   C846      1.0  0.46339  0.62880  0.95992  1.0000
  H   H1473     1.0  0.23080  0.56089  0.76763  1.0000
  H   H1474     1.0  0.26041  0.70198  0.69442  1.0000
  H   H1475     1.0  0.30479  0.54303  0.74662  1.0000
  H   H1476     1.0  0.48641  0.60480  0.95408  1.0000
  H   H1477     1.0  0.21352  0.69363  0.66917  1.0000
  H   H1478     1.0  0.39291  0.71990  0.80682  1.0000
  H   H1479     1.0  0.35187  0.57978  0.78271  1.0000
  S   S208      1.0  0.07489  0.65347  0.66836  1.0000
  H   H1480     1.0  0.17578  0.49226  0.67749  1.0000
  H   H1481     1.0  0.21344  0.52692  0.72202  1.0000
  H   H1482     1.0  0.36006  0.52053  0.88305  1.0000
  C   C847      1.0  0.36998  0.58180  0.88563  1.0000
  N   N42       1.0  0.31558  0.56714  0.75076  1.0000
  H   H1483     1.0  0.36914  0.69199  0.94097  1.0000
  H   H1484     1.0  0.24567  0.70106  0.71777  1.0000
  C   C848      1.0  0.26324  0.67460  0.71221  1.0000
  H   H1485     1.0  0.22498  0.68249  0.71007  1.0000
  H   H1486     1.0  0.99347  0.56060  0.70414  1.0000
  H   H1487     1.0  0.20271  0.67331  0.69860  1.0000
  H   H1488     1.0  0.32041  0.61803  0.69854  1.0000
  H   H1489     1.0  0.27558  0.67719  0.71761  1.0000
  H   H1490     1.0  0.25467  0.66590  0.72389  1.0000
  H   H1491     1.0  0.26904  0.66638  0.70047  1.0000
  C   C849      1.0  0.00082  0.59983  0.68728  1.0000
  Fe  Fe101     1.0  0.39836  0.62080  0.96503  1.0000
  H   H1492     1.0  0.12922  0.54347  0.66419  1.0000
  C   C850      1.0  0.23310  0.71870  0.67251  1.0000
  H   H1493     1.0  0.37347  0.71363  0.75449  1.0000
  C   C851      1.0  0.44288  0.67552  0.92127  1.0000
  C   C852      1.0  0.23815  0.53648  0.73959  1.0000
  H   H1494     1.0  0.30351  0.60405  0.72886  1.0000
  H   H1495     1.0  0.44989  0.69728  0.81891  1.0000
  Fe  Fe102     1.0  0.10196  0.63286  0.67405  1.0000
  C   C853      1.0  0.26720  0.67437  0.65336  1.0000
  C   C854      1.0  0.37012  0.69414  0.85227  1.0000
  H   H1496     1.0  0.19171  0.54048  0.73249  1.0000
  N   N43       1.0  0.38446  0.68527  0.88355  1.0000
  H   H1497     1.0  0.40803  0.50526  0.83746  1.0000
  C   C855      1.0  0.40603  0.57476  0.87379  1.0000
  H   H1498     1.0  0.29072  0.69016  0.64621  1.0000
  H   H1499     1.0  0.32244  0.59341  0.90502  1.0000
  C   C856      1.0  0.41398  0.64868  0.76524  1.0000
  H   H1500     1.0  0.48952  0.64028  0.95194  1.0000
  C   C857      1.0  0.42428  0.56982  0.93265  1.0000
  Fe  Fe103     1.0  0.07902  0.64141  0.64187  1.0000
  H   H1501     1.0  0.33739  0.50263  0.71048  1.0000
  C   C858      1.0  0.32994  0.58785  0.87652  1.0000
  C   C859      1.0  0.34419  0.64308  0.89486  1.0000
  H   H1502     1.0  0.42059  0.53104  0.87514  1.0000
  H   H1503     1.0  0.27745  0.49930  0.85818  1.0000
  H   H1504     1.0  0.99288  0.65646  0.67251  1.0000
  H   H1505     1.0  0.37281  0.50852  0.85198  1.0000
  C   C860      1.0  0.40424  0.63182  0.87791  1.0000
  H   H1506     1.0  0.03020  0.60443  0.68135  1.0000
  C   C861      1.0  0.01574  0.60895  0.68847  1.0000
  S   S209      1.0  0.06117  0.61885  0.65479  1.0000
  H   H1507     1.0  0.20790  0.59143  0.76595  1.0000
  H   H1508     1.0  0.20166  0.50947  0.67577  1.0000
  C   C862      1.0  0.42582  0.51657  0.88270  1.0000
  C   C863      1.0  0.41842  0.55445  0.92802  1.0000
  H   H1509     1.0  0.14696  0.56156  0.69573  1.0000
  C   C864      1.0  0.35442  0.50943  0.87857  1.0000
  C   C865      1.0  0.42894  0.63027  0.76264  1.0000
  H   H1510     1.0  0.42277  0.61932  0.75858  1.0000
  H   H1511     1.0  0.10519  0.51126  0.68272  1.0000
  C   C866      1.0  0.36680  0.69109  0.87414  1.0000
  H   H1512     1.0  0.43486  0.66340  0.92574  1.0000
  H   H1513     1.0  0.12871  0.57535  0.68244  1.0000
  H   H1514     1.0  0.00390  0.58852  0.67899  1.0000
  H   H1515     1.0  0.35624  0.63751  0.88484  1.0000
  H   H1516     1.0  0.40906  0.65871  0.86118  1.0000
  C   C867      1.0  0.99415  0.54712  0.71465  1.0000
  H   H1517     1.0  0.15407  0.49366  0.65582  1.0000
  H   H1518     1.0  0.40727  0.69561  0.75147  1.0000
  H   H1519     1.0  0.40266  0.63180  0.73970  1.0000
  H   H1520     1.0  0.22828  0.50111  0.74444  1.0000
  H   H1521     1.0  0.40634  0.59024  0.86908  1.0000
  C   C868      1.0  0.34617  0.64205  0.91384  1.0000
  C   C869      1.0  0.44304  0.66064  0.70360  1.0000
  H   H1522     1.0  0.04952  0.71618  0.66127  1.0000
  H   H1523     1.0  0.36524  0.66112  0.73770  1.0000
  S   S210      1.0  0.42114  0.59840  0.95257  1.0000
  H   H1524     1.0  0.33250  0.50934  0.86199  1.0000
  H   H1525     1.0  0.40894  0.67874  0.72365  1.0000
  C   C870      1.0  0.20469  0.57903  0.77706  1.0000
  C   C871      1.0  0.29521  0.57593  0.75837  1.0000
  H   H1526     1.0  0.38398  0.63751  0.75844  1.0000
  H   H1527     1.0  0.37729  0.66871  0.76775  1.0000
  C   C872      1.0  0.41300  0.57940  0.94696  1.0000
  C   C873      1.0  0.18683  0.51609  0.68138  1.0000
  S   S211      1.0  0.47399  0.72610  0.83601  1.0000
  C   C874      1.0  0.05142  0.70415  0.65352  1.0000
  C   C875      1.0  0.33550  0.59290  0.89395  1.0000
  C   C876      1.0  0.21408  0.50341  0.75380  1.0000
  H   H1528     1.0  0.20286  0.50268  0.74578  1.0000
  C   C877      1.0  0.45290  0.67021  0.95346  1.0000
  C   C878      1.0  0.32734  0.49299  0.71046  1.0000
  C   C879      1.0  0.39256  0.64401  0.74510  1.0000
  C   C880      1.0  0.31095  0.60021  0.87202  1.0000
  H   H1529     1.0  0.37094  0.59713  0.88042  1.0000
  H   H1530     1.0  0.34112  0.59042  0.86381  1.0000
  H   H1531     1.0  0.35387  0.70019  0.82935  1.0000
  H   H1532     1.0  0.43735  0.67482  0.69578  1.0000
  C   C881      1.0  0.17256  0.50811  0.67391  1.0000
  H   H1533     1.0  0.27136  0.54513  0.74684  1.0000
  C   C882      1.0  0.35693  0.69686  0.93311  1.0000
  H   H1534     1.0  0.35968  0.63547  0.91850  1.0000
  H   H1535     1.0  0.45446  0.66215  0.71097  1.0000
  H   H1536     1.0  0.40513  0.68950  0.85744  1.0000
  H   H1537     1.0  0.18462  0.51279  0.69706  1.0000
  C   C883      1.0  0.33558  0.53427  0.74402  1.0000
  S   S212      1.0  0.10676  0.62252  0.64652  1.0000
  H   H1538     1.0  0.39048  0.55593  0.89477  1.0000
  H   H1539     1.0  0.36147  0.64291  0.71463  1.0000
  C   C884      1.0  0.20350  0.61831  0.65553  1.0000
  H   H1540     1.0  0.17516  0.51207  0.65837  1.0000
  H   H1541     1.0  0.44895  0.63062  0.96880  1.0000
  C   C885      1.0  0.99922  0.54472  0.65603  1.0000
  H   H1542     1.0  0.24270  0.55050  0.73331  1.0000
  C   C886      1.0  0.11778  0.51207  0.68889  1.0000
  H   H1543     1.0  0.43304  0.63805  0.72467  1.0000
  H   H1544     1.0  0.42070  0.72242  0.90930  1.0000
  C   C887      1.0  0.25030  0.52623  0.75512  1.0000
  H   H1545     1.0  0.24303  0.52790  0.72800  1.0000
  H   H1546     1.0  0.01075  0.63962  0.64839  1.0000
  C   C888      1.0  0.42683  0.65234  0.71774  1.0000
  C   C889      1.0  0.17699  0.68513  0.68725  1.0000
  C   C890      1.0  0.38981  0.66381  0.88815  1.0000
  C   C891      1.0  0.25088  0.69369  0.70541  1.0000
  H   H1547     1.0  0.16731  0.69901  0.68398  1.0000
  C   C892      1.0  0.43634  0.69733  0.86542  1.0000
  H   H1548     1.0  0.25058  0.51060  0.75750  1.0000
  N   N44       1.0  0.22097  0.70804  0.68897  1.0000
  H   H1549     1.0  0.44613  0.68477  0.95630  1.0000
  H   H1550     1.0  0.35074  0.55371  0.89303  1.0000
  H   H1551     1.0  0.32532  0.53384  0.90729  1.0000
  N   N45       1.0  0.13562  0.51300  0.67387  1.0000
  C   C893      1.0  0.38992  0.57157  0.89069  1.0000
  H   H1552     1.0  0.32067  0.60173  0.75958  1.0000
  H   H1553     1.0  0.44891  0.69623  0.87234  1.0000
  H   H1554     1.0  0.44410  0.66437  0.82086  1.0000
  H   H1555     1.0  0.25655  0.50133  0.87668  1.0000
  H   H1556     1.0  0.34800  0.69242  0.90867  1.0000
  H   H1557     1.0  0.31039  0.57002  0.72229  1.0000
  H   H1558     1.0  0.35684  0.68060  0.87969  1.0000
  H   H1559     1.0  0.31923  0.56466  0.91791  1.0000
  C   C894      1.0  0.38824  0.67434  0.75589  1.0000
  C   C895      1.0  0.19390  0.68770  0.69541  1.0000
  H   H1560     1.0  0.32805  0.57275  0.87893  1.0000
  H   H1561     1.0  0.36304  0.55039  0.91202  1.0000
  H   H1562     1.0  0.29894  0.59759  0.88393  1.0000
  H   H1563     1.0  0.40394  0.56869  0.86183  1.0000
  H   H1564     1.0  0.36836  0.57596  0.87336  1.0000
  H   H1565     1.0  0.39370  0.51845  0.86694  1.0000
  C   C896      1.0  0.18470  0.61162  0.65583  1.0000
  C   C897      1.0  0.37951  0.69290  0.90196  1.0000
  C   C898      1.0  0.02634  0.66229  0.64614  1.0000
  H   H1566     1.0  0.44089  0.68837  0.85422  1.0000
  H   H1567     1.0  0.42015  0.56760  0.87785  1.0000
  H   H1568     1.0  0.39237  0.49301  0.83023  1.0000
  H   H1569     1.0  0.43206  0.71246  0.85895  1.0000
  C   C899      1.0  0.40105  0.69416  0.87142  1.0000
  C   C900      1.0  0.43280  0.67646  0.81803  1.0000
  N   N46       1.0  0.40322  0.65804  0.74916  1.0000
  H   H1570     1.0  0.34216  0.52380  0.92341  1.0000
  Fe  Fe104     1.0  0.05344  0.48612  0.69396  1.0000
  C   C901      1.0  0.33044  0.57043  0.76098  1.0000
  C   C902      1.0  0.32618  0.58907  0.76941  1.0000
  H   H1571     1.0  0.27215  0.59313  0.78862  1.0000
  H   H1572     1.0  0.31249  0.59700  0.69586  1.0000
  N   N47       1.0  0.35275  0.58005  0.90124  1.0000
  H   H1573     1.0  0.46537  0.72821  0.95565  1.0000
  H   H1574     1.0  0.26241  0.57221  0.80100  1.0000
  H   H1575     1.0  0.33171  0.60868  0.92551  1.0000
  H   H1576     1.0  0.39320  0.57706  0.90243  1.0000
  S   S213      1.0  0.31699  0.49204  0.94489  1.0000
  C   C903      1.0  0.37016  0.49811  0.86516  1.0000
  H   H1577     1.0  0.33802  0.60792  0.89008  1.0000
  C   C904      1.0  0.34432  0.59284  0.77463  1.0000
  H   H1578     1.0  0.24361  0.72497  0.67725  1.0000
  C   C905      1.0  0.37194  0.63650  0.72433  1.0000
  C   C906      1.0  0.40525  0.49096  0.83696  1.0000
  H   H1579     1.0  0.27930  0.52233  0.76081  1.0000
  H   H1580     1.0  0.17323  0.62434  0.65478  1.0000
  H   H1581     1.0  0.42811  0.67134  0.73656  1.0000
  H   H1582     1.0  0.31370  0.53939  0.76816  1.0000
  H   H1583     1.0  0.41641  0.65023  0.70953  1.0000
  H   H1584     1.0  0.02931  0.65813  0.66082  1.0000
  N   N48       1.0  0.46844  0.66189  0.96524  1.0000
  H   H1585     1.0  0.41660  0.62995  0.88536  1.0000
  C   C907      1.0  0.35110  0.69752  0.84503  1.0000
  H   H1586     1.0  0.42471  0.61672  0.79229  1.0000
  H   H1587     1.0  0.47007  0.65942  0.92779  1.0000
  H   H1588     1.0  0.24223  0.70859  0.66342  1.0000
  H   H1589     1.0  0.36247  0.67202  0.92028  1.0000
  C   C908      1.0  0.00424  0.56443  0.73661  1.0000
  H   H1590     1.0  0.32813  0.58523  0.93672  1.0000
  H   H1591     1.0  0.33278  0.55864  0.77314  1.0000
  H   H1592     1.0  0.38497  0.65379  0.86372  1.0000
  H   H1593     1.0  0.34822  0.53813  0.74778  1.0000
  C   C909      1.0  0.41966  0.50124  0.87504  1.0000
  C   C910      1.0  0.14586  0.53174  0.64006  1.0000
  H   H1594     1.0  0.38491  0.66171  0.71835  1.0000
  H   H1595     1.0  0.34036  0.60416  0.78353  1.0000
  H   H1596     1.0  0.42449  0.67479  0.88471  1.0000
  H   H1597     1.0  0.33698  0.53691  0.72840  1.0000
  H   H1598     1.0  0.38011  0.68214  0.74447  1.0000
  H   H1599     1.0  0.38444  0.62765  0.71668  1.0000
  C   C911      1.0  0.33901  0.59463  0.93216  1.0000
  C   C912      1.0  0.20629  0.70122  0.68118  1.0000
  C   C913      1.0  0.37840  0.65236  0.73092  1.0000
  H   H1600     1.0  0.36828  0.70107  0.77851  1.0000
  H   H1601     1.0  0.19599  0.71358  0.67527  1.0000
  H   H1602     1.0  0.31694  0.53155  0.93228  1.0000
  H   H1603     1.0  0.36584  0.57490  0.92619  1.0000
  H   H1604     1.0  0.40919  0.62448  0.86546  1.0000
  C   C914      1.0  0.39701  0.65301  0.87123  1.0000
  H   H1605     1.0  0.16848  0.67536  0.69775  1.0000
  S   S214      1.0  0.22229  0.48888  0.70874  1.0000
  C   C915      1.0  0.43609  0.69508  0.81700  1.0000
  H   H1606     1.0  0.19615  0.67323  0.63964  1.0000
  C   C916      1.0  0.41975  0.69024  0.87992  1.0000
  H   H1607     1.0  0.39254  0.62504  0.88751  1.0000
  H   H1608     1.0  0.34406  0.68477  0.85001  1.0000
  C   C917      1.0  0.24956  0.67291  0.64921  1.0000
  H   H1609     1.0  0.37723  0.65769  0.89644  1.0000
  H   H1610     1.0  0.42684  0.50186  0.86007  1.0000
  C   C918      1.0  0.34524  0.59753  0.94982  1.0000
  H   H1611     1.0  0.20721  0.71111  0.71761  1.0000
  C   C919      1.0  0.35667  0.58668  0.91805  1.0000
  C   C920      1.0  0.39596  0.68975  0.76252  1.0000
  H   H1612     1.0  0.36521  0.59847  0.91324  1.0000
  H   H1613     1.0  0.34130  0.53160  0.85779  1.0000
  H   H1614     1.0  0.44156  0.63379  0.75191  1.0000
  H   H1615     1.0  0.35838  0.70503  0.87766  1.0000
  H   H1616     1.0  0.33640  0.50927  0.76622  1.0000
  H   H1617     1.0  0.34117  0.71010  0.84999  1.0000
  C   C921      1.0  0.43657  0.62114  0.78094  1.0000
  H   H1618     1.0  0.22563  0.48641  0.77838  1.0000
  S   S215      1.0  0.39452  0.52909  0.93140  1.0000
  H   H1619     1.0  0.32344  0.50837  0.74794  1.0000
  C   C922      1.0  0.41673  0.66596  0.73203  1.0000
  H   H1620     1.0  0.01843  0.55475  0.73644  1.0000
  H   H1621     1.0  0.44180  0.51431  0.88074  1.0000
  C   C923      1.0  0.46318  0.72633  0.92724  1.0000
  H   H1622     1.0  0.13999  0.59171  0.64821  1.0000
  H   H1623     1.0  0.45266  0.71696  0.93177  1.0000
  H   H1624     1.0  0.11773  0.50164  0.64899  1.0000
  H   H1625     1.0  0.19978  0.48845  0.78015  1.0000
  Fe  Fe105     1.0  0.33425  0.49153  0.81349  1.0000
  H   H1626     1.0  0.20775  0.62770  0.64196  1.0000
  H   H1627     1.0  0.17705  0.65952  0.64491  1.0000
  H   H1628     1.0  0.44087  0.66203  0.95755  1.0000
  H   H1629     1.0  0.39078  0.50761  0.89106  1.0000
  H   H1630     1.0  0.28615  0.48828  0.75269  1.0000
  H   H1631     1.0  0.19601  0.72766  0.70023  1.0000
  S   S216      1.0  0.46007  0.72396  0.89136  1.0000
  H   H1632     1.0  0.01362  0.54306  0.64684  1.0000
  C   C924      1.0  0.39741  0.50468  0.87657  1.0000
  H   H1633     1.0  0.49124  0.67208  0.94360  1.0000
  H   H1634     1.0  0.33257  0.60423  0.95919  1.0000
  H   H1635     1.0  0.99997  0.56957  0.75035  1.0000
  H   H1636     1.0  0.02475  0.67801  0.64191  1.0000
  H   H1637     1.0  0.00322  0.51279  0.74063  1.0000
  H   H1638     1.0  0.38713  0.58066  0.96783  1.0000
  C   C925      1.0  0.47691  0.64123  0.96366  1.0000
  Fe  Fe106     1.0  0.23513  0.48519  0.67913  1.0000
  C   C926      1.0  0.99962  0.48443  0.74021  1.0000
  H   H1639     1.0  0.25366  0.50298  0.85258  1.0000
  C   C927      1.0  0.26281  0.49573  0.86332  1.0000
  H   H1640     1.0  0.14537  0.63193  0.64000  1.0000
  H   H1641     1.0  0.30506  0.55866  0.96651  1.0000
  Fe  Fe107     1.0  0.38985  0.66290  0.96798  1.0000
  H   H1642     1.0  0.15872  0.53647  0.64230  1.0000
  H   H1643     1.0  0.42395  0.48977  0.80978  1.0000
  C   C928      1.0  0.40573  0.73037  0.91191  1.0000
  H   H1644     1.0  0.21580  0.72823  0.64996  1.0000
  S   S217      1.0  0.34574  0.52059  0.96530  1.0000
  C   C929      1.0  0.46943  0.73216  0.90788  1.0000
  H   H1645     1.0  0.19710  0.58645  0.64391  1.0000
  N   N49       1.0  0.38887  0.48918  0.87214  1.0000
  C   C930      1.0  0.18711  0.59997  0.63978  1.0000
  C   C931      1.0  0.12486  0.48921  0.65812  1.0000
  H   H1646     1.0  0.42533  0.48719  0.88289  1.0000
  C   C932      1.0  0.99254  0.50603  0.73669  1.0000
  C   C933      1.0  0.47212  0.60757  0.96328  1.0000
  H   H1647     1.0  0.46244  0.59919  0.95989  1.0000
  H   H1648     1.0  0.11372  0.48389  0.66979  1.0000
  Fe  Fe108     1.0  0.47309  0.76018  0.01954  1.0000
  H   H1649     1.0  0.39946  0.91445  0.27782  1.0000
  H   H1650     1.0  0.39373  0.84758  0.15132  1.0000
  H   H1651     1.0  0.41042  0.76699  0.98093  1.0000
  C   C934      1.0  0.41423  0.80838  0.15017  1.0000
  C   C935      1.0  0.41481  0.80167  0.13164  1.0000
  C   C936      1.0  0.42361  0.81763  0.18325  1.0000
  H   H1652     1.0  0.35369  0.74323  0.13114  1.0000
  H   H1653     1.0  0.42571  0.73307  0.16923  1.0000
  C   C937      1.0  0.47988  0.83415  0.20635  1.0000
  C   C938      1.0  0.47919  0.93933  0.29511  1.0000
  S   S218      1.0  0.45879  0.87403  0.28515  1.0000
  H   H1654     1.0  0.45489  0.85676  0.14270  1.0000
  S   S219      1.0  0.45440  0.76958  0.16020  1.0000
  H   H1655     1.0  0.41628  0.79539  0.16111  1.0000
  C   C939      1.0  0.10304  0.75351  0.27401  1.0000
  H   H1656     1.0  0.48332  0.84869  0.15897  1.0000
  Fe  Fe109     1.0  0.47553  0.77136  0.17839  1.0000
  S   S220      1.0  0.46612  0.78222  0.20660  1.0000
  C   C940      1.0  0.40374  0.91870  0.30493  1.0000
  S   S221      1.0  0.46950  0.80288  0.11139  1.0000
  C   C941      1.0  0.29080  0.74966  0.27360  1.0000
  N   N50       1.0  0.43046  0.82976  0.16468  1.0000
  H   H1657     1.0  0.41233  0.89369  0.29100  1.0000
  C   C942      1.0  0.41498  0.81257  0.21905  1.0000
  H   H1658     1.0  0.38857  0.87643  0.17796  1.0000
  H   H1659     1.0  0.45168  0.74145  0.08997  1.0000
  C   C943      1.0  0.44127  0.74184  0.10343  1.0000
  H   H1660     1.0  0.37080  0.87287  0.16568  1.0000
  S   S222      1.0  0.47112  0.78835  0.02872  1.0000
  H   H1661     1.0  0.48112  0.79588  0.28962  1.0000
  C   C944      1.0  0.47015  0.80294  0.21344  1.0000
  C   C945      1.0  0.46362  0.80562  0.23230  1.0000
  C   C946      1.0  0.46526  0.82239  0.23818  1.0000
  C   C947      1.0  0.47311  0.83692  0.22518  1.0000
  C   C948      1.0  0.41885  0.84971  0.16250  1.0000
  H   H1662     1.0  0.42428  0.91360  0.27929  1.0000
  H   H1663     1.0  0.45691  0.79479  0.24237  1.0000
  H   H1664     1.0  0.45978  0.82438  0.25265  1.0000
  H   H1665     1.0  0.39202  0.88185  0.15239  1.0000
  H   H1666     1.0  0.39603  0.73960  0.07738  1.0000
  H   H1667     1.0  0.36910  0.74717  0.05965  1.0000
  H   H1668     1.0  0.07961  0.74660  0.29664  1.0000
  Fe  Fe110     1.0  0.47130  0.74022  0.15724  1.0000
  H   H1669     1.0  0.39052  0.84215  0.17684  1.0000
  H   H1670     1.0  0.49073  0.82657  0.14968  1.0000
  C   C949      1.0  0.42206  0.73732  0.10153  1.0000
  C   C950      1.0  0.47977  0.96929  0.30484  1.0000
  H   H1671     1.0  0.42462  0.79841  0.22008  1.0000
  S   S223      1.0  0.47304  0.85930  0.23145  1.0000
  H   H1672     1.0  0.43321  0.80336  0.18467  1.0000
  H   H1673     1.0  0.49027  0.77430  0.30454  1.0000
  H   H1674     1.0  0.41476  0.81864  0.23178  1.0000
  H   H1675     1.0  0.42895  0.79259  0.12744  1.0000
  H   H1676     1.0  0.48436  0.81504  0.18620  1.0000
  H   H1677     1.0  0.26233  0.74085  0.30364  1.0000
  C   C951      1.0  0.26115  0.73580  0.29072  1.0000
  S   S224      1.0  0.45486  0.75804  0.99896  1.0000
  C   C952      1.0  0.43036  0.82019  0.14826  1.0000
  H   H1678     1.0  0.48905  0.97383  0.25704  1.0000
  H   H1679     1.0  0.43661  0.82823  0.20292  1.0000
  C   C953      1.0  0.45111  0.83125  0.16452  1.0000
  H   H1680     1.0  0.44401  0.80986  0.14555  1.0000
  H   H1681     1.0  0.41239  0.73805  0.11537  1.0000
  C   C954      1.0  0.47023  0.79743  0.08887  1.0000
  C   C955      1.0  0.46700  0.81274  0.07419  1.0000
  C   C956      1.0  0.46734  0.80953  0.05600  1.0000
  C   C957      1.0  0.47075  0.79094  0.05217  1.0000
  C   C958      1.0  0.47407  0.77541  0.06677  1.0000
  C   C959      1.0  0.47383  0.77867  0.08516  1.0000
  H   H1682     1.0  0.46421  0.82724  0.07688  1.0000
  H   H1683     1.0  0.46480  0.82158  0.04483  1.0000
  H   H1684     1.0  0.43896  0.75637  0.10699  1.0000
  Fe  Fe111     1.0  0.48229  0.74418  0.98248  1.0000
  H   H1685     1.0  0.45197  0.83907  0.17570  1.0000
  H   H1686     1.0  0.38839  0.74016  0.04081  1.0000
  H   H1687     1.0  0.07780  0.75494  0.26143  1.0000
  S   S225      1.0  0.49062  0.74079  0.17751  1.0000
  H   H1688     1.0  0.24747  0.73783  0.25786  1.0000
  C   C960      1.0  0.46184  0.84159  0.14586  1.0000
  C   C961      1.0  0.41041  0.90952  0.28720  1.0000
  H   H1689     1.0  0.41243  0.81407  0.12016  1.0000
  S   S226      1.0  0.47423  0.91585  0.30197  1.0000
  H   H1690     1.0  0.39968  0.81655  0.15426  1.0000
  H   H1691     1.0  0.37610  0.84418  0.30294  1.0000
  H   H1692     1.0  0.47626  0.76672  0.09641  1.0000
  H   H1693     1.0  0.45976  0.81667  0.16779  1.0000
  H   H1694     1.0  0.40015  0.81065  0.21888  1.0000
  H   H1695     1.0  0.41617  0.74859  0.09054  1.0000
  H   H1696     1.0  0.00191  0.74627  0.26471  1.0000
  H   H1697     1.0  0.40334  0.79304  0.13345  1.0000
  C   C962      1.0  0.38650  0.87192  0.16508  1.0000
  H   H1698     1.0  0.48065  0.80633  0.97729  1.0000
  H   H1699     1.0  0.42372  0.85800  0.14842  1.0000
  H   H1700     1.0  0.46213  0.83465  0.13370  1.0000
  C   C963      1.0  0.09544  0.74139  0.29307  1.0000
  C   C964      1.0  0.09372  0.75071  0.25816  1.0000
  H   H1701     1.0  0.40907  0.81455  0.18381  1.0000
  H   H1702     1.0  0.09916  0.75968  0.24471  1.0000
  H   H1703     1.0  0.13347  0.74529  0.29466  1.0000
  Fe  Fe112     1.0  0.47614  0.85002  0.30232  1.0000
  H   H1704     1.0  0.10826  0.77102  0.30091  1.0000
  H   H1705     1.0  0.43014  0.83085  0.13497  1.0000
  Fe  Fe113     1.0  0.48153  0.89078  0.28603  1.0000
  H   H1706     1.0  0.42152  0.85767  0.17284  1.0000
  H   H1707     1.0  0.48601  0.84528  0.19618  1.0000
  C   C965      1.0  0.48863  0.81850  0.97310  1.0000
  C   C966      1.0  0.42235  0.82604  0.20133  1.0000
  H   H1708     1.0  0.41228  0.83990  0.20109  1.0000
  C   C967      1.0  0.39684  0.85139  0.16408  1.0000
  C   C968      1.0  0.48273  0.84144  0.14726  1.0000
  H   H1709     1.0  0.28260  0.76001  0.26346  1.0000
  C   C969      1.0  0.37703  0.73511  0.05240  1.0000
  H   H1710     1.0  0.09736  0.73552  0.25618  1.0000
  C   C970      1.0  0.47882  0.81708  0.20061  1.0000
  Fe  Fe114     1.0  0.47658  0.78002  0.13600  1.0000
  H   H1711     1.0  0.30596  0.74610  0.26641  1.0000
  H   H1712     1.0  0.09953  0.76896  0.27482  1.0000
  H   H1713     1.0  0.99871  0.78049  0.25220  1.0000
  H   H1714     1.0  0.29073  0.75640  0.28587  1.0000
  H   H1715     1.0  0.25327  0.74841  0.28227  1.0000
  H   H1716     1.0  0.11885  0.74936  0.26988  1.0000
  H   H1717     1.0  0.47684  0.76099  0.06390  1.0000
  C   C971      1.0  0.48367  0.94784  0.27621  1.0000
  C   C972      1.0  0.48390  0.97800  0.28599  1.0000
  H   H1718     1.0  0.38358  0.74301  0.10748  1.0000
  C   C973      1.0  0.48594  0.96717  0.27168  1.0000
  H   H1719     1.0  0.48492  0.93972  0.26510  1.0000
  H   H1720     1.0  0.40156  0.93440  0.30026  1.0000
  H   H1721     1.0  0.22301  0.73954  0.29390  1.0000
  Fe  Fe115     1.0  0.47865  0.86313  0.25983  1.0000
  H   H1722     1.0  0.48999  0.84908  0.13385  1.0000
  H   H1723     1.0  0.49067  0.81975  0.00125  1.0000
  H   H1724     1.0  0.47795  0.83199  0.97201  1.0000
  S   S227      1.0  0.49198  0.75097  0.13196  1.0000
  H   H1725     1.0  0.39246  0.82163  0.30506  1.0000
  Fe  Fe116     1.0  0.11947  0.78182  0.54173  1.0000
  S   S228      1.0  0.10484  0.73311  0.50957  1.0000
  S   S229      1.0  0.14586  0.79537  0.52955  1.0000
  H   H1726     1.0  0.08552  0.76746  0.31499  1.0000
  H   H1727     1.0  0.28730  0.82728  0.34351  1.0000
  Fe  Fe117     1.0  0.35941  0.90577  0.57778  1.0000
  S   S230      1.0  0.38720  0.88570  0.58136  1.0000
  S   S231      1.0  0.36229  0.93617  0.56399  1.0000
  Fe  Fe118     1.0  0.33544  0.87378  0.59220  1.0000
  S   S232      1.0  0.36164  0.85164  0.59690  1.0000
  S   S233      1.0  0.30620  0.86451  0.60034  1.0000
  Fe  Fe119     1.0  0.37107  0.87328  0.60927  1.0000
  C   C974      1.0  0.04061  0.76222  0.61512  1.0000
  Fe  Fe120     1.0  0.37496  0.86630  0.56858  1.0000
  S   S234      1.0  0.39315  0.84943  0.54654  1.0000
  S   S235      1.0  0.34376  0.89472  0.60639  1.0000
  S   S236      1.0  0.34827  0.88709  0.56314  1.0000
  Fe  Fe121     1.0  0.23571  0.76793  0.57744  1.0000
  H   H1728     1.0  0.02561  0.80053  0.44984  1.0000
  S   S237      1.0  0.20412  0.77833  0.58698  1.0000
  Fe  Fe122     1.0  0.27470  0.78065  0.56677  1.0000
  S   S238      1.0  0.29030  0.75071  0.56519  1.0000
  S   S239      1.0  0.29108  0.80514  0.55520  1.0000
  Fe  Fe123     1.0  0.26716  0.74861  0.55001  1.0000
  C   C975      1.0  0.47753  0.95007  0.30935  1.0000
  H   H1729     1.0  0.12480  0.76131  0.32829  1.0000
  S   S240      1.0  0.25280  0.77912  0.54971  1.0000
  S   S241      1.0  0.25640  0.77198  0.59472  1.0000
  Fe  Fe124     1.0  0.07598  0.75701  0.41422  1.0000
  S   S242      1.0  0.08299  0.76898  0.38328  1.0000
  C   C976      1.0  0.43637  0.89132  0.35239  1.0000
  H   H1730     1.0  0.33540  0.82351  0.47938  1.0000
  H   H1731     1.0  0.35708  0.94996  0.48833  1.0000
  H   H1732     1.0  0.45609  0.87035  0.36797  1.0000
  S   S243      1.0  0.08003  0.75008  0.55779  1.0000
  H   H1733     1.0  0.10873  0.78679  0.34602  1.0000
  Fe  Fe125     1.0  0.06508  0.74855  0.37971  1.0000
  C   C977      1.0  0.26651  0.73829  0.48911  1.0000
  H   H1734     1.0  0.04010  0.78334  0.51476  1.0000
  H   H1735     1.0  0.39953  0.89262  0.51633  1.0000
  C   C978      1.0  0.35225  0.81931  0.53698  1.0000
  H   H1736     1.0  0.13284  0.73372  0.31824  1.0000
  S   S244      1.0  0.24349  0.76610  0.38261  1.0000
  C   C979      1.0  0.99280  0.78101  0.56697  1.0000
  Fe  Fe126     1.0  0.22792  0.75490  0.43698  1.0000
  S   S245      1.0  0.22843  0.78482  0.42161  1.0000
  S   S246      1.0  0.21683  0.75027  0.46827  1.0000
  Fe  Fe127     1.0  0.21502  0.77581  0.40061  1.0000
  S   S247      1.0  0.18787  0.79349  0.39127  1.0000
  Fe  Fe128     1.0  0.25676  0.77253  0.40541  1.0000
  S   S248      1.0  0.28524  0.78308  0.40136  1.0000
  S   S249      1.0  0.21219  0.74682  0.41743  1.0000
  H   H1737     1.0  0.17546  0.73798  0.57430  1.0000
  Fe  Fe129     1.0  0.36635  0.86680  0.39880  1.0000
  S   S250      1.0  0.37827  0.86555  0.36787  1.0000
  Fe  Fe130     1.0  0.36495  0.86213  0.44139  1.0000
  S   S251      1.0  0.33569  0.88045  0.44651  1.0000
  S   S252      1.0  0.38373  0.84704  0.46303  1.0000
  Fe  Fe131     1.0  0.32832  0.86391  0.42680  1.0000
  S   S253      1.0  0.29925  0.85440  0.43132  1.0000
  S   S254      1.0  0.35698  0.84440  0.42322  1.0000
  S   S255      1.0  0.37699  0.88259  0.41644  1.0000
  C   C980      1.0  0.28859  0.80249  0.41076  1.0000
  C   C981      1.0  0.30747  0.80473  0.41079  1.0000
  C   C982      1.0  0.31099  0.82072  0.41668  1.0000
  C   C983      1.0  0.29556  0.83449  0.42297  1.0000
  C   C984      1.0  0.27663  0.83187  0.42364  1.0000
  C   C985      1.0  0.27314  0.81600  0.41747  1.0000
  H   H1738     1.0  0.31943  0.79400  0.40616  1.0000
  H   H1739     1.0  0.32560  0.82229  0.41654  1.0000
  H   H1740     1.0  0.26460  0.84232  0.42871  1.0000
  H   H1741     1.0  0.25852  0.81443  0.41759  1.0000
  C   C986      1.0  0.43994  0.84260  0.34078  1.0000
  C   C987      1.0  0.43425  0.83835  0.36047  1.0000
  C   C988      1.0  0.41545  0.84547  0.36916  1.0000
  C   C989      1.0  0.40217  0.85658  0.35810  1.0000
  C   C990      1.0  0.40782  0.86065  0.33845  1.0000
  H   H1742     1.0  0.02278  0.80529  0.51134  1.0000
  C   C991      1.0  0.01496  0.79082  0.45272  1.0000
  H   H1743     1.0  0.03480  0.76667  0.46335  1.0000
  H   H1744     1.0  0.02731  0.77320  0.61595  1.0000
  H   H1745     1.0  0.05464  0.75689  0.49543  1.0000
  H   H1746     1.0  0.40000  0.95158  0.42019  1.0000
  H   H1747     1.0  0.37377  0.93127  0.33395  1.0000
  H   H1748     1.0  0.08660  0.78866  0.33748  1.0000
  H   H1749     1.0  0.36417  0.76724  0.58605  1.0000
  S   S256      1.0  0.12633  0.74987  0.54690  1.0000
  H   H1750     1.0  0.41869  0.91129  0.57796  1.0000
  H   H1751     1.0  0.33573  0.76355  0.52229  1.0000
  C   C992      1.0  0.15119  0.75781  0.37413  1.0000
  C   C993      1.0  0.14264  0.77533  0.37983  1.0000
  C   C994      1.0  0.15406  0.78656  0.38450  1.0000
  C   C995      1.0  0.17386  0.77991  0.38433  1.0000
  C   C996      1.0  0.18228  0.76228  0.37888  1.0000
  C   C997      1.0  0.17102  0.75148  0.37348  1.0000
  H   H1752     1.0  0.12734  0.78038  0.38031  1.0000
  H   H1753     1.0  0.14748  0.80022  0.38866  1.0000
  H   H1754     1.0  0.19755  0.75714  0.37851  1.0000
  H   H1755     1.0  0.08005  0.73471  0.45202  1.0000
  S   S257      1.0  0.09804  0.78394  0.56863  1.0000
  H   H1756     1.0  0.44444  0.82957  0.36903  1.0000
  C   C998      1.0  0.37359  0.92250  0.46967  1.0000
  H   H1757     1.0  0.37656  0.81245  0.33790  1.0000
  S   S258      1.0  0.09655  0.78377  0.52461  1.0000
  H   H1758     1.0  0.42024  0.89619  0.32164  1.0000
  C   C999      1.0  0.99703  0.78125  0.38734  1.0000
  C   C1000     1.0  0.38652  0.98004  0.39267  1.0000
  C   C1001     1.0  0.23382  0.74821  0.48288  1.0000
  H   H1759     1.0  0.99453  0.73655  0.39879  1.0000
  S   S259      1.0  0.27696  0.73662  0.52302  1.0000
  C   C1002     1.0  0.33552  0.74688  0.58750  1.0000
  H   H1760     1.0  0.00355  0.80662  0.56701  1.0000
  H   H1761     1.0  0.29731  0.74877  0.45246  1.0000
  H   H1762     1.0  0.00254  0.75634  0.60198  1.0000
  C   C1003     1.0  0.38953  0.85087  0.52316  1.0000
  C   C1004     1.0  0.37322  0.86167  0.51590  1.0000
  C   C1005     1.0  0.37121  0.86139  0.49716  1.0000
  C   C1006     1.0  0.38530  0.84991  0.48596  1.0000
  C   C1007     1.0  0.40143  0.83933  0.49338  1.0000
  C   C1008     1.0  0.40359  0.83991  0.51168  1.0000
  H   H1763     1.0  0.36201  0.86976  0.52484  1.0000
  H   H1764     1.0  0.35855  0.86944  0.49165  1.0000
  H   H1765     1.0  0.41239  0.83046  0.48490  1.0000
  H   H1766     1.0  0.41626  0.83161  0.51702  1.0000
  C   C1009     1.0  0.30166  0.84815  0.58783  1.0000
  C   C1010     1.0  0.30851  0.84928  0.56847  1.0000
  C   C1011     1.0  0.30439  0.83643  0.55864  1.0000
  C   C1012     1.0  0.29421  0.82180  0.56817  1.0000
  C   C1013     1.0  0.28737  0.82058  0.58757  1.0000
  C   C1014     1.0  0.29074  0.83401  0.59729  1.0000
  H   H1767     1.0  0.31668  0.86029  0.56101  1.0000
  H   H1768     1.0  0.30932  0.83777  0.54358  1.0000
  C   C1015     1.0  0.41488  0.92353  0.58570  1.0000
  C   C1016     1.0  0.42271  0.97268  0.31485  1.0000
  N   N51       1.0  0.01850  0.77862  0.48789  1.0000
  H   H1769     1.0  1.00000  0.78923  0.52356  1.0000
  H   H1770     1.0  0.38287  0.79132  0.57815  1.0000
  C   C1017     1.0  0.40669  0.93281  0.61827  1.0000
  C   C1018     1.0  0.08567  0.77372  0.46750  1.0000
  S   S260      1.0  0.46349  0.83335  0.33011  1.0000
  H   H1771     1.0  0.10787  0.79513  0.32131  1.0000
  H   H1772     1.0  0.39556  0.90408  0.45297  1.0000
  H   H1773     1.0  0.36019  0.83193  0.38516  1.0000
  H   H1774     1.0  0.08328  0.78914  0.46393  1.0000
  C   C1019     1.0  0.03592  0.79644  0.50470  1.0000
  C   C1020     1.0  0.24082  0.74893  0.51367  1.0000
  C   C1021     1.0  0.16224  0.79033  0.54531  1.0000
  C   C1022     1.0  0.15557  0.79183  0.56429  1.0000
  C   C1023     1.0  0.16869  0.78872  0.57670  1.0000
  C   C1024     1.0  0.18845  0.78313  0.57049  1.0000
  C   C1025     1.0  0.19521  0.78164  0.55146  1.0000
  C   C1026     1.0  0.18211  0.78542  0.53883  1.0000
  H   H1775     1.0  0.14030  0.79587  0.56931  1.0000
  H   H1776     1.0  0.16342  0.79048  0.59126  1.0000
  H   H1777     1.0  0.21048  0.77768  0.54645  1.0000
  H   H1778     1.0  0.18733  0.78440  0.52410  1.0000
  H   H1779     1.0  0.32065  0.74400  0.59309  1.0000
  C   C1027     1.0  0.41218  0.91876  0.40198  1.0000
  H   H1780     1.0  0.34462  0.83090  0.54492  1.0000
  H   H1781     1.0  0.32895  0.80613  0.58176  1.0000
  H   H1782     1.0  0.13241  0.77324  0.61664  1.0000
  H   H1783     1.0  0.26769  0.84694  0.50902  1.0000
  H   H1784     1.0  0.36768  0.82057  0.53326  1.0000
  H   H1785     1.0  0.31208  0.77414  0.53289  1.0000
  H   H1786     1.0  0.00426  0.77582  0.43539  1.0000
  H   H1787     1.0  0.44588  0.89127  0.37864  1.0000
  H   H1788     1.0  0.34435  0.74090  0.59876  1.0000
  C   C1028     1.0  0.15202  0.74894  0.60668  1.0000
  C   C1029     1.0  0.37961  0.90790  0.45633  1.0000
  C   C1030     1.0  0.04342  0.74816  0.49682  1.0000
  C   C1031     1.0  0.13793  0.75812  0.62230  1.0000
  H   H1789     1.0  0.33301  0.92917  0.45165  1.0000
  H   H1790     1.0  0.36304  0.80661  0.60090  1.0000
  H   H1791     1.0  0.34434  0.83769  0.51142  1.0000
  H   H1792     1.0  0.43304  0.91456  0.31000  1.0000
  H   H1793     1.0  0.44301  0.92092  0.62564  1.0000
  C   C1032     1.0  0.34448  0.80643  0.58077  1.0000
  H   H1794     1.0  0.26752  0.82393  0.52419  1.0000
  N   N52       1.0  0.15533  0.78782  0.47183  1.0000
  C   C1033     1.0  0.13495  0.79605  0.47995  1.0000
  C   C1034     1.0  0.16311  0.77047  0.48523  1.0000
  C   C1035     1.0  0.16749  0.80294  0.46991  1.0000
  C   C1036     1.0  0.15680  0.78305  0.45248  1.0000
  C   C1037     1.0  0.14409  0.76888  0.45103  1.0000
  C   C1038     1.0  0.12499  0.81385  0.46761  1.0000
  C   C1039     1.0  0.18969  0.79628  0.46583  1.0000
  H   H1795     1.0  0.44014  0.94846  0.32848  1.0000
  N   N53       1.0  0.02455  0.73414  0.61293  1.0000
  C   C1040     1.0  0.14310  0.76885  0.43053  1.0000
  C   C1041     1.0  0.10467  0.82096  0.47758  1.0000
  C   C1042     1.0  0.20034  0.81311  0.46210  1.0000
  H   H1796     1.0  0.13460  0.79987  0.49393  1.0000
  H   H1797     1.0  0.12536  0.78538  0.48301  1.0000
  H   H1798     1.0  0.17581  0.76180  0.47757  1.0000
  H   H1799     1.0  0.16846  0.77496  0.49652  1.0000
  H   H1800     1.0  0.16422  0.80923  0.48309  1.0000
  H   H1801     1.0  0.16399  0.81495  0.45833  1.0000
  H   H1802     1.0  0.15365  0.79632  0.44208  1.0000
  H   H1803     1.0  0.17184  0.77662  0.44699  1.0000
  H   H1804     1.0  0.12907  0.77244  0.45835  1.0000
  H   H1805     1.0  0.15046  0.75414  0.45702  1.0000
  H   H1806     1.0  0.13305  0.82583  0.46474  1.0000
  H   H1807     1.0  0.12370  0.81037  0.45397  1.0000
  H   H1808     1.0  0.19413  0.78911  0.45332  1.0000
  H   H1809     1.0  0.19467  0.78625  0.47814  1.0000
  H   H1810     1.0  0.13880  0.76399  0.50736  1.0000
  H   H1811     1.0  0.32190  0.84258  0.37998  1.0000
  C   C1043     1.0  0.40393  0.93960  0.39496  1.0000
  H   H1812     1.0  0.33390  0.93422  0.50145  1.0000
  H   H1813     1.0  0.34537  0.96211  0.62317  1.0000
  Fe  Fe132     1.0  0.24138  0.73738  0.40090  1.0000
  H   H1814     1.0  0.21241  0.75678  0.50629  1.0000
  H   H1815     1.0  0.13393  0.75857  0.42994  1.0000
  H   H1816     1.0  0.10515  0.82502  0.49122  1.0000
  H   H1817     1.0  0.09777  0.83368  0.46853  1.0000
  H   H1818     1.0  0.09572  0.80970  0.48031  1.0000
  H   H1819     1.0  0.21614  0.80777  0.45968  1.0000
  H   H1820     1.0  0.19666  0.82330  0.44932  1.0000
  H   H1821     1.0  0.19660  0.82063  0.47443  1.0000
  H   H1822     1.0  0.39284  0.83876  0.31936  1.0000
  C   C1044     1.0  0.32276  0.83416  0.47540  1.0000
  H   H1823     1.0  0.19936  0.75464  0.31906  1.0000
  H   H1824     1.0  0.16806  0.74106  0.51574  1.0000
  H   H1825     1.0  0.41119  0.84218  0.38433  1.0000
  H   H1826     1.0  0.34095  0.85499  0.36930  1.0000
  H   H1827     1.0  0.32295  0.79297  0.50205  1.0000
  C   C1045     1.0  0.34940  0.80175  0.60102  1.0000
  H   H1828     1.0  0.40676  0.91477  0.41731  1.0000
  H   H1829     1.0  0.15775  0.76461  0.42252  1.0000
  H   H1830     1.0  0.04551  0.76097  0.54632  1.0000
  H   H1831     1.0  0.46459  0.89252  0.35788  1.0000
  C   C1046     1.0  0.37141  0.96837  0.57117  1.0000
  C   C1047     1.0  0.03909  0.74700  0.60376  1.0000
  N   N54       1.0  0.22275  0.84339  0.56649  1.0000
  C   C1048     1.0  0.21859  0.82863  0.58382  1.0000
  C   C1049     1.0  0.20586  0.84799  0.55619  1.0000
  C   C1050     1.0  0.24109  0.83548  0.55426  1.0000
  C   C1051     1.0  0.22552  0.86159  0.57159  1.0000
  C   C1052     1.0  0.20988  0.86985  0.58726  1.0000
  C   C1053     1.0  0.23388  0.82318  0.59692  1.0000
  C   C1054     1.0  0.24542  0.84698  0.53400  1.0000
  C   C1055     1.0  0.20139  0.83103  0.54902  1.0000
  C   C1056     1.0  0.18631  0.83792  0.53613  1.0000
  C   C1057     1.0  0.21428  0.88828  0.59094  1.0000
  C   C1058     1.0  0.22667  0.81074  0.61547  1.0000
  H   H1832     1.0  0.21765  0.81501  0.57971  1.0000
  H   H1833     1.0  0.20415  0.83311  0.59221  1.0000
  H   H1834     1.0  0.19241  0.85338  0.56553  1.0000
  H   H1835     1.0  0.20773  0.85991  0.54408  1.0000
  H   H1836     1.0  0.24122  0.82047  0.55301  1.0000
  H   H1837     1.0  0.25372  0.83455  0.56113  1.0000
  H   H1838     1.0  0.23980  0.85971  0.57596  1.0000
  H   H1839     1.0  0.22600  0.87309  0.55897  1.0000
  H   H1840     1.0  0.20921  0.85968  0.60081  1.0000
  H   H1841     1.0  0.19544  0.87321  0.58314  1.0000
  H   H1842     1.0  0.24723  0.81496  0.58983  1.0000
  H   H1843     1.0  0.23765  0.83583  0.60050  1.0000
  H   H1844     1.0  0.24462  0.86232  0.53422  1.0000
  H   H1845     1.0  0.23496  0.84573  0.52539  1.0000
  H   H1846     1.0  0.21437  0.82318  0.54104  1.0000
  H   H1847     1.0  0.19544  0.82083  0.56116  1.0000
  H   H1848     1.0  0.18322  0.82552  0.53139  1.0000
  H   H1849     1.0  0.17263  0.84512  0.54381  1.0000
  H   H1850     1.0  0.19165  0.84791  0.52343  1.0000
  H   H1851     1.0  0.20296  0.89390  0.60221  1.0000
  H   H1852     1.0  0.22843  0.88555  0.59568  1.0000
  H   H1853     1.0  0.21452  0.89933  0.57797  1.0000
  H   H1854     1.0  0.36016  0.81692  0.32144  1.0000
  H   H1855     1.0  0.22217  0.79800  0.61276  1.0000
  H   H1856     1.0  0.99641  0.80412  0.48800  1.0000
  N   N55       1.0  0.37407  0.92604  0.50425  1.0000
  C   C1059     1.0  0.05213  0.80801  0.50080  1.0000
  H   H1857     1.0  0.38799  0.94090  0.39711  1.0000
  C   C1060     1.0  0.41873  0.91200  0.31824  1.0000
  C   C1061     1.0  0.10130  0.76158  0.31318  1.0000
  H   H1858     1.0  0.23176  0.81963  0.48704  1.0000
  H   H1859     1.0  0.28539  0.83310  0.61229  1.0000
  H   H1860     1.0  0.13654  0.78323  0.42382  1.0000
  H   H1861     1.0  0.00034  0.79912  0.45659  1.0000
  C   C1062     1.0  0.35716  0.91820  0.51700  1.0000
  C   C1063     1.0  0.38955  0.92368  0.51603  1.0000
  H   H1862     1.0  0.31381  0.75715  0.47549  1.0000
  C   C1064     1.0  0.31091  0.76779  0.46275  1.0000
  C   C1065     1.0  0.33917  0.91946  0.50815  1.0000
  H   H1863     1.0  0.00949  0.74779  0.35015  1.0000
  C   C1066     1.0  0.32256  0.91295  0.52310  1.0000
  H   H1864     1.0  0.41211  0.80602  0.54458  1.0000
  H   H1865     1.0  0.37643  0.93981  0.35437  1.0000
  C   C1067     1.0  0.36845  0.82374  0.32843  1.0000
  H   H1866     1.0  0.05793  0.78371  0.61368  1.0000
  H   H1867     1.0  0.36139  0.90279  0.52243  1.0000
  H   H1868     1.0  0.35256  0.92536  0.52967  1.0000
  H   H1869     1.0  0.38468  0.93293  0.52708  1.0000
  H   H1870     1.0  0.32537  0.83896  0.45988  1.0000
  H   H1871     1.0  0.38045  0.89977  0.49287  1.0000
  C   C1068     1.0  0.44097  0.96499  0.37676  1.0000
  S   S261      1.0  0.04487  0.79836  0.55475  1.0000
  C   C1069     1.0  0.35491  0.83901  0.33938  1.0000
  C   C1070     1.0  0.36788  0.94718  0.49776  1.0000
  H   H1872     1.0  0.38500  0.89868  0.53811  1.0000
  H   H1873     1.0  0.33814  0.81141  0.38137  1.0000
  H   H1874     1.0  0.00397  0.75629  0.62582  1.0000
  H   H1875     1.0  0.32659  0.89773  0.52952  1.0000
  H   H1876     1.0  0.31861  0.92187  0.53438  1.0000
  H   H1877     1.0  0.30974  0.91433  0.51646  1.0000
  C   C1071     1.0  0.37685  0.92679  0.34851  1.0000
  H   H1878     1.0  0.32777  0.77504  0.59424  1.0000
  C   C1072     1.0  0.30528  0.80867  0.47133  1.0000
  H   H1879     1.0  0.42660  0.90514  0.52303  1.0000
  H   H1880     1.0  0.41158  0.91175  0.54461  1.0000
  C   C1073     1.0  0.34106  0.96767  0.41786  1.0000
  C   C1074     1.0  0.10881  0.76444  0.33056  1.0000
  C   C1075     1.0  0.01633  0.77326  0.38132  1.0000
  C   C1076     1.0  0.45169  0.88614  0.36501  1.0000
  S   S262      1.0  0.10154  0.73337  0.41430  1.0000
  H   H1881     1.0  0.44235  0.88427  0.33985  1.0000
  S   S263      1.0  0.25699  0.74292  0.42217  1.0000
  C   C1077     1.0  0.00601  0.75699  0.36065  1.0000
  C   C1078     1.0  0.29354  0.81383  0.35211  1.0000
  C   C1079     1.0  0.31759  0.77973  0.50219  1.0000
  H   H1882     1.0  0.29754  0.89108  0.35970  1.0000
  C   C1080     1.0  0.42663  0.85381  0.32983  1.0000
  C   C1081     1.0  0.38439  0.95831  0.48766  1.0000
  H   H1883     1.0  0.32703  0.77259  0.49083  1.0000
  C   C1082     1.0  0.30857  0.88048  0.36664  1.0000
  C   C1083     1.0  0.09215  0.73389  0.47668  1.0000
  H   H1884     1.0  0.06602  0.79924  0.49553  1.0000
  C   C1084     1.0  0.38331  0.83272  0.31301  1.0000
  C   C1085     1.0  0.20514  0.74259  0.32954  1.0000
  H   H1885     1.0  0.41737  0.78476  0.56176  1.0000
  S   S264      1.0  0.24810  0.73699  0.57639  1.0000
  H   H1886     1.0  0.04312  0.75564  0.62960  1.0000
  H   H1887     1.0  0.28169  0.80848  0.36287  1.0000
  H   H1888     1.0  0.32587  0.77362  0.57060  1.0000
  C   C1086     1.0  0.35278  0.96384  0.60867  1.0000
  H   H1889     1.0  0.04524  0.74242  0.48361  1.0000
  H   H1890     1.0  0.32614  0.95424  0.47192  1.0000
  H   H1891     1.0  0.37080  0.97570  0.46444  1.0000
  H   H1892     1.0  0.37825  0.81211  0.56129  1.0000
  H   H1893     1.0  0.17763  0.73808  0.36899  1.0000
  H   H1894     1.0  0.40930  0.94307  0.37960  1.0000
  C   C1087     1.0  0.31612  0.86401  0.35557  1.0000
  C   C1088     1.0  0.41210  0.79040  0.54817  1.0000
  H   H1895     1.0  0.23839  0.80580  0.62398  1.0000
  C   C1089     1.0  0.09641  0.74465  0.48853  1.0000
  H   H1896     1.0  0.37777  0.82352  0.36598  1.0000
  H   H1897     1.0  0.36200  0.79885  0.40307  1.0000
  C   C1090     1.0  0.01991  0.77369  0.46859  1.0000
  H   H1898     1.0  0.43069  0.85684  0.31466  1.0000
  C   C1091     1.0  0.26025  0.74175  0.50764  1.0000
  N   N56       1.0  0.29156  0.79511  0.48080  1.0000
  C   C1092     1.0  0.29180  0.78164  0.46760  1.0000
  C   C1093     1.0  0.27144  0.80676  0.48358  1.0000
  C   C1094     1.0  0.29606  0.78431  0.49977  1.0000
  H   H1899     1.0  0.30245  0.81504  0.45687  1.0000
  C   C1095     1.0  0.25478  0.79523  0.49180  1.0000
  C   C1096     1.0  0.30434  0.82560  0.48155  1.0000
  H   H1900     1.0  0.37894  0.96996  0.55675  1.0000
  H   H1901     1.0  0.30203  0.82124  0.49713  1.0000
  C   C1097     1.0  0.23601  0.80811  0.49871  1.0000
  H   H1902     1.0  0.28100  0.77219  0.47370  1.0000
  H   H1903     1.0  0.28751  0.78994  0.45409  1.0000
  H   H1904     1.0  0.26825  0.81576  0.46993  1.0000
  H   H1905     1.0  0.27034  0.81694  0.49325  1.0000
  H   H1906     1.0  0.28821  0.79231  0.51133  1.0000
  H   H1907     1.0  0.29057  0.77060  0.50320  1.0000
  C   C1098     1.0  0.34457  0.82262  0.51846  1.0000
  H   H1908     1.0  0.25834  0.78397  0.50389  1.0000
  H   H1909     1.0  0.25188  0.78835  0.48078  1.0000
  H   H1910     1.0  0.42465  0.90605  0.61027  1.0000
  H   H1911     1.0  0.35404  0.81327  0.50878  1.0000
  H   H1912     1.0  0.32134  0.84668  0.48235  1.0000
  H   H1913     1.0  0.32966  0.81966  0.52099  1.0000
  H   H1914     1.0  0.99363  0.79103  0.39730  1.0000
  H   H1915     1.0  0.41844  0.88698  0.54198  1.0000
  H   H1916     1.0  0.43973  0.95021  0.37610  1.0000
  H   H1917     1.0  0.22433  0.79949  0.50383  1.0000
  H   H1918     1.0  0.23768  0.81454  0.51058  1.0000
  H   H1919     1.0  0.27977  0.80919  0.59514  1.0000
  S   S265      1.0  0.13769  0.74364  0.36731  1.0000
  C   C1099     1.0  0.39185  0.78635  0.54955  1.0000
  H   H1920     1.0  0.19014  0.73696  0.59120  1.0000
  H   H1921     1.0  0.44819  0.96434  0.38880  1.0000
  H   H1922     1.0  0.32001  0.83558  0.33613  1.0000
  S   S266      1.0  0.33697  0.88505  0.40121  1.0000
  S   S267      1.0  0.04506  0.75240  0.35895  1.0000
  C   C1100     1.0  0.02088  0.76143  0.36767  1.0000
  H   H1923     1.0  0.39758  0.86914  0.32980  1.0000
  C   C1101     1.0  0.26556  0.83954  0.52393  1.0000
  H   H1924     1.0  0.27667  0.84240  0.53088  1.0000
  H   H1925     1.0  0.37961  0.79019  0.38378  1.0000
  H   H1926     1.0  0.39258  0.77065  0.55328  1.0000
  C   C1102     1.0  0.41142  0.91611  0.60695  1.0000
  H   H1927     1.0  0.10327  0.75510  0.34365  1.0000
  H   H1928     1.0  0.41877  0.85704  0.62165  1.0000
  H   H1929     1.0  0.02069  0.74060  0.55342  1.0000
  C   C1103     1.0  0.36558  0.81988  0.37726  1.0000
  Fe  Fe133     1.0  0.10220  0.75180  0.53132  1.0000
  H   H1930     1.0  0.33319  0.81216  0.34037  1.0000
  H   H1931     1.0  0.19931  0.73421  0.54521  1.0000
  C   C1104     1.0  0.39629  0.90305  0.52613  1.0000
  H   H1932     1.0  0.40269  0.92858  0.50713  1.0000
  H   H1933     1.0  0.34707  0.93743  0.60378  1.0000
  S   S268      1.0  0.34582  0.93163  0.41071  1.0000
  H   H1934     1.0  0.34152  0.73953  0.57516  1.0000
  H   H1935     1.0  0.02999  0.77533  0.42980  1.0000
  H   H1936     1.0  0.40746  0.94751  0.34570  1.0000
  C   C1105     1.0  0.33009  0.84797  0.36595  1.0000
  H   H1937     1.0  0.38519  0.80622  0.39673  1.0000
  H   H1938     1.0  0.29211  0.83709  0.47797  1.0000
  H   H1939     1.0  0.39191  0.96101  0.49832  1.0000
  Fe  Fe134     1.0  0.07565  0.78201  0.55200  1.0000
  Fe  Fe135     1.0  0.34713  0.89977  0.42018  1.0000
  H   H1940     1.0  0.34580  0.82167  0.57545  1.0000
  C   C1106     1.0  0.14895  0.75696  0.49622  1.0000
  H   H1941     1.0  0.05382  0.73869  0.60053  1.0000
  H   H1942     1.0  0.35589  0.78863  0.53936  1.0000
  C   C1107     1.0  0.41436  0.90175  0.53440  1.0000
  H   H1943     1.0  0.02143  0.76271  0.51594  1.0000
  C   C1108     1.0  0.33060  0.95794  0.45685  1.0000
  H   H1944     1.0  0.31987  0.80659  0.61626  1.0000
  H   H1945     1.0  0.01460  0.73349  0.41058  1.0000
  C   C1109     1.0  0.32024  0.76683  0.52104  1.0000
  H   H1946     1.0  0.01045  0.76315  0.46941  1.0000
  H   H1947     1.0  0.42362  0.88517  0.36034  1.0000
  H   H1948     1.0  0.38982  0.91432  0.31207  1.0000
  C   C1110     1.0  0.09336  0.76454  0.48369  1.0000
  H   H1949     1.0  0.21338  0.74246  0.55852  1.0000
  Fe  Fe136     1.0  0.10357  0.75196  0.57250  1.0000
  H   H1950     1.0  0.44471  0.91736  0.33687  1.0000
  H   H1951     1.0  0.05348  0.81226  0.51405  1.0000
  H   H1952     1.0  0.33357  0.79940  0.55118  1.0000
  C   C1111     1.0  0.30958  0.75662  0.44773  1.0000
  H   H1953     1.0  0.40166  0.93282  0.58135  1.0000
  S   S269      1.0  0.06961  0.77501  0.43681  1.0000
  H   H1954     1.0  0.39793  0.91453  0.48382  1.0000
  H   H1955     1.0  0.09693  0.77291  0.49237  1.0000
  H   H1956     1.0  0.33127  0.82747  0.60997  1.0000
  H   H1957     1.0  0.32323  0.77543  0.45718  1.0000
  N   N57       1.0  0.33999  0.83175  0.35546  1.0000
  C   C1112     1.0  0.25338  0.74185  0.47663  1.0000
  C   C1113     1.0  0.41117  0.94193  0.33214  1.0000
  N   N58       1.0  0.35672  0.79392  0.56714  1.0000
  H   H1958     1.0  0.32039  0.80103  0.46906  1.0000
  C   C1114     1.0  0.02653  0.78487  0.55696  1.0000
  H   H1959     1.0  0.38781  0.79118  0.53536  1.0000
  C   C1115     1.0  0.45418  0.97218  0.35868  1.0000
  H   H1960     1.0  0.31406  0.80363  0.37073  1.0000
  C   C1116     1.0  0.34932  0.79945  0.54867  1.0000
  H   H1961     1.0  0.00927  0.74218  0.44148  1.0000
  H   H1962     1.0  0.37356  0.89472  0.46279  1.0000
  C   C1117     1.0  0.03104  0.76649  0.55252  1.0000
  H   H1963     1.0  0.42818  0.91640  0.39945  1.0000
  H   H1964     1.0  0.37400  0.91401  0.44297  1.0000
  H   H1965     1.0  0.36325  0.91171  0.37517  1.0000
  C   C1118     1.0  0.38208  0.91502  0.48812  1.0000
  H   H1966     1.0  0.05557  0.77963  0.59102  1.0000
  H   H1967     1.0  0.34251  0.90979  0.49759  1.0000
  H   H1968     1.0  0.14022  0.75339  0.48723  1.0000
  H   H1969     1.0  0.14443  0.75037  0.59470  1.0000
  H   H1970     1.0  0.36030  0.95416  0.51009  1.0000
  H   H1971     1.0  0.40759  0.90926  0.39441  1.0000
  C   C1119     1.0  0.00724  0.79231  0.56374  1.0000
  H   H1972     1.0  0.30154  0.82770  0.37155  1.0000
  C   C1120     1.0  0.40924  0.95328  0.40592  1.0000
  H   H1973     1.0  0.35772  0.92574  0.47248  1.0000
  C   C1121     1.0  0.01682  0.75510  0.55615  1.0000
  H   H1974     1.0  0.23601  0.75191  0.52787  1.0000
  H   H1975     1.0  0.32550  0.96378  0.52238  1.0000
  H   H1976     1.0  0.39850  0.91110  0.36422  1.0000
  H   H1977     1.0  0.42414  0.94776  0.40860  1.0000
  H   H1978     1.0  0.32308  0.74615  0.44507  1.0000
  C   C1122     1.0  0.22645  0.73523  0.32277  1.0000
  H   H1979     1.0  0.39868  0.94799  0.32485  1.0000
  C   C1123     1.0  0.35562  0.77310  0.57451  1.0000
  H   H1980     1.0  0.42218  0.78343  0.53692  1.0000
  N   N59       1.0  0.10492  0.74129  0.30957  1.0000
  H   H1981     1.0  0.42692  0.93171  0.58171  1.0000
  H   H1982     1.0  0.32051  0.88778  0.36697  1.0000
  C   C1124     1.0  0.33498  0.76841  0.58169  1.0000
  H   H1983     1.0  0.39543  0.89926  0.34673  1.0000
  H   H1984     1.0  0.39407  0.94278  0.61318  1.0000
  H   H1985     1.0  0.37875  0.93584  0.46207  1.0000
  H   H1986     1.0  0.42918  0.92018  0.35879  1.0000
  H   H1987     1.0  0.34782  0.84989  0.32877  1.0000
  H   H1988     1.0  0.38833  0.96813  0.62857  1.0000
  C   C1125     1.0  0.37732  0.79661  0.56463  1.0000
  C   C1126     1.0  0.22754  0.75181  0.50140  1.0000
  C   C1127     1.0  0.33441  0.94377  0.44542  1.0000
  H   H1989     1.0  0.31517  0.75317  0.52212  1.0000
  H   H1990     1.0  0.04917  0.82118  0.49029  1.0000
  C   C1128     1.0  0.08079  0.76305  0.45605  1.0000
  H   H1991     1.0  0.04691  0.78594  0.47828  1.0000
  C   C1129     1.0  0.36052  0.91696  0.36050  1.0000
  C   C1130     1.0  0.43137  0.91330  0.34613  1.0000
  H   H1992     1.0  0.02774  0.77681  0.38672  1.0000
  C   C1131     1.0  0.39677  0.91350  0.34916  1.0000
  H   H1993     1.0  0.32338  0.86993  0.34137  1.0000
  C   C1132     1.0  0.32583  0.82451  0.34744  1.0000
  C   C1133     1.0  0.37352  0.80266  0.39104  1.0000
  H   H1994     1.0  0.02807  0.80578  0.47746  1.0000
  C   C1134     1.0  0.03267  0.79174  0.48617  1.0000
  H   H1995     1.0  0.39936  0.90802  0.61012  1.0000
  H   H1996     1.0  0.35113  0.78628  0.60678  1.0000
  C   C1135     1.0  0.33986  0.94864  0.42587  1.0000
  C   C1136     1.0  0.35377  0.94982  0.59773  1.0000
  C   C1137     1.0  0.02300  0.76013  0.50132  1.0000
  C   C1138     1.0  0.01576  0.78417  0.43412  1.0000
  H   H1997     1.0  0.41732  0.97936  0.32769  1.0000
  C   C1139     1.0  0.36269  0.95229  0.57879  1.0000
  C   C1140     1.0  0.30878  0.81738  0.36198  1.0000
  N   N60       1.0  0.41423  0.92035  0.33614  1.0000
  H   H1998     1.0  0.39517  0.95012  0.47779  1.0000
  H   H1999     1.0  0.31349  0.96942  0.50222  1.0000
  H   H2000     1.0  0.41868  0.94112  0.61385  1.0000
  H   H2001     1.0  0.30757  0.76642  0.43427  1.0000
  C   C1141     1.0  0.99773  0.76219  0.56360  1.0000
  H   H2002     1.0  0.25831  0.73910  0.46238  1.0000
  C   C1142     1.0  0.34915  0.81560  0.36905  1.0000
  H   H2003     1.0  0.36253  0.76439  0.56330  1.0000
  H   H2004     1.0  0.43423  0.96717  0.42136  1.0000
  H   H2005     1.0  0.01231  0.75085  0.50201  1.0000
  H   H2006     1.0  0.34668  0.92723  0.36107  1.0000
  H   H2007     1.0  0.35459  0.80252  0.36253  1.0000
  H   H2008     1.0  0.35906  0.90475  0.35433  1.0000
  H   H2009     1.0  0.29987  0.80290  0.34294  1.0000
  C   C1143     1.0  0.05739  0.77258  0.60560  1.0000
  H   H2010     1.0  0.30342  0.85854  0.35395  1.0000
  Fe  Fe137     1.0  0.10729  0.74392  0.38318  1.0000
  H   H2011     1.0  0.36411  0.84669  0.34443  1.0000
  H   H2012     1.0  0.30183  0.87520  0.38135  1.0000
  H   H2013     1.0  0.01359  0.79678  0.42280  1.0000
  C   C1144     1.0  0.10257  0.78506  0.33396  1.0000
  H   H2014     1.0  0.07128  0.76240  0.60509  1.0000
  H   H2015     1.0  0.03569  0.75475  0.58980  1.0000
  C   C1145     1.0  0.33360  0.81180  0.61483  1.0000
  H   H2016     1.0  0.33790  0.80885  0.62894  1.0000
  H   H2017     1.0  0.14521  0.75775  0.63430  1.0000
  H   H2018     1.0  0.21421  0.81903  0.62376  1.0000
  C   C1146     1.0  0.15975  0.73823  0.50580  1.0000
  S   S270      1.0  0.05557  0.73919  0.41069  1.0000
  H   H2019     1.0  0.08286  0.73796  0.33474  1.0000
  H   H2020     1.0  0.47428  0.94354  0.32400  1.0000
  Fe  Fe138     1.0  0.27006  0.74168  0.59175  1.0000
  C   C1147     1.0  0.99803  0.78857  0.49391  1.0000
  C   C1148     1.0  0.00491  0.74673  0.61554  1.0000
  H   H2021     1.0  0.20353  0.74783  0.34302  1.0000
  H   H2022     1.0  0.16384  0.75728  0.60191  1.0000
  H   H2023     1.0  0.23410  0.74738  0.32091  1.0000
  C   C1149     1.0  0.08417  0.74308  0.46056  1.0000
  C   C1150     1.0  0.42841  0.95103  0.32019  1.0000
  H   H2024     1.0  0.46825  0.96233  0.35743  1.0000
  H   H2025     1.0  0.47773  0.97754  0.31593  1.0000
  C   C1151     1.0  0.41822  0.85862  0.63607  1.0000
  H   H2026     1.0  0.04722  0.73600  0.52580  1.0000
  H   H2027     1.0  0.12544  0.75057  0.62742  1.0000
  H   H2028     1.0  0.44776  0.97285  0.34604  1.0000
  H   H2029     1.0  0.34461  0.97147  0.40270  1.0000
  H   H2030     1.0  0.44895  0.84983  0.63522  1.0000
  H   H2031     1.0  0.22610  0.75910  0.63729  1.0000
  H   H2032     1.0  0.37268  0.92894  0.63690  1.0000
  C   C1152     1.0  0.33263  0.97687  0.44882  1.0000
  H   H2033     1.0  0.29949  0.97032  0.52553  1.0000
  N   N61       1.0  0.40682  0.97409  0.39681  1.0000
  C   C1153     1.0  0.31323  0.97310  0.51620  1.0000
  H   H2034     1.0  0.38435  0.97198  0.38221  1.0000
  C   C1154     1.0  0.37666  0.97768  0.47658  1.0000
  C   C1155     1.0  0.37040  0.98243  0.58208  1.0000
  H   H2035     1.0  0.41465  0.97690  0.36626  1.0000
  S   S271      1.0  0.10856  0.73458  0.60057  1.0000
  C   C1156     1.0  0.12645  0.73457  0.30551  1.0000
  H   H2036     1.0  0.28157  0.73285  0.48442  1.0000
  H   H2037     1.0  0.24683  0.74032  0.63818  1.0000
  C   C1157     1.0  0.33787  0.98169  0.42928  1.0000
  C   C1158     1.0  0.36078  0.98034  0.60079  1.0000
  H   H2038     1.0  0.37605  0.97643  0.40572  1.0000
  C   C1159     1.0  0.42084  0.97802  0.37858  1.0000
  H   H2039     1.0  0.43401  0.94519  0.30691  1.0000
  C   C1160     1.0  0.42846  0.98249  0.41706  1.0000
  H   H2040     1.0  0.43551  0.97877  0.30673  1.0000
  H   H2041     1.0  0.41142  0.97627  0.30584  1.0000
  C   C1161     1.0  0.47266  0.94364  0.71983  1.0000
  H   H2042     1.0  0.47405  0.84234  0.80517  1.0000
  H   H2043     1.0  0.37170  0.93039  0.67167  1.0000
  H   H2044     1.0  0.21075  0.73398  0.73665  1.0000
  S   S272      1.0  0.43411  0.75445  0.85131  1.0000
  Fe  Fe139     1.0  0.44922  0.77895  0.83749  1.0000
  S   S273      1.0  0.43349  0.80896  0.83890  1.0000
  Fe  Fe140     1.0  0.48588  0.86671  0.72328  1.0000
  H   H2045     1.0  0.47693  0.79364  0.87970  1.0000
  S   S274      1.0  0.46050  0.76792  0.81044  1.0000
  Fe  Fe141     1.0  0.45902  0.86351  0.69701  1.0000
  S   S275      1.0  0.43524  0.88497  0.70939  1.0000
  H   H2046     1.0  0.47011  0.83882  0.84804  1.0000
  C   C1162     1.0  0.48066  0.95695  0.72586  1.0000
  S   S276      1.0  0.46381  0.88854  0.73739  1.0000
  C   C1163     1.0  0.39997  0.86608  0.66600  1.0000
  Fe  Fe142     1.0  0.44308  0.86952  0.73735  1.0000
  S   S277      1.0  0.41935  0.86385  0.76206  1.0000
  Fe  Fe143     1.0  0.45842  0.90173  0.70818  1.0000
  S   S278      1.0  0.45453  0.93295  0.69490  1.0000
  S   S279      1.0  0.46534  0.84663  0.72521  1.0000
  H   H2047     1.0  0.21713  0.75669  0.72491  1.0000
  H   H2048     1.0  0.40110  0.76418  0.95179  1.0000
  H   H2049     1.0  0.42369  0.79424  0.88452  1.0000
  C   C1164     1.0  0.41706  0.86260  0.67351  1.0000
  H   H2050     1.0  0.36403  0.81950  0.90778  1.0000
  H   H2051     1.0  0.38907  0.76742  0.73483  1.0000
  H   H2052     1.0  0.48700  0.79287  0.77909  1.0000
  H   H2053     1.0  0.39528  0.80550  0.92034  1.0000
  N   N62       1.0  0.41607  0.78064  0.91374  1.0000
  C   C1165     1.0  0.45321  0.86108  0.83127  1.0000
  H   H2054     1.0  0.20945  0.74320  0.66775  1.0000
  H   H2055     1.0  0.39058  0.79465  0.82235  1.0000
  H   H2056     1.0  0.44011  0.92820  0.64820  1.0000
  C   C1166     1.0  0.36473  0.80575  0.90310  1.0000
  C   C1167     1.0  0.46132  0.79983  0.88219  1.0000
  H   H2057     1.0  0.37837  0.97077  0.67082  1.0000
  H   H2058     1.0  0.38611  0.78397  0.92776  1.0000
  H   H2059     1.0  0.43067  0.79023  0.93218  1.0000
  H   H2060     1.0  0.40404  0.95003  0.71070  1.0000
  H   H2061     1.0  0.42590  0.80743  0.90162  1.0000
  C   C1168     1.0  0.37492  0.91678  0.66613  1.0000
  C   C1169     1.0  0.40291  0.78787  0.81268  1.0000
  C   C1170     1.0  0.41752  0.76176  0.90763  1.0000
  C   C1171     1.0  0.45386  0.89931  0.64723  1.0000
  C   C1172     1.0  0.43014  0.82365  0.81708  1.0000
  C   C1173     1.0  0.44338  0.82141  0.80036  1.0000
  C   C1174     1.0  0.44071  0.83409  0.78340  1.0000
  C   C1175     1.0  0.42442  0.84858  0.78305  1.0000
  C   C1176     1.0  0.41112  0.85051  0.79969  1.0000
  C   C1177     1.0  0.41413  0.83833  0.81667  1.0000
  H   H2062     1.0  0.45581  0.81011  0.80056  1.0000
  H   H2063     1.0  0.45100  0.83248  0.77056  1.0000
  H   H2064     1.0  0.39847  0.86162  0.79949  1.0000
  H   H2065     1.0  0.45449  0.87033  0.81714  1.0000
  Fe  Fe144     1.0  0.46184  0.74039  0.86147  1.0000
  H   H2066     1.0  0.46063  0.97064  0.67910  1.0000
  H   H2067     1.0  0.41487  0.95044  0.64337  1.0000
  C   C1178     1.0  0.47806  0.83410  0.81868  1.0000
  H   H2068     1.0  0.39151  0.96851  0.72402  1.0000
  C   C1179     1.0  0.48278  0.74453  0.90207  1.0000
  H   H2069     1.0  0.40387  0.84020  0.82948  1.0000
  C   C1180     1.0  0.48364  0.74513  0.93491  1.0000
  H   H2070     1.0  0.48827  0.77265  0.74510  1.0000
  C   C1181     1.0  0.43529  0.85454  0.64380  1.0000
  C   C1182     1.0  0.46517  0.94868  0.70303  1.0000
  C   C1183     1.0  0.43479  0.85655  0.66255  1.0000
  C   C1184     1.0  0.47635  0.78336  0.73968  1.0000
  H   H2071     1.0  0.47992  0.79783  0.73787  1.0000
  H   H2072     1.0  0.43136  0.75617  0.96611  1.0000
  C   C1185     1.0  0.39564  0.79156  0.91609  1.0000
  H   H2073     1.0  0.43260  0.75397  0.90647  1.0000
  H   H2074     1.0  0.38629  0.87018  0.67483  1.0000
  H   H2075     1.0  0.24022  0.75589  0.65563  1.0000
  H   H2076     1.0  0.44143  0.85288  0.83292  1.0000
  C   C1186     1.0  0.40133  0.94448  0.64825  1.0000
  H   H2077     1.0  0.19471  0.75091  0.72261  1.0000
  H   H2078     1.0  0.39300  0.80538  0.88672  1.0000
  C   C1187     1.0  0.42815  0.79268  0.89845  1.0000
  Fe  Fe145     1.0  0.44711  0.74221  0.82491  1.0000
  H   H2079     1.0  0.38252  0.96530  0.70388  1.0000
  H   H2080     1.0  0.40025  0.94045  0.66387  1.0000
  C   C1188     1.0  0.42071  0.76952  0.96748  1.0000
  H   H2081     1.0  0.47213  0.92961  0.72824  1.0000
  H   H2082     1.0  0.02510  0.73348  0.64239  1.0000
  N   N63       1.0  0.42078  0.79632  0.75779  1.0000
  C   C1189     1.0  0.40810  0.81551  0.75326  1.0000
  C   C1190     1.0  0.42104  0.79111  0.77880  1.0000
  C   C1191     1.0  0.44101  0.79812  0.74753  1.0000
  C   C1192     1.0  0.41462  0.78079  0.75088  1.0000
  C   C1193     1.0  0.39413  0.77665  0.75952  1.0000
  C   C1194     1.0  0.40765  0.82346  0.73201  1.0000
  C   C1195     1.0  0.45747  0.78175  0.75353  1.0000
  C   C1196     1.0  0.40237  0.79808  0.79236  1.0000
  H   H2083     1.0  0.41430  0.76396  0.89310  1.0000
  H   H2084     1.0  0.48443  0.82666  0.78192  1.0000
  C   C1197     1.0  0.39377  0.84251  0.72941  1.0000
  H   H2085     1.0  0.46844  0.90316  0.64345  1.0000
  H   H2086     1.0  0.41279  0.82638  0.75912  1.0000
  H   H2087     1.0  0.39293  0.81536  0.76027  1.0000
  H   H2088     1.0  0.42534  0.77535  0.78296  1.0000
  H   H2089     1.0  0.43224  0.79739  0.78248  1.0000
  H   H2090     1.0  0.44478  0.81166  0.74936  1.0000
  H   H2091     1.0  0.44193  0.79914  0.73204  1.0000
  H   H2092     1.0  0.41603  0.78377  0.73524  1.0000
  H   H2093     1.0  0.42445  0.76698  0.75398  1.0000
  H   H2094     1.0  0.38303  0.78971  0.75776  1.0000
  H   H2095     1.0  0.39339  0.77049  0.77474  1.0000
  H   H2096     1.0  0.42207  0.82614  0.72427  1.0000
  H   H2097     1.0  0.40278  0.81345  0.72529  1.0000
  H   H2098     1.0  0.45416  0.76743  0.75412  1.0000
  H   H2099     1.0  0.46005  0.78251  0.76768  1.0000
  H   H2100     1.0  0.40098  0.81365  0.79214  1.0000
  H   H2101     1.0  0.38916  0.79581  0.78841  1.0000
  C   C1198     1.0  0.40514  0.74768  0.92085  1.0000
  C   C1199     1.0  0.38910  0.76191  0.75011  1.0000
  C   C1200     1.0  0.46591  0.96688  0.69231  1.0000
  S   S280      1.0  0.45645  0.85089  0.67198  1.0000
  H   H2102     1.0  0.37076  0.95689  0.64598  1.0000
  H   H2103     1.0  0.38548  0.78241  0.89360  1.0000
  H   H2104     1.0  0.39342  0.84767  0.71414  1.0000
  H   H2105     1.0  0.37893  0.84088  0.73675  1.0000
  H   H2106     1.0  0.39858  0.85344  0.73501  1.0000
  H   H2107     1.0  0.34526  0.91982  0.66193  1.0000
  H   H2108     1.0  0.45639  0.80420  0.86836  1.0000
  H   H2109     1.0  0.35634  0.79648  0.91434  1.0000
  H   H2110     1.0  0.39961  0.74832  0.75180  1.0000
  C   C1201     1.0  0.40043  0.86419  0.64725  1.0000
  C   C1202     1.0  0.39572  0.96485  0.70961  1.0000
  C   C1203     1.0  0.38566  0.79578  0.89852  1.0000
  H   H2111     1.0  0.41530  0.90830  0.66227  1.0000
  C   C1204     1.0  0.22038  0.73630  0.70620  1.0000
  H   H2112     1.0  0.41282  0.97343  0.68306  1.0000
  H   H2113     1.0  0.45074  0.89453  0.66276  1.0000
  C   C1205     1.0  0.42412  0.77775  0.93181  1.0000
  C   C1206     1.0  0.45017  0.78494  0.89504  1.0000
  H   H2114     1.0  0.46844  0.82331  0.82324  1.0000
  H   H2115     1.0  0.39988  0.78889  0.95260  1.0000
  H   H2116     1.0  0.41646  0.78869  0.81708  1.0000
  S   S281      1.0  0.47570  0.76626  0.85022  1.0000
  C   C1207     1.0  0.38298  0.97659  0.65572  1.0000
  H   H2117     1.0  0.35799  0.80881  0.89027  1.0000
  H   H2118     1.0  0.41645  0.86410  0.68795  1.0000
  H   H2119     1.0  0.40186  0.77261  0.81402  1.0000
  C   C1208     1.0  0.47220  0.84749  0.83364  1.0000
  H   H2120     1.0  0.39690  0.98150  0.65386  1.0000
  H   H2121     1.0  0.45612  0.78084  0.90832  1.0000
  C   C1209     1.0  0.48111  0.97532  0.71517  1.0000
  H   H2122     1.0  0.48629  0.95307  0.73891  1.0000
  H   H2123     1.0  0.45312  0.77222  0.88809  1.0000
  H   H2124     1.0  0.45937  0.81263  0.88888  1.0000
  C   C1210     1.0  0.40988  0.77520  0.95084  1.0000
  H   H2125     1.0  0.38982  0.75441  0.92417  1.0000
  H   H2126     1.0  0.38483  0.90627  0.67449  1.0000
  H   H2127     1.0  0.37451  0.75887  0.75684  1.0000
  H   H2128     1.0  0.44934  0.87036  0.84223  1.0000
  H   H2129     1.0  0.47519  0.78063  0.72568  1.0000
  H   H2130     1.0  0.43615  0.76524  0.93230  1.0000
  Fe  Fe146     1.0  0.48607  0.75318  0.82408  1.0000
  C   C1211     1.0  0.35591  0.90943  0.66958  1.0000
  S   S282      1.0  0.48197  0.88127  0.69389  1.0000
  H   H2131     1.0  0.42100  0.97722  0.70339  1.0000
  C   C1212     1.0  0.40824  0.97858  0.69674  1.0000
  C   C1213     1.0  0.43893  0.91655  0.64110  1.0000
  H   H2132     1.0  0.41100  0.74215  0.93413  1.0000
  C   C1214     1.0  0.47363  0.98017  0.69842  1.0000
  H   H2133     1.0  0.34987  0.90738  0.68491  1.0000
  H   H2134     1.0  0.45397  0.88737  0.63993  1.0000
  H   H2135     1.0  0.35819  0.89550  0.66477  1.0000
  C   C1215     1.0  0.48978  0.75108  0.91555  1.0000
  C   C1216     1.0  0.41825  0.91178  0.64658  1.0000
  C   C1217     1.0  0.23455  0.74831  0.64692  1.0000
  C   C1218     1.0  0.38495  0.96139  0.64359  1.0000
  C   C1219     1.0  0.22170  0.73471  0.65945  1.0000
  H   H2136     1.0  0.48787  0.74893  0.88719  1.0000
  S   S283      1.0  0.42569  0.73443  0.81038  1.0000
  H   H2137     1.0  0.41843  0.89817  0.64185  1.0000
  H   H2138     1.0  0.42842  0.78101  0.96813  1.0000
  C   C1220     1.0  0.21005  0.74496  0.72367  1.0000
  H   H2139     1.0  0.48344  0.85607  0.83285  1.0000
  H   H2140     1.0  0.22004  0.74802  0.69382  1.0000
  C   C1221     1.0  0.38381  0.91964  0.64481  1.0000
  H   H2141     1.0  0.48879  0.91531  0.65878  1.0000
  H   H2142     1.0  0.38579  0.90556  0.64037  1.0000
  N   N64       1.0  0.40253  0.92720  0.63948  1.0000
  H   H2143     1.0  0.40017  0.73481  0.89838  1.0000
  H   H2144     1.0  0.49135  0.79894  0.81009  1.0000
  H   H2145     1.0  0.49125  0.80486  0.84223  1.0000
  S   S284      1.0  0.37829  0.86867  0.63885  1.0000
  C   C1222     1.0  0.47026  0.73278  0.94075  1.0000
  C   C1223     1.0  0.50176  0.12126  0.30262  1.0000
  H   H2146     1.0  0.55966  0.11846  0.18947  1.0000
  C   C1224     1.0  0.55882  0.23267  0.24197  1.0000
  H   H2147     1.0  0.53510  0.22037  0.23822  1.0000
  S   S285      1.0  0.69080  0.08598  0.27712  1.0000
  H   H2148     1.0  0.58242  0.12993  0.28851  1.0000
  Fe  Fe147     1.0  0.67296  0.22339  0.30435  1.0000
  H   H2149     1.0  0.53319  0.07338  0.25647  1.0000
  H   H2150     1.0  0.54748  0.06090  0.28517  1.0000
  H   H2151     1.0  0.52810  0.12901  0.27096  1.0000
  C   C1225     1.0  0.49390  0.10582  0.30080  1.0000
  H   H2152     1.0  0.73890  0.15354  0.27581  1.0000
  S   S286      1.0  0.66256  0.04441  0.27921  1.0000
  H   H2153     1.0  0.73904  0.22673  0.23747  1.0000
  H   H2154     1.0  0.50556  0.13775  0.23279  1.0000
  H   H2155     1.0  0.54470  0.15236  0.27981  1.0000
  S   S287      1.0  0.49820  0.20655  0.26764  1.0000
  H   H2156     1.0  0.61661  0.17878  0.26073  1.0000
  H   H2157     1.0  0.61280  0.09313  0.28258  1.0000
  C   C1226     1.0  0.60595  0.02434  0.26345  1.0000
  C   C1227     1.0  0.55920  0.20812  0.29457  1.0000
  H   H2158     1.0  0.57106  0.13425  0.19787  1.0000
  H   H2159     1.0  0.53151  0.98645  0.27499  1.0000
  H   H2160     1.0  0.72177  0.21522  0.25547  1.0000
  H   H2161     1.0  0.73858  0.12395  0.29969  1.0000
  C   C1228     1.0  0.66487  0.14131  0.30029  1.0000
  H   H2162     1.0  0.63593  0.10426  0.24234  1.0000
  S   S288      1.0  0.60937  0.05608  0.30329  1.0000
  H   H2163     1.0  0.63298  0.13347  0.29190  1.0000
  Fe  Fe148     1.0  0.66304  0.22680  0.26530  1.0000
  S   S289      1.0  0.51782  0.02996  0.29659  1.0000
  Fe  Fe149     1.0  0.67738  0.01757  0.29549  1.0000
  H   H2164     1.0  0.57881  0.00235  0.26478  1.0000
  H   H2165     1.0  0.62047  0.99603  0.27250  1.0000
  C   C1229     1.0  0.55717  0.13188  0.19530  1.0000
  H   H2166     1.0  0.49880  0.15184  0.29898  1.0000
  S   S290      1.0  0.54433  0.19340  0.29088  1.0000
  C   C1230     1.0  0.54720  0.09619  0.26080  1.0000
  C   C1231     1.0  0.61156  0.15067  0.27569  1.0000
  C   C1232     1.0  0.54909  0.11381  0.22853  1.0000
  C   C1233     1.0  0.60848  0.00273  0.26476  1.0000
  H   H2167     1.0  0.64367  0.11871  0.26696  1.0000
  C   C1234     1.0  0.55563  0.13645  0.25643  1.0000
  C   C1235     1.0  0.59049  0.21122  0.29984  1.0000
  S   S291      1.0  0.50864  0.08306  0.30256  1.0000
  H   H2168     1.0  0.52776  0.14336  0.24853  1.0000
  H   H2169     1.0  0.61983  0.02919  0.25689  1.0000
  C   C1236     1.0  0.72333  0.15767  0.28144  1.0000
  H   H2170     1.0  0.71393  0.12355  0.30144  1.0000
  C   C1237     1.0  0.67516  0.14211  0.28184  1.0000
  C   C1238     1.0  0.68366  0.12504  0.27489  1.0000
  C   C1239     1.0  0.68195  0.10725  0.28641  1.0000
  S   S292      1.0  0.69285  0.98956  0.28680  1.0000
  Fe  Fe150     1.0  0.63071  0.23053  0.29870  1.0000
  H   H2171     1.0  0.67600  0.15579  0.27276  1.0000
  H   H2172     1.0  0.69110  0.12560  0.26042  1.0000
  C   C1240     1.0  0.55659  0.06036  0.27102  1.0000
  H   H2173     1.0  0.61577  0.14444  0.26258  1.0000
  H   H2174     1.0  0.56245  0.09733  0.26020  1.0000
  H   H2175     1.0  0.63751  0.16341  0.26875  1.0000
  H   H2176     1.0  0.55178  0.14395  0.18462  1.0000
  H   H2177     1.0  0.58380  0.00145  0.28749  1.0000
  H   H2178     1.0  0.55469  0.20325  0.24677  1.0000
  H   H2179     1.0  0.59487  0.03185  0.25472  1.0000
  H   H2180     1.0  0.60852  0.11539  0.26774  1.0000
  C   C1241     1.0  0.54781  0.07603  0.25636  1.0000
  H   H2181     1.0  0.61413  0.98319  0.30245  1.0000
  Fe  Fe151     1.0  0.67776  0.06021  0.29315  1.0000
  H   H2182     1.0  0.64673  0.09562  0.28187  1.0000
  C   C1242     1.0  0.58836  0.12095  0.30087  1.0000
  H   H2183     1.0  0.60160  0.02825  0.27773  1.0000
  S   S293      1.0  0.63765  0.21198  0.27661  1.0000
  C   C1243     1.0  0.55237  0.22736  0.29598  1.0000
  H   H2184     1.0  0.51769  0.10018  0.23790  1.0000
  C   C1244     1.0  0.61708  0.13598  0.29312  1.0000
  C   C1245     1.0  0.64314  0.09520  0.25389  1.0000
  H   H2185     1.0  0.58158  0.09538  0.29379  1.0000
  C   C1246     1.0  0.58390  0.23057  0.30086  1.0000
  H   H2186     1.0  0.59580  0.15606  0.27789  1.0000
  H   H2187     1.0  0.63853  0.08105  0.25748  1.0000
  C   C1247     1.0  0.55104  0.21676  0.23691  1.0000
  H   H2188     1.0  0.65898  0.09292  0.24883  1.0000
  H   H2189     1.0  0.61308  0.99968  0.25016  1.0000
  H   H2190     1.0  0.55722  0.04611  0.26744  1.0000
  H   H2191     1.0  0.71941  0.17347  0.27823  1.0000
  H   H2192     1.0  0.56464  0.12515  0.26501  1.0000
  S   S294      1.0  0.68228  0.20433  0.28236  1.0000
  C   C1248     1.0  0.61650  0.10767  0.27928  1.0000
  C   C1249     1.0  0.63843  0.10490  0.27125  1.0000
  H   H2193     1.0  0.59505  0.98294  0.23933  1.0000
  Fe  Fe152     1.0  0.65582  0.19185  0.29614  1.0000
  C   C1250     1.0  0.72352  0.22742  0.24370  1.0000
  H   H2194     1.0  0.55359  0.99240  0.29334  1.0000
  H   H2195     1.0  0.56626  0.15884  0.26463  1.0000
  H   H2196     1.0  0.71474  0.15140  0.27421  1.0000
  N   N65       1.0  0.53731  0.11290  0.24815  1.0000
  C   C1251     1.0  0.55226  0.15465  0.26491  1.0000
  C   C1252     1.0  0.62165  0.16785  0.27248  1.0000
  H   H2197     1.0  0.54914  0.10083  0.22275  1.0000
  H   H2198     1.0  0.55678  0.07428  0.24239  1.0000
  H   H2199     1.0  0.61847  0.17444  0.28538  1.0000
  C   C1253     1.0  0.53617  0.13068  0.25623  1.0000
  Fe  Fe153     1.0  0.51242  0.20450  0.29261  1.0000
  C   C1254     1.0  0.71917  0.15094  0.30279  1.0000
  N   N66       1.0  0.61008  0.11723  0.29648  1.0000
  H   H2200     1.0  0.54348  0.16668  0.25669  1.0000
  H   H2201     1.0  0.71567  0.22615  0.23265  1.0000
  C   C1255     1.0  0.58941  0.99533  0.27427  1.0000
  H   H2202     1.0  0.57144  0.06199  0.27154  1.0000
  C   C1256     1.0  0.50117  0.12713  0.24523  1.0000
  H   H2203     1.0  0.56450  0.11354  0.22894  1.0000
  C   C1257     1.0  0.57826  0.20011  0.29650  1.0000
  C   C1258     1.0  0.54234  0.13091  0.21356  1.0000
  H   H2204     1.0  0.60487  0.20460  0.30219  1.0000
  H   H2205     1.0  0.52870  0.12915  0.20996  1.0000
  H   H2206     1.0  0.58349  0.18515  0.29582  1.0000
  H   H2207     1.0  0.66742  0.99662  0.25950  1.0000
  H   H2208     1.0  0.54015  0.09626  0.27583  1.0000
  H   H2209     1.0  0.56384  0.13936  0.24188  1.0000
  C   C1259     1.0  0.51725  0.10940  0.24839  1.0000
  H   H2210     1.0  0.51164  0.10121  0.26234  1.0000
  H   H2211     1.0  0.57462  0.22800  0.24114  1.0000
  H   H2212     1.0  0.54019  0.14474  0.21848  1.0000
  H   H2213     1.0  0.74149  0.00471  0.29923  1.0000
  H   H2214     1.0  0.55068  0.11871  0.30008  1.0000
  S   S295      1.0  0.49630  0.23236  0.30064  1.0000
  H   H2215     1.0  0.55752  0.21447  0.22227  1.0000
  H   H2216     1.0  0.49744  0.13432  0.25777  1.0000
  C   C1260     1.0  0.49212  0.14010  0.29831  1.0000
  C   C1261     1.0  0.67254  0.10665  0.30510  1.0000
  Fe  Fe154     1.0  0.77339  0.07000  0.58347  1.0000
  S   S296      1.0  0.75924  0.07888  0.55787  1.0000
  S   S297      1.0  0.77951  0.09091  0.59933  1.0000
  H   H2217     1.0  0.80061  0.10115  0.56174  1.0000
  S   S298      1.0  0.70608  0.06866  0.57651  1.0000
  Fe  Fe155     1.0  0.77688  0.05148  0.54950  1.0000
  S   S299      1.0  0.79234  0.05019  0.51976  1.0000
  H   H2218     1.0  0.61499  0.01557  0.31960  1.0000
  Fe  Fe156     1.0  0.79104  0.19606  0.56682  1.0000
  S   S300      1.0  0.75979  0.20940  0.57034  1.0000
  S   S301      1.0  0.80313  0.16895  0.55472  1.0000
  S   S302      1.0  0.69496  0.03333  0.30659  1.0000
  S   S303      1.0  0.49646  0.00038  0.33064  1.0000
  C   C1262     1.0  0.73833  0.16319  0.61793  1.0000
  S   S304      1.0  0.50584  0.03938  0.33961  1.0000
  C   C1263     1.0  0.66372  0.12356  0.31190  1.0000
  H   H2219     1.0  0.85212  0.13046  0.62091  1.0000
  C   C1264     1.0  0.74541  0.00906  0.31135  1.0000
  S   S305      1.0  0.79562  0.20336  0.59347  1.0000
  H   H2220     1.0  0.77438  0.21439  0.52638  1.0000
  H   H2221     1.0  0.77921  0.14812  0.48496  1.0000
  S   S306      1.0  0.64748  0.20966  0.31912  1.0000
  Fe  Fe157     1.0  0.76747  0.21781  0.43331  1.0000
  H   H2222     1.0  0.80467  0.99831  0.48013  1.0000
  S   S307      1.0  0.76911  0.20497  0.46393  1.0000
  C   C1265     1.0  0.76649  0.21934  0.48130  1.0000
  H   H2223     1.0  0.81282  0.16039  0.59379  1.0000
  C   C1266     1.0  0.84014  0.11011  0.45838  1.0000
  Fe  Fe158     1.0  0.78489  0.20801  0.39432  1.0000
  S   S308      1.0  0.80681  0.18680  0.37902  1.0000
  H   H2224     1.0  0.70357  0.15586  0.30760  1.0000
  H   H2225     1.0  0.69206  0.12484  0.32896  1.0000
  S   S309      1.0  0.75956  0.19997  0.41550  1.0000
  H   H2226     1.0  0.87036  0.13268  0.60082  1.0000
  Fe  Fe159     1.0  0.73168  0.08284  0.39858  1.0000
  S   S310      1.0  0.75969  0.06773  0.38419  1.0000
  S   S311      1.0  0.70509  0.09279  0.38541  1.0000
  Fe  Fe160     1.0  0.74824  0.08551  0.43236  1.0000
  S   S312      1.0  0.77762  0.07093  0.42080  1.0000
  S   S313      1.0  0.74017  0.09579  0.46027  1.0000
  Fe  Fe161     1.0  0.77245  0.08937  0.39318  1.0000
  S   S314      1.0  0.79541  0.10408  0.37359  1.0000
  Fe  Fe162     1.0  0.76211  0.05067  0.41318  1.0000
  S   S315      1.0  0.74433  0.10568  0.40536  1.0000
  S   S316      1.0  0.73285  0.06410  0.42680  1.0000
  H   H2227     1.0  0.76384  0.10889  0.33258  1.0000
  C   C1267     1.0  0.69712  0.14339  0.42736  1.0000
  H   H2228     1.0  0.56742  0.20644  0.33481  1.0000
  H   H2229     1.0  0.76054  0.01149  0.30743  1.0000
  H   H2230     1.0  0.71262  0.99671  0.36808  1.0000
  H   H2231     1.0  0.73082  0.16362  0.57273  1.0000
  H   H2232     1.0  0.63302  0.05861  0.59179  1.0000
  C   C1268     1.0  0.72374  0.06659  0.32711  1.0000
  H   H2233     1.0  0.76620  0.02256  0.38495  1.0000
  C   C1269     1.0  0.67756  0.06326  0.36185  1.0000
  C   C1270     1.0  0.68298  0.07805  0.36798  1.0000
  C   C1271     1.0  0.69777  0.07403  0.37867  1.0000
  C   C1272     1.0  0.70677  0.05512  0.38365  1.0000
  H   H2234     1.0  0.73403  0.18200  0.55231  1.0000
  H   H2235     1.0  0.67573  0.09259  0.36435  1.0000
  H   H2236     1.0  0.69842  0.15536  0.33838  1.0000
  C   C1273     1.0  0.80238  0.16424  0.37764  1.0000
  C   C1274     1.0  0.81722  0.15199  0.36823  1.0000
  C   C1275     1.0  0.81472  0.13374  0.36702  1.0000
  C   C1276     1.0  0.79742  0.12737  0.37540  1.0000
  C   C1277     1.0  0.78241  0.13960  0.38479  1.0000
  C   C1278     1.0  0.78486  0.15809  0.38584  1.0000
  H   H2237     1.0  0.83074  0.15669  0.36175  1.0000
  H   H2238     1.0  0.82631  0.12448  0.35960  1.0000
  H   H2239     1.0  0.76894  0.13485  0.39116  1.0000
  H   H2240     1.0  0.77326  0.16762  0.39286  1.0000
  N   N67       1.0  0.81768  0.11392  0.43394  1.0000
  C   C1279     1.0  0.82658  0.09441  0.42895  1.0000
  C   C1280     1.0  0.74347  0.99357  0.32889  1.0000
  H   H2241     1.0  0.52219  0.17999  0.41220  1.0000
  H   H2242     1.0  0.69930  0.11211  0.35012  1.0000
  H   H2243     1.0  0.60498  0.98812  0.62119  1.0000
  H   H2244     1.0  0.80799  0.02920  0.44448  1.0000
  H   H2245     1.0  0.56247  0.17564  0.33071  1.0000
  C   C1281     1.0  0.74608  0.15293  0.54728  1.0000
  C   C1282     1.0  0.79867  0.00739  0.46788  1.0000
  C   C1283     1.0  0.61135  0.11012  0.33241  1.0000
  C   C1284     1.0  0.77222  0.21075  0.49864  1.0000
  S   S317      1.0  0.69926  0.22690  0.31479  1.0000
  H   H2246     1.0  0.84425  0.12401  0.42030  1.0000
  Fe  Fe163     1.0  0.67073  0.03415  0.33116  1.0000
  H   H2247     1.0  0.77852  0.19586  0.50099  1.0000
  H   H2248     1.0  0.50941  0.08161  0.60916  1.0000
  H   H2249     1.0  0.74510  0.18454  0.36239  1.0000
  C   C1285     1.0  0.54465  0.18048  0.38707  1.0000
  H   H2250     1.0  0.87209  0.18251  0.55405  1.0000
  H   H2251     1.0  0.85087  0.15712  0.41717  1.0000
  H   H2252     1.0  0.62162  0.03190  0.61782  1.0000
  C   C1286     1.0  0.73728  0.17246  0.36870  1.0000
  H   H2253     1.0  0.59163  0.99332  0.33121  1.0000
  C   C1287     1.0  0.76872  0.99358  0.38060  1.0000
  C   C1288     1.0  0.75766  0.12432  0.32948  1.0000
  C   C1289     1.0  0.77781  0.06296  0.50334  1.0000
  C   C1290     1.0  0.78577  0.06596  0.48412  1.0000
  C   C1291     1.0  0.77422  0.07586  0.47081  1.0000
  C   C1292     1.0  0.75482  0.08327  0.47672  1.0000
  C   C1293     1.0  0.74702  0.08074  0.49599  1.0000
  C   C1294     1.0  0.75840  0.07031  0.50927  1.0000
  H   H2254     1.0  0.80081  0.06037  0.47953  1.0000
  H   H2255     1.0  0.78041  0.07790  0.45605  1.0000
  H   H2256     1.0  0.73201  0.08642  0.50065  1.0000
  H   H2257     1.0  0.75210  0.06789  0.52407  1.0000
  C   C1295     1.0  0.78451  0.11291  0.58610  1.0000
  C   C1296     1.0  0.77845  0.12942  0.59433  1.0000
  C   C1297     1.0  0.78333  0.14695  0.58445  1.0000
  C   C1298     1.0  0.79499  0.14781  0.56663  1.0000
  C   C1299     1.0  0.80128  0.13126  0.55852  1.0000
  C   C1300     1.0  0.79565  0.11393  0.56801  1.0000
  H   H2258     1.0  0.76997  0.12860  0.60839  1.0000
  H   H2259     1.0  0.77852  0.15967  0.59077  1.0000
  H   H2260     1.0  0.81074  0.13180  0.54495  1.0000
  C   C1301     1.0  0.79756  0.15654  0.50009  1.0000
  C   C1302     1.0  0.79889  0.09707  0.51714  1.0000
  C   C1303     1.0  0.80943  0.16527  0.48181  1.0000
  H   H2261     1.0  0.78589  0.12865  0.52966  1.0000
  H   H2262     1.0  0.78964  0.11875  0.49504  1.0000
  H   H2263     1.0  0.79695  0.16542  0.51083  1.0000
  H   H2264     1.0  0.80564  0.14212  0.50469  1.0000
  H   H2265     1.0  0.81078  0.10370  0.51892  1.0000
  H   H2266     1.0  0.79307  0.08905  0.53099  1.0000
  H   H2267     1.0  0.81069  0.15693  0.47046  1.0000
  H   H2268     1.0  0.80265  0.18024  0.47714  1.0000
  H   H2269     1.0  0.82412  0.16534  0.48418  1.0000
  H   H2270     1.0  0.61608  0.10038  0.36137  1.0000
  H   H2271     1.0  0.72753  0.14808  0.40384  1.0000
  H   H2272     1.0  0.75287  0.13951  0.55552  1.0000
  H   H2273     1.0  0.61445  0.12441  0.33242  1.0000
  H   H2274     1.0  0.78108  0.03053  0.48171  1.0000
  H   H2275     1.0  0.59563  0.11036  0.33691  1.0000
  H   H2276     1.0  0.82486  0.06046  0.41751  1.0000
  H   H2277     1.0  0.82195  0.14120  0.63339  1.0000
  H   H2278     1.0  0.82967  0.18349  0.57269  1.0000
  C   C1304     1.0  0.69561  0.14214  0.34829  1.0000
  C   C1305     1.0  0.73611  0.03612  0.47532  1.0000
  H   H2279     1.0  0.65256  0.18118  0.38208  1.0000
  H   H2280     1.0  0.66437  0.99588  0.59235  1.0000
  H   H2281     1.0  0.77931  0.12325  0.45880  1.0000
  C   C1306     1.0  0.56708  0.01471  0.32510  1.0000
  H   H2282     1.0  0.73837  0.13396  0.52016  1.0000
  H   H2283     1.0  0.72665  0.13330  0.47379  1.0000
  C   C1307     1.0  0.66509  0.98516  0.60546  1.0000
  S   S318      1.0  0.65403  0.01679  0.32099  1.0000
  C   C1308     1.0  0.72939  0.09909  0.33009  1.0000
  S   S319      1.0  0.79443  0.22364  0.41311  1.0000
  C   C1309     1.0  0.71579  0.17165  0.43660  1.0000
  H   H2284     1.0  0.65593  0.12287  0.32624  1.0000
  S   S320      1.0  0.55085  0.99868  0.33136  1.0000
  H   H2285     1.0  0.74569  0.04596  0.46660  1.0000
  C   C1310     1.0  0.72475  0.17620  0.38755  1.0000
  N   N68       1.0  0.72284  0.12048  0.32840  1.0000
  H   H2286     1.0  0.75099  0.17049  0.61438  1.0000
  H   H2287     1.0  0.73482  0.16105  0.60462  1.0000
  C   C1311     1.0  0.70219  0.12421  0.33861  1.0000
  H   H2288     1.0  0.73263  0.02764  0.46599  1.0000
  C   C1312     1.0  0.67694  0.18696  0.39204  1.0000
  C   C1313     1.0  0.82432  0.09119  0.40937  1.0000
  H   H2289     1.0  0.79548  0.12383  0.41670  1.0000
  C   C1314     1.0  0.70507  0.09188  0.62206  1.0000
  N   N69       1.0  0.63714  0.00355  0.62692  1.0000
  C   C1315     1.0  0.78229  0.13128  0.44419  1.0000
  C   C1316     1.0  0.77151  0.00223  0.40994  1.0000
  H   H2290     1.0  0.73401  0.17965  0.39622  1.0000
  H   H2291     1.0  0.56857  0.06162  0.30774  1.0000
  H   H2292     1.0  0.63518  0.98473  0.60843  1.0000
  H   H2293     1.0  0.70929  0.10389  0.43684  1.0000
  C   C1317     1.0  0.67409  0.14467  0.35642  1.0000
  H   H2294     1.0  0.78777  0.14419  0.44481  1.0000
  H   H2295     1.0  0.72010  0.98470  0.32131  1.0000
  H   H2296     1.0  0.86035  0.12124  0.56787  1.0000
  H   H2297     1.0  0.67747  0.19766  0.62455  1.0000
  C   C1318     1.0  0.76857  0.13497  0.33839  1.0000
  H   H2298     1.0  0.70786  0.02569  0.38198  1.0000
  H   H2299     1.0  0.58403  0.09276  0.31808  1.0000
  H   H2300     1.0  0.71413  0.05914  0.32239  1.0000
  H   H2301     1.0  0.81164  0.12631  0.45957  1.0000
  H   H2302     1.0  0.59912  0.21419  0.33905  1.0000
  H   H2303     1.0  0.73234  0.15068  0.54433  1.0000
  H   H2304     1.0  0.71396  0.18910  0.38456  1.0000
  H   H2305     1.0  0.72226  0.12371  0.49858  1.0000
  H   H2306     1.0  0.84949  0.16693  0.62035  1.0000
  C   C1319     1.0  0.70120  0.02390  0.62326  1.0000
  C   C1320     1.0  0.84002  0.10888  0.47940  1.0000
  C   C1321     1.0  0.74101  0.16822  0.55983  1.0000
  S   S321      1.0  0.77077  0.00084  0.61001  1.0000
  H   H2307     1.0  0.75418  0.17039  0.56407  1.0000
  C   C1322     1.0  0.79672  0.11796  0.43168  1.0000
  C   C1323     1.0  0.49831  0.08464  0.62167  1.0000
  H   H2308     1.0  0.61621  0.08936  0.31382  1.0000
  S   S322      1.0  0.71287  0.22822  0.39712  1.0000
  H   H2309     1.0  0.76044  0.12929  0.31401  1.0000
  H   H2310     1.0  0.80654  0.13441  0.62041  1.0000
  H   H2311     1.0  0.65841  0.05596  0.58212  1.0000
  H   H2312     1.0  0.85974  0.08673  0.57128  1.0000
  C   C1324     1.0  0.65055  0.03279  0.60449  1.0000
  H   H2313     1.0  0.83201  0.10065  0.39773  1.0000
  H   H2314     1.0  0.62934  0.01774  0.59984  1.0000
  C   C1325     1.0  0.81232  0.14654  0.62279  1.0000
  H   H2315     1.0  0.67956  0.19876  0.39798  1.0000
  Fe  Fe164     1.0  0.74326  0.22750  0.40182  1.0000
  H   H2316     1.0  0.84884  0.18375  0.58454  1.0000
  H   H2317     1.0  0.80001  0.17241  0.63484  1.0000
  H   H2318     1.0  0.85265  0.20270  0.55263  1.0000
  C   C1326     1.0  0.57368  0.04670  0.31266  1.0000
  C   C1327     1.0  0.81935  0.11308  0.45427  1.0000
  H   H2319     1.0  0.53689  0.21137  0.38360  1.0000
  H   H2320     1.0  0.71247  0.00253  0.33568  1.0000
  C   C1328     1.0  0.85666  0.14051  0.60787  1.0000
  C   C1329     1.0  0.55047  0.17207  0.34230  1.0000
  H   H2321     1.0  0.49626  0.16230  0.35405  1.0000
  C   C1330     1.0  0.84735  0.09634  0.57816  1.0000
  H   H2322     1.0  0.74730  0.99899  0.34037  1.0000
  H   H2323     1.0  0.65237  0.04016  0.61566  1.0000
  H   H2324     1.0  0.68672  0.98746  0.32970  1.0000
  H   H2325     1.0  0.78433  0.13109  0.33347  1.0000
  H   H2326     1.0  0.53055  0.15199  0.34848  1.0000
  H   H2327     1.0  0.51938  0.19957  0.37992  1.0000
  H   H2328     1.0  0.72905  0.18467  0.45349  1.0000
  C   C1331     1.0  0.54112  0.15771  0.33648  1.0000
  C   C1332     1.0  0.63385  0.02129  0.61211  1.0000
  C   C1333     1.0  0.72276  0.98892  0.33407  1.0000
  H   H2329     1.0  0.83052  0.06877  0.39250  1.0000
  C   C1334     1.0  0.71676  0.08815  0.32297  1.0000
  H   H2330     1.0  0.68566  0.18022  0.43435  1.0000
  C   C1335     1.0  0.83677  0.16168  0.41229  1.0000
  H   H2331     1.0  0.76671  0.99784  0.36606  1.0000
  C   C1336     1.0  0.74581  0.02323  0.49164  1.0000
  H   H2332     1.0  0.72772  0.15802  0.30921  1.0000
  H   H2333     1.0  0.66619  0.06645  0.35358  1.0000
  C   C1337     1.0  0.68083  0.07406  0.60912  1.0000
  H   H2334     1.0  0.55686  0.16482  0.35489  1.0000
  H   H2335     1.0  0.78095  0.98408  0.49987  1.0000
  H   H2336     1.0  0.72000  0.05747  0.49238  1.0000
  C   C1338     1.0  0.83740  0.12660  0.59252  1.0000
  H   H2337     1.0  0.72340  0.06156  0.34249  1.0000
  H   H2338     1.0  0.70325  0.19199  0.45581  1.0000
  H   H2339     1.0  0.83124  0.17686  0.41384  1.0000
  C   C1339     1.0  0.77885  0.01968  0.47414  1.0000
  C   C1340     1.0  0.84518  0.17814  0.57313  1.0000
  C   C1341     1.0  0.69016  0.23047  0.37070  1.0000
  C   C1342     1.0  0.76318  0.13794  0.43696  1.0000
  H   H2340     1.0  0.72811  0.99645  0.48438  1.0000
  H   H2341     1.0  0.64394  0.04167  0.57595  1.0000
  C   C1343     1.0  0.62143  0.09597  0.34734  1.0000
  S   S323      1.0  0.74916  0.21078  0.62578  1.0000
  C   C1344     1.0  0.82228  0.14931  0.42393  1.0000
  H   H2342     1.0  0.75707  0.00402  0.45990  1.0000
  H   H2343     1.0  0.59887  0.22551  0.35867  1.0000
  H   H2344     1.0  0.73079  0.98461  0.40202  1.0000
  C   C1345     1.0  0.70904  0.22839  0.37410  1.0000
  H   H2345     1.0  0.73332  0.22281  0.33006  1.0000
  H   H2346     1.0  0.54257  0.19015  0.41375  1.0000
  H   H2347     1.0  0.83652  0.10108  0.56864  1.0000
  H   H2348     1.0  0.76423  0.15067  0.33441  1.0000
  C   C1346     1.0  0.80211  0.21658  0.63693  1.0000
  H   H2349     1.0  0.73913  0.22381  0.36181  1.0000
  H   H2350     1.0  0.86507  0.15114  0.57204  1.0000
  H   H2351     1.0  0.84081  0.08812  0.59162  1.0000
  H   H2352     1.0  0.82122  0.15043  0.43889  1.0000
  C   C1347     1.0  0.76995  0.99669  0.50343  1.0000
  H   H2353     1.0  0.58311  0.12956  0.31239  1.0000
  H   H2354     1.0  0.50577  0.21843  0.34136  1.0000
  C   C1348     1.0  0.83252  0.07059  0.40657  1.0000
  H   H2355     1.0  0.80812  0.15547  0.41948  1.0000
  H   H2356     1.0  0.83889  0.16075  0.39707  1.0000
  H   H2357     1.0  0.63727  0.09556  0.34388  1.0000
  H   H2358     1.0  0.66446  0.02362  0.60008  1.0000
  H   H2359     1.0  0.61846  0.08138  0.34826  1.0000
  H   H2360     1.0  0.83354  0.19705  0.45506  1.0000
  C   C1349     1.0  0.75922  0.99604  0.47412  1.0000
  H   H2361     1.0  0.81564  0.02932  0.46643  1.0000
  H   H2362     1.0  0.70149  0.19064  0.41521  1.0000
  H   H2363     1.0  0.81007  0.20769  0.44943  1.0000
  C   C1350     1.0  0.58350  0.05467  0.62547  1.0000
  H   H2364     1.0  0.71627  0.04585  0.62379  1.0000
  H   H2365     1.0  0.65500  0.20594  0.37757  1.0000
  H   H2366     1.0  0.83111  0.12183  0.48455  1.0000
  H   H2367     1.0  0.73424  0.12136  0.35302  1.0000
  H   H2368     1.0  0.79077  0.10447  0.43488  1.0000
  H   H2369     1.0  0.80897  0.09394  0.40797  1.0000
  H   H2370     1.0  0.76967  0.17017  0.49217  1.0000
  H   H2371     1.0  0.84817  0.06711  0.40716  1.0000
  C   C1351     1.0  0.82502  0.21015  0.44802  1.0000
  H   H2372     1.0  0.70330  0.14051  0.36029  1.0000
  C   C1352     1.0  0.77707  0.15546  0.49719  1.0000
  C   C1353     1.0  0.78306  0.11224  0.50923  1.0000
  H   H2373     1.0  0.77339  0.16022  0.53350  1.0000
  Fe  Fe165     1.0  0.73816  0.06006  0.57356  1.0000
  C   C1354     1.0  0.69813  0.07785  0.59758  1.0000
  H   H2374     1.0  0.71816  0.05190  0.39193  1.0000
  H   H2375     1.0  0.80492  0.08682  0.50724  1.0000
  S   S324      1.0  0.80151  0.22208  0.54934  1.0000
  H   H2376     1.0  0.81582  0.21372  0.62688  1.0000
  H   H2377     1.0  0.72319  0.09061  0.59484  1.0000
  H   H2378     1.0  0.71182  0.15174  0.38748  1.0000
  C   C1355     1.0  0.73582  0.12792  0.33774  1.0000
  H   H2379     1.0  0.70534  0.99414  0.40321  1.0000
  H   H2380     1.0  0.57144  0.18939  0.35502  1.0000
  C   C1356     1.0  0.77434  0.12685  0.52272  1.0000
  S   S325      1.0  0.75435  0.03334  0.56296  1.0000
  S   S326      1.0  0.75088  0.05323  0.59981  1.0000
  S   S327      1.0  0.79295  0.04395  0.57398  1.0000
  C   C1357     1.0  0.70997  0.08730  0.60385  1.0000
  H   H2381     1.0  0.67154  0.06701  0.60426  1.0000
  C   C1358     1.0  0.70093  0.04027  0.37799  1.0000
  H   H2382     1.0  0.66975  0.15764  0.36306  1.0000
  H   H2383     1.0  0.82663  0.12892  0.40577  1.0000
  S   S328      1.0  0.77240  0.01933  0.42340  1.0000
  C   C1359     1.0  0.59334  0.04007  0.31276  1.0000
  C   C1360     1.0  0.68645  0.04433  0.36693  1.0000
  N   N70       1.0  0.76441  0.14617  0.51422  1.0000
  H   H2384     1.0  0.54024  0.16853  0.38279  1.0000
  Fe  Fe166     1.0  0.52190  0.01483  0.32559  1.0000
  H   H2385     1.0  0.76432  0.11973  0.53439  1.0000
  H   H2386     1.0  0.77160  0.10493  0.50765  1.0000
  H   H2387     1.0  0.66552  0.14641  0.34509  1.0000
  H   H2388     1.0  0.83154  0.21274  0.43281  1.0000
  H   H2389     1.0  0.54484  0.16470  0.41559  1.0000
  H   H2390     1.0  0.71113  0.05814  0.47110  1.0000
  C   C1361     1.0  0.76004  0.15908  0.52885  1.0000
  Fe  Fe167     1.0  0.76886  0.02785  0.58819  1.0000
  C   C1362     1.0  0.76843  0.00762  0.39128  1.0000
  H   H2391     1.0  0.70538  0.02566  0.60764  1.0000
  C   C1363     1.0  0.68868  0.08647  0.63420  1.0000
  H   H2392     1.0  0.71475  0.14900  0.49036  1.0000
  C   C1364     1.0  0.79511  0.16033  0.63128  1.0000
  S   S329      1.0  0.67940  0.02563  0.35978  1.0000
  H   H2393     1.0  0.59278  0.05742  0.61194  1.0000
  H   H2394     1.0  0.84038  0.22833  0.45603  1.0000
  H   H2395     1.0  0.53828  0.22902  0.33370  1.0000
  C   C1365     1.0  0.64614  0.04817  0.58755  1.0000
  H   H2396     1.0  0.75653  0.12719  0.48694  1.0000
  C   C1366     1.0  0.53196  0.22427  0.34869  1.0000
  H   H2397     1.0  0.56058  0.17880  0.38429  1.0000
  H   H2398     1.0  0.73019  0.09259  0.34514  1.0000
  C   C1367     1.0  0.84924  0.15593  0.57599  1.0000
  H   H2399     1.0  0.84234  0.09132  0.42896  1.0000
  C   C1368     1.0  0.72454  0.22563  0.35934  1.0000
  C   C1369     1.0  0.71733  0.04850  0.48301  1.0000
  H   H2400     1.0  0.74910  0.15231  0.47858  1.0000
  H   H2401     1.0  0.79737  0.99805  0.45820  1.0000
  H   H2402     1.0  0.74805  0.15917  0.37072  1.0000
  H   H2403     1.0  0.52177  0.18663  0.35321  1.0000
  H   H2404     1.0  0.73515  0.15861  0.50994  1.0000
  C   C1370     1.0  0.71675  0.18844  0.44571  1.0000
  H   H2405     1.0  0.77413  0.02795  0.46088  1.0000
  H   H2406     1.0  0.70668  0.03944  0.49102  1.0000
  H   H2407     1.0  0.70196  0.12447  0.40632  1.0000
  C   C1371     1.0  0.74575  0.14001  0.48975  1.0000
  H   H2408     1.0  0.75394  0.17393  0.52259  1.0000
  H   H2409     1.0  0.74218  0.14906  0.62681  1.0000
  C   C1372     1.0  0.72611  0.13632  0.48810  1.0000
  H   H2410     1.0  0.85497  0.10768  0.48180  1.0000
  H   H2411     1.0  0.81206  0.10149  0.46351  1.0000
  H   H2412     1.0  0.87999  0.16320  0.63168  1.0000
  H   H2413     1.0  0.69799  0.16823  0.61884  1.0000
  C   C1373     1.0  0.69228  0.12687  0.41980  1.0000
  C   C1374     1.0  0.71557  0.15857  0.39813  1.0000
  H   H2414     1.0  0.59890  0.20019  0.36248  1.0000
  C   C1375     1.0  0.74539  0.14478  0.50940  1.0000
  H   H2415     1.0  0.85229  0.18234  0.54240  1.0000
  H   H2416     1.0  0.72818  0.17124  0.35871  1.0000
  C   C1376     1.0  0.56547  0.04997  0.62629  1.0000
  C   C1377     1.0  0.56323  0.20373  0.35043  1.0000
  C   C1378     1.0  0.58666  0.00817  0.32585  1.0000
  C   C1379     1.0  0.53811  0.17881  0.40844  1.0000
  H   H2417     1.0  0.74948  0.03323  0.49935  1.0000
  H   H2418     1.0  0.82519  0.17033  0.60646  1.0000
  H   H2419     1.0  0.64593  0.19486  0.40114  1.0000
  H   H2420     1.0  0.73147  0.14352  0.33748  1.0000
  H   H2421     1.0  0.82501  0.12948  0.58491  1.0000
  H   H2422     1.0  0.67084  0.13210  0.36729  1.0000
  C   C1380     1.0  0.69954  0.17688  0.42458  1.0000
  H   H2423     1.0  0.75758  0.12567  0.43470  1.0000
  H   H2424     1.0  0.67713  0.13010  0.41743  1.0000
  C   C1381     1.0  0.69433  0.10824  0.43399  1.0000
  C   C1382     1.0  0.85422  0.11355  0.58177  1.0000
  H   H2425     1.0  0.68429  0.10985  0.44750  1.0000
  C   C1383     1.0  0.67980  0.16760  0.40560  1.0000
  H   H2426     1.0  0.71315  0.15963  0.44832  1.0000
  H   H2427     1.0  0.72995  0.16751  0.42777  1.0000
  H   H2428     1.0  0.68667  0.18590  0.37827  1.0000
  H   H2429     1.0  0.71109  0.13765  0.43245  1.0000
  H   H2430     1.0  0.55303  0.11425  0.32474  1.0000
  H   H2431     1.0  0.76508  0.14808  0.42347  1.0000
  N   N71       1.0  0.84171  0.14522  0.59523  1.0000
  H   H2432     1.0  0.71907  0.18979  0.61967  1.0000
  H   H2433     1.0  0.67856  0.15691  0.39727  1.0000
  H   H2434     1.0  0.56643  0.21767  0.37336  1.0000
  H   H2435     1.0  0.84731  0.12226  0.45065  1.0000
  H   H2436     1.0  0.75239  0.14540  0.44734  1.0000
  H   H2437     1.0  0.71882  0.20130  0.43482  1.0000
  N   N72       1.0  0.69830  0.16192  0.41357  1.0000
  C   C1384     1.0  0.72409  0.12891  0.30770  1.0000
  H   H2438     1.0  0.73479  0.01596  0.50189  1.0000
  C   C1385     1.0  0.53511  0.19978  0.37667  1.0000
  H   H2439     1.0  0.84904  0.09670  0.45430  1.0000
  H   H2440     1.0  0.88930  0.14158  0.62198  1.0000
  C   C1386     1.0  0.82846  0.12841  0.42054  1.0000
  C   C1387     1.0  0.85631  0.18686  0.55437  1.0000
  H   H2441     1.0  0.86592  0.10795  0.59021  1.0000
  H   H2442     1.0  0.82033  0.08311  0.43978  1.0000
  N   N73       1.0  0.54173  0.20421  0.35560  1.0000
  H   H2443     1.0  0.84270  0.15255  0.56487  1.0000
  C   C1388     1.0  0.81323  0.02009  0.45717  1.0000
  H   H2444     1.0  0.69090  0.09668  0.42815  1.0000
  H   H2445     1.0  0.76764  0.01925  0.52027  1.0000
  H   H2446     1.0  0.53322  0.19785  0.33125  1.0000
  H   H2447     1.0  0.74419  0.09562  0.32200  1.0000
  H   H2448     1.0  0.83434  0.09600  0.48762  1.0000
  C   C1389     1.0  0.53582  0.19063  0.34567  1.0000
  C   C1390     1.0  0.76991  0.22132  0.51312  1.0000
  H   H2449     1.0  0.56098  0.04895  0.61344  1.0000
  H   H2450     1.0  0.66722  0.16775  0.41741  1.0000
  C   C1391     1.0  0.65633  0.19247  0.38801  1.0000
  H   H2451     1.0  0.68611  0.14589  0.44017  1.0000
  C   C1392     1.0  0.70237  0.22699  0.33795  1.0000
  H   H2452     1.0  0.70146  0.09101  0.32986  1.0000
  H   H2453     1.0  0.78488  0.16605  0.62123  1.0000
  C   C1393     1.0  0.82304  0.15650  0.60395  1.0000
  H   H2454     1.0  0.83285  0.11767  0.60635  1.0000
  C   C1394     1.0  0.59338  0.21423  0.35431  1.0000
  C   C1395     1.0  0.72120  0.22499  0.34136  1.0000
  H   H2455     1.0  0.54550  0.03926  0.31820  1.0000
  S   S330      1.0  0.65466  0.06220  0.31869  1.0000
  H   H2456     1.0  0.86995  0.16609  0.60120  1.0000
  C   C1396     1.0  0.61853  0.10422  0.31268  1.0000
  N   N74       1.0  0.76346  0.00891  0.48583  1.0000
  H   H2457     1.0  0.67200  0.09313  0.31438  1.0000
  C   C1397     1.0  0.50975  0.22739  0.34991  1.0000
  C   C1398     1.0  0.87593  0.15069  0.62800  1.0000
  H   H2458     1.0  0.50485  0.09074  0.63095  1.0000
  H   H2459     1.0  0.65037  0.22509  0.62806  1.0000
  H   H2460     1.0  0.78922  0.00095  0.54201  1.0000
  C   C1399     1.0  0.59984  0.02080  0.31948  1.0000
  H   H2461     1.0  0.50228  0.22396  0.36467  1.0000
  H   H2462     1.0  0.76565  0.13100  0.35401  1.0000
  H   H2463     1.0  0.79197  0.20798  0.63478  1.0000
  C   C1400     1.0  0.72135  0.17544  0.62859  1.0000
  C   C1401     1.0  0.86223  0.15759  0.61370  1.0000
  C   C1402     1.0  0.57133  0.21827  0.35795  1.0000
  H   H2464     1.0  0.59857  0.01376  0.61817  1.0000
  H   H2465     1.0  0.73865  0.06272  0.31946  1.0000
  Fe  Fe168     1.0  0.76490  0.21878  0.59594  1.0000
  H   H2466     1.0  0.82720  0.01103  0.45247  1.0000
  H   H2467     1.0  0.72997  0.02209  0.62789  1.0000
  H   H2468     1.0  0.81867  0.22357  0.47240  1.0000
  H   H2469     1.0  0.66318  0.07452  0.63654  1.0000
  H   H2470     1.0  0.73596  0.02271  0.31425  1.0000
  C   C1403     1.0  0.77821  0.00688  0.51571  1.0000
  C   C1404     1.0  0.82511  0.22710  0.45727  1.0000
  H   H2471     1.0  0.66386  0.00987  0.63135  1.0000
  H   H2472     1.0  0.63442  0.10312  0.30992  1.0000
  H   H2473     1.0  0.79156  0.01205  0.50786  1.0000
  H   H2474     1.0  0.71452  0.09867  0.62705  1.0000
  C   C1405     1.0  0.67617  0.07824  0.62748  1.0000
  H   H2475     1.0  0.55240  0.14563  0.33233  1.0000
  C   C1406     1.0  0.74169  0.98591  0.48263  1.0000
  C   C1407     1.0  0.71567  0.03107  0.63133  1.0000
  H   H2476     1.0  0.70109  0.00853  0.62896  1.0000
  C   C1408     1.0  0.78329  0.99331  0.53355  1.0000
  H   H2477     1.0  0.51571  0.11865  0.30680  1.0000
  H   H2478     1.0  0.75770  0.99057  0.51283  1.0000
  H   H2479     1.0  0.67225  0.23139  0.35016  1.0000
  H   H2480     1.0  0.68654  0.03236  0.62666  1.0000
  C   C1409     1.0  0.64485  0.98602  0.61787  1.0000
  C   C1410     1.0  0.68681  0.22965  0.35270  1.0000
  C   C1411     1.0  0.56060  0.03402  0.31864  1.0000
  C   C1412     1.0  0.72750  0.22362  0.63664  1.0000
  H   H2481     1.0  0.74426  0.08686  0.63775  1.0000
  Fe  Fe169     1.0  0.49969  0.05392  0.31093  1.0000
  H   H2482     1.0  0.69314  0.20352  0.63733  1.0000
  C   C1413     1.0  0.70279  0.16661  0.63264  1.0000
  C   C1414     1.0  0.60142  0.00055  0.62862  1.0000
  H   H2483     1.0  0.55026  0.09520  0.31393  1.0000
  H   H2484     1.0  0.77187  0.98454  0.47144  1.0000
  H   H2485     1.0  0.77025  0.98820  0.54239  1.0000
  C   C1415     1.0  0.55684  0.10821  0.31149  1.0000
  H   H2486     1.0  0.67904  0.14363  0.63073  1.0000
  H   H2487     1.0  0.67587  0.98781  0.61292  1.0000
  H   H2488     1.0  0.73639  0.98342  0.36720  1.0000
  H   H2489     1.0  0.57096  0.99882  0.63464  1.0000
  H   H2490     1.0  0.49409  0.07089  0.62943  1.0000
  H   H2491     1.0  0.70706  0.15098  0.63703  1.0000
  C   C1416     1.0  0.57870  0.10293  0.30602  1.0000
  H   H2492     1.0  0.71745  0.09226  0.30746  1.0000
  S   S331      1.0  0.65154  0.16174  0.30905  1.0000
  H   H2493     1.0  0.53376  0.16443  0.32427  1.0000
  Fe  Fe170     1.0  0.80327  0.23085  0.57623  1.0000
  C   C1417     1.0  0.77443  0.98278  0.41800  1.0000
  Fe  Fe171     1.0  0.64046  0.04483  0.30574  1.0000
  H   H2494     1.0  0.61148  0.14338  0.30549  1.0000
  S   S332      1.0  0.62435  0.21940  0.73818  1.0000
  S   S333      1.0  0.60431  0.11843  0.70729  1.0000
  S   S334      1.0  0.63045  0.09547  0.66452  1.0000
  H   H2495     1.0  0.58439  0.98512  0.65265  1.0000
  H   H2496     1.0  0.74752  0.05649  0.67350  1.0000
  Fe  Fe172     1.0  0.64676  0.20620  0.71627  1.0000
  H   H2497     1.0  0.55798  0.12324  0.66337  1.0000
  S   S335      1.0  0.65698  0.17476  0.71516  1.0000
  C   C1418     1.0  0.49804  0.12039  0.72388  1.0000
  H   H2498     1.0  0.68204  0.04304  0.71197  1.0000
  H   H2499     1.0  0.61910  0.98761  0.64960  1.0000
  C   C1419     1.0  0.75194  0.07799  0.64906  1.0000
  H   H2500     1.0  0.58377  0.15385  0.68635  1.0000
  H   H2501     1.0  0.60602  0.99607  0.68293  1.0000
  H   H2502     1.0  0.72290  0.04211  0.69065  1.0000
  H   H2503     1.0  0.51595  0.99358  0.67642  1.0000
  C   C1420     1.0  0.64071  0.98289  0.71915  1.0000
  C   C1421     1.0  0.71314  0.03927  0.68218  1.0000
  H   H2504     1.0  0.54499  0.00241  0.68121  1.0000
  C   C1422     1.0  0.58221  0.15279  0.67203  1.0000
  C   C1423     1.0  0.67247  0.14462  0.64567  1.0000
  C   C1424     1.0  0.65358  0.13701  0.64958  1.0000
  H   H2505     1.0  0.74438  0.04742  0.64047  1.0000
  N   N75       1.0  0.72384  0.03495  0.66312  1.0000
  C   C1425     1.0  0.62197  0.00682  0.69883  1.0000
  H   H2506     1.0  0.58302  0.20449  0.73969  1.0000
  H   H2507     1.0  0.49792  0.15343  0.64907  1.0000
  H   H2508     1.0  0.55422  0.17126  0.67205  1.0000
  H   H2509     1.0  0.64317  0.01824  0.64712  1.0000
  H   H2510     1.0  0.58738  0.03845  0.72946  1.0000
  H   H2511     1.0  0.65656  0.12246  0.64600  1.0000
  H   H2512     1.0  0.86884  0.14246  0.64115  1.0000
  Fe  Fe173     1.0  0.63646  0.04903  0.70119  1.0000
  H   H2513     1.0  0.68218  0.13503  0.65484  1.0000
  C   C1426     1.0  0.58263  0.99869  0.64244  1.0000
  C   C1427     1.0  0.69256  0.02950  0.71391  1.0000
  H   H2514     1.0  0.72733  0.20364  0.66281  1.0000
  S   S336      1.0  0.64994  0.05002  0.67079  1.0000
  H   H2515     1.0  0.52860  0.11161  0.68660  1.0000
  H   H2516     1.0  0.70241  0.05274  0.68021  1.0000
  C   C1428     1.0  0.54926  0.15832  0.73150  1.0000
  C   C1429     1.0  0.75609  0.01881  0.67448  1.0000
  H   H2517     1.0  0.59121  0.21761  0.79958  1.0000
  C   C1430     1.0  0.59497  0.22681  0.78574  1.0000
  C   C1431     1.0  0.56494  0.21199  0.69515  1.0000
  C   C1432     1.0  0.70931  0.03101  0.65289  1.0000
  H   H2518     1.0  0.76541  0.06951  0.64237  1.0000
  H   H2519     1.0  0.51488  0.20955  0.76158  1.0000
  C   C1433     1.0  0.68089  0.19589  0.63900  1.0000
  H   H2520     1.0  0.69064  0.14343  0.67852  1.0000
  C   C1434     1.0  0.66767  0.99302  0.66745  1.0000
  C   C1435     1.0  0.55060  0.14158  0.70406  1.0000
  S   S337      1.0  0.63535  0.22584  0.69180  1.0000
  C   C1436     1.0  0.55907  0.04812  0.66022  1.0000
  H   H2521     1.0  0.53249  0.21454  0.74045  1.0000
  H   H2522     1.0  0.52341  0.16459  0.68400  1.0000
  C   C1437     1.0  0.61923  0.13502  0.70685  1.0000
  C   C1438     1.0  0.63921  0.12935  0.70503  1.0000
  C   C1439     1.0  0.65074  0.14205  0.70661  1.0000
  C   C1440     1.0  0.64249  0.16068  0.70965  1.0000
  C   C1441     1.0  0.62265  0.16679  0.71035  1.0000
  C   C1442     1.0  0.61101  0.15385  0.70939  1.0000
  H   H2523     1.0  0.64579  0.11498  0.70298  1.0000
  H   H2524     1.0  0.66607  0.13717  0.70610  1.0000
  H   H2525     1.0  0.61621  0.18121  0.71249  1.0000
  H   H2526     1.0  0.59558  0.15840  0.71099  1.0000
  S   S338      1.0  0.53041  0.20613  0.68926  1.0000
  S   S339      1.0  0.50508  0.08304  0.71896  1.0000
  C   C1443     1.0  0.56064  0.15620  0.67042  1.0000
  S   S340      1.0  0.53068  0.04097  0.64386  1.0000
  S   S341      1.0  0.64737  0.07499  0.70386  1.0000
  H   H2527     1.0  0.61693  0.02163  0.69330  1.0000
  H   H2528     1.0  0.50118  0.98555  0.66363  1.0000
  H   H2529     1.0  0.55233  0.22999  0.75477  1.0000
  H   H2530     1.0  0.75586  0.08765  0.65693  1.0000
  H   H2531     1.0  0.71488  0.13901  0.69884  1.0000
  S   S342      1.0  0.61229  0.06183  0.64001  1.0000
  H   H2532     1.0  0.55503  0.22914  0.79832  1.0000
  H   H2533     1.0  0.64695  0.13619  0.66472  1.0000
  H   H2534     1.0  0.57122  0.19890  0.68975  1.0000
  H   H2535     1.0  0.56929  0.00198  0.68384  1.0000
  C   C1444     1.0  0.73231  0.05202  0.65170  1.0000
  H   H2536     1.0  0.58593  0.18229  0.66102  1.0000
  H   H2537     1.0  0.59204  0.21652  0.70010  1.0000
  H   H2538     1.0  0.55177  0.09003  0.66690  1.0000
  H   H2539     1.0  0.49384  0.14388  0.67401  1.0000
  C   C1445     1.0  0.76991  0.99977  0.67716  1.0000
  H   H2540     1.0  0.71402  0.14685  0.66496  1.0000
  H   H2541     1.0  0.74641  0.01415  0.65062  1.0000
  C   C1446     1.0  0.54595  0.16091  0.71121  1.0000
  H   H2542     1.0  0.58209  0.05314  0.67225  1.0000
  H   H2543     1.0  0.57081  0.11716  0.68234  1.0000
  C   C1447     1.0  0.55187  0.08843  0.68224  1.0000
  H   H2544     1.0  0.54538  0.17239  0.73625  1.0000
  C   C1448     1.0  0.57738  0.05246  0.65943  1.0000
  C   C1449     1.0  0.70317  0.22682  0.66499  1.0000
  C   C1450     1.0  0.56364  0.99917  0.74415  1.0000
  C   C1451     1.0  0.61583  0.99231  0.69294  1.0000
  C   C1452     1.0  0.59264  0.16768  0.65824  1.0000
  H   H2545     1.0  0.69658  0.15942  0.70318  1.0000
  H   H2546     1.0  0.60796  0.16499  0.66004  1.0000
  C   C1453     1.0  0.57963  0.01056  0.73299  1.0000
  C   C1454     1.0  0.55095  0.99133  0.70961  1.0000
  H   H2547     1.0  0.65967  0.16631  0.66303  1.0000
  C   C1455     1.0  0.52301  0.14886  0.66244  1.0000
  H   H2548     1.0  0.58968  0.13849  0.66895  1.0000
  C   C1456     1.0  0.57539  0.03091  0.73715  1.0000
  C   C1457     1.0  0.52802  0.14946  0.68180  1.0000
  H   H2549     1.0  0.56318  0.99867  0.75950  1.0000
  H   H2550     1.0  0.54978  0.00817  0.74118  1.0000
  H   H2551     1.0  0.52989  0.15926  0.65114  1.0000
  C   C1458     1.0  0.70205  0.02373  0.69480  1.0000
  H   H2552     1.0  0.56027  0.15551  0.65553  1.0000
  Fe  Fe174     1.0  0.50883  0.04451  0.67005  1.0000
  H   H2553     1.0  0.68464  0.01822  0.72261  1.0000
  C   C1459     1.0  0.66885  0.16564  0.64884  1.0000
  H   H2554     1.0  0.54690  0.00578  0.71334  1.0000
  C   C1460     1.0  0.57843  0.23124  0.77455  1.0000
  H   H2555     1.0  0.59387  0.00378  0.73689  1.0000
  H   H2556     1.0  0.58065  0.01169  0.71754  1.0000
  N   N76       1.0  0.68636  0.17492  0.64676  1.0000
  H   H2557     1.0  0.72568  0.17685  0.64175  1.0000
  H   H2558     1.0  0.75069  0.02291  0.68860  1.0000
  H   H2559     1.0  0.71987  0.16275  0.68932  1.0000
  C   C1461     1.0  0.57676  0.22197  0.70097  1.0000
  H   H2560     1.0  0.60813  0.21917  0.77777  1.0000
  H   H2561     1.0  0.70513  0.01688  0.65923  1.0000
  H   H2562     1.0  0.54292  0.07759  0.68992  1.0000
  C   C1462     1.0  0.63429  0.00217  0.71210  1.0000
  H   H2563     1.0  0.65138  0.19958  0.65613  1.0000
  H   H2564     1.0  0.56183  0.03894  0.73237  1.0000
  H   H2565     1.0  0.57414  0.03078  0.75249  1.0000
  C   C1463     1.0  0.73922  0.06480  0.66254  1.0000
  H   H2566     1.0  0.67925  0.17793  0.67624  1.0000
  C   C1464     1.0  0.70859  0.15368  0.69258  1.0000
  H   H2567     1.0  0.76470  0.02935  0.66541  1.0000
  Fe  Fe175     1.0  0.61949  0.09154  0.69563  1.0000
  H   H2568     1.0  0.53873  0.22012  0.77648  1.0000
  N   N77       1.0  0.54885  0.14252  0.68378  1.0000
  Fe  Fe176     1.0  0.49526  0.06302  0.70473  1.0000
  H   H2569     1.0  0.52131  0.99668  0.65101  1.0000
  C   C1465     1.0  0.66380  0.20719  0.65120  1.0000
  H   H2570     1.0  0.69581  0.04186  0.65453  1.0000
  H   H2571     1.0  0.55527  0.17091  0.70247  1.0000
  H   H2572     1.0  0.66858  0.20954  0.66382  1.0000
  S   S343      1.0  0.51571  0.03597  0.69919  1.0000
  C   C1466     1.0  0.54506  0.21891  0.69638  1.0000
  H   H2573     1.0  0.73318  0.00461  0.67220  1.0000
  H   H2574     1.0  0.69033  0.02168  0.68815  1.0000
  C   C1467     1.0  0.69205  0.17323  0.66573  1.0000
  H   H2575     1.0  0.54345  0.10479  0.70458  1.0000
  H   H2576     1.0  0.72649  0.07389  0.66966  1.0000
  H   H2577     1.0  0.53061  0.16753  0.71102  1.0000
  C   C1468     1.0  0.73942  0.01747  0.66484  1.0000
  H   H2578     1.0  0.51851  0.14138  0.69310  1.0000
  H   H2579     1.0  0.69756  0.22143  0.67953  1.0000
  H   H2580     1.0  0.60308  0.14847  0.82985  1.0000
  H   H2581     1.0  0.71187  0.00989  0.69756  1.0000
  H   H2582     1.0  0.52772  0.13448  0.65850  1.0000
  H   H2583     1.0  0.56466  0.15252  0.73227  1.0000
  C   C1469     1.0  0.54368  0.10741  0.68913  1.0000
  S   S344      1.0  0.66850  0.22359  0.71812  1.0000
  H   H2584     1.0  0.54971  0.04556  0.67366  1.0000
  H   H2585     1.0  0.54011  0.14850  0.74105  1.0000
  H   H2586     1.0  0.78213  0.00147  0.68331  1.0000
  H   H2587     1.0  0.56524  0.13435  0.70665  1.0000
  H   H2588     1.0  0.54072  0.13253  0.71368  1.0000
  H   H2589     1.0  0.70191  0.18331  0.66501  1.0000
  C   C1470     1.0  0.51913  0.22065  0.74943  1.0000
  Fe  Fe177     1.0  0.62153  0.06759  0.66531  1.0000
  S   S345      1.0  0.64165  0.02032  0.71997  1.0000
  C   C1471     1.0  0.72000  0.21675  0.65547  1.0000
  C   C1472     1.0  0.58947  0.05601  0.64198  1.0000
  C   C1473     1.0  0.51610  0.98698  0.66404  1.0000
  H   H2590     1.0  0.70355  0.03130  0.72164  1.0000
  C   C1474     1.0  0.55311  0.04690  0.64360  1.0000
  C   C1475     1.0  0.70138  0.15307  0.67463  1.0000
  H   H2591     1.0  0.61949  0.16496  0.81885  1.0000
  H   H2592     1.0  0.57828  0.01088  0.65022  1.0000
  Fe  Fe178     1.0  0.65765  0.07770  0.67265  1.0000
  N   N78       1.0  0.60957  0.14422  0.77262  1.0000
  C   C1476     1.0  0.60435  0.12451  0.77780  1.0000
  C   C1477     1.0  0.60823  0.15202  0.79045  1.0000
  C   C1478     1.0  0.59444  0.15692  0.76191  1.0000
  C   C1479     1.0  0.62927  0.14458  0.76050  1.0000
  C   C1480     1.0  0.64500  0.12655  0.76388  1.0000
  C   C1481     1.0  0.60383  0.11483  0.76092  1.0000
  C   C1482     1.0  0.59626  0.17835  0.75594  1.0000
  C   C1483     1.0  0.62214  0.14111  0.80411  1.0000
  C   C1484     1.0  0.61791  0.14968  0.82217  1.0000
  C   C1485     1.0  0.66521  0.13090  0.75555  1.0000
  C   C1486     1.0  0.58336  0.11328  0.75949  1.0000
  C   C1487     1.0  0.58108  0.18935  0.74403  1.0000
  H   H2593     1.0  0.59024  0.12486  0.78762  1.0000
  H   H2594     1.0  0.61452  0.11443  0.78614  1.0000
  H   H2595     1.0  0.61146  0.16674  0.78699  1.0000
  H   H2596     1.0  0.59320  0.15304  0.79853  1.0000
  H   H2597     1.0  0.57973  0.15623  0.77033  1.0000
  H   H2598     1.0  0.59465  0.15177  0.74864  1.0000
  H   H2599     1.0  0.62825  0.14649  0.74536  1.0000
  H   H2600     1.0  0.63489  0.15738  0.76164  1.0000
  H   H2601     1.0  0.64277  0.11521  0.75693  1.0000
  H   H2602     1.0  0.64480  0.12051  0.77899  1.0000
  H   H2603     1.0  0.61080  0.12212  0.74721  1.0000
  H   H2604     1.0  0.61224  0.10005  0.76289  1.0000
  H   H2605     1.0  0.61072  0.17996  0.74758  1.0000
  H   H2606     1.0  0.59389  0.18541  0.76841  1.0000
  H   H2607     1.0  0.62090  0.12583  0.80839  1.0000
  H   H2608     1.0  0.63723  0.14240  0.79741  1.0000
  H   H2609     1.0  0.72146  0.06205  0.64415  1.0000
  H   H2610     1.0  0.66846  0.14174  0.76249  1.0000
  H   H2611     1.0  0.67607  0.11766  0.75773  1.0000
  H   H2612     1.0  0.66648  0.13634  0.74017  1.0000
  H   H2613     1.0  0.58381  0.10663  0.74706  1.0000
  H   H2614     1.0  0.57690  0.10415  0.77232  1.0000
  H   H2615     1.0  0.57406  0.12754  0.75776  1.0000
  H   H2616     1.0  0.58252  0.18328  0.73105  1.0000
  H   H2617     1.0  0.56632  0.18901  0.75226  1.0000
  H   H2618     1.0  0.62827  0.14185  0.83160  1.0000
  C   C1488     1.0  0.55611  0.12279  0.67887  1.0000
  S   S346      1.0  0.60730  0.06522  0.69578  1.0000
  H   H2619     1.0  0.51254  0.11751  0.72682  1.0000
  S   S347      1.0  0.68515  0.08789  0.65825  1.0000
  H   H2620     1.0  0.56684  0.08322  0.68492  1.0000
  H   H2621     1.0  0.61257  0.01290  0.64761  1.0000
  H   H2622     1.0  0.77588  0.99495  0.66336  1.0000
  H   H2623     1.0  0.52867  0.99245  0.76492  1.0000
  H   H2624     1.0  0.50745  0.22505  0.74088  1.0000
  H   H2625     1.0  0.57670  0.21759  0.77121  1.0000
  H   H2626     1.0  0.59217  0.16680  0.64344  1.0000
  H   H2627     1.0  0.65951  0.00528  0.67430  1.0000
  C   C1489     1.0  0.50130  0.15409  0.66295  1.0000
  H   H2628     1.0  0.80515  0.21208  0.65156  1.0000
  C   C1490     1.0  0.65012  0.00600  0.63960  1.0000
  H   H2629     1.0  0.53806  0.98433  0.71335  1.0000
  Fe  Fe179     1.0  0.49857  0.21241  0.70113  1.0000
  H   H2630     1.0  0.76243  0.98876  0.68698  1.0000
  H   H2631     1.0  0.76514  0.23173  0.64620  1.0000
  C   C1491     1.0  0.65664  0.22674  0.64006  1.0000
  H   H2632     1.0  0.49250  0.14977  0.72810  1.0000
  H   H2633     1.0  0.64324  0.14622  0.64078  1.0000
  H   H2634     1.0  0.68166  0.99657  0.65944  1.0000
  C   C1492     1.0  0.65611  0.98825  0.65438  1.0000
  C   C1493     1.0  0.55711  0.99398  0.68820  1.0000
  H   H2635     1.0  0.78733  0.15272  0.64440  1.0000
  H   H2636     1.0  0.49588  0.16882  0.66599  1.0000
  H   H2637     1.0  0.52502  0.99186  0.74169  1.0000
  C   C1494     1.0  0.52882  0.98284  0.75492  1.0000
  H   H2638     1.0  0.65937  0.17368  0.63856  1.0000
  C   C1495     1.0  0.61783  0.00109  0.63917  1.0000
  C   C1496     1.0  0.49939  0.25703  0.22599  1.0000
  H   H2639     1.0  0.62117  0.42968  0.18992  1.0000
  H   H2640     1.0  0.62315  0.41498  0.13138  1.0000
  Fe  Fe180     1.0  0.63842  0.36039  0.01850  1.0000
  S   S348      1.0  0.63643  0.39091  0.00393  1.0000
  S   S349      1.0  0.62855  0.35542  0.05012  1.0000
  H   H2641     1.0  0.93791  0.42640  0.29929  1.0000
  H   H2642     1.0  0.94086  0.45732  0.29884  1.0000
  H   H2643     1.0  0.62187  0.40405  0.19614  1.0000
  H   H2644     1.0  0.52032  0.29058  0.99716  1.0000
  S   S350      1.0  0.61919  0.35326  0.00170  1.0000
  S   S351      1.0  0.66551  0.34984  0.99927  1.0000
  H   H2645     1.0  0.89833  0.41641  0.25169  1.0000
  H   H2646     1.0  0.50115  0.39481  0.07777  1.0000
  H   H2647     1.0  0.61202  0.30408  0.28727  1.0000
  Fe  Fe181     1.0  0.72993  0.46054  0.01212  1.0000
  S   S352      1.0  0.70739  0.44229  0.02415  1.0000
  S   S353      1.0  0.76190  0.45055  0.00714  1.0000
  Fe  Fe182     1.0  0.63946  0.35984  0.16319  1.0000
  S   S354      1.0  0.65836  0.33143  0.16058  1.0000
  S   S355      1.0  0.60768  0.36190  0.17498  1.0000
  Fe  Fe183     1.0  0.67358  0.38141  0.15459  1.0000
  S   S356      1.0  0.69528  0.35448  0.15171  1.0000
  S   S357      1.0  0.67870  0.41214  0.14863  1.0000
  Fe  Fe184     1.0  0.67510  0.34782  0.13533  1.0000
  S   S358      1.0  0.68690  0.33732  0.10761  1.0000
  Fe  Fe185     1.0  0.67660  0.34039  0.17722  1.0000
  S   S359      1.0  0.68544  0.32251  0.20425  1.0000
  S   S360      1.0  0.65455  0.37558  0.13653  1.0000
  S   S361      1.0  0.65659  0.36801  0.18142  1.0000
  H   H2648     1.0  0.57275  0.37496  0.20847  1.0000
  H   H2649     1.0  0.67972  0.44389  0.06274  1.0000
  Fe  Fe186     1.0  0.61921  0.38306  0.98577  1.0000
  H   H2650     1.0  0.61601  0.24119  0.23890  1.0000
  H   H2651     1.0  0.71712  0.25805  0.23846  1.0000
  H   H2652     1.0  0.86122  0.44070  0.28844  1.0000
  C   C1497     1.0  0.60105  0.47332  0.12392  1.0000
  H   H2653     1.0  0.50127  0.33456  0.02046  1.0000
  S   S362      1.0  0.65522  0.24656  0.28640  1.0000
  H   H2654     1.0  0.58871  0.25869  0.22090  1.0000
  Fe  Fe187     1.0  0.75647  0.46583  0.16990  1.0000
  S   S363      1.0  0.74764  0.43658  0.17478  1.0000
  S   S364      1.0  0.78630  0.46894  0.15394  1.0000
  H   H2655     1.0  0.74078  0.24395  0.26261  1.0000
  S   S365      1.0  0.50333  0.34768  0.16086  1.0000
  H   H2656     1.0  0.74094  0.46946  0.08147  1.0000
  H   H2657     1.0  0.61698  0.25046  0.25951  1.0000
  H   H2658     1.0  0.96860  0.45703  0.26079  1.0000
  C   C1498     1.0  0.62187  0.30219  0.25739  1.0000
  H   H2659     1.0  0.62412  0.38598  0.10767  1.0000
  H   H2660     1.0  0.55427  0.29956  0.22311  1.0000
  C   C1499     1.0  0.51703  0.27844  0.27568  1.0000
  H   H2661     1.0  0.69166  0.27437  0.26603  1.0000
  H   H2662     1.0  0.94866  0.46469  0.23451  1.0000
  H   H2663     1.0  0.60004  0.28906  0.27846  1.0000
  Fe  Fe188     1.0  0.52237  0.35301  0.13239  1.0000
  S   S366      1.0  0.52836  0.32242  0.12896  1.0000
  S   S367      1.0  0.54784  0.36816  0.12203  1.0000
  C   C1500     1.0  0.54839  0.27279  0.25247  1.0000
  Fe  Fe189     1.0  0.66204  0.37996  0.98333  1.0000
  S   S368      1.0  0.51603  0.28933  0.17545  1.0000
  H   H2664     1.0  0.71523  0.48255  0.11719  1.0000
  S   S369      1.0  0.50868  0.31829  0.08686  1.0000
  S   S370      1.0  0.66919  0.23785  0.23379  1.0000
  H   H2665     1.0  0.81183  0.42095  0.28006  1.0000
  C   C1501     1.0  0.69044  0.29071  0.28738  1.0000
  H   H2666     1.0  0.71511  0.47524  0.08557  1.0000
  H   H2667     1.0  0.68335  0.46755  0.06344  1.0000
  H   H2668     1.0  0.58509  0.26906  0.26019  1.0000
  H   H2669     1.0  0.56587  0.37559  0.23354  1.0000
  N   N79       1.0  0.55912  0.26904  0.23321  1.0000
  H   H2670     1.0  0.72908  0.34208  0.09692  1.0000
  C   C1502     1.0  0.62756  0.41567  0.18546  1.0000
  C   C1503     1.0  0.55451  0.25164  0.22821  1.0000
  H   H2671     1.0  0.73085  0.34136  0.00146  1.0000
  C   C1504     1.0  0.74146  0.34442  0.08533  1.0000
  H   H2672     1.0  0.51877  0.31894  0.04697  1.0000
  H   H2673     1.0  0.71075  0.35157  0.98941  1.0000
  H   H2674     1.0  0.59385  0.31496  0.25075  1.0000
  N   N80       1.0  0.59433  0.42117  0.14773  1.0000
  C   C1505     1.0  0.61400  0.29362  0.27766  1.0000
  Fe  Fe190     1.0  0.64594  0.34567  0.98081  1.0000
  N   N81       1.0  0.83540  0.43072  0.28688  1.0000
  H   H2675     1.0  0.84987  0.46748  0.20797  1.0000
  S   S371      1.0  0.49568  0.37628  0.97469  1.0000
  H   H2676     1.0  0.61745  0.28434  0.20228  1.0000
  C   C1506     1.0  0.98565  0.42992  0.28738  1.0000
  H   H2677     1.0  0.51867  0.30344  0.01621  1.0000
  C   C1507     1.0  0.59225  0.35969  0.16029  1.0000
  C   C1508     1.0  0.57305  0.35811  0.16817  1.0000
  C   C1509     1.0  0.55955  0.35951  0.15648  1.0000
  C   C1510     1.0  0.56512  0.36303  0.13686  1.0000
  C   C1511     1.0  0.58447  0.36392  0.12899  1.0000
  C   C1512     1.0  0.59812  0.36182  0.14072  1.0000
  H   H2678     1.0  0.56842  0.35647  0.18329  1.0000
  H   H2679     1.0  0.54463  0.35886  0.16259  1.0000
  H   H2680     1.0  0.58886  0.36647  0.11380  1.0000
  H   H2681     1.0  0.61298  0.36267  0.13458  1.0000
  C   C1513     1.0  0.68030  0.29917  0.21192  1.0000
  C   C1514     1.0  0.68060  0.28718  0.19920  1.0000
  C   C1515     1.0  0.67711  0.26839  0.20599  1.0000
  C   C1516     1.0  0.67274  0.26171  0.22548  1.0000
  C   C1517     1.0  0.67158  0.27406  0.23804  1.0000
  C   C1518     1.0  0.67594  0.29246  0.23136  1.0000
  H   H2682     1.0  0.68400  0.29220  0.18416  1.0000
  H   H2683     1.0  0.87583  0.40958  0.28175  1.0000
  H   H2684     1.0  0.52301  0.26725  0.28674  1.0000
  H   H2685     1.0  0.67564  0.30163  0.24128  1.0000
  C   C1519     1.0  0.72817  0.43036  0.16748  1.0000
  C   C1520     1.0  0.71531  0.44382  0.15748  1.0000
  C   C1521     1.0  0.70003  0.43809  0.15208  1.0000
  C   C1522     1.0  0.69758  0.41888  0.15643  1.0000
  C   C1523     1.0  0.71039  0.40547  0.16648  1.0000
  C   C1524     1.0  0.72559  0.41119  0.17193  1.0000
  H   H2686     1.0  0.71708  0.45862  0.15404  1.0000
  H   H2687     1.0  0.69007  0.44860  0.14448  1.0000
  H   H2688     1.0  0.70866  0.39065  0.17000  1.0000
  H   H2689     1.0  0.73545  0.40070  0.17968  1.0000
  H   H2690     1.0  0.58394  0.24529  0.25786  1.0000
  H   H2691     1.0  0.96961  0.43336  0.25781  1.0000
  C   C1525     1.0  0.75153  0.29625  0.23099  1.0000
  H   H2692     1.0  0.67791  0.25898  0.19611  1.0000
  H   H2693     1.0  0.72996  0.33541  0.06467  1.0000
  C   C1526     1.0  0.50848  0.26323  0.20747  1.0000
  H   H2694     1.0  0.78887  0.45307  0.08400  1.0000
  C   C1527     1.0  0.62802  0.29371  0.19492  1.0000
  C   C1528     1.0  0.93992  0.45370  0.24231  1.0000
  H   H2695     1.0  0.50429  0.25701  0.13975  1.0000
  C   C1529     1.0  0.73510  0.34833  0.06611  1.0000
  H   H2696     1.0  0.51923  0.28547  0.24578  1.0000
  H   H2697     1.0  0.55351  0.26152  0.26388  1.0000
  H   H2698     1.0  0.74756  0.35659  0.08716  1.0000
  H   H2699     1.0  0.63603  0.30582  0.25745  1.0000
  S   S372      1.0  0.73010  0.48205  0.02984  1.0000
  C   C1530     1.0  0.72787  0.46902  0.09245  1.0000
  H   H2700     1.0  0.50121  0.27885  0.27791  1.0000
  H   H2701     1.0  0.63327  0.40807  0.09943  1.0000
  C   C1531     1.0  0.51889  0.28927  0.01270  1.0000
  C   C1532     1.0  0.64496  0.34970  0.06594  1.0000
  C   C1533     1.0  0.63845  0.35367  0.08431  1.0000
  C   C1534     1.0  0.65117  0.34967  0.09726  1.0000
  C   C1535     1.0  0.67039  0.34132  0.09204  1.0000
  C   C1536     1.0  0.67670  0.33651  0.07395  1.0000
  C   C1537     1.0  0.66410  0.34096  0.06078  1.0000
  H   H2702     1.0  0.62354  0.35998  0.08848  1.0000
  H   H2703     1.0  0.64604  0.35287  0.11134  1.0000
  H   H2704     1.0  0.69141  0.32950  0.07011  1.0000
  H   H2705     1.0  0.66907  0.33745  0.04677  1.0000
  H   H2706     1.0  0.98805  0.42276  0.30185  1.0000
  C   C1538     1.0  0.67957  0.41352  0.00076  1.0000
  C   C1539     1.0  0.68377  0.42471  0.01218  1.0000
  C   C1540     1.0  0.70109  0.43166  0.00759  1.0000
  C   C1541     1.0  0.71386  0.42822  0.99097  1.0000
  H   H2707     1.0  0.61741  0.26601  0.23697  1.0000
  H   H2708     1.0  0.66644  0.40781  0.00480  1.0000
  H   H2709     1.0  0.67379  0.42755  0.02490  1.0000
  H   H2710     1.0  0.72734  0.43354  0.98739  1.0000
  C   C1542     1.0  0.78317  0.46822  0.08179  1.0000
  H   H2711     1.0  0.53049  0.41626  0.17999  1.0000
  H   H2712     1.0  0.56410  0.41917  0.18004  1.0000
  C   C1543     1.0  0.70962  0.41696  0.97950  1.0000
  H   H2713     1.0  0.74785  0.31036  0.23571  1.0000
  C   C1544     1.0  0.60713  0.45293  0.13394  1.0000
  H   H2714     1.0  0.70724  0.33531  0.01149  1.0000
  H   H2715     1.0  0.62433  0.28084  0.28265  1.0000
  N   N82       1.0  0.55331  0.36611  0.05048  1.0000
  C   C1545     1.0  0.56928  0.37714  0.04079  1.0000
  C   C1546     1.0  0.54972  0.35410  0.03745  1.0000
  C   C1547     1.0  0.53515  0.38053  0.05473  1.0000
  C   C1548     1.0  0.55741  0.35400  0.06903  1.0000
  C   C1549     1.0  0.57638  0.33926  0.06831  1.0000
  C   C1550     1.0  0.57443  0.39025  0.05246  1.0000
  C   C1551     1.0  0.51606  0.37245  0.06145  1.0000
  C   C1552     1.0  0.56736  0.34550  0.02370  1.0000
  C   C1553     1.0  0.56198  0.33133  0.01385  1.0000
  C   C1554     1.0  0.58036  0.33053  0.08821  1.0000
  C   C1555     1.0  0.59034  0.40094  0.04092  1.0000
  C   C1556     1.0  0.94417  0.38956  0.29537  1.0000
  H   H2716     1.0  0.56553  0.38611  0.02733  1.0000
  H   H2717     1.0  0.58293  0.36749  0.03644  1.0000
  H   H2718     1.0  0.54230  0.34226  0.04582  1.0000
  H   H2719     1.0  0.53972  0.36282  0.02793  1.0000
  H   H2720     1.0  0.53318  0.39167  0.04199  1.0000
  H   H2721     1.0  0.53624  0.38816  0.06600  1.0000
  H   H2722     1.0  0.55723  0.36321  0.07945  1.0000
  H   H2723     1.0  0.54575  0.34561  0.07561  1.0000
  H   H2724     1.0  0.58898  0.34575  0.06060  1.0000
  H   H2725     1.0  0.57520  0.32740  0.06150  1.0000
  H   H2726     1.0  0.56188  0.40118  0.05670  1.0000
  H   H2727     1.0  0.57972  0.38168  0.06533  1.0000
  H   H2728     1.0  0.51680  0.36140  0.07428  1.0000
  H   H2729     1.0  0.51276  0.36605  0.05033  1.0000
  H   H2730     1.0  0.57248  0.35708  0.01252  1.0000
  H   H2731     1.0  0.57957  0.33807  0.03091  1.0000
  H   H2732     1.0  0.54990  0.33830  0.00616  1.0000
  H   H2733     1.0  0.57459  0.32614  0.00346  1.0000
  H   H2734     1.0  0.55771  0.31888  0.02430  1.0000
  H   H2735     1.0  0.58219  0.34175  0.09557  1.0000
  H   H2736     1.0  0.56833  0.32340  0.09660  1.0000
  H   H2737     1.0  0.59387  0.31979  0.08735  1.0000
  H   H2738     1.0  0.60357  0.39068  0.03674  1.0000
  H   H2739     1.0  0.58567  0.41005  0.02797  1.0000
  H   H2740     1.0  0.59390  0.41015  0.04953  1.0000
  H   H2741     1.0  0.50214  0.26711  0.01924  1.0000
  H   H2742     1.0  0.75223  0.26661  0.24216  1.0000
  C   C1557     1.0  0.57829  0.38547  0.97512  1.0000
  H   H2743     1.0  0.80680  0.44652  0.29565  1.0000
  C   C1558     1.0  0.72848  0.48190  0.10625  1.0000
  S   S373      1.0  0.77978  0.46351  0.04679  1.0000
  H   H2744     1.0  0.94694  0.37755  0.28741  1.0000
  H   H2745     1.0  0.96239  0.46646  0.29020  1.0000
  H   H2746     1.0  0.61195  0.39495  0.14055  1.0000
  H   H2747     1.0  0.75717  0.28054  0.25782  1.0000
  C   C1559     1.0  0.69257  0.40933  0.98458  1.0000
  C   C1560     1.0  0.62040  0.40129  0.10151  1.0000
  H   H2748     1.0  0.81518  0.45228  0.25708  1.0000
  H   H2749     1.0  0.66760  0.26931  0.25293  1.0000
  S   S374      1.0  0.59089  0.40106  0.98047  1.0000
  H   H2750     1.0  0.53173  0.27938  0.01724  1.0000
  C   C1561     1.0  0.72503  0.24834  0.26690  1.0000
  S   S375      1.0  0.49816  0.36138  0.11570  1.0000
  H   H2751     1.0  0.55372  0.43618  0.16169  1.0000
  H   H2752     1.0  0.56975  0.41607  0.13787  1.0000
  H   H2753     1.0  0.74792  0.35022  0.05508  1.0000
  Fe  Fe191     1.0  0.50737  0.31740  0.15598  1.0000
  H   H2754     1.0  0.82313  0.46091  0.28097  1.0000
  H   H2755     1.0  0.57952  0.44984  0.15057  1.0000
  H   H2756     1.0  0.53914  0.25411  0.22668  1.0000
  S   S376      1.0  0.88702  0.47592  0.26288  1.0000
  H   H2757     1.0  0.58677  0.29738  0.98467  1.0000
  H   H2758     1.0  0.66373  0.45773  0.07928  1.0000
  C   C1562     1.0  0.58919  0.25855  0.25036  1.0000
  H   H2759     1.0  0.92869  0.39622  0.29626  1.0000
  H   H2760     1.0  0.71744  0.28600  0.24610  1.0000
  H   H2761     1.0  0.58511  0.28146  0.22746  1.0000
  C   C1563     1.0  0.94070  0.45012  0.26340  1.0000
  C   C1564     1.0  0.52616  0.27403  0.25598  1.0000
  H   H2762     1.0  0.51953  0.29256  0.27719  1.0000
  H   H2763     1.0  0.59379  0.42971  0.17447  1.0000
  C   C1565     1.0  0.55935  0.42085  0.16630  1.0000
  H   H2764     1.0  0.61139  0.28684  0.98670  1.0000
  H   H2765     1.0  0.55029  0.40269  0.98155  1.0000
  H   H2766     1.0  0.51854  0.25306  0.19971  1.0000
  H   H2767     1.0  0.74281  0.29646  0.22012  1.0000
  C   C1566     1.0  0.58985  0.44219  0.13992  1.0000
  H   H2768     1.0  0.93397  0.46356  0.26884  1.0000
  C   C1567     1.0  0.60901  0.41030  0.13407  1.0000
  H   H2769     1.0  0.50316  0.28131  0.14267  1.0000
  Fe  Fe192     1.0  0.76238  0.47376  0.98159  1.0000
  C   C1568     1.0  0.82638  0.42418  0.27311  1.0000
  C   C1569     1.0  0.66849  0.29324  0.29296  1.0000
  H   H2770     1.0  0.53722  0.41108  0.15629  1.0000
  C   C1570     1.0  0.85486  0.43604  0.27801  1.0000
  C   C1571     1.0  0.87041  0.42015  0.26994  1.0000
  C   C1572     1.0  0.82413  0.43837  0.25441  1.0000
  H   H2771     1.0  0.64169  0.28455  0.18963  1.0000
  H   H2772     1.0  0.63779  0.29542  0.22000  1.0000
  C   C1573     1.0  0.88779  0.42811  0.25765  1.0000
  C   C1574     1.0  0.81437  0.43054  0.24184  1.0000
  H   H2773     1.0  0.50031  0.27965  0.03818  1.0000
  H   H2774     1.0  0.83462  0.41054  0.26899  1.0000
  C   C1575     1.0  0.60112  0.41794  0.16651  1.0000
  H   H2775     1.0  0.60012  0.42635  0.10737  1.0000
  H   H2776     1.0  0.94540  0.44030  0.23643  1.0000
  H   H2777     1.0  0.85331  0.44879  0.26667  1.0000
  Fe  Fe193     1.0  0.50309  0.33027  0.11396  1.0000
  H   H2778     1.0  0.86482  0.41281  0.26103  1.0000
  C   C1576     1.0  0.74840  0.25309  0.29216  1.0000
  H   H2779     1.0  0.55143  0.28626  0.25524  1.0000
  H   H2780     1.0  0.83844  0.44086  0.24626  1.0000
  S   S377      1.0  0.76013  0.47837  0.19431  1.0000
  H   H2781     1.0  0.78674  0.47178  0.10923  1.0000
  C   C1577     1.0  0.96184  0.44415  0.26680  1.0000
  H   H2782     1.0  0.54712  0.39475  0.17546  1.0000
  H   H2783     1.0  0.89510  0.43426  0.26621  1.0000
  C   C1578     1.0  0.74784  0.28022  0.24772  1.0000
  H   H2784     1.0  0.53299  0.38006  0.97382  1.0000
  H   H2785     1.0  0.82304  0.41686  0.23806  1.0000
  H   H2786     1.0  0.79967  0.42826  0.24907  1.0000
  H   H2787     1.0  0.81303  0.44097  0.22857  1.0000
  N   N83       1.0  0.96448  0.43710  0.28706  1.0000
  H   H2788     1.0  0.61899  0.44583  0.12410  1.0000
  H   H2789     1.0  0.58224  0.44455  0.12772  1.0000
  H   H2790     1.0  0.95335  0.40920  0.27085  1.0000
  H   H2791     1.0  0.62396  0.29093  0.24880  1.0000
  C   C1579     1.0  0.62316  0.41537  0.16609  1.0000
  C   C1580     1.0  0.95677  0.45338  0.29789  1.0000
  C   C1581     1.0  0.57594  0.41319  0.15104  1.0000
  H   H2792     1.0  0.92481  0.45896  0.24008  1.0000
  H   H2793     1.0  0.57908  0.39739  0.15504  1.0000
  C   C1582     1.0  0.60364  0.41135  0.11446  1.0000
  C   C1583     1.0  0.59982  0.28802  0.97842  1.0000
  H   H2794     1.0  0.75272  0.33137  0.08636  1.0000
  H   H2795     1.0  0.62994  0.42648  0.15578  1.0000
  C   C1584     1.0  0.71510  0.34692  0.00353  1.0000
  H   H2796     1.0  0.64343  0.41343  0.18469  1.0000
  H   H2797     1.0  0.59694  0.40461  0.17561  1.0000
  S   S378      1.0  0.81701  0.47614  0.18951  1.0000
  H   H2798     1.0  0.88332  0.43923  0.24577  1.0000
  N   N84       1.0  0.71303  0.37373  0.04529  1.0000
  C   C1585     1.0  0.71570  0.35791  0.03400  1.0000
  C   C1586     1.0  0.71859  0.36588  0.06456  1.0000
  C   C1587     1.0  0.69185  0.38235  0.04828  1.0000
  C   C1588     1.0  0.72406  0.38932  0.03491  1.0000
  C   C1589     1.0  0.74611  0.38335  0.02947  1.0000
  C   C1590     1.0  0.71018  0.36389  0.01400  1.0000
  C   C1591     1.0  0.68547  0.39792  0.06104  1.0000
  C   C1592     1.0  0.75497  0.39981  0.01659  1.0000
  C   C1593     1.0  0.66352  0.40309  0.06535  1.0000
  H   H2799     1.0  0.72234  0.37734  0.07036  1.0000
  H   H2800     1.0  0.70607  0.36112  0.07488  1.0000
  H   H2801     1.0  0.68312  0.37096  0.05439  1.0000
  H   H2802     1.0  0.68713  0.38908  0.03465  1.0000
  H   H2803     1.0  0.71825  0.39655  0.02194  1.0000
  H   H2804     1.0  0.72188  0.40077  0.04347  1.0000
  H   H2805     1.0  0.75000  0.37109  0.02182  1.0000
  H   H2806     1.0  0.75277  0.37967  0.04236  1.0000
  H   H2807     1.0  0.69448  0.36926  0.01483  1.0000
  H   H2808     1.0  0.71810  0.37507  0.00519  1.0000
  H   H2809     1.0  0.69109  0.41112  0.05382  1.0000
  H   H2810     1.0  0.69057  0.39317  0.07476  1.0000
  H   H2811     1.0  0.75104  0.41274  0.02332  1.0000
  H   H2812     1.0  0.77092  0.39578  0.01381  1.0000
  H   H2813     1.0  0.74979  0.40324  0.00286  1.0000
  H   H2814     1.0  0.69962  0.24645  0.25586  1.0000
  H   H2815     1.0  0.65931  0.41506  0.07345  1.0000
  H   H2816     1.0  0.65742  0.40760  0.05211  1.0000
  H   H2817     1.0  0.65733  0.39060  0.07389  1.0000
  C   C1594     1.0  0.55261  0.28619  0.21891  1.0000
  C   C1595     1.0  0.56291  0.28613  0.19808  1.0000
  C   C1596     1.0  0.55812  0.30572  0.18588  1.0000
  C   C1597     1.0  0.58069  0.26718  0.23203  1.0000
  H   H2818     1.0  0.53703  0.28769  0.21846  1.0000
  H   H2819     1.0  0.55800  0.27558  0.19203  1.0000
  H   H2820     1.0  0.57881  0.28251  0.19674  1.0000
  H   H2821     1.0  0.56457  0.30501  0.17086  1.0000
  H   H2822     1.0  0.54228  0.31028  0.18680  1.0000
  H   H2823     1.0  0.56405  0.31662  0.19038  1.0000
  H   H2824     1.0  0.59121  0.40413  0.11575  1.0000
  H   H2825     1.0  0.61260  0.45404  0.14661  1.0000
  C   C1598     1.0  0.54255  0.41006  0.16966  1.0000
  H   H2826     1.0  0.93178  0.43911  0.27037  1.0000
  N   N85       1.0  0.72772  0.43384  0.09049  1.0000
  C   C1599     1.0  0.71319  0.44062  0.07738  1.0000
  C   C1600     1.0  0.74760  0.43099  0.07861  1.0000
  C   C1601     1.0  0.72333  0.41551  0.10307  1.0000
  C   C1602     1.0  0.72683  0.44830  0.10283  1.0000
  N   N86       1.0  0.72022  0.26762  0.27307  1.0000
  C   C1603     1.0  0.69187  0.44580  0.08695  1.0000
  C   C1604     1.0  0.73783  0.40570  0.11656  1.0000
  C   C1605     1.0  0.75274  0.41364  0.06810  1.0000
  C   C1606     1.0  0.77292  0.41261  0.05616  1.0000
  C   C1607     1.0  0.50482  0.32795  0.04970  1.0000
  C   C1608     1.0  0.67892  0.45425  0.07216  1.0000
  C   C1609     1.0  0.73379  0.38587  0.12621  1.0000
  H   H2827     1.0  0.71354  0.42950  0.06892  1.0000
  H   H2828     1.0  0.71708  0.45314  0.06670  1.0000
  H   H2829     1.0  0.74941  0.44383  0.06758  1.0000
  H   H2830     1.0  0.75896  0.42982  0.08719  1.0000
  H   H2831     1.0  0.72184  0.40510  0.09453  1.0000
  H   H2832     1.0  0.70908  0.41814  0.11243  1.0000
  H   H2833     1.0  0.71355  0.44874  0.11372  1.0000
  H   H2834     1.0  0.73890  0.44389  0.11101  1.0000
  H   H2835     1.0  0.97217  0.39678  0.28390  1.0000
  C   C1610     1.0  0.50062  0.28149  0.02283  1.0000
  H   H2836     1.0  0.68654  0.43287  0.09551  1.0000
  H   H2837     1.0  0.69006  0.45645  0.09628  1.0000
  H   H2838     1.0  0.73650  0.41429  0.12776  1.0000
  H   H2839     1.0  0.75297  0.40399  0.10909  1.0000
  H   H2840     1.0  0.75258  0.39998  0.07816  1.0000
  H   H2841     1.0  0.74246  0.41471  0.05850  1.0000
  H   H2842     1.0  0.77343  0.42518  0.04464  1.0000
  H   H2843     1.0  0.78381  0.41222  0.06498  1.0000
  H   H2844     1.0  0.77676  0.39951  0.04967  1.0000
  C   C1611     1.0  0.77729  0.47719  0.06459  1.0000
  H   H2845     1.0  0.52245  0.26025  0.25503  1.0000
  H   H2846     1.0  0.50238  0.24217  0.23243  1.0000
  C   C1612     1.0  0.69857  0.27237  0.27855  1.0000
  C   C1613     1.0  0.71524  0.24636  0.25069  1.0000
  H   H2847     1.0  0.85372  0.39147  0.29018  1.0000
  H   H2848     1.0  0.74335  0.37969  0.13682  1.0000
  H   H2849     1.0  0.71860  0.38675  0.13360  1.0000
  H   H2850     1.0  0.73648  0.37620  0.11571  1.0000
  N   N87       1.0  0.61390  0.33041  0.23031  1.0000
  C   C1614     1.0  0.63371  0.33530  0.22780  1.0000
  C   C1615     1.0  0.61316  0.31903  0.21543  1.0000
  C   C1616     1.0  0.59989  0.34902  0.22739  1.0000
  C   C1617     1.0  0.60763  0.31992  0.24992  1.0000
  C   C1618     1.0  0.63621  0.34811  0.24127  1.0000
  C   C1619     1.0  0.57893  0.34736  0.22662  1.0000
  C   C1620     1.0  0.65726  0.35021  0.23895  1.0000
  C   C1621     1.0  0.56663  0.36713  0.22236  1.0000
  H   H2851     1.0  0.63787  0.34269  0.21306  1.0000
  H   H2852     1.0  0.64479  0.32224  0.22939  1.0000
  H   H2853     1.0  0.60129  0.31061  0.22023  1.0000
  H   H2854     1.0  0.60969  0.32883  0.20232  1.0000
  H   H2855     1.0  0.60539  0.35830  0.21411  1.0000
  H   H2856     1.0  0.59867  0.35727  0.23888  1.0000
  H   H2857     1.0  0.60429  0.32977  0.26038  1.0000
  H   H2858     1.0  0.62781  0.36271  0.23807  1.0000
  H   H2859     1.0  0.63146  0.34202  0.25625  1.0000
  H   H2860     1.0  0.57207  0.33995  0.24035  1.0000
  H   H2861     1.0  0.57848  0.33941  0.21542  1.0000
  H   H2862     1.0  0.64293  0.31390  0.20036  1.0000
  H   H2863     1.0  0.62255  0.30327  0.18255  1.0000
  H   H2864     1.0  0.66642  0.33613  0.24273  1.0000
  H   H2865     1.0  0.66270  0.35647  0.22415  1.0000
  H   H2866     1.0  0.65857  0.35982  0.24836  1.0000
  H   H2867     1.0  0.55176  0.36561  0.22176  1.0000
  C   C1622     1.0  0.63177  0.30544  0.20835  1.0000
  H   H2868     1.0  0.70706  0.34687  0.04199  1.0000
  C   C1623     1.0  0.49666  0.33072  0.06824  1.0000
  H   H2869     1.0  0.85635  0.47748  0.23605  1.0000
  H   H2870     1.0  0.63036  0.40132  0.16217  1.0000
  H   H2871     1.0  0.61635  0.40219  0.08754  1.0000
  H   H2872     1.0  0.73081  0.35028  0.03204  1.0000
  Fe  Fe194     1.0  0.88829  0.46706  0.29385  1.0000
  C   C1624     1.0  0.95694  0.40421  0.28521  1.0000
  C   C1625     1.0  0.61121  0.25383  0.24610  1.0000
  C   C1626     1.0  0.50452  0.28245  0.19885  1.0000
  C   C1627     1.0  0.83844  0.47596  0.21638  1.0000
  C   C1628     1.0  0.72644  0.28324  0.25732  1.0000
  H   H2873     1.0  0.56274  0.24909  0.21409  1.0000
  H   H2874     1.0  0.55944  0.25348  0.30013  1.0000
  C   C1629     1.0  0.95366  0.42096  0.29625  1.0000
  H   H2875     1.0  0.49659  0.27676  0.12199  1.0000
  S   S379      1.0  0.49823  0.32979  0.98020  1.0000
  Fe  Fe195     1.0  0.76222  0.47350  0.02338  1.0000
  C   C1630     1.0  0.82215  0.44848  0.29270  1.0000
  C   C1631     1.0  0.49899  0.38823  0.06619  1.0000
  S   S380      1.0  0.73020  0.48132  0.98505  1.0000
  C   C1632     1.0  0.56471  0.23858  0.29912  1.0000
  C   C1633     1.0  0.49490  0.33663  0.03472  1.0000
  H   H2876     1.0  0.76701  0.29395  0.22441  1.0000
  H   H2877     1.0  0.72376  0.29699  0.26260  1.0000
  C   C1634     1.0  0.49606  0.27181  0.13742  1.0000
  C   C1635     1.0  0.55821  0.38963  0.97687  1.0000
  C   C1636     1.0  0.78195  0.47879  0.09611  1.0000
  H   H2878     1.0  0.74126  0.47649  0.11331  1.0000
  H   H2879     1.0  0.49714  0.39941  0.05356  1.0000
  H   H2880     1.0  0.82887  0.39011  0.29885  1.0000
  H   H2881     1.0  0.59594  0.47319  0.11071  1.0000
  C   C1637     1.0  0.83685  0.41562  0.30441  1.0000
  C   C1638     1.0  0.54842  0.37678  0.97256  1.0000
  C   C1639     1.0  0.84214  0.48160  0.23231  1.0000
  H   H2882     1.0  0.75923  0.25479  0.27912  1.0000
  H   H2883     1.0  0.67883  0.46015  0.97267  1.0000
  C   C1640     1.0  0.82020  0.48167  0.21093  1.0000
  H   H2884     1.0  0.58940  0.48136  0.13326  1.0000
  H   H2885     1.0  0.61358  0.48084  0.12017  1.0000
  H   H2886     1.0  0.69637  0.29013  0.30028  1.0000
  H   H2887     1.0  0.69306  0.26024  0.28860  1.0000
  H   H2888     1.0  0.59656  0.27355  0.97943  1.0000
  H   H2889     1.0  0.71899  0.26190  0.30349  1.0000
  H   H2890     1.0  0.69381  0.30360  0.27714  1.0000
  H   H2891     1.0  0.66175  0.29423  0.28044  1.0000
  H   H2892     1.0  0.73061  0.28136  0.29157  1.0000
  C   C1641     1.0  0.72893  0.26681  0.29034  1.0000
  H   H2893     1.0  0.66291  0.30656  0.29896  1.0000
  H   H2894     1.0  0.74609  0.23802  0.29531  1.0000
  H   H2895     1.0  0.66431  0.28101  0.30382  1.0000
  C   C1642     1.0  0.84170  0.39434  0.30189  1.0000
  H   H2896     1.0  0.55206  0.23404  0.25671  1.0000
  H   H2897     1.0  0.99125  0.41862  0.27848  1.0000
  H   H2898     1.0  0.53765  0.23360  0.29458  1.0000
  H   H2899     1.0  0.72087  0.23717  0.27907  1.0000
  S   S381      1.0  0.59940  0.24469  0.30455  1.0000
  Fe  Fe196     1.0  0.88224  0.36592  0.59528  1.0000
  Fe  Fe197     1.0  0.89280  0.35798  0.55453  1.0000
  S   S382      1.0  0.89421  0.32636  0.56367  1.0000
  S   S383      1.0  0.89822  0.37229  0.52385  1.0000
  Fe  Fe198     1.0  0.86701  0.33382  0.58411  1.0000
  Fe  Fe199     1.0  0.90973  0.33013  0.58582  1.0000
  S   S384      1.0  0.93514  0.30743  0.59272  1.0000
  S   S385      1.0  0.86469  0.36544  0.57353  1.0000
  S   S386      1.0  0.91038  0.36129  0.57525  1.0000
  H   H2900     1.0  0.96008  0.37727  0.61665  1.0000
  C   C1643     1.0  0.90557  0.38942  0.62505  1.0000
  H   H2901     1.0  0.86343  0.27869  0.46299  1.0000
  H   H2902     1.0  0.88318  0.42033  0.39524  1.0000
  Fe  Fe200     1.0  0.87790  0.34105  0.43452  1.0000
  S   S387      1.0  0.89592  0.31775  0.41939  1.0000
  S   S388      1.0  0.87180  0.33327  0.46639  1.0000
  Fe  Fe201     1.0  0.87010  0.36690  0.39766  1.0000
  S   S389      1.0  0.85653  0.39669  0.38500  1.0000
  Fe  Fe202     1.0  0.87245  0.32363  0.40199  1.0000
  S   S390      1.0  0.86476  0.29645  0.39699  1.0000
  S   S391      1.0  0.85363  0.34575  0.41828  1.0000
  S   S392      1.0  0.89260  0.36420  0.41560  1.0000
  C   C1644     1.0  0.94214  0.33609  0.52127  1.0000
  H   H2903     1.0  0.75312  0.25446  0.62052  1.0000
  H   H2904     1.0  0.92506  0.39668  0.38851  1.0000
  H   H2905     1.0  0.92546  0.46212  0.60177  1.0000
  H   H2906     1.0  0.92178  0.45910  0.62711  1.0000
  H   H2907     1.0  0.95565  0.47386  0.59887  1.0000
  H   H2908     1.0  0.94138  0.30857  0.49071  1.0000
  H   H2909     1.0  0.81565  0.34637  0.50033  1.0000
  H   H2910     1.0  0.80612  0.30563  0.58959  1.0000
  S   S393      1.0  0.75902  0.25398  0.52873  1.0000
  C   C1645     1.0  0.93293  0.45886  0.61412  1.0000
  S   S394      1.0  0.87171  0.38977  0.61279  1.0000
  H   H2911     1.0  0.81605  0.47830  0.32614  1.0000
  H   H2912     1.0  0.88490  0.40221  0.44609  1.0000
  H   H2913     1.0  0.79134  0.34255  0.52587  1.0000
  H   H2914     1.0  0.96175  0.33356  0.54100  1.0000
  C   C1646     1.0  0.83488  0.26747  0.44805  1.0000
  C   C1647     1.0  0.93281  0.40658  0.35844  1.0000
  H   H2915     1.0  0.86033  0.38448  0.32317  1.0000
  S   S395      1.0  0.83890  0.32252  0.58792  1.0000
  C   C1648     1.0  0.84202  0.29240  0.39474  1.0000
  C   C1649     1.0  0.82604  0.30710  0.39363  1.0000
  C   C1650     1.0  0.80818  0.30305  0.39213  1.0000
  H   H2916     1.0  0.90003  0.45361  0.56978  1.0000
  H   H2917     1.0  0.82747  0.32157  0.39381  1.0000
  H   H2918     1.0  0.79588  0.31449  0.39129  1.0000
  C   C1651     1.0  0.88475  0.42483  0.32691  1.0000
  C   C1652     1.0  0.89186  0.40585  0.33425  1.0000
  C   C1653     1.0  0.88306  0.39696  0.35183  1.0000
  C   C1654     1.0  0.86697  0.40696  0.36220  1.0000
  C   C1655     1.0  0.85949  0.42580  0.35460  1.0000
  C   C1656     1.0  0.86839  0.43475  0.33702  1.0000
  H   H2919     1.0  0.84704  0.43363  0.36254  1.0000
  H   H2920     1.0  0.86281  0.44940  0.33156  1.0000
  C   C1657     1.0  0.85131  0.26741  0.57880  1.0000
  C   C1658     1.0  0.91691  0.39683  0.63417  1.0000
  H   H2921     1.0  0.90925  0.31039  0.47566  1.0000
  C   C1659     1.0  0.94556  0.47375  0.61252  1.0000
  C   C1660     1.0  0.81747  0.33119  0.47011  1.0000
  S   S396      1.0  0.77288  0.24698  0.58030  1.0000
  H   H2922     1.0  0.94451  0.41462  0.35760  1.0000
  C   C1661     1.0  0.94350  0.41989  0.39686  1.0000
  C   C1662     1.0  0.85302  0.27379  0.52406  1.0000
  H   H2923     1.0  0.97167  0.33290  0.50671  1.0000
  H   H2924     1.0  0.95872  0.42316  0.58959  1.0000
  H   H2925     1.0  0.96085  0.31243  0.50994  1.0000
  H   H2926     1.0  0.93130  0.29579  0.46610  1.0000
  C   C1663     1.0  0.89110  0.36154  0.50763  1.0000
  C   C1664     1.0  0.88484  0.34401  0.51341  1.0000
  C   C1665     1.0  0.87948  0.33543  0.50041  1.0000
  C   C1666     1.0  0.88005  0.34433  0.48155  1.0000
  C   C1667     1.0  0.88656  0.36177  0.47556  1.0000
  C   C1668     1.0  0.89201  0.37040  0.48863  1.0000
  H   H2927     1.0  0.88407  0.33703  0.52791  1.0000
  H   H2928     1.0  0.87496  0.32174  0.50498  1.0000
  H   H2929     1.0  0.88706  0.36868  0.46099  1.0000
  H   H2930     1.0  0.89667  0.38407  0.48413  1.0000
  C   C1669     1.0  0.88629  0.39791  0.62487  1.0000
  H   H2931     1.0  0.96088  0.42850  0.54648  1.0000
  H   H2932     1.0  0.92458  0.32966  0.49320  1.0000
  C   C1670     1.0  0.97887  0.34559  0.41453  1.0000
  S   S397      1.0  0.88257  0.33480  0.60738  1.0000
  H   H2933     1.0  0.86886  0.26934  0.52028  1.0000
  S   S398      1.0  0.88698  0.34512  0.38011  1.0000
  C   C1671     1.0  0.97225  0.29410  0.59719  1.0000
  C   C1672     1.0  0.94792  0.32928  0.54073  1.0000
  C   C1673     1.0  0.95923  0.31025  0.59098  1.0000
  H   H2934     1.0  0.88669  0.43484  0.57057  1.0000
  H   H2935     1.0  0.76171  0.32058  0.55207  1.0000
  C   C1674     1.0  0.78045  0.27795  0.44521  1.0000
  H   H2936     1.0  0.87184  0.40341  0.42735  1.0000
  H   H2937     1.0  0.94589  0.39331  0.44353  1.0000
  H   H2938     1.0  0.82279  0.41666  0.31432  1.0000
  H   H2939     1.0  0.95588  0.34007  0.57859  1.0000
  N   N88       1.0  0.81436  0.26395  0.45399  1.0000
  H   H2940     1.0  0.89374  0.43358  0.36144  1.0000
  Fe  Fe203     1.0  0.90867  0.34125  0.39918  1.0000
  H   H2941     1.0  0.83841  0.33150  0.49794  1.0000
  H   H2942     1.0  0.94171  0.44430  0.61459  1.0000
  H   H2943     1.0  0.95539  0.46410  0.34249  1.0000
  H   H2944     1.0  0.79771  0.33147  0.56025  1.0000
  H   H2945     1.0  0.94708  0.39399  0.46763  1.0000
  H   H2946     1.0  0.87304  0.42501  0.43530  1.0000
  H   H2947     1.0  0.92842  0.33126  0.52177  1.0000
  H   H2948     1.0  0.79026  0.31863  0.52535  1.0000
  H   H2949     1.0  0.97156  0.33240  0.45770  1.0000
  H   H2950     1.0  0.87880  0.45937  0.37888  1.0000
  H   H2951     1.0  0.84987  0.36614  0.31803  1.0000
  H   H2952     1.0  0.83279  0.33148  0.46365  1.0000
  H   H2953     1.0  0.50426  0.25779  0.35143  1.0000
  C   C1675     1.0  0.83790  0.28753  0.44961  1.0000
  H   H2954     1.0  0.83364  0.29809  0.43724  1.0000
  H   H2955     1.0  0.86766  0.28897  0.57946  1.0000
  H   H2956     1.0  0.94784  0.35396  0.41610  1.0000
  C   C1676     1.0  0.97821  0.44018  0.57147  1.0000
  H   H2957     1.0  0.80056  0.31891  0.49543  1.0000
  H   H2958     1.0  0.84840  0.26740  0.53902  1.0000
  H   H2959     1.0  0.98499  0.30044  0.48926  1.0000
  H   H2960     1.0  0.95426  0.43749  0.32709  1.0000
  H   H2961     1.0  0.82389  0.29717  0.54385  1.0000
  H   H2962     1.0  0.77386  0.30272  0.42358  1.0000
  N   N89       1.0  0.81910  0.32360  0.52415  1.0000
  H   H2963     1.0  0.81118  0.32404  0.46152  1.0000
  H   H2964     1.0  0.90156  0.46670  0.37756  1.0000
  C   C1677     1.0  0.84794  0.29556  0.52125  1.0000
  C   C1678     1.0  0.85892  0.28785  0.45002  1.0000
  C   C1679     1.0  0.81185  0.25347  0.50885  1.0000
  H   H2965     1.0  0.79483  0.30794  0.55837  1.0000
  H   H2966     1.0  0.77180  0.26786  0.61293  1.0000
  C   C1680     1.0  0.94183  0.38608  0.35595  1.0000
  H   H2967     1.0  0.90732  0.39832  0.41623  1.0000
  H   H2968     1.0  0.90862  0.41967  0.42443  1.0000
  H   H2969     1.0  0.81765  0.29447  0.52267  1.0000
  H   H2970     1.0  0.95616  0.36227  0.48907  1.0000
  H   H2971     1.0  0.88896  0.38247  0.35750  1.0000
  C   C1681     1.0  0.76920  0.32905  0.55822  1.0000
  N   N90       1.0  0.94540  0.40686  0.56409  1.0000
  C   C1682     1.0  0.94511  0.39355  0.58290  1.0000
  C   C1683     1.0  0.92589  0.41960  0.56299  1.0000
  C   C1684     1.0  0.94942  0.39464  0.54891  1.0000
  C   C1685     1.0  0.96107  0.41867  0.56027  1.0000
  C   C1686     1.0  0.82568  0.45483  0.31041  1.0000
  H   H2972     1.0  0.95150  0.39978  0.50017  1.0000
  C   C1687     1.0  0.95005  0.40557  0.52830  1.0000
  C   C1688     1.0  0.91351  0.42507  0.58170  1.0000
  H   H2973     1.0  0.84033  0.26570  0.43305  1.0000
  C   C1689     1.0  0.89329  0.46025  0.37017  1.0000
  H   H2974     1.0  0.82197  0.44447  0.32342  1.0000
  C   C1690     1.0  0.94850  0.39253  0.51507  1.0000
  H   H2975     1.0  0.93385  0.38459  0.58490  1.0000
  H   H2976     1.0  0.94084  0.40149  0.59488  1.0000
  H   H2977     1.0  0.92751  0.43308  0.55281  1.0000
  H   H2978     1.0  0.91648  0.41263  0.55726  1.0000
  H   H2979     1.0  0.93855  0.38506  0.55185  1.0000
  H   H2980     1.0  0.96360  0.38505  0.54885  1.0000
  H   H2981     1.0  0.79204  0.24163  0.61826  1.0000
  H   H2982     1.0  0.99065  0.34188  0.57721  1.0000
  H   H2983     1.0  0.93766  0.40930  0.40857  1.0000
  H   H2984     1.0  0.94760  0.44325  0.57412  1.0000
  H   H2985     1.0  0.96851  0.36988  0.57596  1.0000
  H   H2986     1.0  0.82915  0.37937  0.54200  1.0000
  H   H2987     1.0  0.96398  0.41078  0.52323  1.0000
  H   H2988     1.0  0.93821  0.41803  0.52700  1.0000
  H   H2989     1.0  0.90825  0.41226  0.59051  1.0000
  H   H2990     1.0  0.92171  0.43062  0.58987  1.0000
  H   H2991     1.0  0.97952  0.35263  0.42587  1.0000
  H   H2992     1.0  0.77421  0.27297  0.46008  1.0000
  S   S399      1.0  0.78288  0.27949  0.39239  1.0000
  H   H2993     1.0  0.95226  0.38604  0.34250  1.0000
  C   C1691     1.0  0.74358  0.29056  0.59767  1.0000
  H   H2994     1.0  0.74957  0.26442  0.49103  1.0000
  H   H2995     1.0  0.97591  0.35752  0.60737  1.0000
  H   H2996     1.0  0.80797  0.28221  0.42811  1.0000
  H   H2997     1.0  0.88873  0.43972  0.40318  1.0000
  C   C1692     1.0  0.81315  0.24565  0.44797  1.0000
  H   H2998     1.0  0.95892  0.47955  0.31996  1.0000
  H   H2999     1.0  0.83103  0.35744  0.55878  1.0000
  H   H3000     1.0  0.84960  0.36063  0.53811  1.0000
  C   C1693     1.0  0.96100  0.34632  0.40902  1.0000
  C   C1694     1.0  0.91844  0.40716  0.37737  1.0000
  H   H3001     1.0  0.93944  0.35192  0.51885  1.0000
  H   H3002     1.0  0.88695  0.44315  0.59191  1.0000
  H   H3003     1.0  0.75313  0.29452  0.43878  1.0000
  C   C1695     1.0  0.89503  0.42541  0.39938  1.0000
  H   H3004     1.0  0.82471  0.30597  0.49033  1.0000
  H   H3005     1.0  0.79772  0.47346  0.31534  1.0000
  C   C1696     1.0  0.82281  0.33117  0.50321  1.0000
  H   H3006     1.0  0.90445  0.39802  0.32650  1.0000
  H   H3007     1.0  0.83092  0.24215  0.48571  1.0000
  H   H3008     1.0  0.93376  0.38909  0.51801  1.0000
  H   H3009     1.0  0.80243  0.27355  0.58546  1.0000
  H   H3010     1.0  0.76494  0.32623  0.57383  1.0000
  H   H3011     1.0  0.84523  0.33154  0.52762  1.0000
  H   H3012     1.0  0.94924  0.31352  0.54475  1.0000
  C   C1697     1.0  0.95184  0.36538  0.46078  1.0000
  H   H3013     1.0  0.91716  0.31272  0.45051  1.0000
  C   C1698     1.0  0.89966  0.41284  0.41817  1.0000
  H   H3014     1.0  0.94641  0.32383  0.45343  1.0000
  Fe  Fe204     1.0  0.77563  0.24955  0.39998  1.0000
  H   H3015     1.0  0.90591  0.40110  0.37610  1.0000
  C   C1699     1.0  0.89574  0.44013  0.57816  1.0000
  C   C1700     1.0  0.82965  0.33350  0.53382  1.0000
  H   H3016     1.0  0.97552  0.40941  0.55851  1.0000
  C   C1701     1.0  0.93348  0.32555  0.46452  1.0000
  H   H3017     1.0  0.95032  0.35997  0.60857  1.0000
  C   C1702     1.0  0.80176  0.28012  0.44334  1.0000
  H   H3018     1.0  0.85230  0.26227  0.39501  1.0000
  C   C1703     1.0  0.90392  0.44007  0.36650  1.0000
  C   C1704     1.0  0.94211  0.38636  0.45844  1.0000
  H   H3019     1.0  0.93270  0.35951  0.48761  1.0000
  H   H3020     1.0  0.92621  0.38756  0.46206  1.0000
  C   C1705     1.0  0.83997  0.27369  0.39433  1.0000
  C   C1706     1.0  0.84707  0.38131  0.31991  1.0000
  C   C1707     1.0  0.94823  0.35535  0.48169  1.0000
  C   C1708     1.0  0.95600  0.42990  0.40462  1.0000
  C   C1709     1.0  0.76795  0.29687  0.43836  1.0000
  H   H3021     1.0  0.98438  0.33487  0.47462  1.0000
  H   H3022     1.0  0.81740  0.24697  0.43231  1.0000
  H   H3023     1.0  0.80148  0.29386  0.44789  1.0000
  C   C1710     1.0  0.80602  0.28424  0.39226  1.0000
  H   H3024     1.0  0.86400  0.25669  0.57600  1.0000
  N   N91       1.0  0.95428  0.33385  0.48569  1.0000
  N   N92       1.0  0.91162  0.42665  0.38300  1.0000
  H   H3025     1.0  0.93050  0.37795  0.35562  1.0000
  H   H3026     1.0  0.69439  0.26440  0.62988  1.0000
  C   C1711     1.0  0.81664  0.27685  0.58413  1.0000
  H   H3027     1.0  0.82534  0.36276  0.51767  1.0000
  C   C1712     1.0  0.83715  0.29951  0.58475  1.0000
  C   C1713     1.0  0.98072  0.30588  0.47520  1.0000
  H   H3028     1.0  0.97731  0.32181  0.37242  1.0000
  C   C1714     1.0  0.95823  0.32822  0.50570  1.0000
  C   C1715     1.0  0.76173  0.24069  0.51049  1.0000
  H   H3029     1.0  0.96979  0.29794  0.47359  1.0000
  C   C1716     1.0  0.96007  0.43136  0.57504  1.0000
  H   H3030     1.0  0.86065  0.30269  0.44989  1.0000
  H   H3031     1.0  0.80949  0.34610  0.46956  1.0000
  H   H3032     1.0  0.85222  0.30102  0.50601  1.0000
  H   H3033     1.0  0.76452  0.34451  0.55315  1.0000
  H   H3034     1.0  0.80726  0.35895  0.53847  1.0000
  C   C1717     1.0  0.79762  0.32750  0.53117  1.0000
  C   C1718     1.0  0.50180  0.24823  0.34252  1.0000
  C   C1719     1.0  0.83386  0.36364  0.54354  1.0000
  H   H3035     1.0  0.91580  0.44233  0.35432  1.0000
  H   H3036     1.0  0.76717  0.30746  0.44753  1.0000
  H   H3037     1.0  0.91175  0.37731  0.61797  1.0000
  H   H3038     1.0  0.79728  0.27517  0.62317  1.0000
  H   H3039     1.0  0.84484  0.25666  0.45607  1.0000
  C   C1720     1.0  0.81585  0.32044  0.49046  1.0000
  C   C1721     1.0  0.81877  0.29501  0.58641  1.0000
  H   H3040     1.0  0.82924  0.32678  0.54893  1.0000
  H   H3041     1.0  0.94960  0.37877  0.36773  1.0000
  C   C1722     1.0  0.79105  0.32340  0.55289  1.0000
  H   H3042     1.0  0.95902  0.37901  0.51689  1.0000
  C   C1723     1.0  0.88120  0.41079  0.43256  1.0000
  H   H3043     1.0  0.79541  0.25438  0.47964  1.0000
  H   H3044     1.0  0.96266  0.44045  0.39327  1.0000
  C   C1724     1.0  0.82620  0.30235  0.52834  1.0000
  C   C1725     1.0  0.96242  0.36799  0.60590  1.0000
  C   C1726     1.0  0.82279  0.35538  0.53255  1.0000
  H   H3045     1.0  0.92522  0.41303  0.34633  1.0000
  C   C1727     1.0  0.92209  0.31015  0.46427  1.0000
  S   S400      1.0  0.93950  0.34002  0.38408  1.0000
  C   C1728     1.0  0.92748  0.43454  0.38775  1.0000
  C   C1729     1.0  0.89003  0.47381  0.35177  1.0000
  H   H3046     1.0  0.73295  0.30385  0.59482  1.0000
  H   H3047     1.0  0.96772  0.41918  0.41039  1.0000
  H   H3048     1.0  0.85679  0.30043  0.52937  1.0000
  C   C1730     1.0  0.96432  0.37994  0.58608  1.0000
  H   H3049     1.0  0.90393  0.47653  0.34282  1.0000
  H   H3050     1.0  0.84093  0.45596  0.30908  1.0000
  H   H3051     1.0  0.92112  0.44525  0.39723  1.0000
  H   H3052     1.0  0.99202  0.45441  0.60948  1.0000
  H   H3053     1.0  0.93522  0.44267  0.37486  1.0000
  H   H3054     1.0  0.96755  0.36505  0.45590  1.0000
  H   H3055     1.0  0.93665  0.33579  0.55145  1.0000
  C   C1731     1.0  0.85344  0.28568  0.58075  1.0000
  H   H3056     1.0  0.82270  0.24806  0.51829  1.0000
  H   H3057     1.0  0.97618  0.38798  0.58451  1.0000
  H   H3058     1.0  0.84600  0.26822  0.51482  1.0000
  H   H3059     1.0  0.56674  0.23301  0.35058  1.0000
  C   C1732     1.0  0.93831  0.32397  0.48440  1.0000
  C   C1733     1.0  0.82203  0.26957  0.39330  1.0000
  C   C1734     1.0  0.83294  0.26289  0.58052  1.0000
  S   S401      1.0  0.74901  0.24476  0.42159  1.0000
  C   C1735     1.0  0.75849  0.26662  0.62350  1.0000
  C   C1736     1.0  0.79358  0.23786  0.63333  1.0000
  H   H3060     1.0  0.82060  0.25507  0.39325  1.0000
  H   H3061     1.0  0.79965  0.27772  0.47801  1.0000
  Fe  Fe205     1.0  0.77058  0.23609  0.55432  1.0000
  H   H3062     1.0  0.94724  0.38369  0.30985  1.0000
  H   H3063     1.0  0.66860  0.23492  0.63456  1.0000
  H   H3064     1.0  0.95314  0.41183  0.38621  1.0000
  H   H3065     1.0  0.79806  0.24298  0.45131  1.0000
  H   H3066     1.0  0.99095  0.42887  0.57369  1.0000
  H   H3067     1.0  0.73953  0.27912  0.59217  1.0000
  H   H3068     1.0  0.94727  0.43734  0.41619  1.0000
  H   H3069     1.0  0.82895  0.29222  0.46255  1.0000
  C   C1737     1.0  0.96581  0.32762  0.58367  1.0000
  C   C1738     1.0  0.96046  0.33773  0.39373  1.0000
  H   H3070     1.0  0.92439  0.33966  0.46065  1.0000
  C   C1739     1.0  0.75601  0.24944  0.49313  1.0000
  H   H3071     1.0  0.74620  0.29708  0.62422  1.0000
  C   C1740     1.0  0.79914  0.29718  0.63769  1.0000
  C   C1741     1.0  0.97287  0.32767  0.47276  1.0000
  H   H3072     1.0  0.77948  0.26752  0.43648  1.0000
  H   H3073     1.0  0.97914  0.37984  0.38410  1.0000
  H   H3074     1.0  0.74660  0.25459  0.32189  1.0000
  H   H3075     1.0  0.77912  0.29593  0.62039  1.0000
  H   H3076     1.0  0.94656  0.35843  0.45135  1.0000
  C   C1742     1.0  0.98882  0.38283  0.37034  1.0000
  H   H3077     1.0  0.96734  0.28063  0.60272  1.0000
  C   C1743     1.0  0.97759  0.32831  0.38431  1.0000
  H   H3078     1.0  0.98281  0.40092  0.61298  1.0000
  C   C1744     1.0  0.95233  0.46710  0.32786  1.0000
  H   H3079     1.0  0.98077  0.44824  0.55684  1.0000
  H   H3080     1.0  0.75807  0.29317  0.59006  1.0000
  H   H3081     1.0  0.93650  0.47071  0.32842  1.0000
  C   C1745     1.0  0.80692  0.26329  0.47490  1.0000
  S   S402      1.0  0.83102  0.23955  0.57847  1.0000
  H   H3082     1.0  0.95758  0.41454  0.31035  1.0000
  C   C1746     1.0  0.71803  0.24065  0.62731  1.0000
  H   H3083     1.0  0.97661  0.45007  0.58152  1.0000
  H   H3084     1.0  0.80423  0.24557  0.63592  1.0000
  C   C1747     1.0  0.81327  0.47418  0.31336  1.0000
  H   H3085     1.0  0.97649  0.44651  0.31863  1.0000
  C   C1748     1.0  0.98642  0.41238  0.61879  1.0000
  S   S403      1.0  0.76830  0.23450  0.37924  1.0000
  C   C1749     1.0  0.75847  0.23880  0.47851  1.0000
  H   H3086     1.0  0.96512  0.45455  0.62913  1.0000
  C   C1750     1.0  0.99152  0.29520  0.59652  1.0000
  H   H3087     1.0  0.98186  0.29745  0.53401  1.0000
  C   C1751     1.0  0.98534  0.32870  0.58299  1.0000
  C   C1752     1.0  0.82191  0.25601  0.48830  1.0000
  H   H3088     1.0  0.50875  0.25257  0.32769  1.0000
  H   H3089     1.0  0.84750  0.41819  0.31222  1.0000
  H   H3090     1.0  0.88200  0.46784  0.34372  1.0000
  H   H3091     1.0  0.53462  0.23455  0.35675  1.0000
  H   H3092     1.0  0.72869  0.28229  0.62564  1.0000
  H   H3093     1.0  0.80213  0.24291  0.51131  1.0000
  C   C1753     1.0  0.95678  0.46918  0.62923  1.0000
  H   H3094     1.0  0.80324  0.26722  0.51248  1.0000
  H   H3095     1.0  0.75381  0.24554  0.46526  1.0000
  C   C1754     1.0  0.87837  0.41351  0.63428  1.0000
  C   C1755     1.0  0.74344  0.28488  0.61891  1.0000
  H   H3096     1.0  0.83167  0.26641  0.48650  1.0000
  C   C1756     1.0  0.96080  0.44964  0.31838  1.0000
  H   H3097     1.0  0.80876  0.30403  0.62546  1.0000
  H   H3098     1.0  0.83516  0.38323  0.33209  1.0000
  H   H3099     1.0  0.86349  0.42021  0.63405  1.0000
  H   H3100     1.0  0.86849  0.28280  0.43741  1.0000
  H   H3101     1.0  0.72359  0.24600  0.61274  1.0000
  H   H3102     1.0  0.98456  0.39797  0.36391  1.0000
  C   C1757     1.0  0.78717  0.28586  0.63080  1.0000
  H   H3103     1.0  0.98686  0.37346  0.36097  1.0000
  H   H3104     1.0  0.97416  0.42451  0.61895  1.0000
  C   C1758     1.0  0.70150  0.25103  0.63702  1.0000
  H   H3105     1.0  0.93185  0.39042  0.63399  1.0000
  H   H3106     1.0  0.98900  0.36797  0.63640  1.0000
  H   H3107     1.0  0.77032  0.24570  0.31000  1.0000
  H   H3108     1.0  0.99073  0.29223  0.55598  1.0000
  C   C1759     1.0  0.75694  0.25631  0.30837  1.0000
  S   S404      1.0  0.89716  0.43576  0.30543  1.0000
  H   H3109     1.0  0.67809  0.23278  0.38203  1.0000
  H   H3110     1.0  0.76059  0.27086  0.30546  1.0000
  Fe  Fe206     1.0  0.91426  0.43914  0.67765  1.0000
  S   S405      1.0  0.90324  0.42628  0.70739  1.0000
  C   C1760     1.0  0.71188  0.32826  0.78982  1.0000
  H   H3111     1.0  0.53640  0.25708  0.81439  1.0000
  S   S406      1.0  0.90834  0.46533  0.72075  1.0000
  C   C1761     1.0  0.63781  0.26901  0.90750  1.0000
  Fe  Fe207     1.0  0.92670  0.43722  0.71539  1.0000
  S   S407      1.0  0.94512  0.41673  0.73461  1.0000
  Fe  Fe208     1.0  0.88581  0.45546  0.71002  1.0000
  S   S408      1.0  0.85397  0.46032  0.72251  1.0000
  S   S409      1.0  0.93896  0.44808  0.68565  1.0000
  S   S410      1.0  0.89509  0.46773  0.67931  1.0000
  Fe  Fe209     1.0  0.75875  0.46867  0.83460  1.0000
  S   S411      1.0  0.78530  0.45962  0.84775  1.0000
  S   S412      1.0  0.67370  0.25791  0.66788  1.0000
  Fe  Fe210     1.0  0.75638  0.42797  0.83177  1.0000
  S   S413      1.0  0.78306  0.41610  0.84455  1.0000
  S   S414      1.0  0.74444  0.40514  0.82319  1.0000
  Fe  Fe211     1.0  0.77036  0.43607  0.86522  1.0000
  S   S415      1.0  0.76827  0.42453  0.89649  1.0000
  Fe  Fe212     1.0  0.79555  0.44064  0.82570  1.0000
  S   S416      1.0  0.82686  0.43715  0.81101  1.0000
  S   S417      1.0  0.74272  0.44646  0.85372  1.0000
  S   S418      1.0  0.76987  0.45118  0.81132  1.0000
  Fe  Fe213     1.0  0.65049  0.36503  0.83605  1.0000
  S   S419      1.0  0.67152  0.33804  0.83195  1.0000
  S   S420      1.0  0.65779  0.39440  0.83363  1.0000
  Fe  Fe214     1.0  0.61629  0.34386  0.84857  1.0000
  S   S421      1.0  0.58514  0.34366  0.86132  1.0000
  Fe  Fe215     1.0  0.65472  0.32549  0.85952  1.0000
  S   S422      1.0  0.66870  0.30685  0.88326  1.0000
  H   H3112     1.0  0.84235  0.36530  0.71936  1.0000
  S   S423      1.0  0.63527  0.35286  0.86435  1.0000
  S   S424      1.0  0.62937  0.35878  0.82047  1.0000
  H   H3113     1.0  0.60873  0.32969  0.93103  1.0000
  C   C1762     1.0  0.97852  0.47743  0.64709  1.0000
  H   H3114     1.0  0.70376  0.40964  0.91434  1.0000
  S   S425      1.0  0.52574  0.36997  0.80497  1.0000
  H   H3115     1.0  0.54444  0.29959  0.91038  1.0000
  H   H3116     1.0  0.69606  0.41284  0.76670  1.0000
  H   H3117     1.0  0.52009  0.24093  0.79824  1.0000
  H   H3118     1.0  0.72691  0.32750  0.78200  1.0000
  H   H3119     1.0  0.70391  0.36473  0.79786  1.0000
  C   C1763     1.0  0.56872  0.35149  0.84562  1.0000
  C   C1764     1.0  0.55118  0.34485  0.85010  1.0000
  C   C1765     1.0  0.53802  0.35043  0.83758  1.0000
  C   C1766     1.0  0.54212  0.36307  0.82075  1.0000
  C   C1767     1.0  0.55953  0.37000  0.81638  1.0000
  C   C1768     1.0  0.57290  0.36411  0.82876  1.0000
  H   H3120     1.0  0.54791  0.33503  0.86305  1.0000
  H   H3121     1.0  0.52472  0.34489  0.84100  1.0000
  H   H3122     1.0  0.56270  0.37981  0.80336  1.0000
  H   H3123     1.0  0.58630  0.36947  0.82537  1.0000
  C   C1769     1.0  0.66357  0.31150  0.90663  1.0000
  C   C1770     1.0  0.65178  0.32824  0.91192  1.0000
  C   C1771     1.0  0.64853  0.33118  0.93085  1.0000
  H   H3124     1.0  0.64505  0.33876  0.90152  1.0000
  H   H3125     1.0  0.63933  0.34400  0.93498  1.0000
  C   C1772     1.0  0.72018  0.40205  0.82880  1.0000
  C   C1773     1.0  0.71603  0.38416  0.82839  1.0000
  C   C1774     1.0  0.69690  0.38148  0.83075  1.0000
  C   C1775     1.0  0.68175  0.39681  0.83306  1.0000
  C   C1776     1.0  0.68581  0.41460  0.83403  1.0000
  C   C1777     1.0  0.70499  0.41719  0.83211  1.0000
  H   H3126     1.0  0.72774  0.37239  0.82589  1.0000
  H   H3127     1.0  0.69392  0.36769  0.83026  1.0000
  H   H3128     1.0  0.67412  0.42654  0.83585  1.0000
  H   H3129     1.0  0.70807  0.43107  0.83230  1.0000
  C   C1778     1.0  0.77200  0.43862  0.91180  1.0000
  C   C1779     1.0  0.78003  0.45515  0.90484  1.0000
  C   C1780     1.0  0.78243  0.46627  0.91741  1.0000
  C   C1781     1.0  0.77643  0.46118  0.93694  1.0000
  C   C1782     1.0  0.76797  0.44493  0.94388  1.0000
  C   C1783     1.0  0.76606  0.43353  0.93135  1.0000
  H   H3130     1.0  0.78457  0.45923  0.88982  1.0000
  H   H3131     1.0  0.64532  0.23513  0.64937  1.0000
  H   H3132     1.0  0.76343  0.44086  0.95892  1.0000
  H   H3133     1.0  0.75998  0.42072  0.93686  1.0000
  C   C1784     1.0  0.74340  0.38371  0.87662  1.0000
  H   H3134     1.0  0.80887  0.37063  0.71274  1.0000
  C   C1785     1.0  0.70060  0.39988  0.77696  1.0000
  Fe  Fe216     1.0  0.64934  0.33060  0.81832  1.0000
  H   H3135     1.0  0.69362  0.40331  0.79121  1.0000
  C   C1786     1.0  0.70495  0.36452  0.78258  1.0000
  H   H3136     1.0  0.49816  0.32777  0.87939  1.0000
  C   C1787     1.0  0.84662  0.45378  0.74712  1.0000
  C   C1788     1.0  0.82687  0.45613  0.75478  1.0000
  C   C1789     1.0  0.82058  0.45091  0.77431  1.0000
  C   C1790     1.0  0.83403  0.44343  0.78634  1.0000
  C   C1791     1.0  0.85378  0.44106  0.77866  1.0000
  C   C1792     1.0  0.86007  0.44615  0.75912  1.0000
  H   H3137     1.0  0.81637  0.46195  0.74557  1.0000
  H   H3138     1.0  0.80535  0.45260  0.78005  1.0000
  H   H3139     1.0  0.86428  0.43524  0.78787  1.0000
  H   H3140     1.0  0.87533  0.44421  0.75339  1.0000
  C   C1793     1.0  0.96855  0.42059  0.73406  1.0000
  C   C1794     1.0  0.97976  0.40816  0.74645  1.0000
  H   H3141     1.0  0.53033  0.42202  0.95428  1.0000
  S   S426      1.0  0.92421  0.42157  0.65405  1.0000
  H   H3142     1.0  0.74318  0.41524  0.77815  1.0000
  C   C1795     1.0  0.97636  0.43539  0.72137  1.0000
  H   H3143     1.0  0.97377  0.39677  0.75637  1.0000
  H   H3144     1.0  0.94168  0.37951  0.66386  1.0000
  H   H3145     1.0  0.84318  0.47816  0.79688  1.0000
  H   H3146     1.0  0.96763  0.44522  0.71201  1.0000
  H   H3147     1.0  0.62645  0.30149  0.92189  1.0000
  Fe  Fe217     1.0  0.65596  0.24399  0.69452  1.0000
  H   H3148     1.0  0.60346  0.27504  0.78235  1.0000
  C   C1796     1.0  0.66702  0.38974  0.89047  1.0000
  C   C1797     1.0  0.72868  0.47284  0.90614  1.0000
  H   H3149     1.0  0.71570  0.45055  0.94205  1.0000
  S   S427      1.0  0.65600  0.32236  0.78898  1.0000
  S   S428      1.0  0.63474  0.31529  0.84559  1.0000
  H   H3150     1.0  0.73757  0.40093  0.93612  1.0000
  H   H3151     1.0  0.60775  0.37540  0.76360  1.0000
  C   C1798     1.0  0.74358  0.26245  0.65674  1.0000
  H   H3152     1.0  0.71170  0.32866  0.80489  1.0000
  H   H3153     1.0  0.58009  0.28589  0.77682  1.0000
  H   H3154     1.0  0.71429  0.25247  0.68620  1.0000
  H   H3155     1.0  0.88358  0.43294  0.65058  1.0000
  C   C1799     1.0  0.53212  0.28218  0.75550  1.0000
  H   H3156     1.0  0.64838  0.27117  0.91554  1.0000
  H   H3157     1.0  0.60517  0.29549  0.80849  1.0000
  C   C1800     1.0  0.67182  0.29773  0.92035  1.0000
  S   S429      1.0  0.58280  0.25178  0.71572  1.0000
  H   H3158     1.0  0.87139  0.37034  0.65669  1.0000
  H   H3159     1.0  0.54954  0.32159  0.89514  1.0000
  C   C1801     1.0  0.60012  0.30605  0.77345  1.0000
  H   H3160     1.0  0.66729  0.35941  0.89197  1.0000
  C   C1802     1.0  0.65294  0.30074  0.78326  1.0000
  H   H3161     1.0  0.82759  0.42824  0.68289  1.0000
  C   C1803     1.0  0.94426  0.37382  0.67843  1.0000
  H   H3162     1.0  0.78105  0.27004  0.65926  1.0000
  H   H3163     1.0  0.61460  0.26904  0.93107  1.0000
  H   H3164     1.0  0.74058  0.46180  0.90095  1.0000
  C   C1804     1.0  0.92466  0.37591  0.69147  1.0000
  H   H3165     1.0  0.68093  0.28477  0.91646  1.0000
  C   C1805     1.0  0.66808  0.30033  0.93919  1.0000
  H   H3166     1.0  0.63935  0.25346  0.90766  1.0000
  H   H3167     1.0  0.59907  0.31544  0.75961  1.0000
  N   N93       1.0  0.70316  0.45082  0.91747  1.0000
  C   C1806     1.0  0.55942  0.24034  0.78621  1.0000
  C   C1807     1.0  0.68385  0.44867  0.91414  1.0000
  C   C1808     1.0  0.70126  0.45281  0.93789  1.0000
  C   C1809     1.0  0.71826  0.43350  0.91388  1.0000
  C   C1810     1.0  0.71233  0.41389  0.92315  1.0000
  C   C1811     1.0  0.98425  0.35891  0.64997  1.0000
  H   H3168     1.0  0.58326  0.33520  0.93444  1.0000
  C   C1812     1.0  0.68333  0.44524  0.89410  1.0000
  C   C1813     1.0  0.66379  0.44077  0.89320  1.0000
  H   H3169     1.0  0.82913  0.45882  0.69229  1.0000
  C   C1814     1.0  0.60225  0.28136  0.75270  1.0000
  H   H3170     1.0  0.68552  0.45822  0.88343  1.0000
  C   C1815     1.0  0.97291  0.39933  0.65292  1.0000
  H   H3171     1.0  0.67817  0.43692  0.92474  1.0000
  C   C1816     1.0  0.77300  0.27662  0.64745  1.0000
  H   H3172     1.0  0.61030  0.31057  0.95788  1.0000
  H   H3173     1.0  0.69408  0.44137  0.94740  1.0000
  H   H3174     1.0  0.72319  0.43339  0.89848  1.0000
  H   H3175     1.0  0.73143  0.43419  0.91910  1.0000
  H   H3176     1.0  0.70340  0.41448  0.93721  1.0000
  C   C1817     1.0  0.59607  0.32865  0.92516  1.0000
  H   H3177     1.0  0.84636  0.47552  0.82664  1.0000
  H   H3178     1.0  0.58257  0.24081  0.76108  1.0000
  C   C1818     1.0  0.77414  0.24225  0.64677  1.0000
  H   H3179     1.0  0.69460  0.43322  0.88983  1.0000
  S   S430      1.0  0.54731  0.34404  0.95980  1.0000
  H   H3180     1.0  0.50046  0.38473  0.87163  1.0000
  H   H3181     1.0  0.96392  0.41301  0.65649  1.0000
  H   H3182     1.0  0.87820  0.39797  0.67944  1.0000
  S   S431      1.0  0.63392  0.26103  0.71424  1.0000
  H   H3183     1.0  0.98207  0.40974  0.68124  1.0000
  H   H3184     1.0  0.66079  0.42783  0.90358  1.0000
  N   N94       1.0  0.58804  0.31553  0.78951  1.0000
  H   H3185     1.0  0.71703  0.33560  0.89422  1.0000
  C   C1819     1.0  0.59662  0.33236  0.79077  1.0000
  C   C1820     1.0  0.58971  0.30133  0.80758  1.0000
  C   C1821     1.0  0.56697  0.32155  0.78764  1.0000
  C   C1822     1.0  0.56234  0.32717  0.76726  1.0000
  C   C1823     1.0  0.65646  0.29860  0.76418  1.0000
  C   C1824     1.0  0.58029  0.30903  0.82617  1.0000
  C   C1825     1.0  0.59677  0.34884  0.77365  1.0000
  C   C1826     1.0  0.60809  0.36356  0.77587  1.0000
  C   C1827     1.0  0.54077  0.33395  0.76732  1.0000
  C   C1828     1.0  0.65656  0.31704  0.94456  1.0000
  C   C1829     1.0  0.57872  0.29288  0.84311  1.0000
  H   H3186     1.0  0.87658  0.36391  0.69814  1.0000
  H   H3187     1.0  0.92632  0.37094  0.70648  1.0000
  H   H3188     1.0  0.58854  0.33923  0.80292  1.0000
  H   H3189     1.0  0.61170  0.32737  0.79349  1.0000
  H   H3190     1.0  0.96882  0.35865  0.65086  1.0000
  H   H3191     1.0  0.58303  0.28883  0.80773  1.0000
  H   H3192     1.0  0.55872  0.30992  0.79482  1.0000
  H   H3193     1.0  0.56016  0.33376  0.79521  1.0000
  H   H3194     1.0  0.56672  0.31475  0.75983  1.0000
  H   H3195     1.0  0.56994  0.33865  0.75874  1.0000
  C   C1830     1.0  0.53927  0.29612  0.73809  1.0000
  C   C1831     1.0  0.59071  0.29861  0.94578  1.0000
  H   H3196     1.0  0.56560  0.31729  0.82524  1.0000
  H   H3197     1.0  0.58926  0.31836  0.82914  1.0000
  H   H3198     1.0  0.60354  0.34373  0.76021  1.0000
  H   H3199     1.0  0.58181  0.35640  0.77277  1.0000
  H   H3200     1.0  0.60162  0.36962  0.78893  1.0000
  H   H3201     1.0  0.62337  0.35689  0.77649  1.0000
  C   C1832     1.0  0.85266  0.42254  0.69743  1.0000
  H   H3202     1.0  0.53808  0.33851  0.75258  1.0000
  H   H3203     1.0  0.53270  0.32219  0.77413  1.0000
  H   H3204     1.0  0.53524  0.34629  0.77485  1.0000
  H   H3205     1.0  0.57259  0.29906  0.85617  1.0000
  H   H3206     1.0  0.72659  0.38807  0.78958  1.0000
  C   C1833     1.0  0.50100  0.42939  0.94995  1.0000
  H   H3207     1.0  0.59318  0.28425  0.84463  1.0000
  C   C1834     1.0  0.70386  0.34457  0.92700  1.0000
  H   H3208     1.0  0.56902  0.28352  0.84153  1.0000
  N   N95       1.0  0.69365  0.38285  0.77353  1.0000
  C   C1835     1.0  0.67275  0.38378  0.78300  1.0000
  C   C1836     1.0  0.69450  0.38343  0.75272  1.0000
  C   C1837     1.0  0.69877  0.34581  0.78109  1.0000
  C   C1838     1.0  0.65913  0.40321  0.77841  1.0000
  H   H3209     1.0  0.83417  0.37949  0.73755  1.0000
  C   C1839     1.0  0.63814  0.40187  0.78707  1.0000
  H   H3210     1.0  0.67167  0.38037  0.79864  1.0000
  H   H3211     1.0  0.66634  0.37274  0.77922  1.0000
  H   H3212     1.0  0.68656  0.37267  0.75062  1.0000
  C   C1840     1.0  0.72469  0.25955  0.69023  1.0000
  H   H3213     1.0  0.68393  0.34519  0.78887  1.0000
  H   H3214     1.0  0.69936  0.34462  0.76618  1.0000
  H   H3215     1.0  0.65973  0.40788  0.76301  1.0000
  H   H3216     1.0  0.66303  0.41455  0.78418  1.0000
  H   H3217     1.0  0.66115  0.31002  0.75333  1.0000
  H   H3218     1.0  0.70665  0.31514  0.78913  1.0000
  H   H3219     1.0  0.91544  0.36723  0.68788  1.0000
  H   H3220     1.0  0.63638  0.39846  0.80270  1.0000
  H   H3221     1.0  0.62877  0.41581  0.78323  1.0000
  H   H3222     1.0  0.63332  0.39076  0.78178  1.0000
  H   H3223     1.0  0.91733  0.39106  0.68959  1.0000
  C   C1841     1.0  0.71830  0.32109  0.86396  1.0000
  H   H3224     1.0  0.64479  0.39157  0.87377  1.0000
  H   H3225     1.0  0.69780  0.48096  0.90557  1.0000
  C   C1842     1.0  0.72981  0.39814  0.92572  1.0000
  C   C1843     1.0  0.64798  0.26684  0.77283  1.0000
  N   N96       1.0  0.85422  0.40107  0.70247  1.0000
  C   C1844     1.0  0.71474  0.38069  0.74032  1.0000
  H   H3226     1.0  0.95040  0.39875  0.68654  1.0000
  N   N97       1.0  0.54689  0.40928  0.91623  1.0000
  C   C1845     1.0  0.55128  0.39089  0.90847  1.0000
  C   C1846     1.0  0.56280  0.40936  0.92672  1.0000
  C   C1847     1.0  0.52832  0.40920  0.93041  1.0000
  C   C1848     1.0  0.54438  0.42687  0.90115  1.0000
  C   C1849     1.0  0.55647  0.42561  0.88110  1.0000
  C   C1850     1.0  0.53504  0.38685  0.89975  1.0000
  C   C1851     1.0  0.52257  0.42574  0.94208  1.0000
  C   C1852     1.0  0.58277  0.41173  0.91462  1.0000
  H   H3227     1.0  0.71901  0.42346  0.78937  1.0000
  C   C1853     1.0  0.55448  0.44513  0.86828  1.0000
  C   C1854     1.0  0.54285  0.37152  0.88732  1.0000
  H   H3228     1.0  0.97307  0.44808  0.65812  1.0000
  H   H3229     1.0  0.55430  0.37843  0.91988  1.0000
  H   H3230     1.0  0.56468  0.39015  0.89779  1.0000
  H   H3231     1.0  0.55906  0.42121  0.93497  1.0000
  H   H3232     1.0  0.56471  0.39599  0.93727  1.0000
  H   H3233     1.0  0.52896  0.39550  0.94066  1.0000
  H   H3234     1.0  0.84159  0.47422  0.86114  1.0000
  H   H3235     1.0  0.52905  0.43103  0.89910  1.0000
  H   H3236     1.0  0.54748  0.43931  0.90589  1.0000
  H   H3237     1.0  0.55151  0.41575  0.87426  1.0000
  H   H3238     1.0  0.57198  0.42040  0.88135  1.0000
  H   H3239     1.0  0.52372  0.38158  0.91119  1.0000
  H   H3240     1.0  0.52803  0.39986  0.89120  1.0000
  H   H3241     1.0  0.55848  0.33186  0.92195  1.0000
  H   H3242     1.0  0.63990  0.25750  0.80276  1.0000
  H   H3243     1.0  0.58765  0.40161  0.90457  1.0000
  H   H3244     1.0  0.58213  0.42654  0.90662  1.0000
  H   H3245     1.0  0.82780  0.39586  0.69658  1.0000
  H   H3246     1.0  0.66384  0.43816  0.87883  1.0000
  H   H3247     1.0  0.73741  0.35532  0.88364  1.0000
  H   H3248     1.0  0.56015  0.45544  0.87394  1.0000
  H   H3249     1.0  0.56288  0.44375  0.85396  1.0000
  H   H3250     1.0  0.53914  0.45076  0.86698  1.0000
  H   H3251     1.0  0.54987  0.35821  0.89549  1.0000
  H   H3252     1.0  0.53098  0.36805  0.88195  1.0000
  H   H3253     1.0  0.55348  0.37663  0.87501  1.0000
  H   H3254     1.0  0.75452  0.26264  0.68259  1.0000
  C   C1855     1.0  0.70928  0.46814  0.90422  1.0000
  H   H3255     1.0  0.88660  0.39131  0.74705  1.0000
  C   C1856     1.0  0.70980  0.37568  0.88441  1.0000
  H   H3256     1.0  0.69305  0.33272  0.89572  1.0000
  H   H3257     1.0  0.68354  0.34620  0.95346  1.0000
  H   H3258     1.0  0.72056  0.36313  0.77675  1.0000
  H   H3259     1.0  0.63780  0.38371  0.89883  1.0000
  H   H3260     1.0  0.52733  0.30815  0.73508  1.0000
  H   H3261     1.0  0.73488  0.27712  0.65556  1.0000
  H   H3262     1.0  0.72500  0.38420  0.93122  1.0000
  H   H3263     1.0  0.50843  0.24266  0.76598  1.0000
  H   H3264     1.0  0.60017  0.37098  0.89324  1.0000
  C   C1857     1.0  0.83845  0.45433  0.67930  1.0000
  H   H3265     1.0  0.61764  0.28257  0.74755  1.0000
  H   H3266     1.0  0.83921  0.45195  0.85548  1.0000
  H   H3267     1.0  0.95025  0.35831  0.67965  1.0000
  C   C1858     1.0  0.72252  0.39797  0.77680  1.0000
  H   H3268     1.0  0.67299  0.46171  0.91641  1.0000
  H   H3269     1.0  0.86638  0.40108  0.76336  1.0000
  H   H3270     1.0  0.70163  0.46803  0.96928  1.0000
  C   C1859     1.0  0.69904  0.34661  0.94784  1.0000
  C   C1860     1.0  0.74458  0.25548  0.67800  1.0000
  Fe  Fe218     1.0  0.91887  0.47551  0.69004  1.0000
  H   H3271     1.0  0.52024  0.27678  0.75230  1.0000
  H   H3272     1.0  0.49921  0.28429  0.80636  1.0000
  H   H3273     1.0  0.85037  0.42922  0.66724  1.0000
  H   H3274     1.0  0.51016  0.27982  0.82711  1.0000
  C   C1861     1.0  0.64444  0.26900  0.79192  1.0000
  C   C1862     1.0  0.73079  0.36931  0.88796  1.0000
  H   H3275     1.0  0.52620  0.29035  0.76724  1.0000
  H   H3276     1.0  0.58329  0.34403  0.90053  1.0000
  H   H3277     1.0  0.55142  0.30196  0.74043  1.0000
  H   H3278     1.0  0.73991  0.39732  0.91215  1.0000
  H   H3279     1.0  0.61742  0.30519  0.90065  1.0000
  H   H3280     1.0  0.67419  0.28928  0.94970  1.0000
  C   C1863     1.0  0.55872  0.35984  0.96659  1.0000
  H   H3281     1.0  0.82326  0.46862  0.82900  1.0000
  C   C1864     1.0  0.83139  0.47676  0.83461  1.0000
  H   H3282     1.0  0.72811  0.37671  0.71171  1.0000
  H   H3283     1.0  0.68679  0.39738  0.74628  1.0000
  H   H3284     1.0  0.51602  0.40977  0.92318  1.0000
  C   C1865     1.0  0.69400  0.24416  0.65589  1.0000
  H   H3285     1.0  0.84492  0.42934  0.70978  1.0000
  H   H3286     1.0  0.52626  0.43934  0.93350  1.0000
  H   H3287     1.0  0.70413  0.39067  0.71360  1.0000
  H   H3288     1.0  0.96070  0.37620  0.69826  1.0000
  C   C1866     1.0  0.52745  0.26606  0.80411  1.0000
  C   C1867     1.0  0.72772  0.41723  0.77701  1.0000
  H   H3289     1.0  0.72524  0.42737  0.76384  1.0000
  H   H3290     1.0  0.71910  0.27515  0.68868  1.0000
  H   H3291     1.0  0.72448  0.36796  0.74627  1.0000
  H   H3292     1.0  0.54414  0.28885  0.72559  1.0000
  C   C1868     1.0  0.69177  0.36098  0.91493  1.0000
  H   H3293     1.0  0.73162  0.39230  0.76443  1.0000
  H   H3294     1.0  0.96405  0.39368  0.64547  1.0000
  H   H3295     1.0  0.63930  0.40848  0.88969  1.0000
  Fe  Fe219     1.0  0.61466  0.24063  0.71381  1.0000
  H   H3296     1.0  0.71016  0.37912  0.86888  1.0000
  H   H3297     1.0  0.70762  0.36500  0.72118  1.0000
  C   C1869     1.0  0.71349  0.37813  0.72051  1.0000
  H   H3298     1.0  0.61566  0.30377  0.77438  1.0000
  H   H3299     1.0  0.72121  0.39363  0.73859  1.0000
  C   C1870     1.0  0.70772  0.34098  0.86735  1.0000
  C   C1871     1.0  0.60062  0.36141  0.90711  1.0000
  H   H3300     1.0  0.73120  0.36838  0.90308  1.0000
  H   H3301     1.0  0.67962  0.37091  0.87067  1.0000
  C   C1872     1.0  0.83258  0.46727  0.85506  1.0000
  H   H3302     1.0  0.72013  0.32027  0.84875  1.0000
  H   H3303     1.0  0.60736  0.27365  0.90831  1.0000
  H   H3304     1.0  0.70995  0.30998  0.87224  1.0000
  H   H3305     1.0  0.67522  0.47525  0.93971  1.0000
  C   C1873     1.0  0.61728  0.27689  0.91641  1.0000
  C   C1874     1.0  0.54856  0.26577  0.76105  1.0000
  H   H3306     1.0  0.83121  0.46124  0.66706  1.0000
  C   C1875     1.0  0.67740  0.36965  0.88628  1.0000
  N   N98       1.0  0.69611  0.36201  0.89362  1.0000
  H   H3307     1.0  0.71952  0.34424  0.92222  1.0000
  H   H3308     1.0  0.49258  0.43456  0.93828  1.0000
  C   C1876     1.0  0.70357  0.34230  0.88865  1.0000
  H   H3309     1.0  0.55858  0.27263  0.76589  1.0000
  H   H3310     1.0  0.75795  0.37985  0.88062  1.0000
  H   H3311     1.0  0.60076  0.26644  0.75291  1.0000
  H   H3312     1.0  0.64413  0.28725  0.81185  1.0000
  C   C1877     1.0  0.64684  0.28585  0.79712  1.0000
  H   H3313     1.0  0.98516  0.45940  0.68255  1.0000
  H   H3314     1.0  0.60035  0.39331  0.93442  1.0000
  H   H3315     1.0  0.73278  0.31810  0.86801  1.0000
  H   H3316     1.0  0.58676  0.34219  0.96168  1.0000
  C   C1878     1.0  0.53713  0.23598  0.70317  1.0000
  C   C1879     1.0  0.64594  0.39355  0.88802  1.0000
  H   H3317     1.0  0.61206  0.41124  0.91817  1.0000
  C   C1880     1.0  0.65393  0.28179  0.75897  1.0000
  H   H3318     1.0  0.69403  0.34365  0.86183  1.0000
  H   H3319     1.0  0.80062  0.38529  0.73104  1.0000
  C   C1881     1.0  0.59569  0.28632  0.77252  1.0000
  H   H3320     1.0  0.65674  0.28034  0.74424  1.0000
  H   H3321     1.0  0.58943  0.36771  0.91805  1.0000
  H   H3322     1.0  0.81030  0.36026  0.73702  1.0000
  H   H3323     1.0  0.70447  0.38969  0.88924  1.0000
  H   H3324     1.0  0.71687  0.35133  0.85902  1.0000
  C   C1882     1.0  0.54509  0.31481  0.90997  1.0000
  H   H3325     1.0  0.67428  0.40084  0.88048  1.0000
  C   C1883     1.0  0.83413  0.39643  0.70899  1.0000
  H   H3326     1.0  0.69303  0.37466  0.91873  1.0000
  H   H3327     1.0  0.59391  0.41799  0.93770  1.0000
  H   H3328     1.0  0.59341  0.29101  0.74268  1.0000
  H   H3329     1.0  0.74514  0.38357  0.86129  1.0000
  H   H3330     1.0  0.67652  0.35916  0.92066  1.0000
  N   N99       1.0  0.76268  0.26225  0.64337  1.0000
  N   N100      1.0  0.59530  0.30805  0.92543  1.0000
  C   C1884     1.0  0.86817  0.37087  0.68679  1.0000
  C   C1885     1.0  0.59815  0.40836  0.92703  1.0000
  Fe  Fe220     1.0  0.51518  0.35166  0.96271  1.0000
  H   H3331     1.0  0.66720  0.39151  0.90504  1.0000
  H   H3332     1.0  0.73705  0.39843  0.87931  1.0000
  S   S432      1.0  0.78030  0.47505  0.95232  1.0000
  H   H3333     1.0  0.88194  0.39575  0.71132  1.0000
  H   H3334     1.0  0.70052  0.33055  0.92616  1.0000
  H   H3335     1.0  0.65211  0.45299  0.89625  1.0000
  H   H3336     1.0  0.85239  0.45937  0.67720  1.0000
  C   C1886     1.0  0.87969  0.36466  0.66842  1.0000
  H   H3337     1.0  0.85439  0.36550  0.68953  1.0000
  H   H3338     1.0  0.51285  0.26204  0.78281  1.0000
  H   H3339     1.0  0.57745  0.30691  0.95311  1.0000
  H   H3340     1.0  0.70768  0.33461  0.95619  1.0000
  C   C1887     1.0  0.59709  0.34183  0.90570  1.0000
  H   H3341     1.0  0.89368  0.36980  0.66458  1.0000
  H   H3342     1.0  0.86725  0.42655  0.69389  1.0000
  H   H3343     1.0  0.55687  0.26087  0.74786  1.0000
  H   H3344     1.0  0.86507  0.41846  0.73127  1.0000
  C   C1888     1.0  0.86418  0.39289  0.68491  1.0000
  H   H3345     1.0  0.86638  0.37882  0.75622  1.0000
  C   C1889     1.0  0.86678  0.39405  0.71745  1.0000
  H   H3346     1.0  0.72946  0.47334  0.92092  1.0000
  H   H3347     1.0  0.85549  0.39808  0.67343  1.0000
  C   C1890     1.0  0.86074  0.40421  0.73495  1.0000
  H   H3348     1.0  0.54276  0.25942  0.71363  1.0000
  C   C1891     1.0  0.84181  0.43261  0.68090  1.0000
  S   S433      1.0  0.49656  0.29426  0.86379  1.0000
  H   H3349     1.0  0.88264  0.34882  0.67013  1.0000
  H   H3350     1.0  0.61996  0.28706  0.95252  1.0000
  C   C1892     1.0  0.81165  0.37329  0.72619  1.0000
  Fe  Fe221     1.0  0.64474  0.23915  0.73778  1.0000
  C   C1893     1.0  0.61460  0.29873  0.91585  1.0000
  C   C1894     1.0  0.83190  0.37784  0.72355  1.0000
  H   H3351     1.0  0.84491  0.40637  0.73988  1.0000
  S   S434      1.0  0.51030  0.32116  0.81253  1.0000
  C   C1895     1.0  0.90903  0.41241  0.64356  1.0000
  H   H3352     1.0  0.53040  0.32220  0.91531  1.0000
  H   H3353     1.0  0.82429  0.40812  0.71577  1.0000
  H   H3354     1.0  0.78899  0.47884  0.91200  1.0000
  H   H3355     1.0  0.53446  0.27847  0.79686  1.0000
  H   H3356     1.0  0.58379  0.31185  0.89966  1.0000
  H   H3357     1.0  0.86770  0.37848  0.72255  1.0000
  Fe  Fe222     1.0  0.50218  0.35241  0.81343  1.0000
  C   C1896     1.0  0.49278  0.31712  0.89075  1.0000
  H   H3358     1.0  0.73482  0.25346  0.65284  1.0000
  C   C1897     1.0  0.87068  0.39308  0.75135  1.0000
  C   C1898     1.0  0.60658  0.29654  0.95786  1.0000
  C   C1899     1.0  0.88968  0.42071  0.64367  1.0000
  H   H3359     1.0  0.55384  0.30983  0.93691  1.0000
  H   H3360     1.0  0.60880  0.33580  0.89510  1.0000
  H   H3361     1.0  0.60401  0.36530  0.96769  1.0000
  S   S435      1.0  0.64470  0.24526  0.76712  1.0000
  H   H3362     1.0  0.61497  0.36019  0.91094  1.0000
  S   S436      1.0  0.50121  0.35547  0.93734  1.0000
  C   C1900     1.0  0.68980  0.47200  0.94349  1.0000
  H   H3363     1.0  0.57895  0.29116  0.91610  1.0000
  H   H3364     1.0  0.64122  0.27622  0.89261  1.0000
  H   H3365     1.0  0.71118  0.46619  0.88928  1.0000
  S   S437      1.0  0.64448  0.37499  0.96346  1.0000
  C   C1901     1.0  0.52514  0.25413  0.78979  1.0000
  H   H3366     1.0  0.59841  0.24022  0.78810  1.0000
  C   C1902     1.0  0.57990  0.30641  0.91506  1.0000
  H   H3367     1.0  0.76244  0.28881  0.65264  1.0000
  N   N101      1.0  0.97706  0.38577  0.67072  1.0000
  H   H3368     1.0  0.71981  0.41374  0.96701  1.0000
  C   C1903     1.0  0.50795  0.27330  0.81553  1.0000
  H   H3369     1.0  0.81798  0.46806  0.86389  1.0000
  C   C1904     1.0  0.98541  0.45579  0.65385  1.0000
  C   C1905     1.0  0.55915  0.31646  0.92223  1.0000
  H   H3370     1.0  0.98024  0.38891  0.71064  1.0000
  H   H3371     1.0  0.72566  0.25393  0.70532  1.0000
  H   H3372     1.0  0.70240  0.36023  0.94977  1.0000
  C   C1906     1.0  0.57871  0.35557  0.96542  1.0000
  C   C1907     1.0  0.95821  0.38422  0.68413  1.0000
  N   N102      1.0  0.54295  0.24887  0.77554  1.0000
  C   C1908     1.0  0.56874  0.23903  0.70780  1.0000
  H   H3373     1.0  0.58716  0.28424  0.94673  1.0000
  C   C1909     1.0  0.98813  0.36636  0.66697  1.0000
  H   H3374     1.0  0.49991  0.26142  0.82198  1.0000
  C   C1910     1.0  0.68735  0.47130  0.96478  1.0000
  H   H3375     1.0  0.78963  0.30857  0.64500  1.0000
  H   H3376     1.0  0.49772  0.44049  0.95906  1.0000
  C   C1911     1.0  0.54896  0.24606  0.70872  1.0000
  C   C1912     1.0  0.99090  0.40476  0.63867  1.0000
  H   H3377     1.0  0.99091  0.32858  0.66170  1.0000
  S   S438      1.0  0.65137  0.31843  0.96884  1.0000
  H   H3378     1.0  0.94599  0.46813  0.64259  1.0000
  H   H3379     1.0  0.56321  0.25147  0.79245  1.0000
  H   H3380     1.0  0.52189  0.24155  0.70394  1.0000
  H   H3381     1.0  0.52370  0.24946  0.74379  1.0000
  H   H3382     1.0  0.77778  0.23871  0.66121  1.0000
  H   H3383     1.0  0.74960  0.23978  0.68080  1.0000
  S   S439      1.0  0.68799  0.39408  0.97100  1.0000
  H   H3384     1.0  0.49636  0.41619  0.95857  1.0000
  H   H3385     1.0  0.86641  0.48198  0.76708  1.0000
  H   H3386     1.0  0.98552  0.35534  0.67978  1.0000
  C   C1913     1.0  0.98902  0.39472  0.67990  1.0000
  H   H3387     1.0  0.80831  0.28756  0.64744  1.0000
  C   C1914     1.0  0.52188  0.23814  0.75632  1.0000
  H   H3388     1.0  0.49467  0.36850  0.89330  1.0000
  H   H3389     1.0  0.98943  0.47678  0.73661  1.0000
  C   C1915     1.0  0.53979  0.23354  0.76602  1.0000
  C   C1916     1.0  0.58849  0.36849  0.96933  1.0000
  H   H3390     1.0  0.96788  0.48218  0.65934  1.0000
  H   H3391     1.0  0.52290  0.70742  0.14377  1.0000
  S   S440      1.0  0.72610  0.52863  0.19170  1.0000
  S   S441      1.0  0.83208  0.50253  0.26163  1.0000
  H   H3392     1.0  0.74497  0.69179  0.01670  1.0000
  H   H3393     1.0  0.73826  0.54849  0.04722  1.0000
  H   H3394     1.0  0.72980  0.52575  0.03064  1.0000
  C   C1917     1.0  0.55502  0.66773  0.06888  1.0000
  S   S442      1.0  0.89260  0.62699  0.27012  1.0000
  H   H3395     1.0  0.56824  0.67414  0.06346  1.0000
  H   H3396     1.0  0.71888  0.66831  0.23050  1.0000
  S   S443      1.0  0.90213  0.67085  0.26320  1.0000
  H   H3397     1.0  0.86378  0.66812  0.06820  1.0000
  Fe  Fe223     1.0  0.87792  0.65694  0.26015  1.0000
  S   S444      1.0  0.85864  0.66769  0.23785  1.0000
  Fe  Fe224     1.0  0.91525  0.64122  0.27598  1.0000
  H   H3398     1.0  0.70606  0.68844  0.19456  1.0000
  H   H3399     1.0  0.79094  0.71625  0.08349  1.0000
  Fe  Fe225     1.0  0.74862  0.50677  0.17778  1.0000
  Fe  Fe226     1.0  0.76381  0.62383  0.17481  1.0000
  S   S445      1.0  0.79296  0.60691  0.16638  1.0000
  S   S446      1.0  0.73828  0.61222  0.19288  1.0000
  Fe  Fe227     1.0  0.77551  0.66134  0.15524  1.0000
  S   S447      1.0  0.80607  0.64777  0.14505  1.0000
  S   S448      1.0  0.76443  0.69274  0.14657  1.0000
  Fe  Fe228     1.0  0.79230  0.62578  0.13809  1.0000
  S   S449      1.0  0.80281  0.61252  0.11182  1.0000
  Fe  Fe229     1.0  0.80453  0.63006  0.17422  1.0000
  S   S450      1.0  0.82977  0.61910  0.19005  1.0000
  S   S451      1.0  0.76201  0.64074  0.14586  1.0000
  S   S452      1.0  0.77516  0.64564  0.18502  1.0000
  C   C1918     1.0  0.74128  0.70152  0.15823  1.0000
  H   H3400     1.0  0.97992  0.56157  0.29094  1.0000
  H   H3401     1.0  0.73745  0.67489  0.17667  1.0000
  C   C1919     1.0  0.85005  0.65335  0.22584  1.0000
  C   C1920     1.0  0.85912  0.63456  0.22443  1.0000
  C   C1921     1.0  0.85270  0.62420  0.21347  1.0000
  C   C1922     1.0  0.83695  0.63237  0.20419  1.0000
  C   C1923     1.0  0.82743  0.65087  0.20623  1.0000
  C   C1924     1.0  0.83414  0.66141  0.21677  1.0000
  H   H3402     1.0  0.87148  0.62828  0.23121  1.0000
  H   H3403     1.0  0.86016  0.60989  0.21194  1.0000
  H   H3404     1.0  0.81513  0.65711  0.19939  1.0000
  H   H3405     1.0  0.82715  0.67596  0.21774  1.0000
  H   H3406     1.0  0.72641  0.59387  0.00127  1.0000
  H   H3407     1.0  0.69657  0.60341  0.06165  1.0000
  H   H3408     1.0  0.88815  0.51974  0.21824  1.0000
  H   H3409     1.0  0.87160  0.70648  0.09074  1.0000
  H   H3410     1.0  0.92315  0.56390  0.27988  1.0000
  C   C1925     1.0  0.77528  0.49849  0.09312  1.0000
  Fe  Fe230     1.0  0.87967  0.50820  0.30041  1.0000
  H   H3411     1.0  0.81251  0.68815  0.18205  1.0000
  H   H3412     1.0  0.79751  0.68785  0.16528  1.0000
  H   H3413     1.0  0.77220  0.68496  0.24480  1.0000
  H   H3414     1.0  0.80664  0.64164  0.28544  1.0000
  C   C1926     1.0  0.73129  0.68978  0.17285  1.0000
  C   C1927     1.0  0.78297  0.64321  0.09059  1.0000
  C   C1928     1.0  0.79431  0.62498  0.09117  1.0000
  C   C1929     1.0  0.79972  0.61679  0.07477  1.0000
  C   C1930     1.0  0.79426  0.62695  0.05772  1.0000
  H   H3415     1.0  0.77867  0.64959  0.10321  1.0000
  H   H3416     1.0  0.80849  0.60270  0.07515  1.0000
  H   H3417     1.0  0.79896  0.62072  0.04501  1.0000
  C   C1931     1.0  0.94212  0.57780  0.29876  1.0000
  H   H3418     1.0  0.56191  0.69407  0.02773  1.0000
  C   C1932     1.0  0.76913  0.50743  0.07599  1.0000
  C   C1933     1.0  0.51956  0.69395  0.14152  1.0000
  C   C1934     1.0  0.97968  0.63153  0.28463  1.0000
  S   S453      1.0  0.86158  0.66133  0.28884  1.0000
  C   C1935     1.0  0.82907  0.61617  0.28514  1.0000
  H   H3419     1.0  0.49799  0.71320  0.11447  1.0000
  C   C1936     1.0  0.53369  0.72030  0.10643  1.0000
  H   H3420     1.0  0.61479  0.63912  0.03530  1.0000
  C   C1937     1.0  0.72996  0.55199  0.19080  1.0000
  C   C1938     1.0  0.74404  0.56028  0.17726  1.0000
  C   C1939     1.0  0.74655  0.57901  0.17742  1.0000
  C   C1940     1.0  0.73515  0.58925  0.19126  1.0000
  C   C1941     1.0  0.72082  0.58107  0.20437  1.0000
  C   C1942     1.0  0.71820  0.56261  0.20409  1.0000
  H   H3421     1.0  0.75296  0.55225  0.16678  1.0000
  H   H3422     1.0  0.75738  0.58546  0.16707  1.0000
  H   H3423     1.0  0.71184  0.58894  0.21497  1.0000
  H   H3424     1.0  0.70717  0.55638  0.21444  1.0000
  H   H3425     1.0  0.86655  0.53676  0.22390  1.0000
  H   H3426     1.0  0.82782  0.64306  0.29399  1.0000
  C   C1943     1.0  0.72549  0.71330  0.10577  1.0000
  C   C1944     1.0  0.76988  0.49677  0.06185  1.0000
  H   H3427     1.0  0.69994  0.57918  0.05778  1.0000
  C   C1945     1.0  0.94111  0.57812  0.25620  1.0000
  C   C1946     1.0  0.67472  0.65645  0.01143  1.0000
  H   H3428     1.0  0.63817  0.60148  0.00686  1.0000
  C   C1947     1.0  0.96001  0.63862  0.28426  1.0000
  H   H3429     1.0  0.81802  0.67516  0.04134  1.0000
  H   H3430     1.0  0.53248  0.66593  0.09302  1.0000
  H   H3431     1.0  0.64935  0.55896  0.02779  1.0000
  H   H3432     1.0  0.83778  0.62146  0.12229  1.0000
  C   C1948     1.0  0.95139  0.50201  0.24571  1.0000
  H   H3433     1.0  0.83146  0.66208  0.10699  1.0000
  H   H3434     1.0  0.64761  0.62944  0.01854  1.0000
  S   S454      1.0  0.74977  0.61968  0.98529  1.0000
  C   C1949     1.0  0.69365  0.65600  0.00146  1.0000
  H   H3435     1.0  0.76964  0.66788  0.07286  1.0000
  C   C1950     1.0  0.77784  0.65352  0.07343  1.0000
  Fe  Fe231     1.0  0.75101  0.61246  0.01615  1.0000
  H   H3436     1.0  0.84890  0.68857  0.05822  1.0000
  H   H3437     1.0  0.52794  0.67382  0.12246  1.0000
  C   C1951     1.0  0.65986  0.67088  0.00563  1.0000
  Fe  Fe232     1.0  0.77250  0.64401  0.01504  1.0000
  S   S455      1.0  0.78252  0.61310  0.01227  1.0000
  C   C1952     1.0  0.73463  0.72236  0.00813  1.0000
  H   H3438     1.0  0.76381  0.52262  0.07355  1.0000
  H   H3439     1.0  0.66759  0.72263  0.10369  1.0000
  C   C1953     1.0  0.76799  0.71210  0.22521  1.0000
  H   H3440     1.0  0.92888  0.59043  0.23088  1.0000
  H   H3441     1.0  0.68904  0.57389  0.02871  1.0000
  C   C1954     1.0  0.52412  0.67874  0.15851  1.0000
  H   H3442     1.0  0.85163  0.62747  0.08793  1.0000
  H   H3443     1.0  0.69179  0.67731  0.16766  1.0000
  H   H3444     1.0  0.78630  0.56951  0.15011  1.0000
  C   C1955     1.0  0.69770  0.67021  0.98590  1.0000
  C   C1956     1.0  0.70536  0.71676  0.17816  1.0000
  H   H3445     1.0  0.66623  0.57862  0.04338  1.0000
  C   C1957     1.0  0.72265  0.56629  0.99824  1.0000
  C   C1958     1.0  0.66151  0.54119  0.00686  1.0000
  N   N103      1.0  0.69293  0.67796  0.13782  1.0000
  C   C1959     1.0  0.70810  0.66007  0.13946  1.0000
  C   C1960     1.0  0.70230  0.69548  0.13069  1.0000
  H   H3446     1.0  0.69259  0.59984  0.99628  1.0000
  C   C1961     1.0  0.67883  0.67722  0.12555  1.0000
  C   C1962     1.0  0.68739  0.67345  0.10526  1.0000
  C   C1963     1.0  0.70044  0.64095  0.14668  1.0000
  S   S456      1.0  0.78014  0.65981  0.03503  1.0000
  H   H3447     1.0  0.67546  0.71055  0.15748  1.0000
  H   H3448     1.0  0.50027  0.67723  0.11306  1.0000
  C   C1964     1.0  0.67191  0.66978  0.09576  1.0000
  C   C1965     1.0  0.71691  0.62379  0.14644  1.0000
  H   H3449     1.0  0.68358  0.57050  0.99733  1.0000
  H   H3450     1.0  0.71782  0.66107  0.14906  1.0000
  H   H3451     1.0  0.71773  0.65856  0.12576  1.0000
  H   H3452     1.0  0.95563  0.57533  0.24745  1.0000
  H   H3453     1.0  0.87041  0.70778  0.06625  1.0000
  C   C1966     1.0  0.78626  0.70333  0.09278  1.0000
  C   C1967     1.0  0.66387  0.68465  0.98966  1.0000
  H   H3454     1.0  0.66963  0.66637  0.13261  1.0000
  H   H3455     1.0  0.66851  0.69092  0.12385  1.0000
  H   H3456     1.0  0.69912  0.66084  0.10505  1.0000
  C   C1968     1.0  0.85085  0.49813  0.14401  1.0000
  H   H3457     1.0  0.69265  0.64027  0.16146  1.0000
  H   H3458     1.0  0.69062  0.63915  0.13767  1.0000
  H   H3459     1.0  0.84528  0.48595  0.15392  1.0000
  C   C1969     1.0  0.68959  0.59291  0.05774  1.0000
  Fe  Fe233     1.0  0.64324  0.73034  0.04315  1.0000
  Fe  Fe234     1.0  0.86076  0.49688  0.27185  1.0000
  C   C1970     1.0  0.73307  0.72076  0.15332  1.0000
  C   C1971     1.0  0.70422  0.69006  0.02385  1.0000
  C   C1972     1.0  0.87227  0.52291  0.21893  1.0000
  H   H3460     1.0  0.67848  0.66640  0.08152  1.0000
  H   H3461     1.0  0.66533  0.65743  0.10406  1.0000
  H   H3462     1.0  0.66047  0.68266  0.09416  1.0000
  H   H3463     1.0  0.71100  0.61033  0.15130  1.0000
  H   H3464     1.0  0.72546  0.62355  0.13202  1.0000
  H   H3465     1.0  0.72653  0.62425  0.15621  1.0000
  C   C1973     1.0  0.68417  0.60043  0.03818  1.0000
  H   H3466     1.0  0.85179  0.63755  0.12651  1.0000
  H   H3467     1.0  0.69747  0.66306  0.04011  1.0000
  C   C1974     1.0  0.77611  0.55507  0.98738  1.0000
  H   H3468     1.0  0.53963  0.67663  0.15947  1.0000
  C   C1975     1.0  0.67622  0.58530  0.03132  1.0000
  H   H3469     1.0  0.70941  0.67538  0.05185  1.0000
  C   C1976     1.0  0.93059  0.70817  0.27541  1.0000
  H   H3470     1.0  0.72997  0.69932  0.21349  1.0000
  H   H3471     1.0  0.67178  0.64630  0.02419  1.0000
  C   C1977     1.0  0.73323  0.57265  0.02511  1.0000
  H   H3472     1.0  0.95467  0.53032  0.29379  1.0000
  H   H3473     1.0  0.77876  0.70729  0.10661  1.0000
  H   H3474     1.0  0.50669  0.65397  0.97238  1.0000
  C   C1978     1.0  0.69849  0.67731  0.04266  1.0000
  S   S457      1.0  0.71684  0.53164  0.99492  1.0000
  H   H3475     1.0  0.76204  0.66826  0.22840  1.0000
  C   C1979     1.0  0.78383  0.64557  0.05688  1.0000
  H   H3476     1.0  0.79077  0.54881  0.13886  1.0000
  S   S458      1.0  0.73889  0.58879  0.03679  1.0000
  H   H3477     1.0  0.82873  0.64499  0.26897  1.0000
  C   C1980     1.0  0.85109  0.62770  0.11707  1.0000
  H   H3478     1.0  0.68418  0.68376  0.04990  1.0000
  H   H3479     1.0  0.67381  0.61389  0.03897  1.0000
  C   C1981     1.0  0.72758  0.57902  0.00750  1.0000
  H   H3480     1.0  0.63831  0.58874  0.03000  1.0000
  C   C1982     1.0  0.53553  0.71405  0.03327  1.0000
  H   H3481     1.0  0.64313  0.61543  0.04197  1.0000
  H   H3482     1.0  0.65723  0.70206  0.14984  1.0000
  H   H3483     1.0  0.69300  0.69113  0.01525  1.0000
  H   H3484     1.0  0.86371  0.61592  0.11768  1.0000
  H   H3485     1.0  0.86481  0.64419  0.09228  1.0000
  C   C1983     1.0  0.83364  0.55351  0.29044  1.0000
  H   H3486     1.0  0.82051  0.64687  0.09853  1.0000
  H   H3487     1.0  0.60979  0.61538  0.03774  1.0000
  H   H3488     1.0  0.80356  0.67518  0.07195  1.0000
  N   N104      1.0  0.96935  0.72939  0.29075  1.0000
  H   H3489     1.0  0.94188  0.54818  0.26829  1.0000
  H   H3490     1.0  0.81308  0.69259  0.10281  1.0000
  H   H3491     1.0  0.55069  0.73165  0.07976  1.0000
  H   H3492     1.0  0.67302  0.66784  0.16263  1.0000
  C   C1984     1.0  0.52721  0.73180  0.03854  1.0000
  C   C1985     1.0  0.67708  0.60612  0.99988  1.0000
  H   H3493     1.0  0.67460  0.54946  0.02676  1.0000
  C   C1986     1.0  0.49832  0.68915  0.10109  1.0000
  C   C1987     1.0  0.74838  0.67377  0.22292  1.0000
  C   C1988     1.0  0.63997  0.61814  0.02744  1.0000
  H   H3494     1.0  0.79807  0.67516  0.10539  1.0000
  Fe  Fe235     1.0  0.73331  0.50210  0.00222  1.0000
  S   S459      1.0  0.74107  0.64258  0.02098  1.0000
  C   C1989     1.0  0.95901  0.71490  0.28696  1.0000
  Fe  Fe236     1.0  0.78895  0.48341  0.17747  1.0000
  C   C1990     1.0  0.79229  0.70162  0.24748  1.0000
  H   H3495     1.0  0.69171  0.70782  0.12513  1.0000
  C   C1991     1.0  0.97362  0.49883  0.26740  1.0000
  S   S460      1.0  0.74219  0.49381  0.15509  1.0000
  H   H3496     1.0  0.65248  0.69602  0.98528  1.0000
  H   H3497     1.0  0.70516  0.64509  0.00623  1.0000
  C   C1992     1.0  0.85211  0.68952  0.08621  1.0000
  N   N105      1.0  0.76365  0.57510  0.09229  1.0000
  C   C1993     1.0  0.75334  0.59500  0.09490  1.0000
  C   C1994     1.0  0.77859  0.56814  0.10504  1.0000
  C   C1995     1.0  0.77398  0.57601  0.07204  1.0000
  C   C1996     1.0  0.74962  0.56152  0.09554  1.0000
  C   C1997     1.0  0.73875  0.55660  0.11593  1.0000
  C   C1998     1.0  0.74019  0.60569  0.08035  1.0000
  C   C1999     1.0  0.78972  0.55849  0.06750  1.0000
  C   C2000     1.0  0.77366  0.57414  0.12486  1.0000
  C   C2001     1.0  0.78958  0.56458  0.13631  1.0000
  C   C2002     1.0  0.72374  0.54431  0.11668  1.0000
  C   C2003     1.0  0.73010  0.62530  0.08503  1.0000
  C   C2004     1.0  0.79508  0.55868  0.04621  1.0000
  H   H3498     1.0  0.76415  0.60415  0.09412  1.0000
  H   H3499     1.0  0.74439  0.59490  0.10917  1.0000
  H   H3500     1.0  0.78260  0.55226  0.10694  1.0000
  H   H3501     1.0  0.79208  0.57380  0.09827  1.0000
  H   H3502     1.0  0.78112  0.58878  0.06746  1.0000
  H   H3503     1.0  0.76341  0.57786  0.06253  1.0000
  H   H3504     1.0  0.73889  0.56674  0.08593  1.0000
  H   H3505     1.0  0.75713  0.54763  0.09156  1.0000
  H   H3506     1.0  0.73118  0.56960  0.12177  1.0000
  H   H3507     1.0  0.74901  0.54799  0.12512  1.0000
  H   H3508     1.0  0.74881  0.60822  0.06594  1.0000
  H   H3509     1.0  0.72891  0.59755  0.08010  1.0000
  H   H3510     1.0  0.78508  0.54473  0.07417  1.0000
  H   H3511     1.0  0.80302  0.55880  0.07271  1.0000
  H   H3512     1.0  0.77255  0.58980  0.12351  1.0000
  H   H3513     1.0  0.75988  0.57051  0.13313  1.0000
  C   C2005     1.0  0.73386  0.55347  0.03358  1.0000
  H   H3514     1.0  0.80359  0.56848  0.12865  1.0000
  H   H3515     1.0  0.77763  0.56794  0.99247  1.0000
  H   H3516     1.0  0.73078  0.53080  0.11139  1.0000
  H   H3517     1.0  0.71653  0.54056  0.13153  1.0000
  H   H3518     1.0  0.71266  0.55215  0.10807  1.0000
  H   H3519     1.0  0.72040  0.62375  0.09895  1.0000
  H   H3520     1.0  0.74089  0.63411  0.08523  1.0000
  H   H3521     1.0  0.72132  0.63284  0.07406  1.0000
  H   H3522     1.0  0.80664  0.54632  0.04332  1.0000
  H   H3523     1.0  0.78238  0.55750  0.04044  1.0000
  H   H3524     1.0  0.80036  0.57206  0.03888  1.0000
  C   C2006     1.0  0.72338  0.54713  0.00660  1.0000
  S   S461      1.0  0.77762  0.51270  0.16254  1.0000
  C   C2007     1.0  0.83325  0.65413  0.09522  1.0000
  C   C2008     1.0  0.71350  0.69746  0.18293  1.0000
  H   H3525     1.0  0.76527  0.50378  0.04864  1.0000
  C   C2009     1.0  0.72913  0.54062  0.02420  1.0000
  C   C2010     1.0  0.80362  0.68746  0.09566  1.0000
  S   S462      1.0  0.94721  0.62915  0.27144  1.0000
  S   S463      1.0  0.63690  0.67333  0.01963  1.0000
  N   N106      1.0  0.82809  0.58730  0.26979  1.0000
  C   C2011     1.0  0.81568  0.58126  0.25868  1.0000
  C   C2012     1.0  0.82639  0.57528  0.28929  1.0000
  C   C2013     1.0  0.81993  0.60782  0.27203  1.0000
  C   C2014     1.0  0.84896  0.58609  0.26023  1.0000
  C   C2015     1.0  0.85732  0.57034  0.24787  1.0000
  C   C2016     1.0  0.81259  0.59454  0.23971  1.0000
  H   H3526     1.0  0.94256  0.50348  0.27532  1.0000
  H   H3527     1.0  0.92637  0.57829  0.30385  1.0000
  C   C2017     1.0  0.65566  0.69729  0.17977  1.0000
  C   C2018     1.0  0.87922  0.56837  0.24238  1.0000
  C   C2019     1.0  0.80484  0.58466  0.22721  1.0000
  H   H3528     1.0  0.58244  0.71470  0.03367  1.0000
  H   H3529     1.0  0.80107  0.58036  0.26727  1.0000
  H   H3530     1.0  0.82145  0.56662  0.25564  1.0000
  H   H3531     1.0  0.77275  0.70818  0.01259  1.0000
  H   H3532     1.0  0.77744  0.69026  0.99787  1.0000
  N   N107      1.0  0.95064  0.56114  0.28852  1.0000
  H   H3533     1.0  0.82165  0.61739  0.25803  1.0000
  H   H3534     1.0  0.85139  0.59977  0.25075  1.0000
  H   H3535     1.0  0.85834  0.58429  0.27095  1.0000
  H   H3536     1.0  0.85129  0.57397  0.23461  1.0000
  H   H3537     1.0  0.85392  0.55625  0.25517  1.0000
  H   H3538     1.0  0.80193  0.60762  0.24236  1.0000
  H   H3539     1.0  0.82621  0.59904  0.23181  1.0000
  H   H3540     1.0  0.93176  0.69395  0.28461  1.0000
  H   H3541     1.0  0.50387  0.69583  0.14165  1.0000
  S   S464      1.0  0.65616  0.71797  0.01701  1.0000
  H   H3542     1.0  0.88017  0.58964  0.29200  1.0000
  H   H3543     1.0  0.97416  0.54508  0.25756  1.0000
  H   H3544     1.0  0.84337  0.67605  0.03581  1.0000
  C   C2020     1.0  0.93784  0.72224  0.28386  1.0000
  H   H3545     1.0  0.88489  0.55742  0.23314  1.0000
  H   H3546     1.0  0.88326  0.58217  0.23458  1.0000
  H   H3547     1.0  0.88604  0.56378  0.25519  1.0000
  H   H3548     1.0  0.80183  0.59480  0.21417  1.0000
  H   H3549     1.0  0.81568  0.57225  0.22307  1.0000
  H   H3550     1.0  0.79122  0.57975  0.23471  1.0000
  H   H3551     1.0  0.73939  0.71159  0.09581  1.0000
  H   H3552     1.0  0.53617  0.73164  0.98019  1.0000
  H   H3553     1.0  0.71986  0.72941  0.22138  1.0000
  N   N108      1.0  0.83878  0.53275  0.18101  1.0000
  C   C2021     1.0  0.81722  0.53360  0.18471  1.0000
  C   C2022     1.0  0.84832  0.51640  0.17057  1.0000
  C   C2023     1.0  0.84536  0.52824  0.19991  1.0000
  C   C2024     1.0  0.84477  0.55135  0.17044  1.0000
  C   C2025     1.0  0.83221  0.56359  0.15603  1.0000
  C   C2026     1.0  0.80552  0.54653  0.19903  1.0000
  C   C2027     1.0  0.86747  0.52373  0.19945  1.0000
  C   C2028     1.0  0.84232  0.51685  0.15142  1.0000
  Fe  Fe237     1.0  0.90370  0.49837  0.26399  1.0000
  C   C2029     1.0  0.84113  0.58074  0.14493  1.0000
  C   C2030     1.0  0.78404  0.55008  0.19840  1.0000
  H   H3554     1.0  0.54069  0.70595  0.98560  1.0000
  H   H3555     1.0  0.81373  0.51905  0.19014  1.0000
  H   H3556     1.0  0.81117  0.53820  0.17149  1.0000
  H   H3557     1.0  0.86423  0.51552  0.16735  1.0000
  H   H3558     1.0  0.74420  0.69862  0.99171  1.0000
  H   H3559     1.0  0.83931  0.51588  0.20883  1.0000
  H   H3560     1.0  0.83961  0.54033  0.20782  1.0000
  H   H3561     1.0  0.84480  0.56095  0.18046  1.0000
  H   H3562     1.0  0.85993  0.54865  0.16290  1.0000
  H   H3563     1.0  0.81770  0.56923  0.16342  1.0000
  H   H3564     1.0  0.83024  0.55530  0.14582  1.0000
  H   H3565     1.0  0.80738  0.53954  0.21365  1.0000
  H   H3566     1.0  0.81033  0.56054  0.19601  1.0000
  H   H3567     1.0  0.87468  0.53477  0.18935  1.0000
  Fe  Fe238     1.0  0.77212  0.49778  0.14073  1.0000
  H   H3568     1.0  0.82648  0.51880  0.15253  1.0000
  H   H3569     1.0  0.84801  0.52837  0.14069  1.0000
  C   C2031     1.0  0.54090  0.69458  0.08776  1.0000
  H   H3570     1.0  0.88345  0.68661  0.07901  1.0000
  H   H3571     1.0  0.81111  0.57760  0.29667  1.0000
  H   H3572     1.0  0.85564  0.57601  0.13691  1.0000
  H   H3573     1.0  0.83180  0.58906  0.13473  1.0000
  H   H3574     1.0  0.84223  0.59022  0.15459  1.0000
  H   H3575     1.0  0.77853  0.53638  0.20166  1.0000
  H   H3576     1.0  0.77591  0.55920  0.20888  1.0000
  H   H3577     1.0  0.78151  0.55757  0.18418  1.0000
  C   C2032     1.0  0.95062  0.65344  0.29406  1.0000
  H   H3578     1.0  0.94323  0.59146  0.28891  1.0000
  H   H3579     1.0  0.80412  0.60955  0.27750  1.0000
  H   H3580     1.0  0.81609  0.69452  0.06594  1.0000
  H   H3581     1.0  0.82500  0.64281  0.03219  1.0000
  N   N109      1.0  0.66672  0.59174  0.01399  1.0000
  C   C2033     1.0  0.84995  0.67806  0.07147  1.0000
  H   H3582     1.0  0.55910  0.65199  0.06986  1.0000
  C   C2034     1.0  0.93876  0.56199  0.27362  1.0000
  H   H3583     1.0  0.79790  0.50728  0.24582  1.0000
  H   H3584     1.0  0.69736  0.60397  0.02828  1.0000
  C   C2035     1.0  0.81425  0.68137  0.07656  1.0000
  H   H3585     1.0  0.71396  0.72114  0.09766  1.0000
  C   C2036     1.0  0.61839  0.62601  0.02882  1.0000
  C   C2037     1.0  0.80303  0.69717  0.17231  1.0000
  H   H3586     1.0  0.96689  0.70884  0.27420  1.0000
  S   S465      1.0  0.61341  0.72835  0.00496  1.0000
  H   H3587     1.0  0.67655  0.59070  0.06849  1.0000
  H   H3588     1.0  0.71796  0.68287  0.01649  1.0000
  H   H3589     1.0  0.64932  0.54645  0.99898  1.0000
  H   H3590     1.0  0.85294  0.68042  0.10023  1.0000
  H   H3591     1.0  0.76345  0.69413  0.18664  1.0000
  Fe  Fe239     1.0  0.63023  0.70424  0.02249  1.0000
  H   H3592     1.0  0.75020  0.66973  0.20885  1.0000
  H   H3593     1.0  0.98468  0.53273  0.27784  1.0000
  C   C2038     1.0  0.85131  0.63825  0.09677  1.0000
  Fe  Fe240     1.0  0.74296  0.65002  0.98963  1.0000
  C   C2039     1.0  0.83512  0.65540  0.06151  1.0000
  H   H3594     1.0  0.84569  0.50261  0.17978  1.0000
  C   C2040     1.0  0.83266  0.66646  0.04139  1.0000
  H   H3595     1.0  0.91151  0.58387  0.25143  1.0000
  H   H3596     1.0  0.67704  0.61882  0.00597  1.0000
  H   H3597     1.0  0.54688  0.68516  0.12390  1.0000
  C   C2041     1.0  0.83554  0.65269  0.02749  1.0000
  H   H3598     1.0  0.88536  0.55430  0.29311  1.0000
  H   H3599     1.0  0.86597  0.51147  0.22934  1.0000
  H   H3600     1.0  0.92730  0.56555  0.23922  1.0000
  S   S466      1.0  0.68371  0.72617  0.19193  1.0000
  H   H3601     1.0  0.93918  0.59228  0.26040  1.0000
  C   C2042     1.0  0.74727  0.70308  0.00414  1.0000
  C   C2043     1.0  0.87543  0.58039  0.30492  1.0000
  H   H3602     1.0  0.84950  0.64597  0.05991  1.0000
  N   N110      1.0  0.83320  0.66747  0.07649  1.0000
  S   S467      1.0  0.72143  0.67156  0.97478  1.0000
  H   H3603     1.0  0.80141  0.68905  0.25467  1.0000
  H   H3604     1.0  0.70655  0.70001  0.14257  1.0000
  S   S468      1.0  0.87731  0.52038  0.27024  1.0000
  H   H3605     1.0  0.61438  0.62991  0.01454  1.0000
  H   H3606     1.0  0.82434  0.64566  0.06589  1.0000
  H   H3607     1.0  0.73707  0.64792  0.23624  1.0000
  C   C2044     1.0  0.92626  0.57948  0.24369  1.0000
  C   C2045     1.0  0.70800  0.72046  0.99197  1.0000
  H   H3608     1.0  0.96474  0.50035  0.21688  1.0000
  C   C2046     1.0  0.70531  0.71029  0.02680  1.0000
  C   C2047     1.0  0.66322  0.55606  0.01809  1.0000
  C   C2048     1.0  0.68171  0.67942  0.15748  1.0000
  H   H3609     1.0  0.71355  0.70867  0.03844  1.0000
  Fe  Fe241     1.0  0.87750  0.63236  0.29892  1.0000
  H   H3610     1.0  0.82444  0.61003  0.30016  1.0000
  H   H3611     1.0  0.67502  0.53785  0.99672  1.0000
  H   H3612     1.0  0.87366  0.50956  0.19528  1.0000
  H   H3613     1.0  0.64619  0.68646  0.18234  1.0000
  H   H3614     1.0  0.60590  0.70377  0.10164  1.0000
  C   C2049     1.0  0.66854  0.57451  0.00475  1.0000
  S   S469      1.0  0.92800  0.50538  0.24051  1.0000
  C   C2050     1.0  0.64547  0.59938  0.01924  1.0000
  H   H3615     1.0  0.79193  0.68727  0.22515  1.0000
  H   H3616     1.0  0.95887  0.70260  0.29886  1.0000
  H   H3617     1.0  0.78228  0.70910  0.25843  1.0000
  S   S470      1.0  0.61836  0.71473  0.04984  1.0000
  H   H3618     1.0  0.73066  0.66652  0.25046  1.0000
  C   C2051     1.0  0.66753  0.69850  0.15983  1.0000
  H   H3619     1.0  0.77965  0.68413  0.20221  1.0000
  H   H3620     1.0  0.84506  0.61315  0.28181  1.0000
  S   S471      1.0  0.52111  0.70004  0.02794  1.0000
  C   C2052     1.0  0.98601  0.49693  0.23453  1.0000
  C   C2053     1.0  0.80925  0.49838  0.23774  1.0000
  H   H3621     1.0  0.65942  0.57791  0.99360  1.0000
  H   H3622     1.0  0.66526  0.69346  0.19049  1.0000
  C   C2054     1.0  0.96714  0.49989  0.23103  1.0000
  C   C2055     1.0  0.55543  0.70780  0.03179  1.0000
  H   H3623     1.0  0.97230  0.57681  0.27092  1.0000
  C   C2056     1.0  0.54548  0.67263  0.08831  1.0000
  C   C2057     1.0  0.71500  0.72830  0.16306  1.0000
  S   S472      1.0  0.77544  0.51234  0.11013  1.0000
  S   S473      1.0  0.77367  0.65416  0.98374  1.0000
  C   C2058     1.0  0.66928  0.61368  0.98109  1.0000
  H   H3624     1.0  0.72665  0.72188  0.11619  1.0000
  H   H3625     1.0  0.83988  0.70159  0.08752  1.0000
  Fe  Fe242     1.0  0.78051  0.62299  0.98141  1.0000
  H   H3626     1.0  0.83324  0.66089  0.01337  1.0000
  C   C2059     1.0  0.82763  0.49320  0.24284  1.0000
  C   C2060     1.0  0.97131  0.56251  0.27981  1.0000
  H   H3627     1.0  0.85038  0.64422  0.02615  1.0000
  N   N111      1.0  0.52810  0.70187  0.10489  1.0000
  H   H3628     1.0  0.73636  0.69927  0.23545  1.0000
  H   H3629     1.0  0.73339  0.68594  0.12277  1.0000
  H   H3630     1.0  0.76419  0.54873  0.99702  1.0000
  H   H3631     1.0  0.69286  0.68624  0.09654  1.0000
  H   H3632     1.0  0.77590  0.69840  0.08644  1.0000
  H   H3633     1.0  0.71381  0.70566  0.98957  1.0000
  Fe  Fe243     1.0  0.88669  0.67274  0.29284  1.0000
  S   S474      1.0  0.90721  0.48779  0.29409  1.0000
  H   H3634     1.0  0.58368  0.71403  0.11531  1.0000
  H   H3635     1.0  0.74076  0.72993  0.14207  1.0000
  H   H3636     1.0  0.83489  0.57971  0.29812  1.0000
  H   H3637     1.0  0.51544  0.68346  0.17165  1.0000
  H   H3638     1.0  0.71842  0.57126  0.98453  1.0000
  H   H3639     1.0  0.65889  0.52777  0.01666  1.0000
  H   H3640     1.0  0.93559  0.65912  0.29373  1.0000
  C   C2061     1.0  0.98047  0.65481  0.30381  1.0000
  C   C2062     1.0  0.80550  0.49259  0.22193  1.0000
  H   H3641     1.0  0.69020  0.71628  0.03267  1.0000
  C   C2063     1.0  0.98222  0.54666  0.26826  1.0000
  H   H3642     1.0  0.86684  0.49544  0.14214  1.0000
  H   H3643     1.0  0.81683  0.48541  0.30107  1.0000
  C   C2064     1.0  0.95464  0.50152  0.26395  1.0000
  H   H3644     1.0  0.79139  0.49703  0.21793  1.0000
  H   H3645     1.0  0.93900  0.70664  0.26113  1.0000
  C   C2065     1.0  0.56707  0.71957  0.03499  1.0000
  H   H3646     1.0  0.84961  0.55071  0.28706  1.0000
  H   H3647     1.0  0.52307  0.72741  0.11712  1.0000
  C   C2066     1.0  0.50714  0.70621  0.10272  1.0000
  H   H3648     1.0  0.92817  0.72392  0.29756  1.0000
  H   H3649     1.0  0.64646  0.71137  0.18149  1.0000
  H   H3650     1.0  0.54760  0.71746  0.11175  1.0000
  C   C2067     1.0  0.73274  0.66359  0.23587  1.0000
  C   C2068     1.0  0.98872  0.71889  0.29529  1.0000
  H   H3651     1.0  0.50489  0.71690  0.08984  1.0000
  H   H3652     1.0  0.91518  0.71338  0.27418  1.0000
  C   C2069     1.0  0.95018  0.54236  0.30187  1.0000
  S   S475      1.0  0.66081  0.72477  0.06643  1.0000
  H   H3653     1.0  0.82781  0.54730  0.28077  1.0000
  N   N112      1.0  0.75771  0.70775  0.21113  1.0000
  H   H3654     1.0  0.73805  0.72460  0.02147  1.0000
  C   C2070     1.0  0.53131  0.68791  0.12276  1.0000
  H   H3655     1.0  0.97596  0.49855  0.28141  1.0000
  C   C2071     1.0  0.87054  0.69809  0.08010  1.0000
  H   H3656     1.0  0.58581  0.71552  0.09003  1.0000
  H   H3657     1.0  0.72035  0.68569  0.10469  1.0000
  H   H3658     1.0  0.78971  0.54453  0.98790  1.0000
  C   C2072     1.0  0.59355  0.71587  0.10149  1.0000
  C   C2073     1.0  0.77162  0.69800  0.19610  1.0000
  C   C2074     1.0  0.74762  0.72644  0.20133  1.0000
  C   C2075     1.0  0.78109  0.69499  0.23529  1.0000
  H   H3659     1.0  0.52041  0.66497  0.15746  1.0000
  H   H3660     1.0  0.55535  0.69877  0.08536  1.0000
  H   H3661     1.0  0.53478  0.70148  0.07476  1.0000
  C   C2076     1.0  0.74248  0.69578  0.22109  1.0000
  C   C2077     1.0  0.98939  0.49638  0.25270  1.0000
  H   H3662     1.0  0.65403  0.62096  0.98378  1.0000
  C   C2078     1.0  0.72104  0.69367  0.11570  1.0000
  H   H3663     1.0  0.55566  0.66590  0.09825  1.0000
  Fe  Fe244     1.0  0.49575  0.72023  0.01802  1.0000
  C   C2079     1.0  0.82261  0.63780  0.28319  1.0000
  S   S476      1.0  0.86089  0.48654  0.30289  1.0000
  H   H3664     1.0  0.54484  0.67309  0.05872  1.0000
  C   C2080     1.0  0.76868  0.70435  0.00028  1.0000
  H   H3665     1.0  0.81184  0.70627  0.16133  1.0000
  H   H3666     1.0  0.84661  0.49892  0.13015  1.0000
  S   S477      1.0  0.76560  0.49595  0.99736  1.0000
  C   C2081     1.0  0.68277  0.68433  0.97984  1.0000
  H   H3667     1.0  0.56056  0.71867  0.98029  1.0000
  N   N113      1.0  0.71317  0.72390  0.00972  1.0000
  H   H3668     1.0  0.98704  0.61994  0.27719  1.0000
  C   C2082     1.0  0.96074  0.66134  0.30392  1.0000
  H   H3669     1.0  0.69210  0.72187  0.99355  1.0000
  H   H3670     1.0  0.67944  0.64091  0.97472  1.0000
  H   H3671     1.0  0.49521  0.67412  0.98397  1.0000
  H   H3672     1.0  0.77926  0.72061  0.17253  1.0000
  H   H3673     1.0  0.74146  0.72381  0.18960  1.0000
  C   C2083     1.0  0.98993  0.63963  0.29439  1.0000
  H   H3674     1.0  0.72954  0.49657  0.09848  1.0000
  H   H3675     1.0  0.80195  0.71133  0.23860  1.0000
  H   H3676     1.0  0.50497  0.68410  0.08755  1.0000
  H   H3677     1.0  0.75737  0.71830  0.23665  1.0000
  H   H3678     1.0  0.77212  0.71509  0.98749  1.0000
  C   C2084     1.0  0.54635  0.71859  0.97674  1.0000
  C   C2085     1.0  0.78648  0.70980  0.18312  1.0000
  H   H3679     1.0  0.79294  0.71729  0.19120  1.0000
  H   H3680     1.0  0.77672  0.72342  0.21851  1.0000
  H   H3681     1.0  0.67030  0.60189  0.97328  1.0000
  C   C2086     1.0  0.89966  0.72486  0.34055  1.0000
  Fe  Fe245     1.0  0.91670  0.73171  0.57891  1.0000
  H   H3682     1.0  0.96279  0.68847  0.36447  1.0000
  H   H3683     1.0  0.93512  0.68576  0.33929  1.0000
  H   H3684     1.0  0.91597  0.67908  0.31771  1.0000
  H   H3685     1.0  0.95177  0.56547  0.32616  1.0000
  H   H3686     1.0  0.98515  0.62235  0.37530  1.0000
  S   S478      1.0  0.90911  0.70255  0.59202  1.0000
  S   S479      1.0  0.86104  0.61297  0.32127  1.0000
  H   H3687     1.0  0.84307  0.64647  0.35351  1.0000
  H   H3688     1.0  0.97704  0.71549  0.34429  1.0000
  H   H3689     1.0  0.92602  0.54982  0.32461  1.0000
  H   H3690     1.0  0.85866  0.68455  0.34046  1.0000
  C   C2087     1.0  0.97487  0.68333  0.37250  1.0000
  H   H3691     1.0  0.84781  0.72337  0.59170  1.0000
  C   C2088     1.0  0.85724  0.69738  0.37797  1.0000
  S   S480      1.0  0.87607  0.52347  0.32479  1.0000
  H   H3692     1.0  0.86005  0.63800  0.37895  1.0000
  S   S481      1.0  0.93033  0.71614  0.35985  1.0000
  C   C2089     1.0  0.95220  0.53752  0.63280  1.0000
  H   H3693     1.0  0.85581  0.71927  0.62329  1.0000
  H   H3694     1.0  0.96710  0.72573  0.46844  1.0000
  H   H3695     1.0  0.95795  0.54810  0.63798  1.0000
  H   H3696     1.0  0.98751  0.67593  0.40600  1.0000
  H   H3697     1.0  0.95951  0.63001  0.37648  1.0000
  H   H3698     1.0  0.88244  0.68951  0.35770  1.0000
  C   C2090     1.0  0.97481  0.62361  0.34966  1.0000
  C   C2091     1.0  0.86002  0.57622  0.33774  1.0000
  C   C2092     1.0  0.96256  0.69761  0.60817  1.0000
  C   C2093     1.0  0.93954  0.66578  0.38954  1.0000
  H   H3699     1.0  0.87612  0.71728  0.37776  1.0000
  H   H3700     1.0  0.99061  0.65287  0.35318  1.0000
  C   C2094     1.0  0.90994  0.70538  0.62876  1.0000
  C   C2095     1.0  0.90790  0.69392  0.61648  1.0000
  C   C2096     1.0  0.90452  0.67525  0.62384  1.0000
  C   C2097     1.0  0.91893  0.72913  0.48579  1.0000
  H   H3701     1.0  0.96671  0.67382  0.48521  1.0000
  H   H3702     1.0  0.91287  0.71959  0.62324  1.0000
  H   H3703     1.0  0.90303  0.66625  0.61441  1.0000
  H   H3704     1.0  0.97716  0.66890  0.61522  1.0000
  C   C2098     1.0  0.86610  0.58825  0.32108  1.0000
  H   H3705     1.0  0.92432  0.66383  0.41866  1.0000
  H   H3706     1.0  0.94959  0.69270  0.60635  1.0000
  H   H3707     1.0  0.91487  0.62543  0.34483  1.0000
  C   C2099     1.0  0.87379  0.68200  0.37027  1.0000
  C   C2100     1.0  0.85843  0.65265  0.38214  1.0000
  C   C2101     1.0  0.93035  0.53980  0.31434  1.0000
  H   H3708     1.0  0.86309  0.62088  0.41122  1.0000
  H   H3709     1.0  0.87592  0.73091  0.32531  1.0000
  H   H3710     1.0  0.92543  0.64323  0.40790  1.0000
  H   H3711     1.0  0.96603  0.61887  0.62696  1.0000
  H   H3712     1.0  0.95579  0.69729  0.49035  1.0000
  N   N114      1.0  0.96949  0.48315  0.62946  1.0000
  C   C2102     1.0  0.86343  0.55646  0.33851  1.0000
  H   H3713     1.0  0.90759  0.65690  0.36888  1.0000
  H   H3714     1.0  0.97913  0.71358  0.42087  1.0000
  H   H3715     1.0  0.88150  0.64770  0.39942  1.0000
  H   H3716     1.0  0.98216  0.64221  0.63579  1.0000
  H   H3717     1.0  0.94080  0.61890  0.63627  1.0000
  H   H3718     1.0  0.88369  0.67709  0.38064  1.0000
  C   C2103     1.0  0.92221  0.69565  0.33622  1.0000
  H   H3719     1.0  0.97163  0.70054  0.59403  1.0000
  H   H3720     1.0  0.85060  0.70660  0.36609  1.0000
  C   C2104     1.0  0.96170  0.68882  0.47879  1.0000
  C   C2105     1.0  0.97185  0.71783  0.45638  1.0000
  C   C2106     1.0  0.89465  0.70449  0.32007  1.0000
  H   H3721     1.0  0.86271  0.63426  0.42940  1.0000
  N   N115      1.0  0.97650  0.66209  0.37948  1.0000
  C   C2107     1.0  0.91140  0.69183  0.32402  1.0000
  C   C2108     1.0  0.91929  0.63646  0.35060  1.0000
  H   H3722     1.0  0.88974  0.66324  0.34050  1.0000
  H   H3723     1.0  0.93124  0.62942  0.35840  1.0000
  C   C2109     1.0  0.92376  0.65905  0.40540  1.0000
  H   H3724     1.0  0.81189  0.54386  0.31394  1.0000
  C   C2110     1.0  0.95667  0.50250  0.63013  1.0000
  C   C2111     1.0  0.90242  0.64579  0.36401  1.0000
  C   C2112     1.0  0.97853  0.69691  0.46548  1.0000
  H   H3725     1.0  0.94077  0.60916  0.31561  1.0000
  H   H3726     1.0  0.91696  0.51835  0.33497  1.0000
  H   H3727     1.0  0.92557  0.59348  0.33135  1.0000
  C   C2113     1.0  0.87240  0.54848  0.32246  1.0000
  H   H3728     1.0  0.93843  0.66080  0.37662  1.0000
  H   H3729     1.0  0.95212  0.50863  0.61624  1.0000
  C   C2114     1.0  0.88888  0.72106  0.32830  1.0000
  H   H3730     1.0  0.97087  0.69151  0.38437  1.0000
  C   C2115     1.0  0.98460  0.48514  0.61184  1.0000
  C   C2116     1.0  0.86561  0.65081  0.40105  1.0000
  H   H3731     1.0  0.91970  0.71382  0.48928  1.0000
  H   H3732     1.0  0.85888  0.65377  0.33191  1.0000
  H   H3733     1.0  0.84255  0.65765  0.38527  1.0000
  H   H3734     1.0  0.85278  0.58219  0.35023  1.0000
  H   H3735     1.0  0.88073  0.64171  0.35032  1.0000
  H   H3736     1.0  0.92467  0.64731  0.33873  1.0000
  H   H3737     1.0  0.98767  0.68700  0.62100  1.0000
  H   H3738     1.0  0.95990  0.66559  0.40708  1.0000
  H   H3739     1.0  0.96117  0.64303  0.40127  1.0000
  H   H3740     1.0  0.81684  0.67271  0.34358  1.0000
  H   H3741     1.0  0.98429  0.68745  0.45482  1.0000
  H   H3742     1.0  0.97969  0.51955  0.62682  1.0000
  H   H3743     1.0  0.95796  0.71115  0.61391  1.0000
  C   C2117     1.0  0.85305  0.67358  0.35213  1.0000
  H   H3744     1.0  0.95135  0.54265  0.61762  1.0000
  C   C2118     1.0  0.97397  0.68223  0.62121  1.0000
  C   C2119     1.0  0.88478  0.65419  0.35414  1.0000
  C   C2120     1.0  0.82965  0.66804  0.33315  1.0000
  H   H3745     1.0  0.83444  0.52742  0.31115  1.0000
  H   H3746     1.0  0.97237  0.60860  0.35333  1.0000
  C   C2121     1.0  0.86470  0.71033  0.38765  1.0000
  C   C2122     1.0  0.97663  0.65262  0.36298  1.0000
  H   H3747     1.0  0.96559  0.66080  0.35437  1.0000
  N   N116      1.0  0.86759  0.66543  0.36515  1.0000
  H   H3748     1.0  0.94805  0.65127  0.63197  1.0000
  H   H3749     1.0  0.90943  0.66530  0.40143  1.0000
  C   C2123     1.0  0.85777  0.63494  0.41590  1.0000
  H   H3750     1.0  0.98958  0.69629  0.47415  1.0000
  H   H3751     1.0  0.84175  0.63776  0.41851  1.0000
  H   H3752     1.0  0.85885  0.54731  0.35160  1.0000
  H   H3753     1.0  0.93653  0.68162  0.38692  1.0000
  C   C2124     1.0  0.95976  0.65850  0.39509  1.0000
  H   H3754     1.0  0.83305  0.68053  0.32223  1.0000
  H   H3755     1.0  0.83281  0.54855  0.32093  1.0000
  H   H3756     1.0  0.94785  0.59589  0.33738  1.0000
  H   H3757     1.0  0.96371  0.63224  0.34142  1.0000
  H   H3758     1.0  0.84581  0.69079  0.38819  1.0000
  H   H3759     1.0  0.95000  0.68905  0.47097  1.0000
  H   H3760     1.0  0.85272  0.72170  0.39228  1.0000
  S   S482      1.0  0.91764  0.72544  0.44951  1.0000
  H   H3761     1.0  0.96662  0.58127  0.31054  1.0000
  C   C2125     1.0  0.91632  0.71210  0.34459  1.0000
  C   C2126     1.0  0.84695  0.65895  0.34290  1.0000
  H   H3762     1.0  0.95862  0.71833  0.45056  1.0000
  H   H3763     1.0  0.83959  0.68120  0.35980  1.0000
  H   H3764     1.0  0.94251  0.51598  0.33435  1.0000
  H   H3765     1.0  0.86057  0.66431  0.40681  1.0000
  H   H3766     1.0  0.93374  0.50911  0.31577  1.0000
  C   C2127     1.0  0.93104  0.51953  0.32554  1.0000
  H   H3767     1.0  0.89875  0.63443  0.37608  1.0000
  C   C2128     1.0  0.96538  0.51804  0.63551  1.0000
  H   H3768     1.0  0.82614  0.65741  0.32611  1.0000
  H   H3769     1.0  0.87066  0.70201  0.40027  1.0000
  C   C2129     1.0  0.97381  0.63147  0.36768  1.0000
  H   H3770     1.0  0.95582  0.72528  0.32017  1.0000
  C   C2130     1.0  0.82780  0.54276  0.31035  1.0000
  H   H3771     1.0  0.98797  0.72778  0.63703  1.0000
  H   H3772     1.0  0.98675  0.70857  0.30879  1.0000
  S   S483      1.0  0.88013  0.69979  0.30561  1.0000
  H   H3773     1.0  0.96099  0.53991  0.31133  1.0000
  N   N117      1.0  0.98629  0.72726  0.44131  1.0000
  H   H3774     1.0  0.98692  0.72642  0.61312  1.0000
  H   H3775     1.0  0.87179  0.72773  0.59001  1.0000
  C   C2131     1.0  0.98912  0.71150  0.35232  1.0000
  H   H3776     1.0  0.93581  0.48779  0.61229  1.0000
  C   C2132     1.0  0.87833  0.56044  0.30553  1.0000
  C   C2133     1.0  0.94071  0.59536  0.32556  1.0000
  H   H3777     1.0  0.97765  0.49137  0.59925  1.0000
  H   H3778     1.0  0.88143  0.48772  0.35500  1.0000
  H   H3779     1.0  0.98551  0.71934  0.36442  1.0000
  H   H3780     1.0  0.98916  0.62380  0.34054  1.0000
  S   S484      1.0  0.90107  0.64399  0.30576  1.0000
  H   H3781     1.0  0.95323  0.67266  0.31157  1.0000
  C   C2134     1.0  0.95159  0.57878  0.31556  1.0000
  H   H3782     1.0  0.98681  0.64406  0.42717  1.0000
  H   H3783     1.0  0.92043  0.73226  0.51411  1.0000
  H   H3784     1.0  0.91895  0.54233  0.30564  1.0000
  Fe  Fe246     1.0  0.77085  0.63003  0.85768  1.0000
  S   S485      1.0  0.74590  0.61451  0.86711  1.0000
  S   S486      1.0  0.77801  0.64727  0.87662  1.0000
  Fe  Fe247     1.0  0.77823  0.62160  0.81750  1.0000
  S   S487      1.0  0.75359  0.60554  0.82381  1.0000
  S   S488      1.0  0.79418  0.62680  0.78743  1.0000
  Fe  Fe248     1.0  0.73714  0.62930  0.83937  1.0000
  S   S489      1.0  0.70603  0.64256  0.83733  1.0000
  Fe  Fe249     1.0  0.76467  0.59234  0.85077  1.0000
  S   S490      1.0  0.77026  0.56107  0.86373  1.0000
  S   S491      1.0  0.76092  0.64635  0.83095  1.0000
  S   S492      1.0  0.79053  0.60689  0.84343  1.0000
  Fe  Fe250     1.0  0.89705  0.61717  0.73329  1.0000
  S   S493      1.0  0.87793  0.62774  0.71152  1.0000
  S   S494      1.0  0.88527  0.61489  0.76473  1.0000
  Fe  Fe251     1.0  0.93261  0.60664  0.70343  1.0000
  S   S495      1.0  0.91573  0.61594  0.67967  1.0000
  S   S496      1.0  0.96376  0.59321  0.69520  1.0000
  Fe  Fe252     1.0  0.90257  0.64138  0.69383  1.0000
  Fe  Fe253     1.0  0.89308  0.60128  0.69968  1.0000
  S   S497      1.0  0.87672  0.58027  0.69437  1.0000
  S   S498      1.0  0.92077  0.63281  0.71666  1.0000
  S   S499      1.0  0.91093  0.58997  0.72233  1.0000
  H   H3785     1.0  0.92171  0.54598  0.72139  1.0000
  H   H3786     1.0  0.85023  0.55195  0.76808  1.0000
  C   C2135     1.0  0.98204  0.60516  0.69684  1.0000
  H   H3787     1.0  0.83775  0.72156  0.65143  1.0000
  H   H3788     1.0  0.91789  0.52165  0.72781  1.0000
  H   H3789     1.0  0.84828  0.57284  0.77807  1.0000
  H   H3790     1.0  0.83245  0.49371  0.77822  1.0000
  H   H3791     1.0  0.74118  0.54071  0.81811  1.0000
  N   N118      1.0  0.81781  0.50852  0.81422  1.0000
  C   C2136     1.0  0.76294  0.51099  0.85270  1.0000
  H   H3792     1.0  0.81158  0.56726  0.73063  1.0000
  H   H3793     1.0  0.92894  0.67527  0.70318  1.0000
  H   H3794     1.0  0.74798  0.70353  0.78631  1.0000
  C   C2137     1.0  0.82168  0.49797  0.83342  1.0000
  H   H3795     1.0  0.93883  0.54050  0.67486  1.0000
  H   H3796     1.0  0.78377  0.56179  0.79004  1.0000
  H   H3797     1.0  0.75317  0.54125  0.96887  1.0000
  H   H3798     1.0  0.76138  0.52886  0.92104  1.0000
  C   C2138     1.0  0.85459  0.56607  0.76539  1.0000
  H   H3799     1.0  0.80591  0.60043  0.73081  1.0000
  H   H3800     1.0  0.70578  0.65906  0.87820  1.0000
  H   H3801     1.0  0.77335  0.51520  0.93952  1.0000
  H   H3802     1.0  0.79267  0.60786  0.89235  1.0000
  H   H3803     1.0  0.93745  0.53662  0.64088  1.0000
  H   H3804     1.0  0.80656  0.53754  0.80233  1.0000
  H   H3805     1.0  0.81618  0.56728  0.80654  1.0000
  H   H3806     1.0  0.77060  0.58156  0.91284  1.0000
  H   H3807     1.0  0.72592  0.70764  0.90311  1.0000
  C   C2139     1.0  0.82855  0.53073  0.73121  1.0000
  H   H3808     1.0  0.54024  0.72152  0.86605  1.0000
  H   H3809     1.0  0.79685  0.48797  0.77590  1.0000
  H   H3810     1.0  0.77852  0.50826  0.77022  1.0000
  C   C2140     1.0  0.82032  0.59970  0.73439  1.0000
  C   C2141     1.0  0.89636  0.52436  0.69068  1.0000
  H   H3811     1.0  0.78415  0.58567  0.79348  1.0000
  H   H3812     1.0  0.82484  0.54071  0.75729  1.0000
  C   C2142     1.0  0.81242  0.56130  0.82172  1.0000
  H   H3813     1.0  0.81800  0.56402  0.77295  1.0000
  C   C2143     1.0  0.74241  0.52286  0.94758  1.0000
  C   C2144     1.0  0.76745  0.54355  0.96040  1.0000
  H   H3814     1.0  0.52427  0.69376  0.90715  1.0000
  C   C2145     1.0  0.75315  0.51669  0.83736  1.0000
  C   C2146     1.0  0.76199  0.52781  0.93624  1.0000
  S   S500      1.0  0.93159  0.50237  0.67961  1.0000
  N   N119      1.0  0.76734  0.54572  0.93953  1.0000
  C   C2147     1.0  0.78561  0.49918  0.78185  1.0000
  H   H3815     1.0  0.96096  0.64859  0.68360  1.0000
  C   C2148     1.0  0.83327  0.60612  0.71537  1.0000
  C   C2149     1.0  0.78070  0.57719  0.78408  1.0000
  H   H3816     1.0  0.81742  0.53498  0.84091  1.0000
  H   H3817     1.0  0.77539  0.52023  0.87276  1.0000
  H   H3818     1.0  0.79217  0.55993  0.93021  1.0000
  S   S501      1.0  0.79925  0.60951  0.95716  1.0000
  H   H3819     1.0  0.86901  0.54216  0.69885  1.0000
  C   C2150     1.0  0.76804  0.52473  0.86074  1.0000
  H   H3820     1.0  0.81623  0.58869  0.77246  1.0000
  C   C2151     1.0  0.76354  0.54425  0.85338  1.0000
  H   H3821     1.0  0.82178  0.54495  0.90246  1.0000
  C   C2152     1.0  0.81968  0.53973  0.82534  1.0000
  H   H3822     1.0  0.74002  0.56482  0.94465  1.0000
  C   C2153     1.0  0.73602  0.64027  0.94351  1.0000
  H   H3823     1.0  0.81846  0.61080  0.74334  1.0000
  C   C2154     1.0  0.50059  0.66946  0.97006  1.0000
  N   N120      1.0  0.82721  0.58023  0.74526  1.0000
  H   H3824     1.0  0.97342  0.55324  0.68608  1.0000
  H   H3825     1.0  0.75593  0.68632  0.87480  1.0000
  H   H3826     1.0  0.78889  0.57197  0.75556  1.0000
  H   H3827     1.0  0.69452  0.62900  0.88071  1.0000
  H   H3828     1.0  0.80199  0.59358  0.92372  1.0000
  H   H3829     1.0  0.89982  0.65398  0.64893  1.0000
  C   C2155     1.0  0.79218  0.58134  0.76413  1.0000
  H   H3830     1.0  0.71563  0.71341  0.95486  1.0000
  H   H3831     1.0  0.94803  0.52315  0.70542  1.0000
  H   H3832     1.0  0.73117  0.53578  0.94880  1.0000
  H   H3833     1.0  0.83321  0.59724  0.70481  1.0000
  C   C2156     1.0  0.89191  0.55861  0.69031  1.0000
  C   C2157     1.0  0.91165  0.55804  0.68366  1.0000
  S   S502      1.0  0.90021  0.67265  0.68035  1.0000
  H   H3834     1.0  0.92618  0.53226  0.74407  1.0000
  H   H3835     1.0  0.91765  0.57097  0.68100  1.0000
  H   H3836     1.0  0.54485  0.70106  0.92714  1.0000
  H   H3837     1.0  0.66195  0.68897  0.92351  1.0000
  H   H3838     1.0  0.59116  0.72080  0.94330  1.0000
  H   H3839     1.0  0.73186  0.51675  0.92417  1.0000
  H   H3840     1.0  0.73221  0.49184  0.87894  1.0000
  C   C2158     1.0  0.51681  0.68042  0.96009  1.0000
  H   H3841     1.0  0.96393  0.62361  0.71538  1.0000
  C   C2159     1.0  0.79461  0.51141  0.79089  1.0000
  C   C2160     1.0  0.73480  0.50958  0.93841  1.0000
  H   H3842     1.0  0.83550  0.52230  0.78954  1.0000
  H   H3843     1.0  0.96089  0.53757  0.73639  1.0000
  H   H3844     1.0  0.80732  0.56849  0.89751  1.0000
  C   C2161     1.0  0.75402  0.54993  0.83787  1.0000
  H   H3845     1.0  0.85014  0.59376  0.74864  1.0000
  H   H3846     1.0  0.75043  0.56491  0.83213  1.0000
  C   C2162     1.0  0.69754  0.66599  0.84207  1.0000
  C   C2163     1.0  0.67761  0.67264  0.84625  1.0000
  C   C2164     1.0  0.67054  0.69070  0.85155  1.0000
  C   C2165     1.0  0.68340  0.70232  0.85237  1.0000
  C   C2166     1.0  0.70327  0.69593  0.84758  1.0000
  C   C2167     1.0  0.71033  0.67784  0.84248  1.0000
  H   H3847     1.0  0.66763  0.66353  0.84595  1.0000
  H   H3848     1.0  0.65518  0.69547  0.85534  1.0000
  H   H3849     1.0  0.71329  0.70490  0.84810  1.0000
  H   H3850     1.0  0.72567  0.67293  0.83925  1.0000
  C   C2168     1.0  0.81950  0.62399  0.78201  1.0000
  C   C2169     1.0  0.83121  0.61222  0.79430  1.0000
  C   C2170     1.0  0.85142  0.60973  0.78908  1.0000
  C   C2171     1.0  0.85995  0.61866  0.77137  1.0000
  C   C2172     1.0  0.84815  0.63044  0.75917  1.0000
  C   C2173     1.0  0.82803  0.63313  0.76450  1.0000
  H   H3851     1.0  0.82465  0.60474  0.80757  1.0000
  H   H3852     1.0  0.86048  0.60054  0.79855  1.0000
  H   H3853     1.0  0.85453  0.63778  0.74574  1.0000
  H   H3854     1.0  0.81904  0.64232  0.75496  1.0000
  C   C2174     1.0  0.78294  0.63613  0.89919  1.0000
  C   C2175     1.0  0.78039  0.64740  0.91314  1.0000
  C   C2176     1.0  0.78501  0.63921  0.93104  1.0000
  C   C2177     1.0  0.79280  0.61979  0.93493  1.0000
  C   C2178     1.0  0.79578  0.60857  0.92082  1.0000
  C   C2179     1.0  0.79051  0.61662  0.90309  1.0000
  H   H3855     1.0  0.77477  0.66253  0.91013  1.0000
  H   H3856     1.0  0.78287  0.64801  0.94174  1.0000
  H   H3857     1.0  0.74828  0.61132  0.91395  1.0000
  H   H3858     1.0  0.81068  0.55177  0.88161  1.0000
  H   H3859     1.0  0.94207  0.66290  0.67235  1.0000
  C   C2180     1.0  0.80858  0.52887  0.81633  1.0000
  H   H3860     1.0  0.51099  0.69598  0.95735  1.0000
  H   H3861     1.0  0.81284  0.53256  0.73127  1.0000
  H   H3862     1.0  0.71400  0.64185  0.89697  1.0000
  C   C2181     1.0  0.91606  0.52386  0.68380  1.0000
  C   C2182     1.0  0.83634  0.50877  0.79998  1.0000
  C   C2183     1.0  0.84410  0.72437  0.66278  1.0000
  H   H3863     1.0  0.73612  0.59394  0.90956  1.0000
  H   H3864     1.0  0.87364  0.49118  0.78491  1.0000
  H   H3865     1.0  0.69666  0.71052  0.80908  1.0000
  H   H3866     1.0  0.97348  0.52883  0.68593  1.0000
  H   H3867     1.0  0.88350  0.55523  0.75136  1.0000
  H   H3868     1.0  0.97632  0.63167  0.65969  1.0000
  C   C2184     1.0  0.54297  0.71050  0.91352  1.0000
  C   C2185     1.0  0.75258  0.56268  0.93304  1.0000
  H   H3869     1.0  0.94351  0.68779  0.71167  1.0000
  H   H3870     1.0  0.85803  0.57534  0.73489  1.0000
  C   C2186     1.0  0.82628  0.56542  0.73397  1.0000
  H   H3871     1.0  0.69552  0.70514  0.78690  1.0000
  H   H3872     1.0  0.84851  0.50875  0.80715  1.0000
  H   H3873     1.0  0.90915  0.70761  0.65773  1.0000
  H   H3874     1.0  0.55971  0.70489  0.95311  1.0000
  C   C2187     1.0  0.88426  0.54177  0.69373  1.0000
  H   H3875     1.0  0.67425  0.68419  0.94326  1.0000
  H   H3876     1.0  0.95000  0.69269  0.67695  1.0000
  H   H3877     1.0  0.69301  0.72988  0.95855  1.0000
  C   C2188     1.0  0.74765  0.69936  0.88025  1.0000
  C   C2189     1.0  0.61175  0.70487  0.92437  1.0000
  C   C2190     1.0  0.75941  0.58217  0.92570  1.0000
  C   C2191     1.0  0.65805  0.71078  0.80753  1.0000
  H   H3878     1.0  0.83372  0.51569  0.73746  1.0000
  C   C2192     1.0  0.84776  0.57936  0.74766  1.0000
  H   H3879     1.0  0.79805  0.53487  0.93540  1.0000
  C   C2193     1.0  0.92362  0.54077  0.68016  1.0000
  C   C2194     1.0  0.98146  0.53846  0.68987  1.0000
  C   C2195     1.0  0.95639  0.67882  0.68474  1.0000
  H   H3880     1.0  0.72133  0.72047  0.76993  1.0000
  H   H3881     1.0  0.80794  0.49883  0.84386  1.0000
  H   H3882     1.0  0.77827  0.55356  0.90119  1.0000
  H   H3883     1.0  0.68253  0.63015  0.90469  1.0000
  H   H3884     1.0  0.76502  0.58122  0.78367  1.0000
  H   H3885     1.0  0.83537  0.53709  0.81970  1.0000
  H   H3886     1.0  0.79261  0.53030  0.90592  1.0000
  H   H3887     1.0  0.73008  0.68851  0.79025  1.0000
  H   H3888     1.0  0.98319  0.50408  0.71093  1.0000
  C   C2196     1.0  0.83256  0.54427  0.74269  1.0000
  C   C2197     1.0  0.95231  0.64070  0.64430  1.0000
  H   H3889     1.0  0.74211  0.68557  0.90913  1.0000
  H   H3890     1.0  0.52791  0.67795  0.96919  1.0000
  H   H3891     1.0  0.95263  0.51007  0.72793  1.0000
  H   H3892     1.0  0.85731  0.70700  0.68640  1.0000
  H   H3893     1.0  0.94739  0.67919  0.64112  1.0000
  H   H3894     1.0  0.58297  0.72105  0.90334  1.0000
  H   H3895     1.0  0.76624  0.49604  0.85865  1.0000
  C   C2198     1.0  0.90412  0.68002  0.65566  1.0000
  H   H3896     1.0  0.61633  0.70447  0.90904  1.0000
  C   C2199     1.0  0.94801  0.52456  0.72008  1.0000
  H   H3897     1.0  0.80946  0.48498  0.80555  1.0000
  H   H3898     1.0  0.74652  0.55987  0.92132  1.0000
  H   H3899     1.0  0.57500  0.70569  0.92405  1.0000
  C   C2200     1.0  0.59524  0.72156  0.92778  1.0000
  H   H3900     1.0  0.97848  0.50910  0.74608  1.0000
  C   C2201     1.0  0.92720  0.53160  0.72893  1.0000
  H   H3901     1.0  0.82673  0.63651  0.71685  1.0000
  H   H3902     1.0  0.51575  0.73207  0.84512  1.0000
  H   H3903     1.0  0.83587  0.56756  0.71998  1.0000
  H   H3904     1.0  0.87408  0.72532  0.65042  1.0000
  C   C2202     1.0  0.66191  0.71355  0.93525  1.0000
  C   C2203     1.0  0.81415  0.57819  0.76430  1.0000
  H   H3905     1.0  0.94999  0.66227  0.71297  1.0000
  C   C2204     1.0  0.74274  0.59784  0.92025  1.0000
  H   H3906     1.0  0.63920  0.70074  0.79354  1.0000
  H   H3907     1.0  0.55461  0.70518  0.90229  1.0000
  H   H3908     1.0  0.72084  0.50381  0.89879  1.0000
  H   H3909     1.0  0.73978  0.70862  0.86923  1.0000
  C   C2205     1.0  0.52370  0.70859  0.90919  1.0000
  S   S503      1.0  0.74612  0.49992  0.82715  1.0000
  H   H3910     1.0  0.65782  0.72365  0.92255  1.0000
  H   H3911     1.0  0.75800  0.70724  0.88319  1.0000
  C   C2206     1.0  0.96148  0.53826  0.72109  1.0000
  H   H3912     1.0  0.97502  0.56407  0.73485  1.0000
  H   H3913     1.0  0.86259  0.50739  0.76625  1.0000
  H   H3914     1.0  0.67434  0.64779  0.88531  1.0000
  C   C2207     1.0  0.78755  0.54673  0.92894  1.0000
  C   C2208     1.0  0.71881  0.71919  0.78556  1.0000
  H   H3915     1.0  0.79386  0.52931  0.82495  1.0000
  N   N121      1.0  0.83504  0.64149  0.84705  1.0000
  C   C2209     1.0  0.83284  0.62202  0.85857  1.0000
  C   C2210     1.0  0.82846  0.65683  0.85939  1.0000
  C   C2211     1.0  0.82195  0.64576  0.83252  1.0000
  C   C2212     1.0  0.85538  0.64197  0.83670  1.0000
  C   C2213     1.0  0.87127  0.63648  0.84907  1.0000
  C   C2214     1.0  0.84047  0.60472  0.84809  1.0000
  C   C2215     1.0  0.82163  0.66555  0.81940  1.0000
  C   C2216     1.0  0.83107  0.65115  0.88040  1.0000
  C   C2217     1.0  0.82513  0.66843  0.89047  1.0000
  C   C2218     1.0  0.89131  0.63471  0.83680  1.0000
  C   C2219     1.0  0.83705  0.58605  0.86128  1.0000
  C   C2220     1.0  0.80545  0.66985  0.80783  1.0000
  H   H3916     1.0  0.81736  0.62189  0.86484  1.0000
  H   H3917     1.0  0.84048  0.61874  0.87077  1.0000
  H   H3918     1.0  0.83562  0.66939  0.85307  1.0000
  H   H3919     1.0  0.81273  0.66250  0.86002  1.0000
  H   H3920     1.0  0.80686  0.64465  0.83967  1.0000
  H   H3921     1.0  0.82608  0.63512  0.82288  1.0000
  H   H3922     1.0  0.85906  0.63278  0.82560  1.0000
  H   H3923     1.0  0.85674  0.65658  0.82881  1.0000
  H   H3924     1.0  0.87042  0.62265  0.85868  1.0000
  H   H3925     1.0  0.87004  0.64779  0.85753  1.0000
  H   H3926     1.0  0.83315  0.60594  0.83603  1.0000
  H   H3927     1.0  0.85620  0.60341  0.84276  1.0000
  H   H3928     1.0  0.83540  0.66572  0.80923  1.0000
  H   H3929     1.0  0.81945  0.67735  0.82747  1.0000
  H   H3930     1.0  0.82173  0.64066  0.88806  1.0000
  H   H3931     1.0  0.84615  0.64469  0.88183  1.0000
  H   H3932     1.0  0.80981  0.67495  0.88986  1.0000
  H   H3933     1.0  0.82662  0.66379  0.90556  1.0000
  H   H3934     1.0  0.83443  0.67927  0.88393  1.0000
  H   H3935     1.0  0.89316  0.64839  0.82711  1.0000
  H   H3936     1.0  0.90249  0.63114  0.84593  1.0000
  H   H3937     1.0  0.89357  0.62318  0.82832  1.0000
  H   H3938     1.0  0.84475  0.58357  0.87341  1.0000
  H   H3939     1.0  0.82141  0.58646  0.86669  1.0000
  H   H3940     1.0  0.84247  0.57390  0.85346  1.0000
  H   H3941     1.0  0.80691  0.65845  0.79940  1.0000
  H   H3942     1.0  0.79118  0.67105  0.81726  1.0000
  H   H3943     1.0  0.80612  0.68360  0.79796  1.0000
  H   H3944     1.0  0.71249  0.69074  0.88267  1.0000
  H   H3945     1.0  0.73160  0.60025  0.93289  1.0000
  H   H3946     1.0  0.78678  0.59647  0.75841  1.0000
  H   H3947     1.0  0.67547  0.63289  0.95454  1.0000
  H   H3948     1.0  0.94037  0.64196  0.65643  1.0000
  H   H3949     1.0  0.71755  0.63669  0.92603  1.0000
  H   H3950     1.0  0.88164  0.57654  0.76110  1.0000
  H   H3951     1.0  0.99095  0.48486  0.64548  1.0000
  H   H3952     1.0  0.52373  0.67557  0.94650  1.0000
  H   H3953     1.0  0.60729  0.69110  0.93165  1.0000
  C   C2221     1.0  0.80333  0.49970  0.80829  1.0000
  H   H3954     1.0  0.74599  0.62660  0.94176  1.0000
  H   H3955     1.0  0.64866  0.71191  0.94587  1.0000
  C   C2222     1.0  0.73354  0.69409  0.89836  1.0000
  C   C2223     1.0  0.94394  0.67579  0.70432  1.0000
  C   C2224     1.0  0.95716  0.66229  0.67400  1.0000
  H   H3956     1.0  0.95476  0.55322  0.71584  1.0000
  H   H3957     1.0  0.72525  0.63778  0.95657  1.0000
  H   H3958     1.0  0.79096  0.49778  0.82006  1.0000
  H   H3959     1.0  0.76543  0.58660  0.93642  1.0000
  C   C2225     1.0  0.97828  0.61963  0.70769  1.0000
  H   H3960     1.0  0.53453  0.71517  0.95349  1.0000
  H   H3961     1.0  0.62698  0.71864  0.80793  1.0000
  H   H3962     1.0  0.88101  0.55385  0.77653  1.0000
  C   C2226     1.0  0.70894  0.72834  0.95654  1.0000
  C   C2227     1.0  0.85073  0.70509  0.67469  1.0000
  H   H3963     1.0  0.78483  0.56608  0.95832  1.0000
  C   C2228     1.0  0.87653  0.56274  0.76343  1.0000
  H   H3964     1.0  0.62427  0.70655  0.93003  1.0000
  C   C2229     1.0  0.63860  0.70594  0.80685  1.0000
  H   H3965     1.0  0.84835  0.54127  0.74256  1.0000
  H   H3966     1.0  0.78306  0.52322  0.79539  1.0000
  H   H3967     1.0  0.51188  0.71177  0.92110  1.0000
  H   H3968     1.0  0.94306  0.50109  0.64043  1.0000
  H   H3969     1.0  0.65704  0.71494  0.82136  1.0000
  C   C2230     1.0  0.57791  0.72038  0.91884  1.0000
  H   H3970     1.0  0.96198  0.69300  0.64683  1.0000
  C   C2231     1.0  0.80881  0.55315  0.89669  1.0000
  H   H3971     1.0  0.79653  0.56458  0.82621  1.0000
  H   H3972     1.0  0.89041  0.51137  0.69350  1.0000
  H   H3973     1.0  0.80566  0.51780  0.77995  1.0000
  C   C2232     1.0  0.74878  0.53619  0.82995  1.0000
  C   C2233     1.0  0.79079  0.54545  0.90766  1.0000
  C   C2234     1.0  0.82612  0.62690  0.70713  1.0000
  C   C2235     1.0  0.84264  0.49249  0.78799  1.0000
  H   H3974     1.0  0.84832  0.60507  0.71712  1.0000
  H   H3975     1.0  0.81111  0.62882  0.70462  1.0000
  H   H3976     1.0  0.83623  0.53340  0.71638  1.0000
  H   H3977     1.0  0.83554  0.63100  0.69345  1.0000
  N   N122      1.0  0.70377  0.67736  0.91133  1.0000
  C   C2236     1.0  0.71931  0.68246  0.89483  1.0000
  C   C2237     1.0  0.69114  0.66600  0.90580  1.0000
  C   C2238     1.0  0.69134  0.69588  0.91615  1.0000
  C   C2239     1.0  0.71209  0.66680  0.92857  1.0000
  C   C2240     1.0  0.72593  0.64767  0.92650  1.0000
  H   H3978     1.0  0.68762  0.70567  0.90304  1.0000
  C   C2241     1.0  0.67200  0.69416  0.93000  1.0000
  C   C2242     1.0  0.70106  0.65135  0.89250  1.0000
  C   C2243     1.0  0.68718  0.63883  0.89079  1.0000
  H   H3979     1.0  0.63499  0.69451  0.81893  1.0000
  C   C2244     1.0  0.66351  0.72705  0.79110  1.0000
  H   H3980     1.0  0.81923  0.56840  0.82992  1.0000
  S   S504      1.0  0.67544  0.72437  0.86033  1.0000
  H   H3981     1.0  0.72840  0.66958  0.88969  1.0000
  H   H3982     1.0  0.68288  0.65840  0.91867  1.0000
  H   H3983     1.0  0.68019  0.67587  0.89797  1.0000
  H   H3984     1.0  0.77781  0.53045  0.96495  1.0000
  H   H3985     1.0  0.69937  0.70357  0.92262  1.0000
  H   H3986     1.0  0.71961  0.67614  0.93363  1.0000
  H   H3987     1.0  0.70046  0.66335  0.94061  1.0000
  H   H3988     1.0  0.73728  0.64899  0.91378  1.0000
  H   H3989     1.0  0.67139  0.71972  0.94154  1.0000
  H   H3990     1.0  0.74463  0.65068  0.94499  1.0000
  H   H3991     1.0  0.73190  0.70079  0.80866  1.0000
  H   H3992     1.0  0.96703  0.51444  0.65059  1.0000
  C   C2245     1.0  0.54849  0.71747  0.95587  1.0000
  H   H3993     1.0  0.52041  0.71850  0.89613  1.0000
  H   H3994     1.0  0.66885  0.69744  0.80688  1.0000
  H   H3995     1.0  0.68592  0.69549  0.96801  1.0000
  H   H3996     1.0  0.83823  0.69776  0.68084  1.0000
  H   H3997     1.0  0.83147  0.50471  0.83873  1.0000
  N   N123      1.0  0.97062  0.66252  0.65516  1.0000
  C   C2246     1.0  0.73300  0.70192  0.79318  1.0000
  S   S505      1.0  0.57739  0.73064  0.86366  1.0000
  C   C2247     1.0  0.69764  0.71667  0.79376  1.0000
  C   C2248     1.0  0.90276  0.66826  0.64337  1.0000
  N   N124      1.0  0.98201  0.53413  0.71081  1.0000
  H   H3998     1.0  0.73071  0.73233  0.97046  1.0000
  C   C2249     1.0  0.97137  0.64387  0.64878  1.0000
  C   C2250     1.0  0.90792  0.69852  0.64828  1.0000
  H   H3999     1.0  0.72115  0.50586  0.94722  1.0000
  C   C2251     1.0  0.54378  0.73157  0.91397  1.0000
  H   H4000     1.0  0.74640  0.49469  0.89531  1.0000
  H   H4001     1.0  0.74438  0.51551  0.96204  1.0000
  C   C2252     1.0  0.86254  0.49341  0.77586  1.0000
  H   H4002     1.0  0.97088  0.67988  0.68685  1.0000
  C   C2253     1.0  0.99095  0.51342  0.71569  1.0000
  H   H4003     1.0  0.74540  0.49619  0.93715  1.0000
  H   H4004     1.0  0.95828  0.60963  0.65168  1.0000
  C   C2254     1.0  0.77204  0.56065  0.96717  1.0000
  H   H4005     1.0  0.75943  0.57248  0.96708  1.0000
  H   H4006     1.0  0.66430  0.72176  0.77772  1.0000
  C   C2255     1.0  0.95459  0.62079  0.63950  1.0000
  H   H4007     1.0  0.72236  0.73206  0.78880  1.0000
  C   C2256     1.0  0.96263  0.67954  0.64165  1.0000
  H   H4008     1.0  0.77456  0.49233  0.79241  1.0000
  C   C2257     1.0  0.73216  0.49200  0.89404  1.0000
  H   H4009     1.0  0.86149  0.69577  0.66579  1.0000
  H   H4010     1.0  0.98770  0.54185  0.74595  1.0000
  C   C2258     1.0  0.54300  0.73157  0.85316  1.0000
  C   C2259     1.0  0.99036  0.66406  0.65815  1.0000
  C   C2260     1.0  0.98897  0.55391  0.73404  1.0000
  H   H4011     1.0  0.99022  0.64000  0.71726  1.0000
  H   H4012     1.0  0.69640  0.62163  0.96509  1.0000
  C   C2261     1.0  0.68091  0.62814  0.96812  1.0000
  H   H4013     1.0  0.98992  0.53694  0.65133  1.0000
  H   H4014     1.0  0.69750  0.48396  0.93637  1.0000
  H   H4015     1.0  0.67972  0.48533  0.96850  1.0000
  H   H4016     1.0  0.99114  0.67927  0.65777  1.0000
  H   H4017     1.0  0.83249  0.73269  0.67193  1.0000
  H   H4018     1.0  0.56648  0.97605  0.26392  1.0000
  Fe  Fe254     1.0  0.65349  0.90497  0.27803  1.0000
  C   C2262     1.0  0.51985  0.80026  0.02186  1.0000
  Fe  Fe255     1.0  0.66812  0.86260  0.27879  1.0000
  H   H4019     1.0  0.95749  0.75598  0.27442  1.0000
  S   S506      1.0  0.68360  0.83899  0.26217  1.0000
  H   H4020     1.0  0.57236  0.83324  0.97642  1.0000
  H   H4021     1.0  0.50937  0.81386  0.02163  1.0000
  H   H4022     1.0  0.67216  0.92879  0.29096  1.0000
  H   H4023     1.0  0.52355  0.74376  0.20004  1.0000
  S   S507      1.0  0.64113  0.88184  0.27129  1.0000
  S   S508      1.0  0.68173  0.88640  0.28294  1.0000
  Fe  Fe256     1.0  0.62516  0.77406  0.17764  1.0000
  S   S509      1.0  0.63492  0.80061  0.16079  1.0000
  S   S510      1.0  0.59292  0.77654  0.18652  1.0000
  Fe  Fe257     1.0  0.66652  0.75418  0.17970  1.0000
  S   S511      1.0  0.67927  0.77961  0.16300  1.0000
  H   H4024     1.0  0.52034  0.90501  0.29065  1.0000
  Fe  Fe258     1.0  0.65532  0.79668  0.18107  1.0000
  S   S512      1.0  0.65382  0.82413  0.19199  1.0000
  Fe  Fe259     1.0  0.65753  0.78109  0.14448  1.0000
  S   S513      1.0  0.66209  0.78876  0.11262  1.0000
  S   S514      1.0  0.64407  0.77115  0.19910  1.0000
  S   S515      1.0  0.64631  0.75456  0.16001  1.0000
  H   H4025     1.0  0.62963  0.96822  0.22917  1.0000
  S   S516      1.0  0.54631  0.84959  0.26704  1.0000
  C   C2263     1.0  0.57956  0.76754  0.17397  1.0000
  C   C2264     1.0  0.55971  0.77443  0.17561  1.0000
  C   C2265     1.0  0.54820  0.76674  0.16700  1.0000
  C   C2266     1.0  0.55648  0.75207  0.15664  1.0000
  H   H4026     1.0  0.50005  0.77738  0.23382  1.0000
  C   C2267     1.0  0.58801  0.75318  0.16320  1.0000
  H   H4027     1.0  0.55323  0.78579  0.18359  1.0000
  H   H4028     1.0  0.53288  0.77205  0.16857  1.0000
  H   H4029     1.0  0.69736  0.74051  0.04369  1.0000
  H   H4030     1.0  0.62654  0.96347  0.29072  1.0000
  H   H4031     1.0  0.58139  0.83360  0.23385  1.0000
  C   C2268     1.0  0.70448  0.74976  0.03140  1.0000
  C   C2269     1.0  0.49444  0.78577  0.29275  1.0000
  H   H4032     1.0  0.54092  0.75593  0.10301  1.0000
  H   H4033     1.0  0.70811  0.74879  0.97381  1.0000
  H   H4034     1.0  0.60333  0.74776  0.16189  1.0000
  C   C2270     1.0  0.65593  0.76212  0.07153  1.0000
  H   H4035     1.0  0.52566  0.77549  0.20501  1.0000
  C   C2271     1.0  0.59033  0.86621  0.28189  1.0000
  C   C2272     1.0  0.57806  0.86211  0.27133  1.0000
  C   C2273     1.0  0.56088  0.85571  0.28039  1.0000
  H   H4036     1.0  0.59246  0.76784  0.22786  1.0000
  H   H4037     1.0  0.71958  0.74885  0.03313  1.0000
  H   H4038     1.0  0.60335  0.87150  0.27478  1.0000
  H   H4039     1.0  0.58179  0.86407  0.25609  1.0000
  H   H4040     1.0  0.59318  0.79364  0.29209  1.0000
  H   H4041     1.0  0.51666  0.80274  0.26388  1.0000
  C   C2274     1.0  0.67398  0.83389  0.24387  1.0000
  C   C2275     1.0  0.65869  0.84638  0.23650  1.0000
  C   C2276     1.0  0.65263  0.84304  0.22071  1.0000
  C   C2277     1.0  0.66125  0.82677  0.21256  1.0000
  C   C2278     1.0  0.67594  0.81374  0.22043  1.0000
  C   C2279     1.0  0.68242  0.81743  0.23591  1.0000
  H   H4042     1.0  0.65170  0.85878  0.24272  1.0000
  H   H4043     1.0  0.64117  0.85311  0.21476  1.0000
  H   H4044     1.0  0.68272  0.80120  0.21420  1.0000
  H   H4045     1.0  0.69422  0.80764  0.24155  1.0000
  H   H4046     1.0  0.57788  0.75007  0.23938  1.0000
  H   H4047     1.0  0.73684  0.74283  0.22468  1.0000
  C   C2280     1.0  0.72116  0.75578  0.20219  1.0000
  H   H4048     1.0  0.60210  0.80435  0.07076  1.0000
  H   H4049     1.0  0.55365  0.77371  0.11922  1.0000
  C   C2281     1.0  0.57098  0.78594  0.09260  1.0000
  H   H4050     1.0  0.51178  0.73653  0.04010  1.0000
  C   C2282     1.0  0.63294  0.82774  0.28555  1.0000
  H   H4051     1.0  0.56059  0.81288  0.29638  1.0000
  H   H4052     1.0  0.54116  0.81686  0.23994  1.0000
  H   H4053     1.0  0.58952  0.82456  0.20178  1.0000
  H   H4054     1.0  0.61776  0.79546  0.09572  1.0000
  C   C2283     1.0  0.53432  0.97617  0.28801  1.0000
  C   C2284     1.0  0.67102  0.94356  0.28406  1.0000
  H   H4055     1.0  0.53306  0.76736  0.01009  1.0000
  C   C2285     1.0  0.65659  0.77615  0.08185  1.0000
  C   C2286     1.0  0.66086  0.77092  0.10020  1.0000
  C   C2287     1.0  0.66455  0.75157  0.10815  1.0000
  C   C2288     1.0  0.53216  0.80065  0.03663  1.0000
  H   H4056     1.0  0.65386  0.79110  0.07560  1.0000
  H   H4057     1.0  0.51759  0.76109  0.09596  1.0000
  H   H4058     1.0  0.55610  0.89751  0.29609  1.0000
  N   N125      1.0  0.69336  0.89535  0.21609  1.0000
  C   C2289     1.0  0.70597  0.87637  0.22166  1.0000
  C   C2290     1.0  0.69300  0.90893  0.22931  1.0000
  C   C2291     1.0  0.67309  0.89161  0.21834  1.0000
  C   C2292     1.0  0.69943  0.90415  0.19579  1.0000
  C   C2293     1.0  0.72065  0.90704  0.18976  1.0000
  C   C2294     1.0  0.70771  0.86093  0.20934  1.0000
  C   C2295     1.0  0.65723  0.90945  0.21473  1.0000
  C   C2296     1.0  0.71179  0.90775  0.23700  1.0000
  C   C2297     1.0  0.71022  0.92417  0.24756  1.0000
  C   C2298     1.0  0.72565  0.91290  0.16834  1.0000
  C   C2299     1.0  0.72218  0.84314  0.21534  1.0000
  C   C2300     1.0  0.63741  0.90376  0.21787  1.0000
  H   H4059     1.0  0.70060  0.87019  0.23658  1.0000
  H   H4060     1.0  0.72089  0.87810  0.22155  1.0000
  H   H4061     1.0  0.68840  0.92400  0.22262  1.0000
  H   H4062     1.0  0.68188  0.90648  0.24221  1.0000
  H   H4063     1.0  0.66869  0.88393  0.23289  1.0000
  H   H4064     1.0  0.67233  0.88210  0.20857  1.0000
  H   H4065     1.0  0.69632  0.89570  0.18612  1.0000
  H   H4066     1.0  0.69065  0.91859  0.19251  1.0000
  H   H4067     1.0  0.73092  0.89388  0.19384  1.0000
  H   H4068     1.0  0.72288  0.91877  0.19614  1.0000
  H   H4069     1.0  0.69373  0.85627  0.21077  1.0000
  H   H4070     1.0  0.71272  0.86629  0.19421  1.0000
  H   H4071     1.0  0.66002  0.91700  0.19995  1.0000
  H   H4072     1.0  0.65639  0.91964  0.22432  1.0000
  H   H4073     1.0  0.71443  0.89423  0.24718  1.0000
  H   H4074     1.0  0.72458  0.90808  0.22570  1.0000
  H   H4075     1.0  0.72387  0.92309  0.25276  1.0000
  H   H4076     1.0  0.70737  0.93821  0.23822  1.0000
  H   H4077     1.0  0.69841  0.92341  0.25994  1.0000
  H   H4078     1.0  0.71601  0.92629  0.16339  1.0000
  H   H4079     1.0  0.74077  0.91541  0.16440  1.0000
  H   H4080     1.0  0.72430  0.90141  0.16107  1.0000
  H   H4081     1.0  0.73688  0.84658  0.21292  1.0000
  H   H4082     1.0  0.71799  0.83724  0.23051  1.0000
  H   H4083     1.0  0.72244  0.83200  0.20695  1.0000
  H   H4084     1.0  0.63738  0.89377  0.20831  1.0000
  H   H4085     1.0  0.63334  0.89682  0.23271  1.0000
  H   H4086     1.0  0.62638  0.91669  0.21489  1.0000
  Fe  Fe260     1.0  0.63863  0.74299  0.00126  1.0000
  C   C2301     1.0  0.60912  0.81293  0.23244  1.0000
  Fe  Fe261     1.0  0.51433  0.85755  0.27690  1.0000
  C   C2302     1.0  0.51526  0.77135  0.23563  1.0000
  S   S517      1.0  0.65097  0.93433  0.26029  1.0000
  H   H4087     1.0  0.52519  0.83948  0.20444  1.0000
  H   H4088     1.0  0.49514  0.76891  0.27192  1.0000
  C   C2303     1.0  0.60222  0.77297  0.07376  1.0000
  C   C2304     1.0  0.50087  0.81815  0.98785  1.0000
  C   C2305     1.0  0.59650  0.83255  0.22627  1.0000
  H   H4089     1.0  0.53487  0.82701  0.99877  1.0000
  H   H4090     1.0  0.59422  0.78945  0.03715  1.0000
  C   C2306     1.0  0.60100  0.73469  0.09808  1.0000
  H   H4091     1.0  0.65269  0.76624  0.05739  1.0000
  H   H4092     1.0  0.59768  0.76491  0.06460  1.0000
  S   S518      1.0  0.49418  0.83784  0.27716  1.0000
  C   C2307     1.0  0.57073  0.96968  0.27790  1.0000
  H   H4093     1.0  0.57553  0.80077  0.05379  1.0000
  H   H4094     1.0  0.56462  0.79278  0.12144  1.0000
  C   C2308     1.0  0.55756  0.78755  0.11195  1.0000
  H   H4095     1.0  0.54375  0.78800  0.03783  1.0000
  C   C2309     1.0  0.55883  0.73759  0.03965  1.0000
  H   H4096     1.0  0.58112  0.76755  0.25221  1.0000
  H   H4097     1.0  0.54566  0.78337  0.25889  1.0000
  C   C2310     1.0  0.66823  0.98191  0.26651  1.0000
  H   H4098     1.0  0.57372  0.80058  0.08667  1.0000
  H   H4099     1.0  0.70884  0.74319  0.15925  1.0000
  H   H4100     1.0  0.59803  0.79422  0.13729  1.0000
  C   C2311     1.0  0.52984  0.82078  0.23097  1.0000
  C   C2312     1.0  0.54334  0.77697  0.24722  1.0000
  C   C2313     1.0  0.58404  0.75194  0.09782  1.0000
  C   C2314     1.0  0.53314  0.75548  0.09169  1.0000
  H   H4101     1.0  0.59193  0.76900  0.12225  1.0000
  H   H4102     1.0  0.53396  0.96157  0.28594  1.0000
  H   H4103     1.0  0.50386  0.79349  0.29742  1.0000
  H   H4104     1.0  0.82464  0.84164  0.30468  1.0000
  C   C2315     1.0  0.57932  0.76519  0.23831  1.0000
  H   H4105     1.0  0.62392  0.81408  0.22472  1.0000
  N   N126      1.0  0.60895  0.80667  0.25343  1.0000
  C   C2316     1.0  0.61997  0.78643  0.25633  1.0000
  C   C2317     1.0  0.58812  0.80752  0.26316  1.0000
  C   C2318     1.0  0.61834  0.82016  0.26001  1.0000
  C   C2319     1.0  0.61943  0.81623  0.28130  1.0000
  C   C2320     1.0  0.64184  0.78365  0.24789  1.0000
  C   C2321     1.0  0.58376  0.79362  0.28202  1.0000
  C   C2322     1.0  0.71480  0.73364  0.97333  1.0000
  H   H4106     1.0  0.57527  0.75043  0.08757  1.0000
  C   C2323     1.0  0.65100  0.76251  0.25057  1.0000
  H   H4107     1.0  0.61327  0.77711  0.25032  1.0000
  H   H4108     1.0  0.61911  0.78022  0.27151  1.0000
  H   H4109     1.0  0.58184  0.82228  0.26579  1.0000
  H   H4110     1.0  0.57924  0.80449  0.25377  1.0000
  H   H4111     1.0  0.63305  0.82062  0.25173  1.0000
  H   H4112     1.0  0.61049  0.83505  0.25710  1.0000
  H   H4113     1.0  0.53870  0.76482  0.07859  1.0000
  N   N127      1.0  0.59025  0.97390  0.27847  1.0000
  H   H4114     1.0  0.64450  0.78923  0.23255  1.0000
  H   H4115     1.0  0.64956  0.79097  0.25502  1.0000
  H   H4116     1.0  0.60258  0.84438  0.22884  1.0000
  H   H4117     1.0  0.58589  0.77881  0.27924  1.0000
  H   H4118     1.0  0.73161  0.76524  0.19468  1.0000
  H   H4119     1.0  0.70959  0.76390  0.21154  1.0000
  C   C2324     1.0  0.50499  0.77705  0.27536  1.0000
  H   H4120     1.0  0.58060  0.76087  0.99185  1.0000
  H   H4121     1.0  0.52238  0.92984  0.28610  1.0000
  C   C2325     1.0  0.59479  0.96564  0.29800  1.0000
  H   H4122     1.0  0.60489  0.82060  0.28950  1.0000
  H   H4123     1.0  0.64963  0.75625  0.26581  1.0000
  H   H4124     1.0  0.64408  0.75447  0.24337  1.0000
  H   H4125     1.0  0.66657  0.76097  0.24428  1.0000
  H   H4126     1.0  0.93632  0.73619  0.27422  1.0000
  H   H4127     1.0  0.67900  0.77212  0.03047  1.0000
  C   C2326     1.0  0.51977  0.80099  0.05622  1.0000
  C   C2327     1.0  0.61069  0.79458  0.12568  1.0000
  H   H4128     1.0  0.62232  0.78254  0.12951  1.0000
  H   H4129     1.0  0.61059  0.83577  0.19672  1.0000
  H   H4130     1.0  0.53941  0.84748  0.21771  1.0000
  H   H4131     1.0  0.53233  0.75723  0.04580  1.0000
  C   C2328     1.0  0.54238  0.81343  0.99380  1.0000
  H   H4132     1.0  0.61933  0.96692  0.26320  1.0000
  H   H4133     1.0  0.54358  0.76156  0.25329  1.0000
  H   H4134     1.0  0.57265  0.79861  0.98920  1.0000
  C   C2329     1.0  0.54236  0.77812  0.00307  1.0000
  S   S519      1.0  0.62807  0.75712  0.02707  1.0000
  C   C2330     1.0  0.59095  0.79964  0.04722  1.0000
  H   H4135     1.0  0.55483  0.92254  0.29381  1.0000
  H   H4136     1.0  0.56016  0.77513  0.21834  1.0000
  H   H4137     1.0  0.54352  0.81669  0.97815  1.0000
  C   C2331     1.0  0.56968  0.75607  0.98616  1.0000
  H   H4138     1.0  0.55970  0.78791  0.30450  1.0000
  H   H4139     1.0  0.56445  0.83844  0.00021  1.0000
  H   H4140     1.0  0.58685  0.84992  0.20103  1.0000
  H   H4141     1.0  0.61925  0.79249  0.05421  1.0000
  C   C2332     1.0  0.98838  0.75560  0.26996  1.0000
  C   C2333     1.0  0.57246  0.82741  0.99164  1.0000
  C   C2334     1.0  0.66115  0.95010  0.26884  1.0000
  H   H4142     1.0  0.99061  0.75992  0.28277  1.0000
  S   S520      1.0  0.65336  0.75483  0.97217  1.0000
  H   H4143     1.0  0.51095  0.80752  0.22071  1.0000
  H   H4144     1.0  0.53548  0.79911  0.21314  1.0000
  C   C2335     1.0  0.56289  0.79882  0.29180  1.0000
  C   C2336     1.0  0.97093  0.74505  0.27365  1.0000
  H   H4145     1.0  0.60448  0.80196  0.22663  1.0000
  C   C2337     1.0  0.52501  0.80290  0.22575  1.0000
  C   C2338     1.0  0.55243  0.77217  0.98379  1.0000
  C   C2339     1.0  0.55605  0.85325  0.30005  1.0000
  C   C2340     1.0  0.56164  0.77860  0.23183  1.0000
  C   C2341     1.0  0.60519  0.79324  0.10709  1.0000
  H   H4146     1.0  0.55005  0.82795  0.20508  1.0000
  C   C2342     1.0  0.53655  0.83473  0.21340  1.0000
  H   H4147     1.0  0.51671  0.82852  0.23898  1.0000
  C   C2343     1.0  0.59586  0.83584  0.20516  1.0000
  Fe  Fe262     1.0  0.51009  0.75357  0.15224  1.0000
  C   C2344     1.0  0.60483  0.96359  0.26430  1.0000
  H   H4148     1.0  0.70162  0.78046  0.02109  1.0000
  H   H4149     1.0  0.59306  0.80507  0.10448  1.0000
  H   H4150     1.0  0.61218  0.76625  0.97186  1.0000
  H   H4151     1.0  0.54163  0.81585  0.10247  1.0000
  H   H4152     1.0  0.62261  0.94500  0.23375  1.0000
  H   H4153     1.0  0.51301  0.78802  0.06097  1.0000
  C   C2345     1.0  0.65963  0.96934  0.26017  1.0000
  H   H4154     1.0  0.68871  0.95051  0.30102  1.0000
  H   H4155     1.0  0.60663  0.94782  0.26922  1.0000
  H   H4156     1.0  0.68809  0.74640  0.01112  1.0000
  C   C2346     1.0  0.53873  0.80144  0.10957  1.0000
  C   C2347     1.0  0.53065  0.91512  0.28607  1.0000
  H   H4157     1.0  0.53043  0.79613  0.10123  1.0000
  H   H4158     1.0  0.56460  0.80373  0.01248  1.0000
  N   N128      1.0  0.58950  0.77158  0.09304  1.0000
  H   H4159     1.0  0.59336  0.81387  0.03908  1.0000
  C   C2348     1.0  0.68028  0.95592  0.28987  1.0000
  C   C2349     1.0  0.70363  0.74403  0.01239  1.0000
  H   H4160     1.0  0.61127  0.73544  0.08451  1.0000
  H   H4161     1.0  0.61420  0.76333  0.10732  1.0000
  C   C2350     1.0  0.60018  0.77340  0.10796  1.0000
  H   H4162     1.0  0.62484  0.80100  0.28641  1.0000
  H   H4163     1.0  0.51465  0.75851  0.24686  1.0000
  C   C2351     1.0  0.56349  0.80936  0.99751  1.0000
  H   H4164     1.0  0.54209  0.76692  0.97768  1.0000
  C   C2352     1.0  0.53997  0.91349  0.26566  1.0000
  H   H4165     1.0  0.61711  0.76549  0.07517  1.0000
  H   H4166     1.0  0.56259  0.78270  0.08292  1.0000
  H   H4167     1.0  0.61599  0.80817  0.12422  1.0000
  Fe  Fe263     1.0  0.60405  0.74038  0.03195  1.0000
  C   C2353     1.0  0.51036  0.79276  0.25835  1.0000
  C   C2354     1.0  0.69423  0.77033  0.03228  1.0000
  C   C2355     1.0  0.60419  0.79316  0.06205  1.0000
  H   H4168     1.0  0.55341  0.77606  0.01209  1.0000
  H   H4169     1.0  0.51606  0.73622  0.22499  1.0000
  S   S521      1.0  0.54212  0.74218  0.14590  1.0000
  S   S522      1.0  0.57342  0.75294  0.04233  1.0000
  N   N129      1.0  0.53048  0.79793  0.00220  1.0000
  H   H4170     1.0  0.71020  0.75467  0.00109  1.0000
  H   H4171     1.0  0.63184  0.82625  0.30106  1.0000
  H   H4172     1.0  0.65211  0.97450  0.24835  1.0000
  H   H4173     1.0  0.54070  0.75663  0.21860  1.0000
  H   H4174     1.0  0.55267  0.79959  0.28216  1.0000
  H   H4175     1.0  0.52862  0.91698  0.25672  1.0000
  H   H4176     1.0  0.66817  0.74741  0.12215  1.0000
  H   H4177     1.0  0.54768  0.89867  0.26469  1.0000
  C   C2356     1.0  0.52575  0.76375  0.21733  1.0000
  C   C2357     1.0  0.98583  0.77355  0.25496  1.0000
  H   H4178     1.0  0.57486  0.74979  0.11198  1.0000
  N   N130      1.0  0.52398  0.78591  0.24149  1.0000
  H   H4179     1.0  0.62910  0.84310  0.27969  1.0000
  S   S523      1.0  0.49950  0.88274  0.25887  1.0000
  H   H4180     1.0  0.53860  0.81380  0.03282  1.0000
  H   H4181     1.0  0.52974  0.80265  0.12368  1.0000
  H   H4182     1.0  0.56468  0.79337  0.22878  1.0000
  H   H4183     1.0  0.69434  0.77387  0.04625  1.0000
  H   H4184     1.0  0.55025  0.92358  0.26010  1.0000
  H   H4185     1.0  0.97184  0.73934  0.26048  1.0000
  S   S524      1.0  0.50057  0.74885  0.00163  1.0000
  C   C2358     1.0  0.61764  0.96061  0.22978  1.0000
  H   H4186     1.0  0.49663  0.80114  0.25412  1.0000
  H   H4187     1.0  0.79658  0.88011  0.30264  1.0000
  H   H4188     1.0  0.51118  0.78868  0.02766  1.0000
  H   H4189     1.0  0.52888  0.80135  0.06652  1.0000
  C   C2359     1.0  0.51553  0.79915  0.99012  1.0000
  H   H4190     1.0  0.50697  0.78750  0.99588  1.0000
  H   H4191     1.0  0.50827  0.83067  0.98340  1.0000
  C   C2360     1.0  0.57645  0.74540  0.15461  1.0000
  C   C2361     1.0  0.51585  0.74875  0.21338  1.0000
  H   H4192     1.0  0.51803  0.76696  0.27914  1.0000
  H   H4193     1.0  0.64808  0.82238  0.27942  1.0000
  H   H4194     1.0  0.56501  0.74346  0.99607  1.0000
  H   H4195     1.0  0.96440  0.76590  0.30346  1.0000
  H   H4196     1.0  0.81258  0.87050  0.28315  1.0000
  H   H4197     1.0  0.52553  0.73507  0.07888  1.0000
  H   H4198     1.0  0.57135  0.95397  0.27953  1.0000
  H   H4199     1.0  0.71442  0.75171  0.19169  1.0000
  H   H4200     1.0  0.73993  0.73402  0.99717  1.0000
  C   C2362     1.0  0.58566  0.86346  0.30160  1.0000
  C   C2363     1.0  0.53885  0.74351  0.04180  1.0000
  C   C2364     1.0  0.54613  0.91098  0.29897  1.0000
  S   S525      1.0  0.49829  0.86683  0.30387  1.0000
  H   H4201     1.0  0.98420  0.76986  0.24153  1.0000
  S   S526      1.0  0.49636  0.78401  0.15426  1.0000
  C   C2365     1.0  0.65998  0.74280  0.07938  1.0000
  H   H4202     1.0  0.97297  0.78392  0.25989  1.0000
  C   C2366     1.0  0.67893  0.97511  0.28112  1.0000
  H   H4203     1.0  0.50825  0.81386  0.05608  1.0000
  C   C2367     1.0  0.60013  0.96750  0.24403  1.0000
  C   C2368     1.0  0.66433  0.73756  0.09767  1.0000
  H   H4204     1.0  0.61372  0.96340  0.21551  1.0000
  Fe  Fe264     1.0  0.62979  0.87579  0.30228  1.0000
  C   C2369     1.0  0.73111  0.73798  0.21397  1.0000
  H   H4205     1.0  0.58766  0.82395  0.99392  1.0000
  H   H4206     1.0  0.58859  0.95964  0.24369  1.0000
  H   H4207     1.0  0.75803  0.73624  0.19462  1.0000
  C   C2370     1.0  0.80399  0.86669  0.29737  1.0000
  H   H4208     1.0  0.79296  0.85866  0.29605  1.0000
  C   C2371     1.0  0.53595  0.73512  0.08791  1.0000
  C   C2372     1.0  0.61444  0.96804  0.30172  1.0000
  H   H4209     1.0  0.50070  0.75486  0.21181  1.0000
  C   C2373     1.0  0.55369  0.97727  0.29274  1.0000
  H   H4210     1.0  0.59407  0.95010  0.30130  1.0000
  H   H4211     1.0  0.55750  0.78427  0.97341  1.0000
  H   H4212     1.0  0.52263  0.79691  0.97558  1.0000
  H   H4213     1.0  0.57655  0.75179  0.97233  1.0000
  H   H4214     1.0  0.52255  0.97999  0.29974  1.0000
  H   H4215     1.0  0.58295  0.73406  0.14658  1.0000
  H   H4216     1.0  0.60902  0.73405  0.10960  1.0000
  H   H4217     1.0  0.68495  0.90334  0.40428  1.0000
  H   H4218     1.0  0.75381  0.93616  0.60337  1.0000
  H   H4219     1.0  0.82825  0.86308  0.31106  1.0000
  Fe  Fe265     1.0  0.79074  0.90153  0.57839  1.0000
  S   S527      1.0  0.76547  0.91500  0.56424  1.0000
  S   S528      1.0  0.80613  0.91777  0.59179  1.0000
  Fe  Fe266     1.0  0.79051  0.86180  0.57125  1.0000
  S   S529      1.0  0.76464  0.87231  0.55665  1.0000
  S   S530      1.0  0.80459  0.83050  0.57271  1.0000
  Fe  Fe267     1.0  0.77961  0.89686  0.54212  1.0000
  S   S531      1.0  0.78389  0.91043  0.51116  1.0000
  Fe  Fe268     1.0  0.75254  0.88944  0.58017  1.0000
  S   S532      1.0  0.72068  0.89637  0.59274  1.0000
  S   S533      1.0  0.80622  0.88530  0.55510  1.0000
  S   S534      1.0  0.77711  0.87694  0.59593  1.0000
  H   H4220     1.0  0.86411  0.83542  0.59307  1.0000
  H   H4221     1.0  0.71486  0.89237  0.43083  1.0000
  H   H4222     1.0  0.56492  0.85461  0.32588  1.0000
  H   H4223     1.0  0.87494  0.79921  0.54372  1.0000
  C   C2374     1.0  0.82485  0.81781  0.34038  1.0000
  C   C2375     1.0  0.83530  0.80302  0.35512  1.0000
  H   H4224     1.0  0.84846  0.80764  0.35682  1.0000
  H   H4225     1.0  0.81229  0.83002  0.37589  1.0000
  H   H4226     1.0  0.96397  0.74582  0.42696  1.0000
  H   H4227     1.0  0.81361  0.84381  0.40666  1.0000
  H   H4228     1.0  0.58385  0.97237  0.30890  1.0000
  H   H4229     1.0  0.85753  0.75935  0.55283  1.0000
  Fe  Fe269     1.0  0.76789  0.88897  0.37872  1.0000
  S   S535      1.0  0.79298  0.90447  0.36934  1.0000
  Fe  Fe270     1.0  0.76349  0.89487  0.41949  1.0000
  S   S536      1.0  0.78790  0.91106  0.41286  1.0000
  S   S537      1.0  0.74860  0.88635  0.44937  1.0000
  Fe  Fe271     1.0  0.77521  0.92568  0.38721  1.0000
  S   S538      1.0  0.77196  0.95703  0.37470  1.0000
  Fe  Fe272     1.0  0.80332  0.88819  0.39593  1.0000
  S   S539      1.0  0.83465  0.87541  0.39766  1.0000
  S   S540      1.0  0.74929  0.91121  0.39496  1.0000
  S   S541      1.0  0.77956  0.87108  0.40407  1.0000
  S   S542      1.0  0.91586  0.77074  0.36872  1.0000
  S   S543      1.0  0.91005  0.77466  0.41346  1.0000
  Fe  Fe273     1.0  0.89170  0.77133  0.39380  1.0000
  S   S544      1.0  0.86096  0.78704  0.39421  1.0000
  Fe  Fe274     1.0  0.93480  0.77085  0.38951  1.0000
  S   S545      1.0  0.95819  0.78772  0.38757  1.0000
  H   H4230     1.0  0.51623  0.85782  0.34076  1.0000
  H   H4231     1.0  0.79276  0.81001  0.36526  1.0000
  C   C2376     1.0  0.56853  0.85691  0.31063  1.0000
  H   H4232     1.0  0.53130  0.88311  0.31645  1.0000
  C   C2377     1.0  0.96744  0.76039  0.44859  1.0000
  C   C2378     1.0  0.68202  0.86407  0.43284  1.0000
  H   H4233     1.0  0.83418  0.77607  0.61336  1.0000
  C   C2379     1.0  0.71632  0.98085  0.40363  1.0000
  H   H4234     1.0  0.70646  0.93306  0.62954  1.0000
  C   C2380     1.0  0.81571  0.82528  0.51766  1.0000
  H   H4235     1.0  0.95289  0.78958  0.45000  1.0000
  H   H4236     1.0  0.97522  0.76079  0.36196  1.0000
  C   C2381     1.0  0.84216  0.85050  0.39855  1.0000
  C   C2382     1.0  0.86187  0.84285  0.39438  1.0000
  C   C2383     1.0  0.86802  0.82322  0.39368  1.0000
  C   C2384     1.0  0.85443  0.81116  0.39725  1.0000
  C   C2385     1.0  0.83485  0.81868  0.40230  1.0000
  C   C2386     1.0  0.82874  0.83824  0.40295  1.0000
  H   H4237     1.0  0.87239  0.85221  0.39111  1.0000
  H   H4238     1.0  0.88318  0.81755  0.38984  1.0000
  H   H4239     1.0  0.82431  0.80936  0.40535  1.0000
  C   C2387     1.0  0.98214  0.77682  0.38036  1.0000
  H   H4240     1.0  0.86834  0.74319  0.53645  1.0000
  H   H4241     1.0  0.86168  0.76898  0.50966  1.0000
  C   C2388     1.0  0.87453  0.81376  0.53522  1.0000
  H   H4242     1.0  0.74915  0.92053  0.32197  1.0000
  C   C2389     1.0  0.77435  0.96876  0.40743  1.0000
  H   H4243     1.0  0.75033  0.91895  0.34649  1.0000
  C   C2390     1.0  0.82876  0.86734  0.34971  1.0000
  H   H4244     1.0  0.77648  0.95384  0.41376  1.0000
  Fe  Fe275     1.0  0.66705  0.88091  0.31327  1.0000
  H   H4245     1.0  0.56386  0.88994  0.32712  1.0000
  H   H4246     1.0  0.57692  0.91523  0.35279  1.0000
  H   H4247     1.0  0.78717  0.84290  0.52064  1.0000
  C   C2391     1.0  0.77286  0.90396  0.49478  1.0000
  C   C2392     1.0  0.77393  0.91481  0.47657  1.0000
  C   C2393     1.0  0.76636  0.90958  0.46268  1.0000
  C   C2394     1.0  0.75761  0.89343  0.46689  1.0000
  C   C2395     1.0  0.75611  0.88279  0.48525  1.0000
  C   C2396     1.0  0.76382  0.88796  0.49916  1.0000
  H   H4248     1.0  0.78069  0.92733  0.47317  1.0000
  H   H4249     1.0  0.76697  0.91830  0.44883  1.0000
  H   H4250     1.0  0.74920  0.87038  0.48869  1.0000
  H   H4251     1.0  0.76287  0.87955  0.51321  1.0000
  C   C2397     1.0  0.79663  0.94148  0.59530  1.0000
  C   C2398     1.0  0.78443  0.95419  0.58390  1.0000
  C   C2399     1.0  0.52676  0.92869  0.32336  1.0000
  H   H4252     1.0  0.95415  0.74640  0.34447  1.0000
  C   C2400     1.0  0.79406  0.96610  0.61400  1.0000
  C   C2401     1.0  0.80162  0.94766  0.61011  1.0000
  H   H4253     1.0  0.78079  0.94959  0.57223  1.0000
  H   H4254     1.0  0.89508  0.73762  0.34688  1.0000
  C   C2402     1.0  0.91932  0.73954  0.49985  1.0000
  H   H4255     1.0  0.50976  0.86149  0.36493  1.0000
  C   C2403     1.0  0.86533  0.80748  0.58677  1.0000
  C   C2404     1.0  0.85652  0.82638  0.58844  1.0000
  C   C2405     1.0  0.83799  0.83377  0.58396  1.0000
  C   C2406     1.0  0.82793  0.82210  0.57830  1.0000
  C   C2407     1.0  0.83657  0.80311  0.57702  1.0000
  C   C2408     1.0  0.85529  0.79591  0.58092  1.0000
  H   H4256     1.0  0.74760  0.95780  0.34996  1.0000
  H   H4257     1.0  0.83142  0.84842  0.58511  1.0000
  H   H4258     1.0  0.82870  0.79391  0.57303  1.0000
  H   H4259     1.0  0.86177  0.78133  0.57972  1.0000
  H   H4260     1.0  0.93736  0.76266  0.33085  1.0000
  H   H4261     1.0  0.85219  0.74758  0.58632  1.0000
  H   H4262     1.0  0.87707  0.77453  0.52354  1.0000
  C   C2409     1.0  0.51150  0.95200  0.34575  1.0000
  C   C2410     1.0  0.84757  0.79138  0.52641  1.0000
  C   C2411     1.0  0.87128  0.81368  0.51503  1.0000
  H   H4263     1.0  0.85649  0.86677  0.35755  1.0000
  H   H4264     1.0  0.66164  0.96189  0.59250  1.0000
  S   S546      1.0  0.89542  0.73928  0.40224  1.0000
  H   H4265     1.0  0.52034  0.89239  0.35672  1.0000
  C   C2412     1.0  0.83258  0.78082  0.62708  1.0000
  C   C2413     1.0  0.51096  0.86883  0.35000  1.0000
  C   C2414     1.0  0.71092  0.89014  0.61694  1.0000
  C   C2415     1.0  0.85207  0.73408  0.61567  1.0000
  H   H4266     1.0  0.49989  0.95772  0.33726  1.0000
  H   H4267     1.0  0.82898  0.77778  0.34762  1.0000
  H   H4268     1.0  0.50746  0.92297  0.35033  1.0000
  H   H4269     1.0  0.68323  0.90764  0.61388  1.0000
  S   S547      1.0  0.76079  0.87475  0.35695  1.0000
  C   C2416     1.0  0.75011  0.92879  0.33276  1.0000
  C   C2417     1.0  0.52608  0.89420  0.32565  1.0000
  Fe  Fe276     1.0  0.92073  0.73888  0.37851  1.0000
  C   C2418     1.0  0.98664  0.76435  0.36729  1.0000
  H   H4270     1.0  0.88344  0.80307  0.50937  1.0000
  H   H4271     1.0  0.77738  0.83175  0.35687  1.0000
  C   C2419     1.0  0.86693  0.79751  0.46193  1.0000
  H   H4272     1.0  0.79447  0.84142  0.32903  1.0000
  C   C2420     1.0  0.72250  0.89183  0.35949  1.0000
  H   H4273     1.0  0.73380  0.95484  0.32038  1.0000
  C   C2421     1.0  0.51939  0.93107  0.34423  1.0000
  H   H4274     1.0  0.97269  0.81507  0.51419  1.0000
  C   C2422     1.0  0.69812  0.97095  0.35466  1.0000
  H   H4275     1.0  0.86482  0.75986  0.60920  1.0000
  H   H4276     1.0  0.72438  0.83483  0.41297  1.0000
  H   H4277     1.0  0.70084  0.96705  0.39031  1.0000
  H   H4278     1.0  0.75960  0.95007  0.62751  1.0000
  H   H4279     1.0  0.96587  0.79841  0.53508  1.0000
  H   H4280     1.0  0.69851  0.96380  0.32657  1.0000
  C   C2423     1.0  0.85738  0.75616  0.53876  1.0000
  H   H4281     1.0  0.83549  0.81883  0.32701  1.0000
  N   N131      1.0  0.70181  0.86945  0.42702  1.0000
  S   S548      1.0  0.92675  0.74959  0.59499  1.0000
  H   H4282     1.0  0.72677  0.96586  0.47588  1.0000
  Fe  Fe277     1.0  0.90789  0.77421  0.57965  1.0000
  H   H4283     1.0  0.79725  0.86255  0.33545  1.0000
  C   C2424     1.0  0.73830  0.93763  0.60980  1.0000
  H   H4284     1.0  0.83640  0.73924  0.61941  1.0000
  S   S549      1.0  0.93210  0.78033  0.55577  1.0000
  H   H4285     1.0  0.72067  0.83250  0.47483  1.0000
  H   H4286     1.0  0.72958  0.85954  0.43594  1.0000
  C   C2425     1.0  0.86426  0.74700  0.62043  1.0000
  H   H4287     1.0  0.52316  0.96066  0.34066  1.0000
  C   C2426     1.0  0.85628  0.73319  0.59461  1.0000
  H   H4288     1.0  0.82056  0.86802  0.36419  1.0000
  H   H4289     1.0  0.84047  0.83969  0.51137  1.0000
  H   H4290     1.0  0.82002  0.87671  0.33952  1.0000
  C   C2427     1.0  0.71582  0.87294  0.33251  1.0000
  H   H4291     1.0  0.68319  0.84826  0.43568  1.0000
  H   H4292     1.0  0.72603  0.86935  0.40393  1.0000
  H   H4293     1.0  0.69356  0.85839  0.46765  1.0000
  C   C2428     1.0  0.70090  0.89022  0.42805  1.0000
  C   C2429     1.0  0.73443  0.87050  0.33678  1.0000
  S   S550      1.0  0.67635  0.88579  0.33935  1.0000
  C   C2430     1.0  0.64967  0.86312  0.42494  1.0000
  H   H4294     1.0  0.64243  0.86494  0.43953  1.0000
  N   N132      1.0  0.71874  0.97412  0.35150  1.0000
  H   H4295     1.0  0.70907  0.87588  0.46247  1.0000
  Fe  Fe278     1.0  0.92144  0.76064  0.54215  1.0000
  N   N133      1.0  0.83126  0.88793  0.45670  1.0000
  C   C2431     1.0  0.81717  0.87433  0.46435  1.0000
  C   C2432     1.0  0.83397  0.89660  0.47273  1.0000
  C   C2433     1.0  0.82225  0.90400  0.44284  1.0000
  C   C2434     1.0  0.85038  0.87867  0.44651  1.0000
  C   C2435     1.0  0.85745  0.85710  0.45334  1.0000
  C   C2436     1.0  0.80943  0.86731  0.44933  1.0000
  C   C2437     1.0  0.83315  0.92108  0.43530  1.0000
  C   C2438     1.0  0.84203  0.88264  0.48934  1.0000
  C   C2439     1.0  0.84185  0.89304  0.50546  1.0000
  C   C2440     1.0  0.87777  0.85056  0.44296  1.0000
  C   C2441     1.0  0.79965  0.85004  0.45793  1.0000
  C   C2442     1.0  0.82497  0.93445  0.41876  1.0000
  H   H4296     1.0  0.80433  0.88118  0.47355  1.0000
  H   H4297     1.0  0.82344  0.86157  0.47372  1.0000
  H   H4298     1.0  0.84417  0.90683  0.46760  1.0000
  H   H4299     1.0  0.81995  0.90505  0.47865  1.0000
  H   H4300     1.0  0.80727  0.90988  0.44915  1.0000
  H   H4301     1.0  0.82105  0.89846  0.43021  1.0000
  H   H4302     1.0  0.85003  0.87992  0.43119  1.0000
  H   H4303     1.0  0.86196  0.88652  0.44682  1.0000
  H   H4304     1.0  0.84795  0.84835  0.45033  1.0000
  H   H4305     1.0  0.85766  0.85381  0.46867  1.0000
  H   H4306     1.0  0.79850  0.87881  0.44325  1.0000
  H   H4307     1.0  0.82115  0.86337  0.43766  1.0000
  H   H4308     1.0  0.84871  0.91607  0.43041  1.0000
  H   H4309     1.0  0.83157  0.92973  0.44651  1.0000
  H   H4310     1.0  0.83332  0.87131  0.49529  1.0000
  H   H4311     1.0  0.85722  0.87618  0.48464  1.0000
  H   H4312     1.0  0.84776  0.88275  0.51718  1.0000
  H   H4313     1.0  0.85077  0.90443  0.50058  1.0000
  H   H4314     1.0  0.82688  0.89955  0.51107  1.0000
  H   H4315     1.0  0.88248  0.83504  0.44762  1.0000
  H   H4316     1.0  0.87801  0.85306  0.42747  1.0000
  H   H4317     1.0  0.88819  0.85834  0.44593  1.0000
  H   H4318     1.0  0.79354  0.84601  0.44695  1.0000
  H   H4319     1.0  0.81021  0.83766  0.46331  1.0000
  H   H4320     1.0  0.78769  0.85353  0.46965  1.0000
  H   H4321     1.0  0.80945  0.94014  0.42314  1.0000
  H   H4322     1.0  0.83277  0.94671  0.41391  1.0000
  H   H4323     1.0  0.82672  0.92683  0.40671  1.0000
  H   H4324     1.0  0.87813  0.78742  0.48766  1.0000
  C   C2443     1.0  0.71563  0.97013  0.38804  1.0000
  C   C2444     1.0  0.83384  0.84633  0.34643  1.0000
  H   H4325     1.0  0.94746  0.77962  0.43167  1.0000
  N   N134      1.0  0.85204  0.80948  0.51349  1.0000
  H   H4326     1.0  0.59529  0.92301  0.33377  1.0000
  H   H4327     1.0  0.73559  0.96878  0.60037  1.0000
  H   H4328     1.0  0.51372  0.93186  0.31667  1.0000
  H   H4329     1.0  0.70351  0.87438  0.39653  1.0000
  H   H4330     1.0  0.53086  0.92633  0.35295  1.0000
  Fe  Fe279     1.0  0.94971  0.75385  0.56938  1.0000
  C   C2445     1.0  0.81727  0.85458  0.31076  1.0000
  C   C2446     1.0  0.69315  0.92556  0.41437  1.0000
  H   H4331     1.0  0.63931  0.86983  0.41519  1.0000
  S   S551      1.0  0.60035  0.86874  0.31544  1.0000
  H   H4332     1.0  0.67377  0.87064  0.40439  1.0000
  H   H4333     1.0  0.84623  0.82306  0.48547  1.0000
  H   H4334     1.0  0.69196  0.90292  0.36298  1.0000
  C   C2447     1.0  0.72182  0.84763  0.47414  1.0000
  H   H4335     1.0  0.85927  0.81072  0.45414  1.0000
  H   H4336     1.0  0.76381  0.93448  0.32859  1.0000
  H   H4337     1.0  0.95968  0.79663  0.51305  1.0000
  H   H4338     1.0  0.72238  0.97038  0.57157  1.0000
  C   C2448     1.0  0.58456  0.91334  0.33833  1.0000
  N   N135      1.0  0.53852  0.90957  0.31991  1.0000
  H   H4339     1.0  0.57883  0.91706  0.31024  1.0000
  H   H4340     1.0  0.70561  0.92845  0.41936  1.0000
  C   C2449     1.0  0.69713  0.90522  0.41023  1.0000
  C   C2450     1.0  0.71431  0.85739  0.44083  1.0000
  C   C2451     1.0  0.91627  0.75833  0.46303  1.0000
  H   H4341     1.0  0.82589  0.80097  0.36914  1.0000
  C   C2452     1.0  0.70037  0.88439  0.34217  1.0000
  H   H4342     1.0  0.81319  0.81162  0.33736  1.0000
  H   H4343     1.0  0.85504  0.87655  0.33304  1.0000
  H   H4344     1.0  0.95548  0.75498  0.45896  1.0000
  H   H4345     1.0  0.66337  0.96776  0.32908  1.0000
  H   H4346     1.0  0.95739  0.77077  0.33583  1.0000
  C   C2453     1.0  0.57031  0.91812  0.32457  1.0000
  H   H4347     1.0  0.67484  0.95432  0.61196  1.0000
  H   H4348     1.0  0.74620  0.86112  0.32972  1.0000
  C   C2454     1.0  0.68914  0.97235  0.33689  1.0000
  C   C2455     1.0  0.61893  0.95614  0.32051  1.0000
  C   C2456     1.0  0.80233  0.84433  0.52006  1.0000
  H   H4349     1.0  0.63231  0.95939  0.32340  1.0000
  H   H4350     1.0  0.90591  0.80986  0.52778  1.0000
  C   C2457     1.0  0.73272  0.95557  0.35054  1.0000
  C   C2458     1.0  0.95911  0.78036  0.43913  1.0000
  C   C2459     1.0  0.52500  0.88283  0.34610  1.0000
  S   S552      1.0  0.94150  0.73911  0.39739  1.0000
  H   H4351     1.0  0.86319  0.82383  0.54264  1.0000
  H   H4352     1.0  0.73697  0.96503  0.63058  1.0000
  H   H4353     1.0  0.88095  0.79296  0.45294  1.0000
  C   C2460     1.0  0.81172  0.79086  0.63181  1.0000
  C   C2461     1.0  0.84166  0.78351  0.34891  1.0000
  C   C2462     1.0  0.91825  0.75937  0.49533  1.0000
  S   S553      1.0  0.89622  0.75603  0.56529  1.0000
  H   H4354     1.0  0.69665  0.95681  0.36369  1.0000
  H   H4355     1.0  0.56305  0.93311  0.32489  1.0000
  H   H4356     1.0  0.89592  0.81902  0.54939  1.0000
  H   H4357     1.0  0.84296  0.89028  0.35132  1.0000
  H   H4358     1.0  0.98720  0.77160  0.52107  1.0000
  H   H4359     1.0  0.72976  0.94511  0.36368  1.0000
  H   H4360     1.0  0.80605  0.85573  0.50804  1.0000
  H   H4361     1.0  0.91536  0.76574  0.44899  1.0000
  H   H4362     1.0  0.97852  0.76175  0.45642  1.0000
  C   C2463     1.0  0.83668  0.82588  0.51949  1.0000
  H   H4363     1.0  0.72588  0.95641  0.38994  1.0000
  C   C2464     1.0  0.72180  0.87773  0.62963  1.0000
  N   N136      1.0  0.81707  0.83739  0.34548  1.0000
  H   H4364     1.0  0.72309  0.94487  0.57665  1.0000
  H   H4365     1.0  0.71327  0.86544  0.32226  1.0000
  H   H4366     1.0  0.80326  0.84875  0.53337  1.0000
  H   H4367     1.0  0.81116  0.93800  0.61884  1.0000
  C   C2465     1.0  0.98739  0.73621  0.62267  1.0000
  H   H4368     1.0  0.73702  0.84946  0.46871  1.0000
  C   C2466     1.0  0.73287  0.94514  0.33420  1.0000
  H   H4369     1.0  0.83587  0.82666  0.53459  1.0000
  H   H4370     1.0  0.89393  0.83452  0.52704  1.0000
  C   C2467     1.0  0.84698  0.87567  0.34775  1.0000
  H   H4371     1.0  0.87355  0.82770  0.50612  1.0000
  C   C2468     1.0  0.66753  0.87259  0.41912  1.0000
  H   H4372     1.0  0.62141  0.94068  0.31985  1.0000
  H   H4373     1.0  0.71326  0.97171  0.41763  1.0000
  H   H4374     1.0  0.98588  0.75474  0.42265  1.0000
  N   N137      1.0  0.73560  0.93546  0.63104  1.0000
  C   C2469     1.0  0.70383  0.89395  0.35555  1.0000
  C   C2470     1.0  0.71141  0.86535  0.40757  1.0000
  H   H4375     1.0  0.67479  0.86861  0.44652  1.0000
  H   H4376     1.0  0.71300  0.96041  0.60558  1.0000
  H   H4377     1.0  0.78442  0.81809  0.39780  1.0000
  C   C2471     1.0  0.97599  0.74695  0.43385  1.0000
  H   H4378     1.0  0.85829  0.78598  0.46446  1.0000
  H   H4379     1.0  0.85173  0.78455  0.33519  1.0000
  C   C2472     1.0  0.78722  0.82506  0.36709  1.0000
  C   C2473     1.0  0.77708  0.97293  0.58761  1.0000
  H   H4380     1.0  0.79716  0.85092  0.36725  1.0000
  H   H4381     1.0  0.96684  0.75892  0.60945  1.0000
  C   C2474     1.0  0.97087  0.80000  0.51957  1.0000
  H   H4382     1.0  0.73648  0.87133  0.62462  1.0000
  H   H4383     1.0  0.80158  0.78093  0.63306  1.0000
  H   H4384     1.0  0.67143  0.95035  0.34843  1.0000
  C   C2475     1.0  0.86220  0.77291  0.52331  1.0000
  H   H4385     1.0  0.59241  0.89841  0.33871  1.0000
  H   H4386     1.0  0.84126  0.83824  0.35828  1.0000
  H   H4387     1.0  0.73842  0.90498  0.63419  1.0000
  C   C2476     1.0  0.91745  0.73854  0.46728  1.0000
  C   C2477     1.0  0.67227  0.96556  0.59951  1.0000
  H   H4388     1.0  0.89924  0.75135  0.62877  1.0000
  C   C2478     1.0  0.78177  0.97881  0.60284  1.0000
  H   H4389     1.0  0.53932  0.87420  0.34820  1.0000
  H   H4390     1.0  0.76847  0.83950  0.38918  1.0000
  H   H4391     1.0  0.87097  0.77828  0.62876  1.0000
  Fe  Fe280     1.0  0.91568  0.74267  0.42025  1.0000
  C   C2479     1.0  0.80392  0.83631  0.36441  1.0000
  C   C2480     1.0  0.80560  0.84913  0.33075  1.0000
  H   H4392     1.0  0.88025  0.81161  0.47733  1.0000
  H   H4393     1.0  0.71075  0.85117  0.37500  1.0000
  H   H4394     1.0  0.97810  0.78656  0.57286  1.0000
  C   C2481     1.0  0.73776  0.87973  0.35048  1.0000
  C   C2482     1.0  0.98994  0.78639  0.51545  1.0000
  H   H4395     1.0  0.65365  0.84764  0.42415  1.0000
  H   H4396     1.0  0.55467  0.96856  0.30694  1.0000
  H   H4397     1.0  0.91606  0.78398  0.47329  1.0000
  C   C2483     1.0  0.72110  0.84236  0.38403  1.0000
  H   H4398     1.0  0.72277  0.82723  0.38241  1.0000
  C   C2484     1.0  0.91674  0.76867  0.47691  1.0000
  H   H4399     1.0  0.68001  0.92782  0.42525  1.0000
  H   H4400     1.0  0.68991  0.89446  0.44026  1.0000
  C   C2485     1.0  0.76723  0.91033  0.63155  1.0000
  H   H4401     1.0  0.69080  0.93587  0.40127  1.0000
  H   H4402     1.0  0.77679  0.97854  0.43245  1.0000
  H   H4403     1.0  0.64480  0.97284  0.62880  1.0000
  H   H4404     1.0  0.71963  0.93878  0.33694  1.0000
  H   H4405     1.0  0.72511  0.89929  0.36967  1.0000
  C   C2486     1.0  0.71376  0.84435  0.40470  1.0000
  H   H4406     1.0  0.69984  0.83914  0.40896  1.0000
  H   H4407     1.0  0.71778  0.85102  0.48867  1.0000
  H   H4408     1.0  0.55121  0.90207  0.34544  1.0000
  C   C2487     1.0  0.70839  0.86100  0.46156  1.0000
  S   S554      1.0  0.88836  0.79841  0.59305  1.0000
  H   H4409     1.0  0.73534  0.84687  0.37910  1.0000
  H   H4410     1.0  0.80857  0.80309  0.62032  1.0000
  C   C2488     1.0  0.69180  0.89818  0.62364  1.0000
  H   H4411     1.0  0.66244  0.88800  0.41963  1.0000
  H   H4412     1.0  0.71009  0.90399  0.39910  1.0000
  C   C2489     1.0  0.77172  0.97413  0.38861  1.0000
  C   C2490     1.0  0.72989  0.95657  0.57851  1.0000
  H   H4413     1.0  0.71452  0.84193  0.44151  1.0000
  C   C2491     1.0  0.89377  0.81967  0.53472  1.0000
  H   H4414     1.0  0.87928  0.73895  0.61871  1.0000
  S   S555      1.0  0.91875  0.77336  0.51195  1.0000
  H   H4415     1.0  0.83339  0.78860  0.52500  1.0000
  C   C2492     1.0  0.85132  0.80858  0.49322  1.0000
  H   H4416     1.0  0.84051  0.79982  0.49283  1.0000
  H   H4417     1.0  0.60700  0.95941  0.33231  1.0000
  H   H4418     1.0  0.68598  0.96572  0.58928  1.0000
  H   H4419     1.0  0.76363  0.81635  0.38865  1.0000
  H   H4420     1.0  0.74521  0.95447  0.57145  1.0000
  C   C2493     1.0  0.66966  0.96574  0.34206  1.0000
  C   C2494     1.0  0.72846  0.95697  0.59946  1.0000
  H   H4421     1.0  0.81481  0.82213  0.50379  1.0000
  C   C2495     1.0  0.87046  0.80098  0.48064  1.0000
  H   H4422     1.0  0.73301  0.92590  0.60587  1.0000
  S   S556      1.0  0.94075  0.73447  0.55401  1.0000
  H   H4423     1.0  0.84589  0.79302  0.54138  1.0000
  H   H4424     1.0  0.80993  0.81411  0.52890  1.0000
  C   C2496     1.0  0.77525  0.82475  0.38693  1.0000
  H   H4425     1.0  0.51104  0.90029  0.32330  1.0000
  H   H4426     1.0  0.96769  0.76028  0.63357  1.0000
  H   H4427     1.0  0.84502  0.84534  0.33351  1.0000
  C   C2497     1.0  0.95274  0.75842  0.33247  1.0000
  H   H4428     1.0  0.79777  0.97053  0.62574  1.0000
  C   C2498     1.0  0.55570  0.90414  0.32990  1.0000
  H   H4429     1.0  0.77043  0.91014  0.61619  1.0000
  C   C2499     1.0  0.96839  0.75042  0.62366  1.0000
  H   H4430     1.0  0.97044  0.78702  0.42880  1.0000
  H   H4431     1.0  0.75247  0.96144  0.46805  1.0000
  C   C2500     1.0  0.74465  0.95046  0.63555  1.0000
  S   S557      1.0  0.98147  0.74605  0.57094  1.0000
  H   H4432     1.0  0.95610  0.74259  0.62869  1.0000
  C   C2501     1.0  0.73952  0.97282  0.46968  1.0000
  H   H4433     1.0  0.53488  0.94035  0.31622  1.0000
  H   H4434     1.0  0.74343  0.97696  0.49656  1.0000
  H   H4435     1.0  0.90341  0.78412  0.62980  1.0000
  C   C2502     1.0  0.72118  0.98201  0.36817  1.0000
  H   H4436     1.0  0.75421  0.98073  0.32575  1.0000
  H   H4437     1.0  0.50551  0.95339  0.36071  1.0000
  H   H4438     1.0  0.84927  0.77335  0.35964  1.0000
  C   C2503     1.0  0.96522  0.75277  0.31430  1.0000
  H   H4439     1.0  0.68827  0.98182  0.36258  1.0000
  H   H4440     1.0  0.84296  0.75316  0.53852  1.0000
  H   H4441     1.0  0.79092  0.88675  0.63547  1.0000
  H   H4442     1.0  0.98020  0.74793  0.31697  1.0000
  H   H4443     1.0  0.49644  0.87641  0.34742  1.0000
  H   H4444     1.0  0.84186  0.79164  0.62535  1.0000
  H   H4445     1.0  0.65953  0.97429  0.35209  1.0000
  H   H4446     1.0  0.77508  0.92056  0.63464  1.0000
  C   C2504     1.0  0.95761  0.73718  0.30796  1.0000
  S   S558      1.0  0.63943  0.90088  0.30831  1.0000
  H   H4447     1.0  0.98766  0.78314  0.48791  1.0000
  S   S559      1.0  0.65612  0.85525  0.30976  1.0000
  H   H4448     1.0  0.94278  0.74389  0.30556  1.0000
  H   H4449     1.0  0.70801  0.95371  0.63814  1.0000
  H   H4450     1.0  0.54294  0.84802  0.30714  1.0000
  H   H4451     1.0  0.79433  0.98083  0.52987  1.0000
  C   C2505     1.0  0.74520  0.91548  0.63832  1.0000
  H   H4452     1.0  0.76744  0.98263  0.57903  1.0000
  H   H4453     1.0  0.73747  0.98114  0.45552  1.0000
  Fe  Fe281     1.0  0.61209  0.88798  0.69472  1.0000
  S   S560      1.0  0.60233  0.90583  0.71738  1.0000
  S   S561      1.0  0.58963  0.88024  0.68177  1.0000
  Fe  Fe282     1.0  0.65467  0.88849  0.69321  1.0000
  S   S562      1.0  0.64789  0.90660  0.71611  1.0000
  Fe  Fe283     1.0  0.62669  0.88703  0.73079  1.0000
  S   S563      1.0  0.62040  0.87711  0.76265  1.0000
  Fe  Fe284     1.0  0.62416  0.92359  0.70073  1.0000
  S   S564      1.0  0.61390  0.95544  0.69212  1.0000
  S   S565      1.0  0.63503  0.86782  0.70905  1.0000
  S   S566      1.0  0.63250  0.90681  0.67692  1.0000
  S   S567      1.0  0.63173  0.78979  0.80270  1.0000
  H   H4454     1.0  0.52743  0.96099  0.65332  1.0000
  H   H4455     1.0  0.60327  0.84337  0.70874  1.0000
  H   H4456     1.0  0.56206  0.91851  0.69247  1.0000
  H   H4457     1.0  0.56032  0.80675  0.78310  1.0000
  H   H4458     1.0  0.54855  0.86534  0.74339  1.0000
  H   H4459     1.0  0.52950  0.87061  0.79423  1.0000
  H   H4460     1.0  0.54011  0.78283  0.85586  1.0000
  C   C2506     1.0  0.61869  0.77361  0.92359  1.0000
  H   H4461     1.0  0.60337  0.82358  0.74820  1.0000
  C   C2507     1.0  0.50124  0.80937  0.80361  1.0000
  C   C2508     1.0  0.52927  0.92407  0.67243  1.0000
  S   S568      1.0  0.60543  0.78305  0.90501  1.0000
  C   C2509     1.0  0.53301  0.74985  0.82417  1.0000
  H   H4462     1.0  0.71379  0.73803  0.94338  1.0000
  H   H4463     1.0  0.74285  0.91236  0.65395  1.0000
  H   H4464     1.0  0.61835  0.82556  0.81785  1.0000
  H   H4465     1.0  0.50929  0.91960  0.74369  1.0000
  C   C2510     1.0  0.54970  0.78511  0.92608  1.0000
  H   H4466     1.0  0.53278  0.79541  0.73910  1.0000
  S   S569      1.0  0.61995  0.74033  0.88110  1.0000
  C   C2511     1.0  0.53433  0.86514  0.72043  1.0000
  H   H4467     1.0  0.59861  0.74737  0.79679  1.0000
  C   C2512     1.0  0.56494  0.75437  0.91244  1.0000
  H   H4468     1.0  0.53724  0.79708  0.92614  1.0000
  C   C2513     1.0  0.64916  0.76194  0.93490  1.0000
  H   H4469     1.0  0.57929  0.83600  0.80909  1.0000
  H   H4470     1.0  0.70033  0.77575  0.82298  1.0000
  H   H4471     1.0  0.52564  0.94571  0.72348  1.0000
  C   C2514     1.0  0.55046  0.75675  0.81932  1.0000
  H   H4472     1.0  0.76782  0.87955  0.63886  1.0000
  N   N138      1.0  0.68193  0.73399  0.79094  1.0000
  S   S570      1.0  0.68571  0.87789  0.68028  1.0000
  C   C2515     1.0  0.62220  0.82894  0.80265  1.0000
  C   C2516     1.0  0.56847  0.87452  0.69690  1.0000
  C   C2517     1.0  0.55317  0.87211  0.68911  1.0000
  C   C2518     1.0  0.51297  0.97099  0.76354  1.0000
  C   C2519     1.0  0.54972  0.86735  0.72825  1.0000
  C   C2520     1.0  0.56666  0.87224  0.71653  1.0000
  C   C2521     1.0  0.56988  0.81605  0.77326  1.0000
  H   H4473     1.0  0.57845  0.87395  0.72267  1.0000
  H   H4474     1.0  0.65098  0.73903  0.79178  1.0000
  C   C2522     1.0  0.75781  0.96302  0.65890  1.0000
  C   C2523     1.0  0.50596  0.85605  0.79424  1.0000
  C   C2524     1.0  0.49842  0.81699  0.78291  1.0000
  C   C2525     1.0  0.60434  0.75775  0.78465  1.0000
  N   N139      1.0  0.49879  0.82411  0.81611  1.0000
  H   H4475     1.0  0.64015  0.95347  0.71814  1.0000
  H   H4476     1.0  0.66509  0.75631  0.80613  1.0000
  H   H4477     1.0  0.56160  0.97993  0.68345  1.0000
  H   H4478     1.0  0.51177  0.89967  0.65954  1.0000
  C   C2526     1.0  0.63439  0.81888  0.77238  1.0000
  C   C2527     1.0  0.63187  0.83805  0.76317  1.0000
  C   C2528     1.0  0.62442  0.85279  0.77366  1.0000
  C   C2529     1.0  0.61967  0.84813  0.79343  1.0000
  C   C2530     1.0  0.56734  0.97878  0.71955  1.0000
  H   H4479     1.0  0.64004  0.80761  0.76413  1.0000
  H   H4480     1.0  0.63568  0.84143  0.74798  1.0000
  H   H4481     1.0  0.61394  0.85945  0.80165  1.0000
  H   H4482     1.0  0.70657  0.74371  0.81401  1.0000
  H   H4483     1.0  0.56810  0.96401  0.71715  1.0000
  H   H4484     1.0  0.59473  0.92513  0.67452  1.0000
  H   H4485     1.0  0.75689  0.96308  0.67414  1.0000
  C   C2531     1.0  0.90396  0.77269  0.64244  1.0000
  H   H4486     1.0  0.56314  0.79120  0.92098  1.0000
  H   H4487     1.0  0.59372  0.77757  0.94537  1.0000
  C   C2532     1.0  0.83764  0.76342  0.64260  1.0000
  C   C2533     1.0  0.50751  0.92457  0.67313  1.0000
  H   H4488     1.0  0.53645  0.90882  0.67449  1.0000
  H   H4489     1.0  0.86532  0.77312  0.65380  1.0000
  H   H4490     1.0  0.55458  0.87367  0.67394  1.0000
  H   H4491     1.0  0.83413  0.76845  0.65646  1.0000
  H   H4492     1.0  0.56006  0.82923  0.76805  1.0000
  H   H4493     1.0  0.59233  0.81000  0.79102  1.0000
  H   H4494     1.0  0.54445  0.73896  0.89898  1.0000
  N   N140      1.0  0.85820  0.75280  0.63967  1.0000
  H   H4495     1.0  0.73025  0.95467  0.66401  1.0000
  H   H4496     1.0  0.58172  0.83468  0.74007  1.0000
  C   C2534     1.0  0.56681  0.79948  0.74855  1.0000
  H   H4497     1.0  0.57460  0.79062  0.73768  1.0000
  H   H4498     1.0  0.65032  0.97922  0.72935  1.0000
  H   H4499     1.0  0.66470  0.75809  0.93189  1.0000
  H   H4500     1.0  0.58871  0.81369  0.71546  1.0000
  H   H4501     1.0  0.54916  0.80104  0.71721  1.0000
  C   C2535     1.0  0.52450  0.95478  0.68452  1.0000
  H   H4502     1.0  0.61008  0.75029  0.77236  1.0000
  C   C2536     1.0  0.52519  0.91854  0.74147  1.0000
  C   C2537     1.0  0.68680  0.74625  0.77191  1.0000
  C   C2538     1.0  0.54890  0.96985  0.75170  1.0000
  H   H4503     1.0  0.59713  0.93370  0.64945  1.0000
  C   C2539     1.0  0.50265  0.81359  0.83538  1.0000
  H   H4504     1.0  0.52839  0.96187  0.69483  1.0000
  H   H4505     1.0  0.51605  0.80085  0.80236  1.0000
  H   H4506     1.0  0.55855  0.78982  0.75949  1.0000
  H   H4507     1.0  0.62471  0.82909  0.71703  1.0000
  C   C2540     1.0  0.63967  0.76128  0.95371  1.0000
  H   H4508     1.0  0.60975  0.80037  0.72466  1.0000
  N   N141      1.0  0.55993  0.73521  0.92237  1.0000
  C   C2541     1.0  0.60916  0.77292  0.94242  1.0000
  C   C2542     1.0  0.58392  0.96768  0.74663  1.0000
  C   C2543     1.0  0.52924  0.96746  0.66505  1.0000
  H   H4509     1.0  0.52657  0.83005  0.80092  1.0000
  H   H4510     1.0  0.67742  0.93180  0.65537  1.0000
  H   H4511     1.0  0.72238  0.86450  0.65872  1.0000
  H   H4512     1.0  0.54117  0.82212  0.75100  1.0000
  H   H4513     1.0  0.89419  0.74618  0.65407  1.0000
  H   H4514     1.0  0.86380  0.73992  0.66786  1.0000
  H   H4515     1.0  0.55798  0.82651  0.72947  1.0000
  C   C2544     1.0  0.67839  0.77576  0.74769  1.0000
  H   H4516     1.0  0.67619  0.78004  0.81802  1.0000
  H   H4517     1.0  0.54979  0.77736  0.94074  1.0000
  C   C2545     1.0  0.55142  0.81525  0.73980  1.0000
  H   H4518     1.0  0.56153  0.82135  0.81107  1.0000
  C   C2546     1.0  0.52268  0.86621  0.78399  1.0000
  C   C2547     1.0  0.70745  0.92774  0.65894  1.0000
  C   C2548     1.0  0.68584  0.93380  0.66561  1.0000
  H   H4519     1.0  0.70081  0.75093  0.77025  1.0000
  C   C2549     1.0  0.53605  0.86767  0.70081  1.0000
  H   H4520     1.0  0.52228  0.78713  0.83010  1.0000
  S   S571      1.0  0.51590  0.75730  0.80900  1.0000
  H   H4521     1.0  0.51704  0.84291  0.81969  1.0000
  C   C2550     1.0  0.59133  0.82057  0.74260  1.0000
  C   C2551     1.0  0.53973  0.80690  0.72947  1.0000
  H   H4522     1.0  0.49518  0.86632  0.80197  1.0000
  C   C2552     1.0  0.67828  0.74518  0.80687  1.0000
  C   C2553     1.0  0.58234  0.82235  0.78485  1.0000
  C   C2554     1.0  0.62951  0.81422  0.79214  1.0000
  C   C2555     1.0  0.74501  0.94973  0.65662  1.0000
  N   N142      1.0  0.58090  0.80640  0.75695  1.0000
  C   C2556     1.0  0.61213  0.82883  0.71064  1.0000
  H   H4523     1.0  0.60855  0.92037  0.75295  1.0000
  H   H4524     1.0  0.71517  0.93030  0.66940  1.0000
  H   H4525     1.0  0.68254  0.94896  0.66750  1.0000
  H   H4526     1.0  0.58792  0.95025  0.66581  1.0000
  H   H4527     1.0  0.51029  0.82465  0.77517  1.0000
  C   C2557     1.0  0.69470  0.88205  0.65568  1.0000
  H   H4528     1.0  0.55997  0.84457  0.79582  1.0000
  H   H4529     1.0  0.51727  0.87916  0.77422  1.0000
  H   H4530     1.0  0.52828  0.81832  0.72411  1.0000
  C   C2558     1.0  0.63869  0.76772  0.91991  1.0000
  C   C2559     1.0  0.68370  0.89413  0.64290  1.0000
  C   C2560     1.0  0.67194  0.76470  0.76731  1.0000
  H   H4531     1.0  0.60244  0.78155  0.75147  1.0000
  H   H4532     1.0  0.89813  0.77915  0.65536  1.0000
  H   H4533     1.0  0.55182  0.96328  0.76617  1.0000
  C   C2561     1.0  0.71412  0.93824  0.63867  1.0000
  C   C2562     1.0  0.52692  0.92408  0.70596  1.0000
  H   H4534     1.0  0.56138  0.94373  0.65331  1.0000
  H   H4535     1.0  0.55322  0.76657  0.80628  1.0000
  C   C2563     1.0  0.54808  0.77184  0.91303  1.0000
  Fe  Fe285     1.0  0.64570  0.74199  0.85818  1.0000
  H   H4536     1.0  0.51094  0.92599  0.70871  1.0000
  H   H4537     1.0  0.68129  0.92484  0.67940  1.0000
  C   C2564     1.0  0.52232  0.79998  0.83588  1.0000
  S   S572      1.0  0.62855  0.74475  0.83533  1.0000
  H   H4538     1.0  0.57102  0.75379  0.89725  1.0000
  H   H4539     1.0  0.59677  0.97328  0.73791  1.0000
  H   H4540     1.0  0.57665  0.76856  0.77683  1.0000
  C   C2565     1.0  0.52616  0.79294  0.85607  1.0000
  C   C2566     1.0  0.58823  0.77453  0.78011  1.0000
  S   S573      1.0  0.64362  0.77368  0.85587  1.0000
  H   H4541     1.0  0.75068  0.93524  0.66369  1.0000
  S   S574      1.0  0.51351  0.85836  0.73545  1.0000
  H   H4542     1.0  0.58261  0.78093  0.79307  1.0000
  C   C2567     1.0  0.89251  0.75755  0.64157  1.0000
  H   H4543     1.0  0.51462  0.78526  0.86471  1.0000
  H   H4544     1.0  0.70086  0.76295  0.79485  1.0000
  C   C2568     1.0  0.53237  0.93063  0.72267  1.0000
  C   C2569     1.0  0.71376  0.87385  0.64893  1.0000
  H   H4545     1.0  0.71015  0.91212  0.65912  1.0000
  Fe  Fe286     1.0  0.61638  0.77205  0.87733  1.0000
  H   H4546     1.0  0.67982  0.76692  0.73668  1.0000
  N   N143      1.0  0.56559  0.97915  0.74027  1.0000
  C   C2570     1.0  0.51285  0.83774  0.80815  1.0000
  H   H4547     1.0  0.50862  0.95585  0.68838  1.0000
  H   H4548     1.0  0.52886  0.92368  0.75325  1.0000
  H   H4549     1.0  0.75317  0.97780  0.65166  1.0000
  C   C2571     1.0  0.61957  0.76649  0.95744  1.0000
  H   H4550     1.0  0.53363  0.76778  0.91723  1.0000
  H   H4551     1.0  0.51295  0.79040  0.77304  1.0000
  C   C2572     1.0  0.62231  0.97302  0.69988  1.0000
  H   H4552     1.0  0.53212  0.90332  0.74176  1.0000
  C   C2573     1.0  0.56408  0.75128  0.83150  1.0000
  H   H4553     1.0  0.57746  0.75674  0.82779  1.0000
  C   C2574     1.0  0.50446  0.91486  0.65774  1.0000
  H   H4554     1.0  0.52441  0.86570  0.69464  1.0000
  C   C2575     1.0  0.58815  0.93563  0.66340  1.0000
  H   H4555     1.0  0.60788  0.79425  0.76711  1.0000
  H   H4556     1.0  0.61756  0.82472  0.69649  1.0000
  H   H4557     1.0  0.66529  0.97660  0.64725  1.0000
  H   H4558     1.0  0.49885  0.98069  0.76595  1.0000
  H   H4559     1.0  0.69240  0.78020  0.74693  1.0000
  H   H4560     1.0  0.55932  0.94367  0.69039  1.0000
  C   C2576     1.0  0.60015  0.81448  0.72312  1.0000
  Fe  Fe287     1.0  0.62511  0.77654  0.83387  1.0000
  H   H4561     1.0  0.59085  0.83298  0.77584  1.0000
  S   S575      1.0  0.59741  0.77806  0.85514  1.0000
  H   H4562     1.0  0.67040  0.77438  0.77760  1.0000
  H   H4563     1.0  0.66754  0.78885  0.74471  1.0000
  H   H4564     1.0  0.60097  0.73494  0.92168  1.0000
  C   C2577     1.0  0.55581  0.93233  0.68423  1.0000
  C   C2578     1.0  0.59571  0.78947  0.76330  1.0000
  S   S576      1.0  0.49326  0.75312  0.95135  1.0000
  H   H4565     1.0  0.77371  0.89003  0.65675  1.0000
  H   H4566     1.0  0.53435  0.80705  0.82754  1.0000
  H   H4567     1.0  0.54847  0.78036  0.89854  1.0000
  H   H4568     1.0  0.57677  0.75774  0.91801  1.0000
  H   H4569     1.0  0.77307  0.95794  0.65287  1.0000
  H   H4570     1.0  0.64619  0.76833  0.90546  1.0000
  H   H4571     1.0  0.53222  0.90837  0.70713  1.0000
  C   C2579     1.0  0.56776  0.93252  0.66399  1.0000
  C   C2580     1.0  0.68823  0.76876  0.82244  1.0000
  N   N144      1.0  0.53419  0.93411  0.68637  1.0000
  H   H4572     1.0  0.49781  0.81765  0.95902  1.0000
  C   C2581     1.0  0.56043  0.73848  0.84836  1.0000
  H   H4573     1.0  0.54820  0.92923  0.72134  1.0000
  C   C2582     1.0  0.56988  0.83163  0.80118  1.0000
  H   H4574     1.0  0.57569  0.93892  0.75327  1.0000
  C   C2583     1.0  0.58795  0.94602  0.74560  1.0000
  Fe  Fe288     1.0  0.60242  0.74625  0.85805  1.0000
  H   H4575     1.0  0.50010  0.76066  0.91095  1.0000
  H   H4576     1.0  0.52700  0.80507  0.86270  1.0000
  H   H4577     1.0  0.60326  0.93662  0.76951  1.0000
  H   H4578     1.0  0.61858  0.94192  0.74688  1.0000
  C   C2584     1.0  0.60566  0.93570  0.75428  1.0000
  H   H4579     1.0  0.68877  0.73764  0.76053  1.0000
  C   C2585     1.0  0.63493  0.96831  0.71287  1.0000
  H   H4580     1.0  0.51576  0.96213  0.77726  1.0000
  H   H4581     1.0  0.50189  0.82392  0.84487  1.0000
  C   C2586     1.0  0.77534  0.89043  0.64132  1.0000
  H   H4582     1.0  0.49955  0.93946  0.67085  1.0000
  H   H4583     1.0  0.59086  0.94389  0.73070  1.0000
  C   C2587     1.0  0.52918  0.73746  0.84125  1.0000
  H   H4584     1.0  0.53359  0.85670  0.77547  1.0000
  C   C2588     1.0  0.69494  0.75477  0.80852  1.0000
  H   H4585     1.0  0.54733  0.95782  0.74522  1.0000
  H   H4586     1.0  0.66902  0.90050  0.64787  1.0000
  H   H4587     1.0  0.68348  0.76109  0.83683  1.0000
  H   H4588     1.0  0.61626  0.76276  0.78853  1.0000
  H   H4589     1.0  0.65757  0.76141  0.76750  1.0000
  H   H4590     1.0  0.56887  0.91849  0.65967  1.0000
  C   C2589     1.0  0.55340  0.73615  0.94307  1.0000
  H   H4591     1.0  0.52951  0.73780  0.92155  1.0000
  H   H4592     1.0  0.56422  0.74128  0.94862  1.0000
  C   C2590     1.0  0.87099  0.76635  0.64098  1.0000
  H   H4593     1.0  0.53506  0.92996  0.65768  1.0000
  H   H4594     1.0  0.54426  0.97001  0.66281  1.0000
  H   H4595     1.0  0.58397  0.96908  0.76143  1.0000
  H   H4596     1.0  0.50090  0.91693  0.68684  1.0000
  H   H4597     1.0  0.67048  0.98055  0.67876  1.0000
  H   H4598     1.0  0.67497  0.73583  0.82068  1.0000
  H   H4599     1.0  0.51201  0.96161  0.75376  1.0000
  C   C2591     1.0  0.86100  0.73560  0.65513  1.0000
  H   H4600     1.0  0.51007  0.92236  0.64351  1.0000
  H   H4601     1.0  0.49908  0.85305  0.78334  1.0000
  H   H4602     1.0  0.54010  0.74707  0.94524  1.0000
  H   H4603     1.0  0.91929  0.76603  0.64270  1.0000
  H   H4604     1.0  0.49797  0.80651  0.75760  1.0000
  C   C2592     1.0  0.49913  0.80062  0.77259  1.0000
  H   H4605     1.0  0.82715  0.75398  0.64356  1.0000
  H   H4606     1.0  0.80934  0.79649  0.64520  1.0000
  H   H4607     1.0  0.58127  0.98269  0.71173  1.0000
  H   H4608     1.0  0.64352  0.98267  0.66332  1.0000
