data_image0
_chemical_formula_structural       H2CH3CH7CH2CHCNCFeH3CSCH8SH4SFeS2NS2H2SHCH3SHCH3CFeSH8CSFeC6H4C4H2CFeCH3C2H4C3HCH3NCHSFeCH2FeSNC2HC6H7C3H2SHFeH7CHC4HCH8C2H2SH3S2C2H2C5H3CH4CHSH4SHFeHCHCH6C2HCH2SCH3CNCHCHCHC2H2CHCHCH2CH3CH6CHCH2CH4CH2SHCH2CH2C3H2CHC2H2CHC2H4C2H5FeC3NHCHCH2C3HCH4CHC2H2CHCHSHCHC2FeC5H6C2HCH3CHFeH3CSCSH2CH4S2H8CHCH5CH3FeH4S4NHFeS2FeSCHSHS2CSCHSH3SFeS2FeSCFeSFeHS3C6H5SHSC4H6C6H4C6H5CH2C7H4CHC2H3CSFeHNC3H3C3HSCH7CH2C3H6SC2H2CFeC2NC2HC3HC2HCH3FeH9C2H11NH2NCHCH4CH3CH2C5HFeH3CHCH2CH2FeHC3H2SCH3C2H3C2H2FeH4CHCH3CSCSH4CH6NHC4HCHCHCHCH8SCH2CHNH2CHFeH5C2HCH2FeH8CHC2H2CH3CHCHCHNH2SH2CHCHCHCHCHFeSCFeHCHCHCHSH2CH5FeH4C4HC2HCHSH8CH8CHCSCHCH5CHCH4CH3SCH4CHCHCH2C2FeH4NH2C3HCHSH3FeH4CHSCHC2HCHCH2CHCHCH2CH4C3HCFeH2CHSH2FeS2H4Fe2SHSHSC2H2FeCFeS2H2FeSHSFeS2FeS2FeSFeS3C6H4C6H3C6H4C6H4CHCHC2H4SCHFeSH3C6H6C3HCNC10H19NC12H31SH2C2HSCH2CH3C2H3NCHC2H2CH4C2HC2H10NHSHC2H3CH3CH3NH3C2H4CH2CHCH6CH5SCHC2H6C2H2CH2CHC3H4NHCHCH3C2HSCHCHC2NH2SCFeCH2FeH4C2H3CFeH2CHC2H4C2HCFeCH3CH2C2HSH2CHCSCHCH6FeHSHS2HSFeS2FeS2FeSFeS4FeS2HSFeSFeSFeS2FeSHSFeS2CHFeS2HC6H7CH2C7H4C6H4C6H2C6H2CHC6H4C6H4C4H2CH4NH7NH8CHCH10C2H2NC12H23CH4NH3SCH3CFeCHCHFeCH11C2H3CH3C2H9C2H2CHNH3CH2CHCH3CH3C4HCH3CH5SC2HCHCH3CFeH2CHCH2C2H3CH2SH2CH3CH2SHNHCH2C2FeHC2H3CH10CHC2HCHNHC2H2CH3FeH2CH3CH2C2H3CHC2HSH2SH3NH2C2SH2CHCH6CHCH2CH4CHCHCHFeS2FeS2FeS2H2FeSHSHFeS2FeS2FeSFeS3FeS2C2H2CFeSHSH3CSFeS2FeS2C6H5FeH7C7H3C6H4C6H4C6H4C6H4C6H5NC8H16CHCSH2C2HC4H11NC2H9CH3CH5FeCH4C2H2CH3CH2CHCH3CH2CH2NCH3CH3NC12H26SHNHC3H2C3HC2H6CH2CHCH8SHCH5NC7HCHC2H8CH4NH5SC2H3SH6CH3CHC2HC2H4CH4CH5NH4C5HCHCH3CH2C2HC2HC2HCH4CNHCH4C2HC2HC2H3SHC2H4CH2CH3SC2H5CH3CH2SCHFeHCH9CH2SH2S3HFeS2FeS2FeSFeS3FeS2FeSFeSCH2FeS2H2FeSCSFeHSH2C3H3CHCH2C9H6SC6H4C6H4C2H3C6H4C6H5C6H9NC8FeC2H19SH9NC8H18C5H3C3HCH2C2H2C2H2C2HCH3NC12H28C2HSH2CH2FeH5CHC2NCHSH7SH3CH2CS2C2H2CH2CHCH3SH2CHNH2NH2C2HCHCH8CH3CHFeHFeHC2H2CH3FeH2C3FeHSHCH2SC2H4C3H8CH4CH6CH2NC2H3CHCH5CHCHCHSHCH2FeS2H2FeCHSFeS3CHCHFeSCSFeS2FeS2FeSFeS3FeSHC2FeS2C6H5CHC7H7SHC2HCH2CHC6H7SH2C6H3C6H4C2HCH2CH2NC8NHC2H9CH6FeH11C2FeH2C2H3CHSC2H5SCHSHCH3C4H5CH4CH2CNC9H2CH19CSH8FeC2H4CHNHC5H8CH4CH3CH2SHSH3C2H9CH7CH2CH5C2HCH4CH4C3HCH4CH5CNH3CH4CSCHCH3CH2CFeHCSH2CHCHCH2NH2CHFeCSH4CFeCFeS2FeSCSCSFeSHFeS2FeSFeS3FeHSH2SHFeS2FeS2FeSFeS3C3H2C5HCHCSC6H4CNHFeH2C6H4C6H5C6H4C6H5C2H8CHC2H2C3SHCH2NC6HC5H12C2H2CHCH6CHCH2C2H6C2H3CHC2SHCH2C3HS2H16CHC5NHCH3C2H5CH2NHNHSH3CHCSH2CSHCHC2H3NH3CH2CH4C3H8C3H2C2H2C2H4FeCH4C2H3C2HCH5CHCH2CH7C3HCH2CHNCH2CHCH2CH2CHCH6CHCH6SC4H2S2H2CHC2HFeCH3C2SH3C2H4CH5FeHSH2CH6FeC4NFeH4CH4CH4CH7CH14CNCH3CH2SH2CFeSFeCFeSCSCH3SH2SCS2HS2FeSHCHFeS2FeSH2SCFeS2FeS2FeSFeS3H3CHC6H4C6H3C7H4C6H4C6H4C6H3C6H10NC10H23NC12H30CHC3H5C2HSH4CHNH3Fe2H2SH3NCHCH2C2H3C2H3CH3CH4FeHC2H2CH6CH2NCHC5HC2H11CH7CH2CH3CH4CH2CH2C2HC2SNH2CH2CHCHCHCHCSC2HCH2SHCHCH2CH3SH4CHCHC2H6CHC2H3S2H2SH7CH3FeH3CSHCHNCHC2HCHC3H2CSCHCH5FeH3FeS2H2NFeS2FeSH2SH2SCHFeS2FeS2FeSFeS3FeS3C2FeSH3C4H2C6H4C6H4C2H2C4FeH2CHC6H4C6H3C6H4C3H3CH4N2C8HC2H16CH7NC9HC2H8CH18C2H2CH3C2H2C2SH10SHC3H3CH3CNCHS2FeHCSHCH4C2HC4HC2HSHSC2H2CH4NC12H28NC12H28NC10HCH11SH8CHSH5FeH9CH2CH3FeH9CFeCH2FeCH2CH2CHC2NH3C2H2CHCHFeHNH2SH2CHCH5CHCH6C3SHCH2C2FeHCFeS2FeSHCS2HSCHSHFeSFeHFeHFeS3FeSHSCHSH2SHFeSFeSC2SHCHCH2CH2SC3HC3H2SH2C3H2CH2C2HCH3C3HC4HCH3C6H5CH4C6H4FeCH4CH3CH2C4HCH2C6H9C6H4CH2CN2HCHCH2CHCH2CHCH4C2H2SCH3CHCH3FeH3CHCHCH5C2HCHSHC3FeCH9CH4CH3CHCH3NHCHCH2C3H13CHNC3H3CHC4H7SHCHNHSCH7SH3CHCH12CHCSH3CH3NC4H3CH2CH2CHSH2C2HCHCH3CHCH4CH7C2H4NCH5CH2C2HSNC5H5C2H7CHFeHC2H5C3H3CH2CH2CH3NH4CH7C3HCHCHSC2H2FeHC2H5CH6C3HCH5CHSFeS2FeHFeSHS3FeSH3S2HCFeSCHSHS2HFeC7H5SH2C6H4C6H4C2H2C6H4C6H4CH4SFeH2SH5C3NC12H26CHCFeH2SH3SHCH3CSHCHCH2CH2CHC3HC3HSH3NC10NCH10CH10C2H3NC11H22CHCH2SHC2H3CH3C2HSH3NH7NHCH6SCH2FeHCH3CSC2H6C2HSCHSHCHNHCFeH4C3HC2FeH6CHCFeCSHCH2C2HCH2C6HSFe2HCH3FeNHCSH5SH2CH6CHCH10CH2C2SFeHCHCHCHCHSHCH2CHCHC2SHCHSCH2FeHCHNH3CH2SH4SH2CHCH5
_chemical_formula_sum              "H3072 C1728 N96 Fe192 S384"
_cell_length_a       63.8774
_cell_length_b       65.0337
_cell_length_c       63.9483
_cell_angle_alpha    80.4881
_cell_angle_beta     80.4894
_cell_angle_gamma    80.4452

_space_group_name_H-M_alt    "P 1"
_space_group_IT_number       1

loop_
  _space_group_symop_operation_xyz
  'x, y, z'

loop_
  _atom_site_type_symbol
  _atom_site_label
  _atom_site_symmetry_multiplicity
  _atom_site_fract_x
  _atom_site_fract_y
  _atom_site_fract_z
  _atom_site_occupancy
  H   H1        1.0  0.44541  0.36143  0.01047  1.0000
  H   H2        1.0  0.44217  0.38769  0.99546  1.0000
  C   C1        1.0  0.44339  0.37062  0.99449  1.0000
  H   H3        1.0  0.42817  0.36774  0.98997  1.0000
  H   H4        1.0  0.48613  0.35567  0.99858  1.0000
  H   H5        1.0  0.48176  0.38288  0.98898  1.0000
  C   C2        1.0  0.02732  0.45551  0.41057  1.0000
  H   H6        1.0  0.02504  0.43990  0.40710  1.0000
  H   H7        1.0  0.01200  0.47967  0.37575  1.0000
  H   H8        1.0  0.02468  0.37028  0.44132  1.0000
  H   H9        1.0  0.01047  0.37509  0.41847  1.0000
  H   H10       1.0  0.04021  0.46177  0.39851  1.0000
  H   H11       1.0  0.99736  0.34543  0.48436  1.0000
  H   H12       1.0  0.01507  0.39704  0.43019  1.0000
  C   C3        1.0  0.01144  0.38058  0.43380  1.0000
  H   H13       1.0  0.03250  0.45337  0.42663  1.0000
  H   H14       1.0  0.00514  0.37872  0.47701  1.0000
  C   C4        1.0  0.00642  0.47084  0.41030  1.0000
  H   H15       1.0  0.99736  0.45836  0.38454  1.0000
  C   C5        1.0  0.99877  0.47425  0.38800  1.0000
  N   N1        1.0  0.29693  0.40103  0.64875  1.0000
  C   C6        1.0  0.26698  0.42431  0.59931  1.0000
  Fe  Fe1       1.0  0.02266  0.39708  0.62971  1.0000
  H   H16       1.0  0.29112  0.18558  0.68215  1.0000
  H   H17       1.0  0.23407  0.22035  0.69371  1.0000
  H   H18       1.0  0.25820  0.43380  0.68143  1.0000
  C   C7        1.0  0.39670  0.07858  0.63680  1.0000
  S   S1        1.0  0.32274  0.36730  0.71483  1.0000
  C   C8        1.0  0.28050  0.40506  0.63348  1.0000
  H   H19       1.0  0.43321  0.37704  0.73068  1.0000
  H   H20       1.0  0.32042  0.00719  0.71336  1.0000
  H   H21       1.0  0.43153  0.13812  0.65462  1.0000
  H   H22       1.0  0.49198  0.19784  0.66800  1.0000
  H   H23       1.0  0.16980  0.33141  0.65574  1.0000
  H   H24       1.0  0.35881  0.99429  0.71015  1.0000
  H   H25       1.0  0.27700  0.25229  0.71675  1.0000
  H   H26       1.0  0.44054  0.14165  0.62626  1.0000
  S   S2        1.0  0.33216  0.08565  0.71905  1.0000
  H   H27       1.0  0.42995  0.11405  0.73306  1.0000
  H   H28       1.0  0.21876  0.26635  0.70197  1.0000
  H   H29       1.0  0.12768  0.36238  0.70968  1.0000
  H   H30       1.0  0.00594  0.35182  0.71446  1.0000
  S   S3        1.0  0.30126  0.14489  0.71247  1.0000
  Fe  Fe2       1.0  0.36695  0.01990  0.62900  1.0000
  S   S4        1.0  0.39055  0.01556  0.65209  1.0000
  S   S5        1.0  0.33935  0.04639  0.63340  1.0000
  N   N2        1.0  0.01817  0.28274  0.69600  1.0000
  S   S6        1.0  0.44101  0.03567  0.61415  1.0000
  S   S7        1.0  0.39211  0.01863  0.59978  1.0000
  H   H31       1.0  0.38653  0.06357  0.60173  1.0000
  H   H32       1.0  0.02409  0.30414  0.66671  1.0000
  S   S8        1.0  0.46027  0.17071  0.66738  1.0000
  H   H33       1.0  0.09960  0.36759  0.70638  1.0000
  C   C9        1.0  0.08113  0.45847  0.63888  1.0000
  H   H34       1.0  0.24603  0.24121  0.67774  1.0000
  H   H35       1.0  0.45637  0.07563  0.60691  1.0000
  H   H36       1.0  0.39417  0.10622  0.61133  1.0000
  S   S9        1.0  0.45608  0.25056  0.71342  1.0000
  H   H37       1.0  0.42895  0.98896  0.50665  1.0000
  C   C10       1.0  0.39377  0.07835  0.59768  1.0000
  H   H38       1.0  0.27855  0.29817  0.67382  1.0000
  H   H39       1.0  0.49388  0.05675  0.55462  1.0000
  H   H40       1.0  0.22562  0.40886  0.69836  1.0000
  C   C11       1.0  0.10262  0.37198  0.63975  1.0000
  Fe  Fe3       1.0  0.03737  0.35022  0.63877  1.0000
  S   S10       1.0  0.06478  0.32421  0.64579  1.0000
  H   H41       1.0  0.40442  0.13026  0.63503  1.0000
  H   H42       1.0  0.40394  0.04606  0.71170  1.0000
  H   H43       1.0  0.04983  0.29257  0.68857  1.0000
  H   H44       1.0  0.35981  0.37371  0.62548  1.0000
  H   H45       1.0  0.34647  0.14365  0.68842  1.0000
  H   H46       1.0  0.47866  0.04688  0.57949  1.0000
  H   H47       1.0  0.41145  0.07446  0.59380  1.0000
  H   H48       1.0  0.09627  0.35679  0.64144  1.0000
  C   C12       1.0  0.41880  0.11833  0.63672  1.0000
  S   S11       1.0  0.16301  0.28279  0.71656  1.0000
  Fe  Fe4       1.0  0.41574  0.01314  0.62345  1.0000
  C   C13       1.0  0.07659  0.32277  0.66918  1.0000
  C   C14       1.0  0.09497  0.30814  0.67242  1.0000
  C   C15       1.0  0.10421  0.30617  0.69130  1.0000
  C   C16       1.0  0.09486  0.31863  0.70720  1.0000
  C   C17       1.0  0.07658  0.33331  0.70390  1.0000
  C   C18       1.0  0.06761  0.33550  0.68490  1.0000
  H   H49       1.0  0.10205  0.29824  0.66031  1.0000
  H   H50       1.0  0.11838  0.29486  0.69367  1.0000
  H   H51       1.0  0.06934  0.34308  0.71608  1.0000
  H   H52       1.0  0.05355  0.34685  0.68263  1.0000
  C   C19       1.0  0.45931  0.19313  0.67977  1.0000
  C   C20       1.0  0.47727  0.20338  0.67771  1.0000
  C   C21       1.0  0.47603  0.22123  0.68783  1.0000
  C   C22       1.0  0.45713  0.22834  0.70076  1.0000
  H   H53       1.0  0.32678  0.98410  0.70056  1.0000
  H   H54       1.0  0.26552  0.04192  0.69692  1.0000
  C   C23       1.0  0.34760  0.98638  0.72293  1.0000
  Fe  Fe5       1.0  0.39169  0.98343  0.60476  1.0000
  C   C24       1.0  0.45537  0.04726  0.62967  1.0000
  H   H55       1.0  0.08848  0.38990  0.66613  1.0000
  H   H56       1.0  0.46607  0.33722  0.73782  1.0000
  H   H57       1.0  0.22592  0.07125  0.72020  1.0000
  C   C25       1.0  0.47579  0.04532  0.65910  1.0000
  C   C26       1.0  0.46218  0.03657  0.64875  1.0000
  H   H58       1.0  0.21540  0.26403  0.66402  1.0000
  H   H59       1.0  0.11222  0.41566  0.65025  1.0000
  H   H60       1.0  0.09428  0.39710  0.72777  1.0000
  H   H61       1.0  0.45768  0.02119  0.65509  1.0000
  C   C27       1.0  0.28580  0.21897  0.68525  1.0000
  C   C28       1.0  0.30154  0.42220  0.65247  1.0000
  C   C29       1.0  0.22128  0.17352  0.70192  1.0000
  H   H62       1.0  0.41999  0.02591  0.69729  1.0000
  C   C30       1.0  0.23813  0.23631  0.69415  1.0000
  H   H63       1.0  0.02952  0.27145  0.62321  1.0000
  H   H64       1.0  0.03250  0.29686  0.62908  1.0000
  H   H65       1.0  0.04466  0.29321  0.72667  1.0000
  N   N3        1.0  0.25302  0.23508  0.71049  1.0000
  C   C31       1.0  0.21824  0.46603  0.65790  1.0000
  H   H66       1.0  0.27203  0.39860  0.67588  1.0000
  S   S12       1.0  0.00563  0.34184  0.63545  1.0000
  Fe  Fe6       1.0  0.27101  0.43275  0.72858  1.0000
  C   C32       1.0  0.46157  0.06720  0.62164  1.0000
  H   H67       1.0  0.24959  0.27641  0.68244  1.0000
  H   H68       1.0  0.43121  0.35132  0.72440  1.0000
  Fe  Fe7       1.0  0.29839  0.38995  0.73259  1.0000
  S   S13       1.0  0.20203  0.46687  0.63794  1.0000
  N   N4        1.0  0.12282  0.38460  0.66638  1.0000
  C   C33       1.0  0.00552  0.29922  0.70898  1.0000
  C   C34       1.0  0.22875  0.48168  0.68581  1.0000
  H   H69       1.0  0.11900  0.36939  0.63075  1.0000
  C   C35       1.0  0.33051  0.07372  0.69660  1.0000
  C   C36       1.0  0.34126  0.05326  0.69516  1.0000
  C   C37       1.0  0.34314  0.04440  0.67621  1.0000
  C   C38       1.0  0.33463  0.05606  0.65834  1.0000
  C   C39       1.0  0.32268  0.07602  0.66024  1.0000
  C   C40       1.0  0.32048  0.08478  0.67938  1.0000
  H   H70       1.0  0.34868  0.04442  0.70856  1.0000
  H   H71       1.0  0.35130  0.02859  0.67544  1.0000
  H   H72       1.0  0.31561  0.08498  0.64667  1.0000
  H   H73       1.0  0.31176  0.10040  0.68048  1.0000
  H   H74       1.0  0.01062  0.25745  0.72137  1.0000
  H   H75       1.0  0.00567  0.29384  0.72641  1.0000
  H   H76       1.0  0.36044  0.09754  0.65795  1.0000
  C   C41       1.0  0.04702  0.27742  0.72145  1.0000
  C   C42       1.0  0.01254  0.32141  0.70323  1.0000
  C   C43       1.0  0.11919  0.39157  0.68827  1.0000
  H   H77       1.0  0.12795  0.34181  0.68592  1.0000
  H   H78       1.0  0.38355  0.12770  0.67595  1.0000
  S   S14       1.0  0.10196  0.45616  0.67443  1.0000
  H   H79       1.0  0.10623  0.40534  0.68886  1.0000
  Fe  Fe8       1.0  0.26621  0.14281  0.72191  1.0000
  H   H80       1.0  0.17829  0.42578  0.69535  1.0000
  H   H81       1.0  0.38804  0.19321  0.70886  1.0000
  H   H82       1.0  0.42923  0.08840  0.65382  1.0000
  H   H83       1.0  0.04265  0.26851  0.65803  1.0000
  H   H84       1.0  0.11180  0.45423  0.71805  1.0000
  H   H85       1.0  0.41845  0.17297  0.72429  1.0000
  H   H86       1.0  0.42416  0.11168  0.62149  1.0000
  C   C44       1.0  0.37008  0.11893  0.67599  1.0000
  H   H87       1.0  0.35462  0.33085  0.70899  1.0000
  C   C45       1.0  0.07058  0.43359  0.66974  1.0000
  C   C46       1.0  0.05643  0.42674  0.65847  1.0000
  C   C47       1.0  0.05431  0.43592  0.63740  1.0000
  C   C48       1.0  0.06664  0.45191  0.62775  1.0000
  H   H88       1.0  0.07174  0.42663  0.68614  1.0000
  C   C49       1.0  0.24424  0.46416  0.68990  1.0000
  H   H89       1.0  0.45129  0.12499  0.68665  1.0000
  H   H90       1.0  0.30149  0.45798  0.67129  1.0000
  H   H91       1.0  0.16050  0.40368  0.65448  1.0000
  H   H92       1.0  0.32160  0.41137  0.67869  1.0000
  H   H93       1.0  0.37011  0.09426  0.61950  1.0000
  H   H94       1.0  0.38778  0.06473  0.64112  1.0000
  H   H95       1.0  0.32950  0.37276  0.66817  1.0000
  H   H96       1.0  0.18328  0.40348  0.73024  1.0000
  C   C50       1.0  0.34992  0.13511  0.67431  1.0000
  C   C51       1.0  0.28194  0.36690  0.66824  1.0000
  H   H97       1.0  0.08903  0.38351  0.61030  1.0000
  H   H98       1.0  0.09859  0.36370  0.67391  1.0000
  S   S15       1.0  0.02355  0.37451  0.66031  1.0000
  H   H99       1.0  0.32913  0.44770  0.66227  1.0000
  H   H100      1.0  0.37754  0.30766  0.73398  1.0000
  H   H101      1.0  0.20550  0.24359  0.71087  1.0000
  S   S16       1.0  0.03790  0.37290  0.60815  1.0000
  S   S17       1.0  0.26113  0.46401  0.70908  1.0000
  C   C52       1.0  0.31686  0.38848  0.63849  1.0000
  C   C53       1.0  0.35302  0.36603  0.64142  1.0000
  H   H102      1.0  0.29675  0.35631  0.66314  1.0000
  H   H103      1.0  0.28306  0.35509  0.70215  1.0000
  C   C54       1.0  0.48247  0.06498  0.65076  1.0000
  C   C55       1.0  0.27949  0.00012  0.71425  1.0000
  C   C56       1.0  0.24055  0.22964  0.73241  1.0000
  C   C57       1.0  0.15902  0.32941  0.67122  1.0000
  C   C58       1.0  0.31493  0.44518  0.67449  1.0000
  H   H104      1.0  0.14147  0.42345  0.66686  1.0000
  H   H105      1.0  0.25663  0.36649  0.69581  1.0000
  H   H106      1.0  0.07140  0.38942  0.63415  1.0000
  C   C59       1.0  0.41458  0.10031  0.65524  1.0000
  H   H107      1.0  0.09351  0.40412  0.62402  1.0000
  H   H108      1.0  0.28704  0.43430  0.65124  1.0000
  H   H109      1.0  0.22669  0.17889  0.73280  1.0000
  H   H110      1.0  0.31047  0.19364  0.69577  1.0000
  C   C60       1.0  0.01593  0.29000  0.67273  1.0000
  H   H111      1.0  0.29769  0.38690  0.68195  1.0000
  S   S18       1.0  0.03614  0.42832  0.62274  1.0000
  H   H112      1.0  0.15192  0.44290  0.71445  1.0000
  H   H113      1.0  0.48892  0.12562  0.58643  1.0000
  H   H114      1.0  0.29988  0.41198  0.60193  1.0000
  H   H115      1.0  0.15550  0.31292  0.67451  1.0000
  S   S19       1.0  0.16313  0.22482  0.70806  1.0000
  H   H116      1.0  0.13014  0.39947  0.63357  1.0000
  Fe  Fe9       1.0  0.49339  0.15299  0.65931  1.0000
  H   H117      1.0  0.16726  0.33214  0.68432  1.0000
  C   C61       1.0  0.19291  0.42527  0.70278  1.0000
  H   H118      1.0  0.21187  0.41253  0.67521  1.0000
  C   C62       1.0  0.30066  0.19831  0.68250  1.0000
  H   H119      1.0  0.43779  0.10224  0.69740  1.0000
  H   H120      1.0  0.16332  0.44013  0.63599  1.0000
  H   H121      1.0  0.41475  0.04756  0.66281  1.0000
  H   H122      1.0  0.28959  0.43501  0.61467  1.0000
  H   H123      1.0  0.40387  0.99396  0.52384  1.0000
  H   H124      1.0  0.27029  0.36759  0.65700  1.0000
  C   C63       1.0  0.34029  0.35197  0.73173  1.0000
  C   C64       1.0  0.27737  0.02087  0.72407  1.0000
  H   H125      1.0  0.15431  0.37027  0.67382  1.0000
  C   C65       1.0  0.10251  0.37771  0.66249  1.0000
  H   H126      1.0  0.13374  0.39714  0.69143  1.0000
  H   H127      1.0  0.34251  0.39486  0.65433  1.0000
  S   S20       1.0  0.15376  0.47658  0.67811  1.0000
  C   C66       1.0  0.43667  0.12977  0.64040  1.0000
  H   H128      1.0  0.08132  0.27555  0.71002  1.0000
  H   H129      1.0  0.39179  0.03249  0.69532  1.0000
  H   H130      1.0  0.36138  0.12556  0.73319  1.0000
  C   C67       1.0  0.28715  0.38913  0.66940  1.0000
  N   N5        1.0  0.39484  0.09020  0.65587  1.0000
  C   C68       1.0  0.00977  0.26204  0.70397  1.0000
  H   H131      1.0  0.26360  0.99947  0.70951  1.0000
  C   C69       1.0  0.12685  0.40369  0.65007  1.0000
  H   H132      1.0  0.07253  0.25059  0.72108  1.0000
  C   C70       1.0  0.20999  0.40883  0.69294  1.0000
  H   H133      1.0  0.31917  0.44600  0.69046  1.0000
  C   C71       1.0  0.13805  0.34451  0.67025  1.0000
  C   C72       1.0  0.14217  0.36777  0.66418  1.0000
  H   H134      1.0  0.27668  0.22265  0.67150  1.0000
  H   H135      1.0  0.03670  0.26749  0.73304  1.0000
  C   C73       1.0  0.19869  0.19929  0.72264  1.0000
  H   H136      1.0  0.31166  0.20023  0.66715  1.0000
  C   C74       1.0  0.15088  0.43605  0.73162  1.0000
  H   H137      1.0  0.19858  0.44084  0.69831  1.0000
  C   C75       1.0  0.36232  0.19161  0.69193  1.0000
  H   H138      1.0  0.04686  0.41463  0.66620  1.0000
  H   H139      1.0  0.15605  0.42413  0.61857  1.0000
  C   C76       1.0  0.02534  0.27378  0.65718  1.0000
  H   H140      1.0  0.44411  0.13641  0.72279  1.0000
  H   H141      1.0  0.02015  0.24907  0.69623  1.0000
  H   H142      1.0  0.35663  0.18067  0.68322  1.0000
  C   C77       1.0  0.24655  0.44745  0.67811  1.0000
  H   H143      1.0  0.36566  0.20592  0.68053  1.0000
  H   H144      1.0  0.46191  0.10526  0.70687  1.0000
  H   H145      1.0  0.42608  0.19352  0.69265  1.0000
  H   H146      1.0  0.42444  0.22368  0.71253  1.0000
  H   H147      1.0  0.45146  0.11853  0.64286  1.0000
  H   H148      1.0  0.29613  0.23128  0.68449  1.0000
  C   C78       1.0  0.04170  0.27954  0.69829  1.0000
  H   H149      1.0  0.48601  0.16877  0.71357  1.0000
  C   C79       1.0  0.44017  0.20082  0.69192  1.0000
  H   H150      1.0  0.35852  0.27958  0.70998  1.0000
  H   H151      1.0  0.13594  0.44323  0.63097  1.0000
  C   C80       1.0  0.38273  0.18122  0.70121  1.0000
  H   H152      1.0  0.37419  0.11750  0.64233  1.0000
  H   H153      1.0  0.31277  0.37440  0.63309  1.0000
  H   H154      1.0  0.12235  0.39154  0.73133  1.0000
  H   H155      1.0  0.28205  0.21540  0.71917  1.0000
  C   C81       1.0  0.30824  0.42369  0.67440  1.0000
  H   H156      1.0  0.20300  0.24035  0.67289  1.0000
  H   H157      1.0  0.26705  0.29778  0.70155  1.0000
  S   S21       1.0  0.24363  0.15409  0.69763  1.0000
  H   H158      1.0  0.23587  0.43591  0.65241  1.0000
  C   C82       1.0  0.27192  0.35680  0.69014  1.0000
  H   H159      1.0  0.18968  0.26509  0.68059  1.0000
  H   H160      1.0  0.05006  0.26521  0.69141  1.0000
  C   C83       1.0  0.37849  0.16132  0.71755  1.0000
  H   H161      1.0  0.29449  0.42197  0.68730  1.0000
  H   H162      1.0  0.13115  0.19742  0.72800  1.0000
  C   C84       1.0  0.07029  0.26757  0.72281  1.0000
  C   C85       1.0  0.20795  0.17927  0.68603  1.0000
  C   C86       1.0  0.15051  0.43160  0.63330  1.0000
  H   H163      1.0  0.27126  0.43447  0.58394  1.0000
  H   H164      1.0  0.33633  0.22017  0.73705  1.0000
  C   C87       1.0  0.10845  0.38465  0.72850  1.0000
  H   H165      1.0  0.34943  0.19637  0.70488  1.0000
  C   C88       1.0  0.23396  0.44864  0.66175  1.0000
  C   C89       1.0  0.17887  0.45616  0.73550  1.0000
  H   H166      1.0  0.41369  0.07193  0.63203  1.0000
  H   H167      1.0  0.06505  0.45920  0.61151  1.0000
  C   C90       1.0  0.41134  0.98924  0.50804  1.0000
  H   H168      1.0  0.48922  0.20082  0.72846  1.0000
  C   C91       1.0  0.11371  0.37483  0.70778  1.0000
  C   C92       1.0  0.08314  0.44937  0.65999  1.0000
  H   H169      1.0  0.37222  0.15088  0.70871  1.0000
  H   H170      1.0  0.35209  0.14674  0.65959  1.0000
  H   H171      1.0  0.27734  0.05450  0.71433  1.0000
  H   H172      1.0  0.21144  0.17164  0.67177  1.0000
  C   C93       1.0  0.38792  0.09103  0.61641  1.0000
  C   C94       1.0  0.35410  0.33441  0.72501  1.0000
  H   H173      1.0  0.32396  0.39784  0.62363  1.0000
  H   H174      1.0  0.34683  0.35156  0.63950  1.0000
  H   H175      1.0  0.47976  0.09126  0.62561  1.0000
  H   H176      1.0  0.09068  0.47060  0.63114  1.0000
  H   H177      1.0  0.41436  0.10616  0.67066  1.0000
  Fe  Fe10      1.0  0.15956  0.24916  0.73000  1.0000
  C   C95       1.0  0.19014  0.19485  0.68835  1.0000
  C   C96       1.0  0.43920  0.21800  0.70294  1.0000
  C   C97       1.0  0.22934  0.07856  0.73356  1.0000
  N   N6        1.0  0.39731  0.14948  0.72817  1.0000
  H   H178      1.0  0.38630  0.10843  0.72750  1.0000
  C   C98       1.0  0.08834  0.38834  0.62629  1.0000
  H   H179      1.0  0.29436  0.03851  0.69615  1.0000
  C   C99       1.0  0.11086  0.44883  0.73555  1.0000
  H   H180      1.0  0.12974  0.34000  0.65812  1.0000
  H   H181      1.0  0.25273  0.43280  0.60844  1.0000
  C   C100      1.0  0.18847  0.41930  0.72744  1.0000
  C   C101      1.0  0.14567  0.41501  0.65266  1.0000
  C   C102      1.0  0.43371  0.12587  0.71893  1.0000
  H   H182      1.0  0.23251  0.21569  0.73282  1.0000
  C   C103      1.0  0.21654  0.25110  0.69765  1.0000
  H   H183      1.0  0.40529  0.12921  0.70346  1.0000
  H   H184      1.0  0.31409  0.42806  0.63964  1.0000
  H   H185      1.0  0.25056  0.26577  0.72069  1.0000
  H   H186      1.0  0.26435  0.20196  0.70948  1.0000
  C   C104      1.0  0.18556  0.20510  0.70647  1.0000
  H   H187      1.0  0.17998  0.19915  0.67588  1.0000
  C   C105      1.0  0.40724  0.16513  0.73709  1.0000
  C   C106      1.0  0.41318  0.13917  0.71138  1.0000
  H   H188      1.0  0.26473  0.41203  0.64153  1.0000
  H   H189      1.0  0.03002  0.32067  0.70253  1.0000
  C   C107      1.0  0.26517  0.26961  0.68798  1.0000
  H   H190      1.0  0.27478  0.26078  0.67545  1.0000
  C   C108      1.0  0.21656  0.18341  0.72038  1.0000
  H   H191      1.0  0.38739  0.08762  0.58331  1.0000
  S   S22       1.0  0.26611  0.40129  0.72188  1.0000
  H   H192      1.0  0.27777  0.39008  0.62886  1.0000
  C   C109      1.0  0.47487  0.07610  0.63219  1.0000
  H   H193      1.0  0.26841  0.34090  0.68898  1.0000
  C   C110      1.0  0.39306  0.07423  0.67589  1.0000
  C   C111      1.0  0.27661  0.28804  0.68960  1.0000
  Fe  Fe11      1.0  0.30660  0.11193  0.72958  1.0000
  C   C112      1.0  0.44685  0.11391  0.70131  1.0000
  C   C113      1.0  0.41165  0.05554  0.67727  1.0000
  C   C114      1.0  0.27102  0.21716  0.70708  1.0000
  C   C115      1.0  0.26160  0.25551  0.70999  1.0000
  C   C116      1.0  0.40645  0.03904  0.69662  1.0000
  H   H194      1.0  0.36609  0.36133  0.65152  1.0000
  H   H195      1.0  0.41903  0.15129  0.69828  1.0000
  H   H196      1.0  0.37786  0.06751  0.67761  1.0000
  H   H197      1.0  0.39220  0.08171  0.69048  1.0000
  H   H198      1.0  0.33588  0.12718  0.67404  1.0000
  H   H199      1.0  0.29276  0.28222  0.69433  1.0000
  C   C117      1.0  0.20557  0.25539  0.67752  1.0000
  C   C118      1.0  0.33520  0.38114  0.65227  1.0000
  H   H200      1.0  0.36736  0.10871  0.69158  1.0000
  C   C119      1.0  0.28590  0.41964  0.61205  1.0000
  H   H201      1.0  0.42668  0.06108  0.67914  1.0000
  H   H202      1.0  0.15047  0.36904  0.64735  1.0000
  H   H203      1.0  0.22606  0.09600  0.72974  1.0000
  C   C120      1.0  0.37453  0.10589  0.65709  1.0000
  H   H204      1.0  0.39508  0.17717  0.68761  1.0000
  Fe  Fe12      1.0  0.00417  0.36714  0.60701  1.0000
  H   H205      1.0  0.33193  0.27424  0.70891  1.0000
  H   H206      1.0  0.20523  0.39283  0.69754  1.0000
  H   H207      1.0  0.00686  0.32968  0.73558  1.0000
  C   C121      1.0  0.27869  0.04006  0.70675  1.0000
  S   S23       1.0  0.10568  0.31664  0.73119  1.0000
  C   C122      1.0  0.02316  0.28345  0.63403  1.0000
  S   S24       1.0  0.27165  0.10875  0.73592  1.0000
  H   H208      1.0  0.48154  0.03657  0.67346  1.0000
  H   H209      1.0  0.01682  0.25979  0.66093  1.0000
  C   C123      1.0  0.00159  0.33572  0.71972  1.0000
  H   H210      1.0  0.29049  0.00159  0.69889  1.0000
  H   H211      1.0  0.24660  0.07402  0.73511  1.0000
  H   H212      1.0  0.48979  0.22944  0.68575  1.0000
  H   H213      1.0  0.40491  0.00116  0.49525  1.0000
  S   S25       1.0  0.30470  0.42214  0.73590  1.0000
  S   S26       1.0  0.36393  0.98558  0.63150  1.0000
  H   H214      1.0  0.26163  0.02331  0.73445  1.0000
  H   H215      1.0  0.26277  0.40951  0.59568  1.0000
  H   H216      1.0  0.36502  0.16638  0.72992  1.0000
  H   H217      1.0  0.00807  0.32900  0.68739  1.0000
  H   H218      1.0  0.99885  0.29535  0.67072  1.0000
  H   H219      1.0  0.45284  0.36529  0.71079  1.0000
  H   H220      1.0  0.17710  0.46400  0.71889  1.0000
  H   H221      1.0  0.20407  0.41679  0.73379  1.0000
  C   C124      1.0  0.44250  0.36194  0.72636  1.0000
  H   H222      1.0  0.14639  0.42011  0.73233  1.0000
  C   C125      1.0  0.34131  0.28300  0.71665  1.0000
  H   H223      1.0  0.00607  0.28910  0.63221  1.0000
  H   H224      1.0  0.21381  0.45099  0.72626  1.0000
  H   H225      1.0  0.33598  0.30016  0.71279  1.0000
  H   H226      1.0  0.24775  0.31840  0.73121  1.0000
  H   H227      1.0  0.13448  0.16915  0.73411  1.0000
  C   C126      1.0  0.32531  0.98990  0.71612  1.0000
  H   H228      1.0  0.22749  0.24276  0.73604  1.0000
  H   H229      1.0  0.19499  0.20692  0.73685  1.0000
  H   H230      1.0  0.29004  0.02031  0.73420  1.0000
  Fe  Fe13      1.0  0.12351  0.48190  0.66313  1.0000
  H   H231      1.0  0.34714  0.99313  0.73789  1.0000
  H   H232      1.0  0.18822  0.07331  0.73790  1.0000
  H   H233      1.0  0.40151  0.12421  0.75475  1.0000
  H   H234      1.0  0.02073  0.10243  0.94326  1.0000
  S   S27       1.0  0.38377  0.45120  0.90338  1.0000
  S   S28       1.0  0.38685  0.20152  0.78960  1.0000
  S   S29       1.0  0.12758  0.25702  0.74978  1.0000
  S   S30       1.0  0.48350  0.35559  0.84930  1.0000
  N   N7        1.0  0.25658  0.48199  0.80949  1.0000
  H   H235      1.0  0.18669  0.35799  0.77309  1.0000
  Fe  Fe14      1.0  0.21171  0.99762  0.82552  1.0000
  S   S31       1.0  0.17999  0.99548  0.81574  1.0000
  S   S32       1.0  0.23581  0.01308  0.80027  1.0000
  Fe  Fe15      1.0  0.16640  0.00072  0.84951  1.0000
  S   S33       1.0  0.13814  0.02399  0.86206  1.0000
  C   C127      1.0  0.44006  0.32488  0.80118  1.0000
  H   H236      1.0  0.47409  0.40132  0.94974  1.0000
  S   S34       1.0  0.19801  0.00461  0.85869  1.0000
  H   H237      1.0  0.36164  0.41360  0.89860  1.0000
  S   S35       1.0  0.25243  0.10718  0.79704  1.0000
  S   S36       1.0  0.40280  0.25421  0.80150  1.0000
  C   C128      1.0  0.24044  0.46736  0.81933  1.0000
  S   S37       1.0  0.22189  0.38180  0.76635  1.0000
  C   C129      1.0  0.15975  0.40634  0.77079  1.0000
  H   H238      1.0  0.16915  0.03746  0.74653  1.0000
  S   S38       1.0  0.45740  0.31016  0.88228  1.0000
  H   H239      1.0  0.03324  0.12578  0.94072  1.0000
  H   H240      1.0  0.43338  0.33330  0.76278  1.0000
  H   H241      1.0  0.15484  0.10722  0.75399  1.0000
  S   S39       1.0  0.46494  0.25290  0.80981  1.0000
  Fe  Fe16      1.0  0.05626  0.12486  0.82749  1.0000
  S   S40       1.0  0.05322  0.12966  0.86189  1.0000
  S   S41       1.0  0.07780  0.09781  0.81250  1.0000
  Fe  Fe17      1.0  0.02685  0.16654  0.81599  1.0000
  S   S42       1.0  0.02225  0.17432  0.84950  1.0000
  C   C130      1.0  0.19998  0.34954  0.76372  1.0000
  Fe  Fe18      1.0  0.05759  0.16310  0.84814  1.0000
  S   S43       1.0  0.07929  0.18004  0.86146  1.0000
  Fe  Fe19      1.0  0.01805  0.14049  0.85986  1.0000
  H   H242      1.0  0.35267  0.34774  0.78212  1.0000
  S   S44       1.0  0.06267  0.15787  0.81397  1.0000
  S   S45       1.0  0.02060  0.13312  0.82617  1.0000
  S   S46       1.0  0.13930  0.24564  0.81024  1.0000
  C   C131      1.0  0.09589  0.19765  0.84578  1.0000
  C   C132      1.0  0.10590  0.20937  0.85659  1.0000
  C   C133      1.0  0.11896  0.22391  0.84525  1.0000
  C   C134      1.0  0.12218  0.22715  0.82287  1.0000
  C   C135      1.0  0.11228  0.21541  0.81176  1.0000
  C   C136      1.0  0.09936  0.20038  0.82329  1.0000
  H   H243      1.0  0.10348  0.20725  0.87393  1.0000
  H   H244      1.0  0.12661  0.23280  0.85396  1.0000
  H   H245      1.0  0.11476  0.21775  0.79444  1.0000
  H   H246      1.0  0.09201  0.19102  0.81487  1.0000
  H   H247      1.0  0.08324  0.20087  0.77518  1.0000
  S   S47       1.0  0.17906  0.24768  0.75634  1.0000
  H   H248      1.0  0.15229  0.19531  0.80048  1.0000
  S   S48       1.0  0.43918  0.22622  0.77143  1.0000
  C   C137      1.0  0.45824  0.29615  0.86074  1.0000
  C   C138      1.0  0.44148  0.28493  0.85999  1.0000
  C   C139      1.0  0.44269  0.27266  0.84351  1.0000
  C   C140      1.0  0.46095  0.27115  0.82810  1.0000
  H   H249      1.0  0.08592  0.28455  0.76656  1.0000
  H   H250      1.0  0.20074  0.04662  0.88877  1.0000
  H   H251      1.0  0.42772  0.28542  0.87238  1.0000
  H   H252      1.0  0.42998  0.26359  0.84336  1.0000
  H   H253      1.0  0.38047  0.46387  0.95224  1.0000
  H   H254      1.0  0.34193  0.45652  0.83724  1.0000
  C   C141      1.0  0.12183  0.04446  0.84770  1.0000
  C   C142      1.0  0.11991  0.04463  0.82619  1.0000
  C   C143      1.0  0.10622  0.06097  0.81571  1.0000
  C   C144      1.0  0.09448  0.07735  0.82652  1.0000
  C   C145      1.0  0.09646  0.07714  0.84801  1.0000
  C   C146      1.0  0.10998  0.06074  0.85854  1.0000
  H   H255      1.0  0.12864  0.03201  0.81777  1.0000
  H   H256      1.0  0.10447  0.06074  0.79922  1.0000
  H   H257      1.0  0.08744  0.08953  0.85658  1.0000
  H   H258      1.0  0.11121  0.06065  0.87522  1.0000
  C   C147      1.0  0.24131  0.03867  0.80076  1.0000
  C   C148      1.0  0.25622  0.04730  0.78443  1.0000
  C   C149      1.0  0.26011  0.06809  0.78351  1.0000
  C   C150      1.0  0.24898  0.08051  0.79881  1.0000
  C   C151      1.0  0.23446  0.07170  0.81549  1.0000
  C   C152      1.0  0.23070  0.05078  0.81653  1.0000
  H   H259      1.0  0.26467  0.03794  0.77233  1.0000
  H   H260      1.0  0.27173  0.07448  0.77091  1.0000
  H   H261      1.0  0.22601  0.08112  0.82754  1.0000
  H   H262      1.0  0.21944  0.04409  0.82934  1.0000
  H   H263      1.0  0.20579  0.44790  0.75469  1.0000
  C   C153      1.0  0.35310  0.34392  0.76620  1.0000
  H   H264      1.0  0.15231  0.06935  0.75183  1.0000
  H   H265      1.0  0.17854  0.06577  0.88112  1.0000
  C   C154      1.0  0.03967  0.22613  0.86686  1.0000
  C   C155      1.0  0.41014  0.43937  0.89414  1.0000
  C   C156      1.0  0.41638  0.41757  0.89952  1.0000
  C   C157      1.0  0.43732  0.40799  0.89239  1.0000
  C   C158      1.0  0.45231  0.42027  0.88019  1.0000
  C   C159      1.0  0.44612  0.44204  0.87520  1.0000
  C   C160      1.0  0.42518  0.45146  0.88193  1.0000
  H   H266      1.0  0.40494  0.40803  0.90908  1.0000
  H   H267      1.0  0.44191  0.39121  0.89650  1.0000
  H   H268      1.0  0.45758  0.45169  0.86584  1.0000
  H   H269      1.0  0.42079  0.46816  0.87773  1.0000
  C   C161      1.0  0.32005  0.43949  0.79954  1.0000
  H   H270      1.0  0.16876  0.03020  0.88723  1.0000
  C   C162      1.0  0.34232  0.46674  0.78358  1.0000
  C   C163      1.0  0.32887  0.45216  0.78140  1.0000
  H   H271      1.0  0.43535  0.42089  0.96343  1.0000
  H   H272      1.0  0.31827  0.43166  0.83369  1.0000
  H   H273      1.0  0.08562  0.25477  0.79708  1.0000
  C   C164      1.0  0.37880  0.40503  0.82279  1.0000
  S   S49       1.0  0.30256  0.42120  0.79867  1.0000
  Fe  Fe20      1.0  0.14728  0.25817  0.77527  1.0000
  H   H274      1.0  0.15763  0.01777  0.96041  1.0000
  N   N8        1.0  0.17692  0.06724  0.77192  1.0000
  C   C165      1.0  0.18166  0.04347  0.77482  1.0000
  C   C166      1.0  0.18029  0.07478  0.79204  1.0000
  C   C167      1.0  0.15408  0.07370  0.76749  1.0000
  H   H275      1.0  0.36605  0.22628  0.75476  1.0000
  H   H276      1.0  0.16120  0.18334  0.74908  1.0000
  H   H277      1.0  0.31031  0.29954  0.74615  1.0000
  C   C168      1.0  0.14531  0.09753  0.76677  1.0000
  C   C169      1.0  0.16458  0.06850  0.81246  1.0000
  C   C170      1.0  0.16983  0.07637  0.83195  1.0000
  H   H278      1.0  0.48649  0.19864  0.77444  1.0000
  S   S50       1.0  0.49087  0.35016  0.89974  1.0000
  C   C171      1.0  0.12214  0.10212  0.76217  1.0000
  H   H279      1.0  0.16877  0.03654  0.78638  1.0000
  H   H280      1.0  0.19652  0.03781  0.78232  1.0000
  H   H281      1.0  0.19665  0.06840  0.79590  1.0000
  H   H282      1.0  0.17978  0.09218  0.78959  1.0000
  H   H283      1.0  0.14297  0.06475  0.77951  1.0000
  H   H284      1.0  0.46998  0.29320  0.78498  1.0000
  H   H285      1.0  0.34972  0.47999  0.93486  1.0000
  C   C172      1.0  0.37619  0.11752  0.73965  1.0000
  H   H286      1.0  0.13969  0.00013  0.95964  1.0000
  H   H287      1.0  0.48060  0.31598  0.94709  1.0000
  C   C173      1.0  0.01765  0.11987  0.94212  1.0000
  C   C174      1.0  0.18391  0.03305  0.75422  1.0000
  C   C175      1.0  0.01263  0.25592  0.78122  1.0000
  H   H288      1.0  0.14551  0.10295  0.78225  1.0000
  H   H289      1.0  0.14784  0.07539  0.81047  1.0000
  H   H290      1.0  0.16548  0.05112  0.81620  1.0000
  H   H291      1.0  0.16925  0.09375  0.82916  1.0000
  H   H292      1.0  0.15789  0.07213  0.84609  1.0000
  H   H293      1.0  0.18597  0.06889  0.83562  1.0000
  S   S51       1.0  0.38074  0.30940  0.77874  1.0000
  C   C176      1.0  0.34987  0.41812  0.88706  1.0000
  C   C177      1.0  0.42372  0.47218  0.93697  1.0000
  H   H294      1.0  0.43863  0.31035  0.79481  1.0000
  H   H295      1.0  0.27080  0.28140  0.75505  1.0000
  C   C178      1.0  0.23888  0.22368  0.77291  1.0000
  Fe  Fe21      1.0  0.49295  0.37508  0.87095  1.0000
  C   C179      1.0  0.35903  0.21195  0.75958  1.0000
  C   C180      1.0  0.13196  0.45015  0.74320  1.0000
  N   N9        1.0  0.31034  0.27694  0.77510  1.0000
  C   C181      1.0  0.28705  0.28520  0.78178  1.0000
  C   C182      1.0  0.32477  0.28797  0.78481  1.0000
  H   H296      1.0  0.19050  0.00205  0.74408  1.0000
  C   C183      1.0  0.31525  0.25330  0.78069  1.0000
  C   C184      1.0  0.30794  0.24374  0.80403  1.0000
  C   C185      1.0  0.27033  0.27584  0.77247  1.0000
  H   H297      1.0  0.01079  0.11995  0.97625  1.0000
  C   C186      1.0  0.31644  0.29431  0.80744  1.0000
  C   C187      1.0  0.33388  0.30186  0.81674  1.0000
  H   H298      1.0  0.44803  0.43319  0.93813  1.0000
  C   C188      1.0  0.24757  0.28272  0.78315  1.0000
  H   H299      1.0  0.44077  0.47345  0.93012  1.0000
  H   H300      1.0  0.28421  0.30265  0.77717  1.0000
  H   H301      1.0  0.28279  0.28260  0.79944  1.0000
  Fe  Fe22      1.0  0.29922  0.15531  0.74462  1.0000
  H   H302      1.0  0.01038  0.12652  0.92736  1.0000
  H   H303      1.0  0.28521  0.47814  0.87423  1.0000
  H   H304      1.0  0.34908  0.47647  0.76952  1.0000
  H   H305      1.0  0.30841  0.24522  0.76987  1.0000
  H   H306      1.0  0.18198  0.99067  0.96960  1.0000
  H   H307      1.0  0.29062  0.24855  0.80911  1.0000
  H   H308      1.0  0.31744  0.24840  0.81502  1.0000
  H   H309      1.0  0.46327  0.24416  0.87848  1.0000
  H   H310      1.0  0.27322  0.25839  0.77510  1.0000
  C   C189      1.0  0.00288  0.12665  0.96193  1.0000
  C   C190      1.0  0.31491  0.28228  0.75103  1.0000
  H   H311      1.0  0.30297  0.30751  0.80644  1.0000
  H   H312      1.0  0.31059  0.28116  0.81894  1.0000
  H   H313      1.0  0.32761  0.30565  0.83313  1.0000
  H   H314      1.0  0.34810  0.28948  0.81770  1.0000
  H   H315      1.0  0.33887  0.31632  0.80669  1.0000
  H   H316      1.0  0.10637  0.02305  0.97152  1.0000
  H   H317      1.0  0.02006  0.26898  0.77096  1.0000
  H   H318      1.0  0.38328  0.09245  0.76583  1.0000
  H   H319      1.0  0.24570  0.27671  0.80056  1.0000
  H   H320      1.0  0.24372  0.30018  0.78090  1.0000
  H   H321      1.0  0.43261  0.47064  0.82472  1.0000
  N   N10       1.0  0.39268  0.41327  0.83557  1.0000
  H   H322      1.0  0.38927  0.44291  0.81438  1.0000
  H   H323      1.0  0.03162  0.24035  0.87402  1.0000
  N   N11       1.0  0.17223  0.43448  0.73935  1.0000
  C   C191      1.0  0.41501  0.44396  0.83225  1.0000
  H   H324      1.0  0.29496  0.45763  0.85770  1.0000
  C   C192      1.0  0.34021  0.35692  0.75218  1.0000
  H   H325      1.0  0.19510  0.16750  0.76310  1.0000
  H   H326      1.0  0.17824  0.39407  0.79707  1.0000
  H   H327      1.0  0.11166  0.09306  0.77465  1.0000
  H   H328      1.0  0.44787  0.31956  0.81586  1.0000
  C   C193      1.0  0.33816  0.45593  0.82172  1.0000
  H   H329      1.0  0.41019  0.47325  0.81028  1.0000
  H   H330      1.0  0.12998  0.44553  0.76080  1.0000
  H   H331      1.0  0.41561  0.34845  0.81638  1.0000
  C   C194      1.0  0.21476  0.31899  0.74581  1.0000
  H   H332      1.0  0.25720  0.47135  0.85442  1.0000
  H   H333      1.0  0.40533  0.30390  0.81726  1.0000
  C   C195      1.0  0.36654  0.19702  0.77600  1.0000
  C   C196      1.0  0.37918  0.42164  0.85502  1.0000
  C   C197      1.0  0.18793  0.00903  0.75919  1.0000
  C   C198      1.0  0.47590  0.29556  0.84458  1.0000
  C   C199      1.0  0.16578  0.18364  0.79445  1.0000
  H   H334      1.0  0.48481  0.38439  0.92958  1.0000
  Fe  Fe23      1.0  0.43819  0.25215  0.79092  1.0000
  H   H335      1.0  0.30303  0.21375  0.79565  1.0000
  H   H336      1.0  0.32795  0.30306  0.77448  1.0000
  H   H337      1.0  0.04245  0.21268  0.83788  1.0000
  C   C200      1.0  0.48722  0.19972  0.81587  1.0000
  H   H338      1.0  0.47581  0.23088  0.85614  1.0000
  C   C201      1.0  0.41093  0.39682  0.84218  1.0000
  H   H339      1.0  0.05159  0.24028  0.76247  1.0000
  H   H340      1.0  0.16034  0.99367  0.90103  1.0000
  C   C202      1.0  0.20986  0.13565  0.76221  1.0000
  H   H341      1.0  0.22039  0.13666  0.77407  1.0000
  H   H342      1.0  0.34526  0.43549  0.88502  1.0000
  Fe  Fe24      1.0  0.40318  0.23071  0.77914  1.0000
  H   H343      1.0  0.27516  0.46171  0.78741  1.0000
  C   C203      1.0  0.34688  0.46890  0.80386  1.0000
  C   C204      1.0  0.18972  0.15194  0.76462  1.0000
  C   C205      1.0  0.43277  0.43299  0.94931  1.0000
  H   H344      1.0  0.36538  0.41754  0.81869  1.0000
  H   H345      1.0  0.25414  0.98278  0.74617  1.0000
  S   S52       1.0  0.31192  0.18631  0.74265  1.0000
  C   C206      1.0  0.07099  0.21005  0.76550  1.0000
  H   H346      1.0  0.01752  0.22947  0.84461  1.0000
  H   H347      1.0  0.48379  0.38210  0.80700  1.0000
  H   H348      1.0  0.45771  0.39724  0.80383  1.0000
  C   C207      1.0  0.24953  0.44366  0.82369  1.0000
  C   C208      1.0  0.05401  0.22934  0.79688  1.0000
  H   H349      1.0  0.36015  0.39781  0.78881  1.0000
  H   H350      1.0  0.43668  0.45761  0.96644  1.0000
  H   H351      1.0  0.47708  0.21771  0.88331  1.0000
  C   C209      1.0  0.23166  0.43039  0.83301  1.0000
  C   C210      1.0  0.34222  0.20842  0.74959  1.0000
  H   H352      1.0  0.20160  0.99899  0.94749  1.0000
  H   H353      1.0  0.40765  0.33937  0.79419  1.0000
  Fe  Fe25      1.0  0.27188  0.12103  0.76659  1.0000
  H   H354      1.0  0.12084  0.03014  0.93297  1.0000
  H   H355      1.0  0.05718  0.22440  0.86738  1.0000
  H   H356      1.0  0.43452  0.35637  0.84427  1.0000
  H   H357      1.0  0.28472  0.46302  0.82062  1.0000
  C   C211      1.0  0.35939  0.41073  0.86558  1.0000
  H   H358      1.0  0.16249  0.43877  0.77273  1.0000
  C   C212      1.0  0.46890  0.37409  0.78168  1.0000
  H   H359      1.0  0.25756  0.43782  0.80865  1.0000
  H   H360      1.0  0.26121  0.44076  0.83527  1.0000
  H   H361      1.0  0.33285  0.24809  0.77773  1.0000
  C   C213      1.0  0.03518  0.22771  0.84385  1.0000
  S   S53       1.0  0.30746  0.12232  0.76136  1.0000
  C   C214      1.0  0.19757  0.33036  0.75753  1.0000
  S   S54       1.0  0.43530  0.27754  0.76303  1.0000
  H   H362      1.0  0.19233  0.01230  0.91202  1.0000
  H   H363      1.0  0.37060  0.37247  0.80252  1.0000
  H   H364      1.0  0.48770  0.35207  0.94514  1.0000
  H   H365      1.0  0.29386  0.47140  0.75025  1.0000
  C   C215      1.0  0.14781  0.01305  0.94966  1.0000
  H   H366      1.0  0.21990  0.43203  0.82161  1.0000
  H   H367      1.0  0.23866  0.41353  0.83591  1.0000
  H   H368      1.0  0.22328  0.43522  0.84846  1.0000
  H   H369      1.0  0.00122  0.14411  0.96002  1.0000
  H   H370      1.0  0.06781  0.22247  0.80539  1.0000
  H   H371      1.0  0.14079  0.20102  0.76238  1.0000
  N   N12       1.0  0.15749  0.16363  0.79268  1.0000
  H   H372      1.0  0.43457  0.45585  0.80281  1.0000
  C   C216      1.0  0.14106  0.16808  0.77733  1.0000
  C   C217      1.0  0.14633  0.15570  0.81462  1.0000
  C   C218      1.0  0.17542  0.14664  0.78623  1.0000
  C   C219      1.0  0.16119  0.39852  0.79446  1.0000
  H   H373      1.0  0.06192  0.24396  0.83156  1.0000
  C   C220      1.0  0.13346  0.13708  0.81582  1.0000
  H   H374      1.0  0.26397  0.20933  0.75128  1.0000
  C   C221      1.0  0.26511  0.47743  0.78699  1.0000
  H   H375      1.0  0.22805  0.46852  0.80866  1.0000
  C   C222      1.0  0.12215  0.13126  0.83851  1.0000
  H   H376      1.0  0.22032  0.07837  0.76733  1.0000
  C   C223      1.0  0.17084  0.42633  0.76300  1.0000
  H   H377      1.0  0.13929  0.15323  0.77165  1.0000
  H   H378      1.0  0.12492  0.17381  0.78576  1.0000
  H   H379      1.0  0.13501  0.16877  0.82133  1.0000
  H   H380      1.0  0.15803  0.15024  0.82614  1.0000
  H   H381      1.0  0.18592  0.14169  0.79900  1.0000
  H   H382      1.0  0.16890  0.13219  0.78489  1.0000
  H   H383      1.0  0.04142  0.28286  0.80049  1.0000
  H   H384      1.0  0.42904  0.43373  0.83828  1.0000
  S   S55       1.0  0.39742  0.25507  0.75045  1.0000
  C   C224      1.0  0.18434  0.05420  0.89449  1.0000
  H   H385      1.0  0.14424  0.12283  0.81133  1.0000
  H   H386      1.0  0.12087  0.14101  0.80517  1.0000
  C   C225      1.0  0.35754  0.17825  0.78194  1.0000
  H   H387      1.0  0.48802  0.20752  0.82983  1.0000
  N   N13       1.0  0.45360  0.33872  0.78488  1.0000
  H   H388      1.0  0.34967  0.28363  0.74771  1.0000
  H   H389      1.0  0.22818  0.23887  0.77434  1.0000
  C   C226      1.0  0.40448  0.31875  0.82401  1.0000
  H   H390      1.0  0.01178  0.23760  0.81190  1.0000
  Fe  Fe26      1.0  0.18030  0.28219  0.74461  1.0000
  H   H391      1.0  0.13395  0.12619  0.84996  1.0000
  H   H392      1.0  0.11066  0.14486  0.84374  1.0000
  H   H393      1.0  0.11299  0.11808  0.83884  1.0000
  H   H394      1.0  0.39599  0.37898  0.87127  1.0000
  H   H395      1.0  0.47078  0.20416  0.81144  1.0000
  C   C227      1.0  0.36622  0.32589  0.75987  1.0000
  C   C228      1.0  0.04470  0.24649  0.82934  1.0000
  H   H396      1.0  0.33026  0.37083  0.75725  1.0000
  C   C229      1.0  0.42473  0.36020  0.85953  1.0000
  H   H397      1.0  0.25188  0.35241  0.74193  1.0000
  H   H398      1.0  0.42501  0.18828  0.75976  1.0000
  Fe  Fe27      1.0  0.36902  0.48179  0.88471  1.0000
  H   H399      1.0  0.36000  0.09071  0.75401  1.0000
  H   H400      1.0  0.22897  0.21086  0.77439  1.0000
  H   H401      1.0  0.10346  0.05081  0.96158  1.0000
  H   H402      1.0  0.33391  0.16013  0.77649  1.0000
  H   H403      1.0  0.24865  0.22024  0.78625  1.0000
  H   H404      1.0  0.19857  0.17208  0.80159  1.0000
  H   H405      1.0  0.42263  0.39301  0.82797  1.0000
  H   H406      1.0  0.40478  0.45098  0.84578  1.0000
  C   C230      1.0  0.40477  0.37599  0.85536  1.0000
  H   H407      1.0  0.17244  0.19153  0.77860  1.0000
  C   C231      1.0  0.05178  0.26865  0.79498  1.0000
  C   C232      1.0  0.27520  0.47875  0.82197  1.0000
  H   H408      1.0  0.37252  0.43853  0.85095  1.0000
  H   H409      1.0  0.05175  0.27087  0.77743  1.0000
  C   C233      1.0  0.32494  0.44141  0.81960  1.0000
  H   H410      1.0  0.34669  0.41475  0.85503  1.0000
  H   H411      1.0  0.36329  0.16664  0.79466  1.0000
  H   H412      1.0  0.04336  0.21690  0.80019  1.0000
  C   C234      1.0  0.47733  0.23302  0.87266  1.0000
  H   H413      1.0  0.23587  0.27633  0.77585  1.0000
  C   C235      1.0  0.47740  0.28282  0.82855  1.0000
  H   H414      1.0  0.17388  0.00304  0.76959  1.0000
  C   C236      1.0  0.12980  0.18404  0.74117  1.0000
  H   H415      1.0  0.03731  0.26118  0.83614  1.0000
  N   N14       1.0  0.04258  0.24898  0.80578  1.0000
  H   H416      1.0  0.30507  0.27420  0.74304  1.0000
  H   H417      1.0  0.23139  0.47223  0.83457  1.0000
  S   S56       1.0  0.15020  0.29264  0.76605  1.0000
  H   H418      1.0  0.16737  0.39326  0.76175  1.0000
  H   H419      1.0  0.36324  0.39338  0.86839  1.0000
  C   C237      1.0  0.34090  0.17455  0.77170  1.0000
  H   H420      1.0  0.03351  0.21205  0.87667  1.0000
  C   C238      1.0  0.42506  0.45458  0.95653  1.0000
  H   H421      1.0  0.40728  0.15532  0.77154  1.0000
  C   C239      1.0  0.37501  0.38679  0.79170  1.0000
  H   H422      1.0  0.38312  0.38199  0.77614  1.0000
  C   C240      1.0  0.06337  0.23162  0.77276  1.0000
  H   H423      1.0  0.19284  0.21215  0.79510  1.0000
  C   C241      1.0  0.08470  0.28741  0.78337  1.0000
  H   H424      1.0  0.30894  0.98617  0.74833  1.0000
  Fe  Fe28      1.0  0.28929  0.41481  0.76983  1.0000
  S   S57       1.0  0.28507  0.38157  0.76713  1.0000
  C   C242      1.0  0.41920  0.15688  0.75677  1.0000
  Fe  Fe29      1.0  0.39996  0.27830  0.77215  1.0000
  H   H425      1.0  0.01036  0.26508  0.81277  1.0000
  C   C243      1.0  0.11528  0.03661  0.96527  1.0000
  H   H426      1.0  0.07745  0.24020  0.76976  1.0000
  C   C244      1.0  0.07492  0.26984  0.79885  1.0000
  H   H427      1.0  0.42027  0.40312  0.85228  1.0000
  C   C245      1.0  0.33308  0.18976  0.75564  1.0000
  H   H428      1.0  0.10111  0.28793  0.78675  1.0000
  S   S58       1.0  0.25582  0.42781  0.76290  1.0000
  H   H429      1.0  0.32543  0.45073  0.76576  1.0000
  H   H430      1.0  0.43474  0.36659  0.86887  1.0000
  C   C246      1.0  0.21953  0.35765  0.75813  1.0000
  H   H431      1.0  0.48618  0.33543  0.76799  1.0000
  H   H432      1.0  0.13852  0.04663  0.93919  1.0000
  H   H433      1.0  0.49033  0.18239  0.82060  1.0000
  H   H434      1.0  0.42907  0.14133  0.75578  1.0000
  H   H435      1.0  0.18247  0.32426  0.76207  1.0000
  Fe  Fe30      1.0  0.25321  0.39529  0.75666  1.0000
  H   H436      1.0  0.18497  0.06278  0.90797  1.0000
  H   H437      1.0  0.07488  0.30294  0.78524  1.0000
  H   H438      1.0  0.18719  0.42231  0.76776  1.0000
  H   H439      1.0  0.46204  0.34698  0.97680  1.0000
  C   C247      1.0  0.41649  0.33460  0.80818  1.0000
  C   C248      1.0  0.25365  0.22485  0.75149  1.0000
  C   C249      1.0  0.18365  0.18127  0.80879  1.0000
  C   C250      1.0  0.40220  0.43142  0.82137  1.0000
  H   H440      1.0  0.21897  0.13874  0.74590  1.0000
  C   C251      1.0  0.17701  0.02071  0.91967  1.0000
  C   C252      1.0  0.39001  0.39742  0.80143  1.0000
  H   H441      1.0  0.39459  0.41097  0.78950  1.0000
  C   C253      1.0  0.01893  0.25191  0.80407  1.0000
  H   H442      1.0  0.11284  0.18500  0.74884  1.0000
  S   S59       1.0  0.47909  0.40960  0.87124  1.0000
  H   H443      1.0  0.12105  0.09795  0.74626  1.0000
  H   H444      1.0  0.41343  0.42581  0.80757  1.0000
  H   H445      1.0  0.41989  0.34535  0.86893  1.0000
  H   H446      1.0  0.15301  0.38435  0.79966  1.0000
  H   H447      1.0  0.40453  0.38592  0.80384  1.0000
  H   H448      1.0  0.17884  0.17336  0.82518  1.0000
  H   H449      1.0  0.26394  0.23713  0.75090  1.0000
  H   H450      1.0  0.20296  0.20074  0.81981  1.0000
  C   C254      1.0  0.14455  0.18505  0.75741  1.0000
  H   H451      1.0  0.13982  0.01441  0.90718  1.0000
  H   H452      1.0  0.15334  0.41086  0.80445  1.0000
  H   H453      1.0  0.17512  0.21172  0.82025  1.0000
  H   H454      1.0  0.38933  0.42152  0.86759  1.0000
  H   H455      1.0  0.15286  0.04597  0.90601  1.0000
  H   H456      1.0  0.37098  0.39184  0.83236  1.0000
  H   H457      1.0  0.10706  0.43245  0.73905  1.0000
  H   H458      1.0  0.33531  0.41069  0.89384  1.0000
  C   C255      1.0  0.47297  0.38994  0.79523  1.0000
  H   H459      1.0  0.38733  0.32546  0.82750  1.0000
  C   C256      1.0  0.28922  0.47472  0.85746  1.0000
  S   S60       1.0  0.01238  0.19231  0.79186  1.0000
  C   C257      1.0  0.13066  0.03236  0.94495  1.0000
  H   H460      1.0  0.39490  0.36840  0.84701  1.0000
  C   C258      1.0  0.42359  0.46199  0.81646  1.0000
  H   H461      1.0  0.18169  0.02897  0.93173  1.0000
  H   H462      1.0  0.07476  0.27336  0.81531  1.0000
  H   H463      1.0  0.11608  0.11914  0.76222  1.0000
  H   H464      1.0  0.41702  0.46609  0.92457  1.0000
  H   H465      1.0  0.34090  0.27834  0.78531  1.0000
  C   C259      1.0  0.43405  0.17221  0.75931  1.0000
  H   H466      1.0  0.32917  0.21386  0.80306  1.0000
  C   C260      1.0  0.14924  0.00001  0.91462  1.0000
  H   H467      1.0  0.48240  0.42189  0.91446  1.0000
  H   H468      1.0  0.10466  0.37228  0.74221  1.0000
  H   H469      1.0  0.46382  0.35122  0.81017  1.0000
  H   H470      1.0  0.42051  0.42855  0.94108  1.0000
  C   C261      1.0  0.18895  0.20281  0.81104  1.0000
  H   H471      1.0  0.14251  0.40960  0.76891  1.0000
  H   H472      1.0  0.18079  0.15173  0.75117  1.0000
  H   H473      1.0  0.01730  0.24131  0.77369  1.0000
  S   S61       1.0  0.26363  0.15513  0.75293  1.0000
  C   C262      1.0  0.31178  0.21966  0.80656  1.0000
  H   H474      1.0  0.44094  0.16708  0.77449  1.0000
  H   H475      1.0  0.20246  0.00378  0.76724  1.0000
  H   H476      1.0  0.30604  0.21310  0.82330  1.0000
  H   H477      1.0  0.20571  0.11945  0.76461  1.0000
  C   C263      1.0  0.16914  0.03771  0.90146  1.0000
  H   H478      1.0  0.40950  0.45367  0.96693  1.0000
  C   C264      1.0  0.23672  0.34637  0.74626  1.0000
  H   H479      1.0  0.18858  0.09438  0.75186  1.0000
  C   C265      1.0  0.19163  0.07694  0.75332  1.0000
  H   H480      1.0  0.34328  0.25889  0.74356  1.0000
  H   H481      1.0  0.41138  0.31516  0.83926  1.0000
  C   C266      1.0  0.21595  0.07087  0.75459  1.0000
  C   C267      1.0  0.44232  0.34583  0.76537  1.0000
  Fe  Fe31      1.0  0.48407  0.32990  0.87704  1.0000
  H   H482      1.0  0.49094  0.22647  0.74834  1.0000
  H   H483      1.0  0.37760  0.14197  0.75840  1.0000
  H   H484      1.0  0.44034  0.36593  0.80082  1.0000
  H   H485      1.0  0.22067  0.05362  0.75814  1.0000
  N   N15       1.0  0.16201  0.00509  0.93052  1.0000
  H   H486      1.0  0.16788  0.46655  0.74602  1.0000
  H   H487      1.0  0.12417  0.03945  0.97781  1.0000
  C   C268      1.0  0.38863  0.13356  0.74611  1.0000
  C   C269      1.0  0.26946  0.48121  0.84605  1.0000
  C   C270      1.0  0.45613  0.35713  0.79545  1.0000
  H   H488      1.0  0.22233  0.48058  0.74033  1.0000
  C   C271      1.0  0.48874  0.39546  0.93927  1.0000
  H   H489      1.0  0.42981  0.35960  0.76819  1.0000
  S   S62       1.0  0.34320  0.48179  0.86488  1.0000
  H   H490      1.0  0.12176  0.98943  0.93733  1.0000
  H   H491      1.0  0.34157  0.47525  0.96326  1.0000
  H   H492      1.0  0.46530  0.30674  0.75915  1.0000
  Fe  Fe32      1.0  0.43349  0.25192  0.74424  1.0000
  H   H493      1.0  0.05729  0.20107  0.76720  1.0000
  H   H494      1.0  0.13457  0.46692  0.73963  1.0000
  H   H495      1.0  0.48478  0.36720  0.77403  1.0000
  H   H496      1.0  0.25181  0.47617  0.77821  1.0000
  C   C272      1.0  0.36915  0.10176  0.75901  1.0000
  H   H497      1.0  0.11011  0.99760  0.90129  1.0000
  S   S63       1.0  0.21256  0.29442  0.73841  1.0000
  C   C273      1.0  0.33847  0.27618  0.74086  1.0000
  H   H498      1.0  0.45945  0.38313  0.76921  1.0000
  C   C274      1.0  0.23434  0.32710  0.74019  1.0000
  C   C275      1.0  0.37468  0.48061  0.95407  1.0000
  H   H499      1.0  0.35854  0.11006  0.77154  1.0000
  C   C276      1.0  0.47574  0.30498  0.77169  1.0000
  H   H500      1.0  0.27269  0.99297  0.75811  1.0000
  C   C277      1.0  0.20516  0.47991  0.73982  1.0000
  H   H501      1.0  0.48093  0.40262  0.78472  1.0000
  H   H502      1.0  0.44736  0.17277  0.74572  1.0000
  C   C278      1.0  0.20201  0.45721  0.73931  1.0000
  H   H503      1.0  0.48873  0.30444  0.84469  1.0000
  C   C279      1.0  0.36706  0.32131  0.73911  1.0000
  H   H504      1.0  0.49143  0.28194  0.81655  1.0000
  C   C280      1.0  0.47548  0.32614  0.77995  1.0000
  H   H505      1.0  0.39472  0.17803  0.74248  1.0000
  H   H506      1.0  0.48729  0.17828  0.74874  1.0000
  C   C281      1.0  0.19115  0.98675  0.95412  1.0000
  H   H507      1.0  0.19765  0.03784  0.74244  1.0000
  H   H508      1.0  0.07824  0.21209  0.74839  1.0000
  H   H509      1.0  0.09761  0.45921  0.74384  1.0000
  H   H510      1.0  0.46785  0.36228  0.74441  1.0000
  C   C282      1.0  0.45644  0.35154  0.74355  1.0000
  C   C283      1.0  0.17565  0.98490  0.93838  1.0000
  C   C284      1.0  0.13305  0.98420  0.92347  1.0000
  H   H511      1.0  0.48368  0.32241  0.79454  1.0000
  C   C285      1.0  0.46214  0.36386  0.97771  1.0000
  Fe  Fe33      1.0  0.13277  0.29067  0.73875  1.0000
  H   H512      1.0  0.45898  0.37284  0.96202  1.0000
  H   H513      1.0  0.49380  0.32376  0.97947  1.0000
  C   C286      1.0  0.48386  0.36705  0.98378  1.0000
  H   H514      1.0  0.07469  0.26915  0.73847  1.0000
  S   S64       1.0  0.40510  0.77448  0.21728  1.0000
  H   H515      1.0  0.48730  0.81502  0.23200  1.0000
  H   H516      1.0  0.13411  0.85251  0.11368  1.0000
  Fe  Fe34      1.0  0.01804  0.84171  0.18515  1.0000
  S   S65       1.0  0.03111  0.82096  0.15980  1.0000
  S   S66       1.0  0.03065  0.83530  0.21682  1.0000
  H   H517      1.0  0.47147  0.78819  0.22085  1.0000
  H   H518      1.0  0.44824  0.73100  0.99342  1.0000
  H   H519      1.0  0.48949  0.61785  0.08499  1.0000
  H   H520      1.0  0.01428  0.74485  0.21920  1.0000
  Fe  Fe35      1.0  0.41838  0.63444  0.99987  1.0000
  Fe  Fe36      1.0  0.02679  0.85118  0.13683  1.0000
  S   S67       1.0  0.04753  0.86504  0.10692  1.0000
  H   H521      1.0  0.03979  0.73280  0.17661  1.0000
  S   S68       1.0  0.01600  0.87214  0.16249  1.0000
  H   H522      1.0  0.01876  0.95828  0.10166  1.0000
  S   S69       1.0  0.34881  0.64359  0.05083  1.0000
  C   C287      1.0  0.04247  0.93145  0.09392  1.0000
  C   C288      1.0  0.43096  0.73511  0.99146  1.0000
  H   H523      1.0  0.41946  0.71855  0.16444  1.0000
  H   H524      1.0  0.44889  0.71246  0.22055  1.0000
  Fe  Fe37      1.0  0.17702  0.86399  0.99571  1.0000
  C   C289      1.0  0.48831  0.64835  0.01402  1.0000
  Fe  Fe38      1.0  0.16341  0.83599  0.03811  1.0000
  S   S70       1.0  0.18316  0.86274  0.02989  1.0000
  S   S71       1.0  0.14297  0.82749  0.07044  1.0000
  H   H525      1.0  0.47213  0.80176  0.19370  1.0000
  H   H526      1.0  0.39381  0.64395  0.06072  1.0000
  Fe  Fe39      1.0  0.21086  0.83768  0.02153  1.0000
  S   S72       1.0  0.24448  0.83208  0.03012  1.0000
  H   H527      1.0  0.38880  0.62013  0.07857  1.0000
  S   S73       1.0  0.19178  0.81105  0.03174  1.0000
  Fe  Fe40      1.0  0.28124  0.76463  0.13418  1.0000
  S   S74       1.0  0.28563  0.73516  0.11905  1.0000
  S   S75       1.0  0.25513  0.79143  0.12570  1.0000
  Fe  Fe41      1.0  0.31058  0.74447  0.16802  1.0000
  S   S76       1.0  0.31707  0.71363  0.15502  1.0000
  S   S77       1.0  0.32061  0.74428  0.20064  1.0000
  Fe  Fe42      1.0  0.32027  0.73296  0.12254  1.0000
  S   S78       1.0  0.34695  0.72394  0.09613  1.0000
  Fe  Fe43      1.0  0.28185  0.71858  0.15272  1.0000
  S   S79       1.0  0.26273  0.69158  0.16191  1.0000
  S   S80       1.0  0.31646  0.76395  0.13551  1.0000
  S   S81       1.0  0.27501  0.74790  0.16780  1.0000
  C   C290      1.0  0.24737  0.81992  0.05645  1.0000
  C   C291      1.0  0.26788  0.81192  0.06188  1.0000
  C   C292      1.0  0.27047  0.80251  0.08293  1.0000
  C   C293      1.0  0.25260  0.80176  0.09881  1.0000
  C   C294      1.0  0.23214  0.80996  0.09339  1.0000
  C   C295      1.0  0.22947  0.81848  0.07217  1.0000
  H   H528      1.0  0.28179  0.81301  0.04976  1.0000
  H   H529      1.0  0.28632  0.79639  0.08701  1.0000
  H   H530      1.0  0.21829  0.80966  0.10565  1.0000
  H   H531      1.0  0.21364  0.82450  0.06805  1.0000
  C   C296      1.0  0.34689  0.66721  0.06190  1.0000
  C   C297      1.0  0.33120  0.67118  0.07951  1.0000
  C   C298      1.0  0.33035  0.68906  0.08961  1.0000
  C   C299      1.0  0.34541  0.70296  0.08231  1.0000
  C   C300      1.0  0.36078  0.69923  0.06448  1.0000
  C   C301      1.0  0.36147  0.68152  0.05431  1.0000
  H   H532      1.0  0.31985  0.66021  0.08556  1.0000
  H   H533      1.0  0.31843  0.69176  0.10339  1.0000
  H   H534      1.0  0.37244  0.70991  0.05877  1.0000
  C   C302      1.0  0.19406  0.69887  0.19762  1.0000
  C   C303      1.0  0.20531  0.71623  0.19339  1.0000
  C   C304      1.0  0.22648  0.71440  0.18240  1.0000
  C   C305      1.0  0.23629  0.69522  0.17554  1.0000
  C   C306      1.0  0.22487  0.67808  0.17964  1.0000
  C   C307      1.0  0.20388  0.67992  0.19050  1.0000
  H   H535      1.0  0.05814  0.95962  0.08825  1.0000
  H   H536      1.0  0.23512  0.72777  0.17922  1.0000
  H   H537      1.0  0.23227  0.66324  0.17438  1.0000
  H   H538      1.0  0.19527  0.66649  0.19358  1.0000
  C   C308      1.0  0.07357  0.85366  0.09635  1.0000
  C   C309      1.0  0.08425  0.83528  0.10679  1.0000
  C   C310      1.0  0.10533  0.82736  0.09842  1.0000
  C   C311      1.0  0.11595  0.83756  0.07946  1.0000
  C   C312      1.0  0.10520  0.85583  0.06890  1.0000
  C   C313      1.0  0.08415  0.86385  0.07736  1.0000
  H   H539      1.0  0.07636  0.82730  0.12143  1.0000
  H   H540      1.0  0.11342  0.81321  0.10668  1.0000
  H   H541      1.0  0.11318  0.86390  0.05436  1.0000
  H   H542      1.0  0.07606  0.87809  0.06917  1.0000
  C   C314      1.0  0.05820  0.82578  0.21593  1.0000
  H   H543      1.0  0.32016  0.67619  0.00951  1.0000
  C   C315      1.0  0.40049  0.63143  0.07285  1.0000
  H   H544      1.0  0.45145  0.69515  0.99393  1.0000
  C   C316      1.0  0.09427  0.82093  0.19655  1.0000
  C   C317      1.0  0.07235  0.82865  0.19686  1.0000
  H   H545      1.0  0.10507  0.82291  0.18179  1.0000
  H   H546      1.0  0.06643  0.83694  0.18242  1.0000
  H   H547      1.0  0.32000  0.66941  0.14822  1.0000
  H   H548      1.0  0.99623  0.87381  0.08734  1.0000
  S   S82       1.0  0.46766  0.66730  0.16417  1.0000
  C   C318      1.0  0.15522  0.83580  0.16117  1.0000
  H   H549      1.0  0.01625  0.94862  0.07814  1.0000
  Fe  Fe44      1.0  0.37173  0.63779  0.02043  1.0000
  S   S83       1.0  0.39776  0.60999  0.01667  1.0000
  H   H550      1.0  0.44874  0.70349  0.18430  1.0000
  H   H551      1.0  0.00884  0.71412  0.17723  1.0000
  H   H552      1.0  0.45470  0.63310  0.14347  1.0000
  C   C319      1.0  0.38062  0.76775  0.21313  1.0000
  C   C320      1.0  0.37471  0.77193  0.19246  1.0000
  C   C321      1.0  0.35621  0.76503  0.18833  1.0000
  C   C322      1.0  0.34314  0.75460  0.20505  1.0000
  C   C323      1.0  0.34843  0.75155  0.22592  1.0000
  C   C324      1.0  0.42345  0.69921  0.05606  1.0000
  H   H553      1.0  0.38485  0.77988  0.17945  1.0000
  H   H554      1.0  0.35215  0.76770  0.17224  1.0000
  H   H555      1.0  0.37142  0.66459  0.20423  1.0000
  H   H556      1.0  0.44166  0.68710  0.02854  1.0000
  H   H557      1.0  0.44363  0.64259  0.05006  1.0000
  H   H558      1.0  0.16181  0.77364  0.13320  1.0000
  C   C325      1.0  0.45710  0.69244  0.19575  1.0000
  C   C326      1.0  0.45729  0.69757  0.21621  1.0000
  C   C327      1.0  0.46748  0.64410  0.02201  1.0000
  H   H559      1.0  0.16153  0.83844  0.20245  1.0000
  C   C328      1.0  0.48426  0.60211  0.08781  1.0000
  N   N16       1.0  0.38674  0.66232  0.12234  1.0000
  C   C329      1.0  0.39535  0.68230  0.11163  1.0000
  C   C330      1.0  0.38456  0.64963  0.10522  1.0000
  C   C331      1.0  0.36446  0.66855  0.13385  1.0000
  C   C332      1.0  0.40041  0.64943  0.13840  1.0000
  C   C333      1.0  0.42501  0.64998  0.13342  1.0000
  C   C334      1.0  0.39485  0.69912  0.12640  1.0000
  C   C335      1.0  0.35134  0.65027  0.14355  1.0000
  C   C336      1.0  0.43723  0.63241  0.14760  1.0000
  C   C337      1.0  0.40829  0.71623  0.11530  1.0000
  C   C338      1.0  0.33084  0.65789  0.15785  1.0000
  H   H560      1.0  0.38600  0.69011  0.09853  1.0000
  H   H561      1.0  0.41199  0.67897  0.10349  1.0000
  H   H562      1.0  0.37716  0.63533  0.11236  1.0000
  H   H563      1.0  0.37350  0.65905  0.09431  1.0000
  H   H564      1.0  0.35466  0.67982  0.12292  1.0000
  H   H565      1.0  0.36524  0.67718  0.14728  1.0000
  H   H566      1.0  0.39539  0.65460  0.15446  1.0000
  H   H567      1.0  0.39766  0.63268  0.14078  1.0000
  H   H568      1.0  0.42881  0.66520  0.13644  1.0000
  H   H569      1.0  0.37814  0.70700  0.13030  1.0000
  H   H570      1.0  0.40088  0.69200  0.14166  1.0000
  H   H571      1.0  0.36091  0.63756  0.15327  1.0000
  H   H572      1.0  0.43264  0.63436  0.16471  1.0000
  H   H573      1.0  0.43416  0.61671  0.14519  1.0000
  H   H574      1.0  0.42546  0.70948  0.11195  1.0000
  H   H575      1.0  0.40240  0.72383  0.10005  1.0000
  H   H576      1.0  0.40693  0.72857  0.12573  1.0000
  H   H577      1.0  0.32219  0.64436  0.16500  1.0000
  H   H578      1.0  0.33451  0.66527  0.17104  1.0000
  N   N17       1.0  0.22291  0.74264  0.09292  1.0000
  C   C339      1.0  0.23544  0.75252  0.07267  1.0000
  C   C340      1.0  0.20030  0.74284  0.08873  1.0000
  C   C341      1.0  0.22326  0.75515  0.11069  1.0000
  C   C342      1.0  0.23251  0.72017  0.09960  1.0000
  C   C343      1.0  0.23641  0.70544  0.08217  1.0000
  C   C344      1.0  0.25993  0.75098  0.07256  1.0000
  C   C345      1.0  0.20975  0.74823  0.13245  1.0000
  C   C346      1.0  0.18682  0.76494  0.08466  1.0000
  C   C347      1.0  0.16457  0.76322  0.07987  1.0000
  C   C348      1.0  0.24746  0.68362  0.09051  1.0000
  C   C349      1.0  0.27101  0.75924  0.05042  1.0000
  C   C350      1.0  0.20959  0.76327  0.14851  1.0000
  H   H579      1.0  0.22951  0.76967  0.06937  1.0000
  H   H580      1.0  0.23278  0.74586  0.05852  1.0000
  H   H581      1.0  0.20052  0.73512  0.07439  1.0000
  H   H582      1.0  0.19124  0.73317  0.10207  1.0000
  H   H583      1.0  0.21809  0.77213  0.10566  1.0000
  H   H584      1.0  0.23994  0.75426  0.11406  1.0000
  H   H585      1.0  0.24786  0.71962  0.10593  1.0000
  H   H586      1.0  0.22190  0.71264  0.11331  1.0000
  H   H587      1.0  0.24679  0.71163  0.06762  1.0000
  H   H588      1.0  0.22097  0.70345  0.07749  1.0000
  H   H589      1.0  0.26312  0.76062  0.08413  1.0000
  H   H590      1.0  0.26761  0.73458  0.07680  1.0000
  H   H591      1.0  0.21654  0.73228  0.13959  1.0000
  H   H592      1.0  0.19288  0.74789  0.13065  1.0000
  H   H593      1.0  0.18457  0.77331  0.09880  1.0000
  H   H594      1.0  0.19461  0.77488  0.07074  1.0000
  H   H595      1.0  0.16585  0.75583  0.06516  1.0000
  H   H596      1.0  0.15569  0.75380  0.09353  1.0000
  H   H597      1.0  0.15526  0.77922  0.07716  1.0000
  H   H598      1.0  0.24990  0.67321  0.07792  1.0000
  H   H599      1.0  0.26339  0.68470  0.09478  1.0000
  H   H600      1.0  0.23749  0.67636  0.10488  1.0000
  H   H601      1.0  0.26345  0.77544  0.04483  1.0000
  H   H602      1.0  0.28817  0.75969  0.05122  1.0000
  H   H603      1.0  0.27008  0.74876  0.03864  1.0000
  H   H604      1.0  0.13397  0.84928  0.19990  1.0000
  H   H605      1.0  0.22601  0.76267  0.15240  1.0000
  H   H606      1.0  0.41052  0.65380  0.19000  1.0000
  H   H607      1.0  0.41549  0.65357  0.08438  1.0000
  H   H608      1.0  0.03344  0.91449  0.16133  1.0000
  H   H609      1.0  0.24977  0.70328  0.21899  1.0000
  S   S84       1.0  0.12948  0.79952  0.21388  1.0000
  H   H610      1.0  0.37360  0.72430  0.00871  1.0000
  H   H611      1.0  0.16560  0.85899  0.09472  1.0000
  C   C351      1.0  0.47958  0.65934  0.20447  1.0000
  C   C352      1.0  0.45971  0.64566  0.04371  1.0000
  H   H612      1.0  0.21896  0.72743  0.22741  1.0000
  S   S85       1.0  0.16778  0.69983  0.21164  1.0000
  C   C353      1.0  0.40545  0.64112  0.09139  1.0000
  H   H613      1.0  0.41479  0.62842  0.10135  1.0000
  H   H614      1.0  0.23687  0.78814  0.99129  1.0000
  C   C354      1.0  0.02851  0.73050  0.19164  1.0000
  H   H615      1.0  0.06249  0.69041  0.23288  1.0000
  H   H616      1.0  0.37368  0.67866  0.04101  1.0000
  H   H617      1.0  0.18985  0.83775  0.13285  1.0000
  C   C355      1.0  0.49400  0.65511  0.04891  1.0000
  C   C356      1.0  0.10207  0.80974  0.21503  1.0000
  H   H618      1.0  0.04729  0.92671  0.11012  1.0000
  H   H619      1.0  0.41537  0.62280  0.06494  1.0000
  H   H620      1.0  0.27939  0.72494  0.22414  1.0000
  N   N18       1.0  0.04641  0.75376  0.21097  1.0000
  C   C357      1.0  0.02601  0.74895  0.20492  1.0000
  H   H621      1.0  0.43689  0.69368  0.06559  1.0000
  C   C358      1.0  0.05927  0.76283  0.19049  1.0000
  C   C359      1.0  0.30095  0.70083  0.99063  1.0000
  H   H622      1.0  0.25007  0.75572  0.23518  1.0000
  H   H623      1.0  0.21345  0.85341  0.09953  1.0000
  C   C360      1.0  0.08099  0.76923  0.19284  1.0000
  H   H624      1.0  0.44814  0.83243  0.20771  1.0000
  H   H625      1.0  0.29313  0.67924  0.21491  1.0000
  H   H626      1.0  0.16891  0.82370  0.16565  1.0000
  H   H627      1.0  0.41064  0.61553  0.19716  1.0000
  C   C361      1.0  0.09115  0.78053  0.17169  1.0000
  C   C362      1.0  0.11414  0.85341  0.14413  1.0000
  H   H628      1.0  0.15215  0.81989  0.11335  1.0000
  C   C363      1.0  0.13635  0.85428  0.13017  1.0000
  C   C364      1.0  0.43232  0.70236  0.03222  1.0000
  H   H629      1.0  0.04956  0.77695  0.18256  1.0000
  H   H630      1.0  0.06332  0.75148  0.17878  1.0000
  H   H631      1.0  0.35930  0.70549  0.21434  1.0000
  H   H632      1.0  0.14071  0.82922  0.16976  1.0000
  H   H633      1.0  0.39659  0.50948  0.00341  1.0000
  H   H634      1.0  0.42972  0.68219  0.99192  1.0000
  H   H635      1.0  0.10181  0.88696  0.13959  1.0000
  H   H636      1.0  0.03432  0.71537  0.20115  1.0000
  H   H637      1.0  0.09252  0.75508  0.19738  1.0000
  H   H638      1.0  0.07902  0.77980  0.20512  1.0000
  N   N19       1.0  0.15525  0.83887  0.13727  1.0000
  H   H639      1.0  0.48776  0.83107  0.20656  1.0000
  S   S86       1.0  0.15537  0.83872  0.00473  1.0000
  H   H640      1.0  0.14040  0.78490  0.11762  1.0000
  C   C365      1.0  0.38114  0.73266  0.99344  1.0000
  C   C366      1.0  0.14245  0.80175  0.14390  1.0000
  H   H641      1.0  0.48773  0.65318  0.23657  1.0000
  H   H642      1.0  0.20187  0.86251  0.07520  1.0000
  H   H643      1.0  0.34616  0.64358  0.13066  1.0000
  C   C367      1.0  0.00706  0.72831  0.18527  1.0000
  H   H644      1.0  0.02387  0.94644  0.13548  1.0000
  H   H645      1.0  0.08082  0.79547  0.16670  1.0000
  H   H646      1.0  0.10689  0.78429  0.17390  1.0000
  C   C368      1.0  0.19880  0.86171  0.09292  1.0000
  H   H647      1.0  0.46693  0.65237  0.07381  1.0000
  H   H648      1.0  0.41238  0.68720  0.05948  1.0000
  H   H649      1.0  0.40321  0.72233  0.02531  1.0000
  N   N20       1.0  0.38841  0.68337  0.21859  1.0000
  H   H650      1.0  0.15283  0.86635  0.20201  1.0000
  H   H651      1.0  0.09377  0.77035  0.15889  1.0000
  H   H652      1.0  0.07427  0.73843  0.22558  1.0000
  C   C369      1.0  0.39662  0.69461  0.19688  1.0000
  C   C370      1.0  0.14499  0.78150  0.13397  1.0000
  H   H653      1.0  0.10782  0.83887  0.14309  1.0000
  H   H654      1.0  0.08151  0.86977  0.14511  1.0000
  H   H655      1.0  0.43651  0.80833  0.21476  1.0000
  H   H656      1.0  0.03992  0.78650  0.21662  1.0000
  C   C371      1.0  0.36730  0.75772  0.22992  1.0000
  H   H657      1.0  0.44756  0.81815  0.23466  1.0000
  H   H658      1.0  0.07499  0.93628  0.08033  1.0000
  C   C372      1.0  0.05976  0.73428  0.22064  1.0000
  H   H659      1.0  0.20354  0.77969  0.14198  1.0000
  C   C373      1.0  0.04158  0.77034  0.22591  1.0000
  H   H660      1.0  0.13967  0.87076  0.12886  1.0000
  H   H661      1.0  0.47105  0.60341  0.12142  1.0000
  H   H662      1.0  0.01509  0.90187  0.09492  1.0000
  H   H663      1.0  0.00569  0.91629  0.17382  1.0000
  H   H664      1.0  0.13458  0.77049  0.14400  1.0000
  H   H665      1.0  0.41573  0.64337  0.21683  1.0000
  C   C374      1.0  0.00697  0.92140  0.12917  1.0000
  H   H666      1.0  0.38535  0.69463  0.18527  1.0000
  H   H667      1.0  0.39164  0.73034  0.16456  1.0000
  H   H668      1.0  0.41359  0.71852  0.20500  1.0000
  H   H669      1.0  0.02109  0.93691  0.17437  1.0000
  H   H670      1.0  0.17536  0.86365  0.13107  1.0000
  S   S87       1.0  0.35962  0.63551  0.99001  1.0000
  C   C375      1.0  0.46855  0.68351  0.23087  1.0000
  H   H671      1.0  0.19550  0.87806  0.09683  1.0000
  C   C376      1.0  0.15633  0.81773  0.12985  1.0000
  C   C377      1.0  0.40580  0.72814  0.17313  1.0000
  H   H672      1.0  0.41040  0.74387  0.17319  1.0000
  H   H673      1.0  0.09732  0.87287  0.11902  1.0000
  H   H674      1.0  0.38573  0.72717  0.20336  1.0000
  H   H675      1.0  0.42386  0.74501  0.00425  1.0000
  H   H676      1.0  0.43156  0.64831  0.11660  1.0000
  H   H677      1.0  0.99977  0.91988  0.07752  1.0000
  C   C378      1.0  0.46846  0.67346  0.18975  1.0000
  C   C379      1.0  0.24033  0.74955  0.22547  1.0000
  H   H678      1.0  0.48515  0.58209  0.02880  1.0000
  H   H679      1.0  0.01786  0.76334  0.19582  1.0000
  C   C380      1.0  0.40026  0.71770  0.19618  1.0000
  H   H680      1.0  0.41240  0.68636  0.19025  1.0000
  H   H681      1.0  0.19762  0.73104  0.19846  1.0000
  C   C381      1.0  0.15666  0.85575  0.17092  1.0000
  H   H682      1.0  0.14570  0.86955  0.16447  1.0000
  C   C382      1.0  0.24984  0.77509  0.99523  1.0000
  C   C383      1.0  0.47298  0.65109  0.05718  1.0000
  C   C384      1.0  0.05855  0.94524  0.08084  1.0000
  H   H683      1.0  0.42132  0.52053  0.99393  1.0000
  H   H684      1.0  0.18309  0.83431  0.09643  1.0000
  H   H685      1.0  0.02096  0.90868  0.12801  1.0000
  H   H686      1.0  0.38583  0.74731  0.99686  1.0000
  N   N21       1.0  0.42063  0.71530  0.99458  1.0000
  H   H687      1.0  0.04410  0.91705  0.08624  1.0000
  C   C385      1.0  0.40551  0.68122  0.23283  1.0000
  H   H688      1.0  0.06610  0.72361  0.20838  1.0000
  C   C386      1.0  0.01921  0.94341  0.09501  1.0000
  H   H689      1.0  0.24335  0.76470  0.00958  1.0000
  H   H690      1.0  0.45313  0.61562  0.10245  1.0000
  H   H691      1.0  0.41472  0.71425  0.06109  1.0000
  C   C387      1.0  0.41393  0.70909  0.01831  1.0000
  C   C388      1.0  0.01114  0.93698  0.14352  1.0000
  H   H692      1.0  0.38955  0.61824  0.21940  1.0000
  S   S88       1.0  0.39282  0.66178  0.00502  1.0000
  C   C389      1.0  0.47946  0.66429  0.22507  1.0000
  H   H693      1.0  0.21549  0.76301  0.20541  1.0000
  C   C390      1.0  0.15090  0.85220  0.19530  1.0000
  H   H694      1.0  0.11472  0.85448  0.16112  1.0000
  C   C391      1.0  0.17964  0.85002  0.10191  1.0000
  C   C392      1.0  0.09775  0.87190  0.13644  1.0000
  N   N22       1.0  0.00186  0.93111  0.10716  1.0000
  H   H695      1.0  0.30901  0.70050  0.20771  1.0000
  H   H696      1.0  0.26329  0.78204  0.99900  1.0000
  S   S89       1.0  0.45301  0.63611  0.00388  1.0000
  C   C393      1.0  0.17550  0.84772  0.12678  1.0000
  Fe  Fe45      1.0  0.13615  0.76963  0.23687  1.0000
  C   C394      1.0  0.44960  0.81654  0.21737  1.0000
  H   H697      1.0  0.19900  0.75856  0.16355  1.0000
  H   H698      1.0  0.29580  0.70945  0.00462  1.0000
  Fe  Fe46      1.0  0.15422  0.72417  0.23348  1.0000
  H   H699      1.0  0.17330  0.85961  0.16721  1.0000
  H   H700      1.0  0.23462  0.78020  0.20628  1.0000
  H   H701      1.0  0.12530  0.80826  0.14566  1.0000
  H   H702      1.0  0.40430  0.69589  0.02107  1.0000
  C   C395      1.0  0.38379  0.66222  0.21517  1.0000
  C   C396      1.0  0.29240  0.69659  0.21076  1.0000
  H   H703      1.0  0.47780  0.59937  0.07363  1.0000
  H   H704      1.0  0.14741  0.79712  0.16007  1.0000
  H   H705      1.0  0.17312  0.80936  0.12872  1.0000
  C   C397      1.0  0.01828  0.92537  0.16451  1.0000
  Fe  Fe47      1.0  0.99616  0.81959  0.15934  1.0000
  H   H706      1.0  0.99628  0.94790  0.14772  1.0000
  H   H707      1.0  0.48807  0.64450  0.20004  1.0000
  C   C398      1.0  0.06607  0.81496  0.23455  1.0000
  H   H708      1.0  0.44335  0.71436  0.02940  1.0000
  C   C399      1.0  0.22515  0.76819  0.21600  1.0000
  C   C400      1.0  0.47131  0.80371  0.21071  1.0000
  H   H709      1.0  0.05499  0.94985  0.06414  1.0000
  H   H710      1.0  0.38439  0.62885  0.19240  1.0000
  H   H711      1.0  0.28505  0.70183  0.19587  1.0000
  H   H712      1.0  0.33482  0.69660  0.99465  1.0000
  C   C401      1.0  0.40326  0.64701  0.20604  1.0000
  C   C402      1.0  0.27939  0.70780  0.22895  1.0000
  H   H713      1.0  0.21923  0.68670  0.23381  1.0000
  C   C403      1.0  0.39645  0.62617  0.20362  1.0000
  Fe  Fe48      1.0  0.18554  0.81618  0.99772  1.0000
  C   C404      1.0  0.46561  0.60205  0.10616  1.0000
  H   H714      1.0  0.45841  0.58730  0.10820  1.0000
  H   H715      1.0  0.39593  0.53745  0.99573  1.0000
  H   H716      1.0  0.25085  0.74311  0.21179  1.0000
  C   C405      1.0  0.40419  0.52179  0.99192  1.0000
  H   H717      1.0  0.37791  0.82408  0.22413  1.0000
  H   H718      1.0  0.42122  0.67403  0.22486  1.0000
  C   C406      1.0  0.08788  0.80661  0.23402  1.0000
  C   C407      1.0  0.00036  0.91371  0.09475  1.0000
  H   H719      1.0  0.26955  0.73522  0.99639  1.0000
  S   S90       1.0  0.12126  0.74225  0.23200  1.0000
  H   H720      1.0  0.37665  0.65341  0.23028  1.0000
  H   H721      1.0  0.28902  0.69028  0.99048  1.0000
  C   C408      1.0  0.32220  0.68691  0.99410  1.0000
  H   H722      1.0  0.21419  0.77559  0.22895  1.0000
  C   C409      1.0  0.49000  0.81439  0.21447  1.0000
  S   S91       1.0  0.16967  0.75193  0.23580  1.0000
  C   C410      1.0  0.25639  0.70176  0.23434  1.0000
  H   H723      1.0  0.40833  0.69701  0.23532  1.0000
  C   C411      1.0  0.36800  0.69651  0.22756  1.0000
  H   H724      1.0  0.34298  0.67600  0.23340  1.0000
  H   H725      1.0  0.37195  0.70874  0.23603  1.0000
  H   H726      1.0  0.00172  0.74226  0.17385  1.0000
  H   H727      1.0  0.05533  0.76960  0.23486  1.0000
  H   H728      1.0  0.00668  0.77599  0.23403  1.0000
  H   H729      1.0  0.49456  0.64726  0.99738  1.0000
  Fe  Fe49      1.0  0.34291  0.86364  0.47620  1.0000
  H   H730      1.0  0.07499  0.61031  0.35239  1.0000
  S   S92       1.0  0.31779  0.86595  0.45402  1.0000
  H   H731      1.0  0.14051  0.64681  0.41701  1.0000
  S   S93       1.0  0.42516  0.85778  0.46576  1.0000
  S   S94       1.0  0.36459  0.88832  0.47414  1.0000
  H   H732      1.0  0.34034  0.70860  0.26393  1.0000
  S   S95       1.0  0.19094  0.66051  0.44467  1.0000
  Fe  Fe50      1.0  0.28407  0.74251  0.36899  1.0000
  S   S96       1.0  0.28485  0.77627  0.35483  1.0000
  S   S97       1.0  0.30365  0.71844  0.34927  1.0000
  Fe  Fe51      1.0  0.25224  0.75402  0.40771  1.0000
  S   S98       1.0  0.25084  0.78876  0.39633  1.0000
  S   S99       1.0  0.23113  0.74422  0.43851  1.0000
  Fe  Fe52      1.0  0.24912  0.77967  0.36414  1.0000
  S   S100      1.0  0.22483  0.79625  0.34253  1.0000
  Fe  Fe53      1.0  0.28674  0.78176  0.38834  1.0000
  S   S101      1.0  0.31448  0.79673  0.39492  1.0000
  S   S102      1.0  0.24819  0.74549  0.37624  1.0000
  S   S103      1.0  0.28816  0.74740  0.40195  1.0000
  S   S104      1.0  0.47010  0.89047  0.37202  1.0000
  Fe  Fe54      1.0  0.45531  0.76399  0.27239  1.0000
  S   S105      1.0  0.45210  0.73341  0.29359  1.0000
  S   S106      1.0  0.47840  0.78656  0.27380  1.0000
  H   H733      1.0  0.44807  0.91303  0.42870  1.0000
  S   S107      1.0  0.41371  0.72789  0.26629  1.0000
  Fe  Fe55      1.0  0.41664  0.74359  0.29431  1.0000
  S   S108      1.0  0.39660  0.74449  0.32653  1.0000
  Fe  Fe56      1.0  0.44972  0.72058  0.26362  1.0000
  S   S109      1.0  0.42002  0.77527  0.27494  1.0000
  Fe  Fe57      1.0  0.11616  0.73510  0.26785  1.0000
  S   S110      1.0  0.12883  0.76404  0.27291  1.0000
  S   S111      1.0  0.08365  0.72852  0.28598  1.0000
  Fe  Fe58      1.0  0.16111  0.74374  0.27146  1.0000
  S   S112      1.0  0.18645  0.73668  0.29377  1.0000
  H   H734      1.0  0.28800  0.86238  0.42618  1.0000
  S   S113      1.0  0.14780  0.71439  0.26899  1.0000
  Fe  Fe59      1.0  0.01984  0.61959  0.38909  1.0000
  S   S114      1.0  0.03014  0.59992  0.36230  1.0000
  S   S115      1.0  0.03987  0.60850  0.41659  1.0000
  C   C412      1.0  0.36311  0.79921  0.34805  1.0000
  H   H735      1.0  0.28596  0.83546  0.40333  1.0000
  Fe  Fe60      1.0  0.03042  0.63087  0.34076  1.0000
  S   S116      1.0  0.05904  0.63633  0.31537  1.0000
  S   S117      1.0  0.02163  0.65035  0.36743  1.0000
  H   H736      1.0  0.25858  0.68450  0.24006  1.0000
  C   C413      1.0  0.07753  0.70269  0.29473  1.0000
  C   C414      1.0  0.09159  0.68503  0.28881  1.0000
  C   C415      1.0  0.08579  0.66475  0.29537  1.0000
  C   C416      1.0  0.06608  0.66194  0.30814  1.0000
  C   C417      1.0  0.05216  0.67957  0.31431  1.0000
  C   C418      1.0  0.05785  0.69986  0.30755  1.0000
  H   H737      1.0  0.10674  0.68704  0.27885  1.0000
  H   H738      1.0  0.09657  0.65118  0.29042  1.0000
  H   H739      1.0  0.03686  0.67761  0.32401  1.0000
  H   H740      1.0  0.04689  0.71345  0.31218  1.0000
  H   H741      1.0  0.13664  0.68579  0.31310  1.0000
  H   H742      1.0  0.32774  0.74400  0.27917  1.0000
  H   H743      1.0  0.38782  0.67804  0.26528  1.0000
  C   C419      1.0  0.22768  0.73236  0.23889  1.0000
  H   H744      1.0  0.03265  0.65312  0.42229  1.0000
  H   H745      1.0  0.47997  0.76131  0.31668  1.0000
  C   C420      1.0  0.19863  0.67401  0.26132  1.0000
  C   C421      1.0  0.33014  0.72405  0.34339  1.0000
  C   C422      1.0  0.34419  0.71653  0.32608  1.0000
  C   C423      1.0  0.36477  0.72270  0.32049  1.0000
  C   C424      1.0  0.37142  0.73578  0.33271  1.0000
  C   C425      1.0  0.35761  0.74256  0.35038  1.0000
  C   C426      1.0  0.33693  0.73707  0.35545  1.0000
  H   H746      1.0  0.33893  0.70651  0.31667  1.0000
  H   H747      1.0  0.37545  0.71732  0.30690  1.0000
  H   H748      1.0  0.36276  0.75237  0.36009  1.0000
  H   H749      1.0  0.32629  0.74290  0.36883  1.0000
  C   C427      1.0  0.21466  0.78021  0.32790  1.0000
  C   C428      1.0  0.22470  0.75968  0.32600  1.0000
  C   C429      1.0  0.21603  0.74683  0.31505  1.0000
  C   C430      1.0  0.19734  0.75437  0.30570  1.0000
  C   C431      1.0  0.18745  0.77505  0.30716  1.0000
  C   C432      1.0  0.19610  0.78793  0.31827  1.0000
  H   H750      1.0  0.23925  0.75369  0.33287  1.0000
  H   H751      1.0  0.22370  0.73081  0.31416  1.0000
  H   H752      1.0  0.17299  0.78100  0.30006  1.0000
  H   H753      1.0  0.18830  0.80385  0.31957  1.0000
  C   C433      1.0  0.07385  0.64659  0.45215  1.0000
  C   C434      1.0  0.08151  0.62545  0.45040  1.0000
  C   C435      1.0  0.07117  0.61412  0.43913  1.0000
  C   C436      1.0  0.05344  0.62396  0.42894  1.0000
  C   C437      1.0  0.04633  0.64536  0.42993  1.0000
  C   C438      1.0  0.05634  0.65652  0.44169  1.0000
  H   H754      1.0  0.09534  0.61787  0.45783  1.0000
  H   H755      1.0  0.07692  0.59763  0.43830  1.0000
  C   C439      1.0  0.20102  0.68455  0.44186  1.0000
  C   C440      1.0  0.21986  0.68763  0.42773  1.0000
  C   C441      1.0  0.22869  0.70637  0.42585  1.0000
  C   C442      1.0  0.21884  0.72199  0.43833  1.0000
  C   C443      1.0  0.19964  0.71919  0.45194  1.0000
  C   C444      1.0  0.19077  0.70049  0.45377  1.0000
  H   H756      1.0  0.22784  0.67535  0.41845  1.0000
  H   H757      1.0  0.24354  0.70838  0.41531  1.0000
  C   C445      1.0  0.13247  0.63351  0.41499  1.0000
  H   H758      1.0  0.14403  0.75702  0.37803  1.0000
  C   C446      1.0  0.43686  0.86715  0.43949  1.0000
  C   C447      1.0  0.45931  0.86396  0.43460  1.0000
  C   C448      1.0  0.46957  0.87112  0.41410  1.0000
  C   C449      1.0  0.45751  0.88144  0.39809  1.0000
  C   C450      1.0  0.43500  0.88483  0.40299  1.0000
  C   C451      1.0  0.42469  0.87770  0.42360  1.0000
  H   H759      1.0  0.46888  0.85591  0.44678  1.0000
  H   H760      1.0  0.01275  0.51169  0.38385  1.0000
  H   H761      1.0  0.42550  0.89294  0.39078  1.0000
  H   H762      1.0  0.40738  0.88033  0.42719  1.0000
  C   C452      1.0  0.31707  0.84640  0.43784  1.0000
  C   C453      1.0  0.33287  0.82876  0.43677  1.0000
  C   C454      1.0  0.33176  0.81366  0.42367  1.0000
  C   C455      1.0  0.31456  0.81565  0.41196  1.0000
  C   C456      1.0  0.29889  0.83338  0.41282  1.0000
  C   C457      1.0  0.30016  0.84866  0.42569  1.0000
  H   H763      1.0  0.34608  0.82686  0.44585  1.0000
  H   H764      1.0  0.34428  0.80028  0.42268  1.0000
  H   H765      1.0  0.22830  0.82878  0.41613  1.0000
  H   H766      1.0  0.23693  0.61244  0.48748  1.0000
  C   C458      1.0  0.45163  0.92906  0.42919  1.0000
  C   C459      1.0  0.25115  0.72105  0.26650  1.0000
  C   C460      1.0  0.08831  0.60555  0.36210  1.0000
  C   C461      1.0  0.22519  0.69890  0.26225  1.0000
  H   H767      1.0  0.43445  0.89606  0.47841  1.0000
  H   H768      1.0  0.24814  0.68867  0.46207  1.0000
  C   C462      1.0  0.26111  0.70355  0.28307  1.0000
  H   H769      1.0  0.24130  0.77873  0.46619  1.0000
  H   H770      1.0  0.34019  0.96316  0.47095  1.0000
  H   H771      1.0  0.11957  0.65829  0.33886  1.0000
  H   H772      1.0  0.00515  0.67007  0.29561  1.0000
  N   N23       1.0  0.25884  0.80330  0.47036  1.0000
  H   H773      1.0  0.23920  0.73186  0.27585  1.0000
  H   H774      1.0  0.41272  0.94787  0.44764  1.0000
  H   H775      1.0  0.01584  0.68835  0.27434  1.0000
  H   H776      1.0  0.49030  0.82269  0.41650  1.0000
  H   H777      1.0  0.21484  0.70617  0.27561  1.0000
  H   H778      1.0  0.23411  0.68419  0.26996  1.0000
  H   H779      1.0  0.00547  0.78332  0.27104  1.0000
  N   N24       1.0  0.41251  0.93860  0.48175  1.0000
  H   H780      1.0  0.37537  0.79579  0.28014  1.0000
  H   H781      1.0  0.26367  0.73084  0.25861  1.0000
  H   H782      1.0  0.24818  0.69762  0.29533  1.0000
  H   H783      1.0  0.27013  0.69004  0.27533  1.0000
  H   H784      1.0  0.03436  0.77920  0.26812  1.0000
  H   H785      1.0  0.43441  0.65612  0.25811  1.0000
  H   H786      1.0  0.32478  0.79082  0.27146  1.0000
  H   H787      1.0  0.44969  0.95053  0.45177  1.0000
  C   C463      1.0  0.23199  0.82978  0.44927  1.0000
  H   H788      1.0  0.45457  0.92308  0.46253  1.0000
  C   C464      1.0  0.12052  0.68946  0.34543  1.0000
  H   H789      1.0  0.38151  0.83663  0.24619  1.0000
  H   H790      1.0  0.00433  0.71490  0.30011  1.0000
  H   H791      1.0  0.06391  0.65238  0.24277  1.0000
  H   H792      1.0  0.29003  0.71710  0.28337  1.0000
  H   H793      1.0  0.26759  0.72542  0.30292  1.0000
  H   H794      1.0  0.44297  0.94050  0.41751  1.0000
  H   H795      1.0  0.35695  0.79941  0.24781  1.0000
  H   H796      1.0  0.41688  0.65610  0.28330  1.0000
  H   H797      1.0  0.27486  0.76221  0.45870  1.0000
  H   H798      1.0  0.29485  0.69311  0.44931  1.0000
  C   C465      1.0  0.40090  0.66882  0.25552  1.0000
  C   C466      1.0  0.24296  0.78811  0.47879  1.0000
  H   H799      1.0  0.37159  0.75466  0.24592  1.0000
  H   H800      1.0  0.28800  0.70300  0.24304  1.0000
  N   N25       1.0  0.44419  0.82288  0.36567  1.0000
  C   C467      1.0  0.46020  0.81112  0.37991  1.0000
  C   C468      1.0  0.43844  0.80775  0.35269  1.0000
  C   C469      1.0  0.45522  0.83922  0.35004  1.0000
  C   C470      1.0  0.42436  0.83390  0.37799  1.0000
  C   C471      1.0  0.41670  0.82323  0.40097  1.0000
  C   C472      1.0  0.47096  0.82510  0.39114  1.0000
  C   C473      1.0  0.44241  0.85150  0.33212  1.0000
  C   C474      1.0  0.42786  0.78879  0.36527  1.0000
  C   C475      1.0  0.42622  0.77325  0.35030  1.0000
  C   C476      1.0  0.39453  0.83384  0.40980  1.0000
  C   C477      1.0  0.35088  0.68464  0.24278  1.0000
  C   C478      1.0  0.45330  0.87001  0.31982  1.0000
  H   H801      1.0  0.47335  0.80154  0.37046  1.0000
  H   H802      1.0  0.45288  0.79952  0.39248  1.0000
  H   H803      1.0  0.42683  0.81597  0.34182  1.0000
  H   H804      1.0  0.45304  0.80153  0.34214  1.0000
  H   H805      1.0  0.47088  0.83180  0.34208  1.0000
  H   H806      1.0  0.45912  0.85133  0.35866  1.0000
  H   H807      1.0  0.42680  0.85004  0.37991  1.0000
  H   H808      1.0  0.41066  0.83641  0.36866  1.0000
  H   H809      1.0  0.42789  0.82455  0.41209  1.0000
  H   H810      1.0  0.41581  0.80631  0.40160  1.0000
  H   H811      1.0  0.48318  0.83280  0.37945  1.0000
  H   H812      1.0  0.45898  0.83756  0.39780  1.0000
  H   H813      1.0  0.42591  0.85782  0.33889  1.0000
  H   H814      1.0  0.44148  0.84113  0.32024  1.0000
  H   H815      1.0  0.43708  0.77992  0.37792  1.0000
  H   H816      1.0  0.41128  0.79432  0.37253  1.0000
  H   H817      1.0  0.44242  0.76630  0.34331  1.0000
  H   H818      1.0  0.41769  0.76026  0.35941  1.0000
  H   H819      1.0  0.41713  0.78115  0.33709  1.0000
  H   H820      1.0  0.38988  0.82650  0.42654  1.0000
  H   H821      1.0  0.39468  0.85089  0.40989  1.0000
  H   H822      1.0  0.38227  0.83193  0.40007  1.0000
  H   H823      1.0  0.21827  0.82098  0.45556  1.0000
  C   C479      1.0  0.28571  0.77424  0.45297  1.0000
  H   H824      1.0  0.01902  0.75403  0.25092  1.0000
  H   H825      1.0  0.44355  0.87873  0.30744  1.0000
  H   H826      1.0  0.45488  0.88109  0.33079  1.0000
  H   H827      1.0  0.46944  0.86425  0.31168  1.0000
  N   N26       1.0  0.34185  0.80146  0.29342  1.0000
  H   H828      1.0  0.27298  0.71146  0.43925  1.0000
  H   H829      1.0  0.48685  0.86874  0.41080  1.0000
  H   H830      1.0  0.16393  0.77769  0.39082  1.0000
  S   S118      1.0  0.36887  0.83606  0.48050  1.0000
  C   C480      1.0  0.01914  0.65897  0.25280  1.0000
  H   H831      1.0  0.21637  0.63287  0.47846  1.0000
  H   H832      1.0  0.05421  0.62744  0.24430  1.0000
  H   H833      1.0  0.36809  0.81113  0.35609  1.0000
  C   C481      1.0  0.42059  0.93517  0.45888  1.0000
  Fe  Fe61      1.0  0.99509  0.60222  0.35920  1.0000
  C   C482      1.0  0.28151  0.79197  0.46733  1.0000
  H   H834      1.0  0.13808  0.71054  0.32157  1.0000
  C   C483      1.0  0.37406  0.95352  0.47320  1.0000
  H   H835      1.0  0.04023  0.65849  0.27704  1.0000
  Fe  Fe62      1.0  0.42001  0.75886  0.24673  1.0000
  C   C484      1.0  0.17691  0.76779  0.39898  1.0000
  H   H836      1.0  0.37725  0.95147  0.45602  1.0000
  H   H837      1.0  0.12872  0.68657  0.41751  1.0000
  H   H838      1.0  0.29282  0.80325  0.45971  1.0000
  H   H839      1.0  0.15348  0.68744  0.42708  1.0000
  H   H840      1.0  0.09853  0.59151  0.35629  1.0000
  H   H841      1.0  0.09376  0.79805  0.24839  1.0000
  H   H842      1.0  0.14387  0.62271  0.40529  1.0000
  H   H843      1.0  0.37099  0.81552  0.31667  1.0000
  H   H844      1.0  0.13814  0.77140  0.33251  1.0000
  H   H845      1.0  0.13382  0.71766  0.39090  1.0000
  H   H846      1.0  0.07277  0.70042  0.35353  1.0000
  C   C485      1.0  0.48232  0.81221  0.40929  1.0000
  C   C486      1.0  0.13992  0.69718  0.41962  1.0000
  H   H847      1.0  0.34539  0.82597  0.25141  1.0000
  H   H848      1.0  0.99527  0.52813  0.36663  1.0000
  H   H849      1.0  0.14310  0.72613  0.35650  1.0000
  C   C487      1.0  0.27113  0.83652  0.47943  1.0000
  H   H850      1.0  0.02034  0.80086  0.25173  1.0000
  H   H851      1.0  0.12666  0.74960  0.32735  1.0000
  H   H852      1.0  0.29801  0.84915  0.31905  1.0000
  C   C488      1.0  0.20514  0.70467  0.37786  1.0000
  C   C489      1.0  0.21834  0.69034  0.36232  1.0000
  H   H853      1.0  0.19649  0.72938  0.35238  1.0000
  H   H854      1.0  0.17838  0.71089  0.36055  1.0000
  H   H855      1.0  0.21661  0.71280  0.38347  1.0000
  H   H856      1.0  0.19740  0.69449  0.39163  1.0000
  H   H857      1.0  0.22693  0.69980  0.34846  1.0000
  H   H858      1.0  0.23045  0.67912  0.37066  1.0000
  H   H859      1.0  0.20788  0.68117  0.35644  1.0000
  H   H860      1.0  0.17619  0.69832  0.46464  1.0000
  H   H861      1.0  0.05528  0.81289  0.24942  1.0000
  C   C490      1.0  0.08385  0.67751  0.38036  1.0000
  C   C491      1.0  0.06594  0.68990  0.36758  1.0000
  H   H862      1.0  0.10436  0.62782  0.40393  1.0000
  H   H863      1.0  0.32033  0.77439  0.44727  1.0000
  C   C492      1.0  0.35667  0.80940  0.32631  1.0000
  H   H864      1.0  0.47061  0.80493  0.42199  1.0000
  N   N27       1.0  0.24064  0.71352  0.25023  1.0000
  H   H865      1.0  0.27466  0.83599  0.32321  1.0000
  H   H866      1.0  0.34940  0.79269  0.35856  1.0000
  H   H867      1.0  0.33113  0.83408  0.29759  1.0000
  C   C493      1.0  0.34875  0.79328  0.31514  1.0000
  H   H868      1.0  0.07868  0.70172  0.24740  1.0000
  H   H869      1.0  0.33564  0.78682  0.32667  1.0000
  C   C494      1.0  0.14812  0.70910  0.39792  1.0000
  H   H870      1.0  0.03706  0.71248  0.37191  1.0000
  C   C495      1.0  0.21015  0.69200  0.24879  1.0000
  H   H871      1.0  0.39373  0.80974  0.24405  1.0000
  H   H872      1.0  0.08699  0.58776  0.48055  1.0000
  H   H873      1.0  0.34901  0.77418  0.27665  1.0000
  C   C496      1.0  0.44509  0.93479  0.45182  1.0000
  H   H874      1.0  0.21032  0.65974  0.26508  1.0000
  H   H875      1.0  0.18740  0.67011  0.25149  1.0000
  H   H876      1.0  0.19181  0.73134  0.46141  1.0000
  C   C497      1.0  0.32459  0.82036  0.29413  1.0000
  C   C498      1.0  0.33476  0.78405  0.28436  1.0000
  C   C499      1.0  0.30388  0.81752  0.31007  1.0000
  C   C500      1.0  0.32258  0.76795  0.30034  1.0000
  H   H877      1.0  0.21347  0.85149  0.42724  1.0000
  C   C501      1.0  0.48769  0.77509  0.31581  1.0000
  H   H878      1.0  0.41096  0.97230  0.47164  1.0000
  H   H879      1.0  0.15225  0.73665  0.40998  1.0000
  H   H880      1.0  0.31926  0.82550  0.27816  1.0000
  C   C502      1.0  0.28969  0.83865  0.31223  1.0000
  H   H881      1.0  0.29427  0.80761  0.30407  1.0000
  H   H882      1.0  0.33369  0.75832  0.31088  1.0000
  H   H883      1.0  0.30890  0.77545  0.31067  1.0000
  H   H884      1.0  0.04782  0.72999  0.25490  1.0000
  H   H885      1.0  0.28535  0.84650  0.29642  1.0000
  S   S119      1.0  0.08545  0.66120  0.46729  1.0000
  C   C503      1.0  0.05704  0.63933  0.25376  1.0000
  C   C504      1.0  0.02084  0.77002  0.24244  1.0000
  H   H886      1.0  0.12774  0.55707  0.47696  1.0000
  C   C505      1.0  0.35914  0.81357  0.25437  1.0000
  H   H887      1.0  0.26712  0.84629  0.46431  1.0000
  C   C506      1.0  0.48841  0.78985  0.29712  1.0000
  H   H888      1.0  0.03056  0.63393  0.27811  1.0000
  H   H889      1.0  0.07561  0.64862  0.35639  1.0000
  H   H890      1.0  0.05342  0.58650  0.47624  1.0000
  C   C507      1.0  0.10819  0.67047  0.34685  1.0000
  Fe  Fe63      1.0  0.16433  0.65461  0.47204  1.0000
  H   H891      1.0  0.30735  0.81045  0.32632  1.0000
  H   H892      1.0  0.16275  0.73764  0.33680  1.0000
  C   C508      1.0  0.03621  0.64761  0.26719  1.0000
  H   H893      1.0  0.12801  0.62467  0.43106  1.0000
  C   C509      1.0  0.31425  0.75290  0.28878  1.0000
  H   H894      1.0  0.13120  0.70829  0.43064  1.0000
  H   H895      1.0  0.31191  0.75142  0.44103  1.0000
  C   C510      1.0  0.27619  0.71193  0.29479  1.0000
  C   C511      1.0  0.18803  0.72055  0.36679  1.0000
  H   H896      1.0  0.42499  0.68041  0.26919  1.0000
  H   H897      1.0  0.05032  0.67292  0.44284  1.0000
  H   H898      1.0  0.28349  0.78095  0.43623  1.0000
  C   C512      1.0  0.28344  0.70761  0.45202  1.0000
  H   H899      1.0  0.28241  0.69935  0.30717  1.0000
  H   H900      1.0  0.15668  0.69724  0.38773  1.0000
  S   S120      1.0  0.14427  0.62916  0.47255  1.0000
  H   H901      1.0  0.16994  0.76140  0.41537  1.0000
  H   H902      1.0  0.29276  0.72080  0.45088  1.0000
  C   C513      1.0  0.36128  0.80831  0.27862  1.0000
  H   H903      1.0  0.30600  0.74146  0.30086  1.0000
  H   H904      1.0  0.17459  0.71673  0.41128  1.0000
  H   H905      1.0  0.26895  0.67187  0.47443  1.0000
  C   C514      1.0  0.41641  0.96012  0.48477  1.0000
  H   H906      1.0  0.19847  0.75652  0.37188  1.0000
  H   H907      1.0  0.10152  0.65218  0.41476  1.0000
  S   S121      1.0  0.45582  0.75038  0.24214  1.0000
  H   H908      1.0  0.19981  0.74002  0.39694  1.0000
  N   N28       1.0  0.17401  0.73596  0.38027  1.0000
  H   H909      1.0  0.20600  0.77324  0.40954  1.0000
  C   C515      1.0  0.30873  0.76297  0.45255  1.0000
  H   H910      1.0  0.11501  0.61748  0.36926  1.0000
  H   H911      1.0  0.01746  0.64745  0.24236  1.0000
  C   C516      1.0  0.08760  0.64339  0.36769  1.0000
  C   C517      1.0  0.18841  0.74954  0.38647  1.0000
  Fe  Fe64      1.0  0.11619  0.65275  0.48278  1.0000
  H   H912      1.0  0.30261  0.76167  0.27819  1.0000
  C   C518      1.0  0.16273  0.72495  0.40060  1.0000
  C   C519      1.0  0.14960  0.74098  0.34998  1.0000
  H   H913      1.0  0.05716  0.67915  0.36176  1.0000
  H   H914      1.0  0.07570  0.66983  0.39573  1.0000
  H   H915      1.0  0.07792  0.63850  0.38337  1.0000
  C   C520      1.0  0.11230  0.64160  0.40442  1.0000
  H   H916      1.0  0.18426  0.79468  0.41108  1.0000
  H   H917      1.0  0.12506  0.58421  0.46403  1.0000
  H   H918      1.0  0.08151  0.60115  0.37911  1.0000
  H   H919      1.0  0.23142  0.84235  0.45922  1.0000
  H   H920      1.0  0.09241  0.68920  0.38511  1.0000
  H   H921      1.0  0.32511  0.71117  0.24184  1.0000
  H   H922      1.0  0.21940  0.67106  0.48052  1.0000
  H   H923      1.0  0.41595  0.92033  0.45561  1.0000
  H   H924      1.0  0.11341  0.70592  0.31447  1.0000
  H   H925      1.0  0.13532  0.68454  0.35300  1.0000
  C   C521      1.0  0.15814  0.75033  0.36724  1.0000
  H   H926      1.0  0.16553  0.76416  0.35810  1.0000
  C   C522      1.0  0.02032  0.78423  0.25934  1.0000
  C   C523      1.0  0.42053  0.66515  0.26714  1.0000
  H   H927      1.0  0.25313  0.80332  0.43799  1.0000
  C   C524      1.0  0.26994  0.70470  0.47408  1.0000
  H   H928      1.0  0.10833  0.62693  0.34274  1.0000
  N   N29       1.0  0.09941  0.66128  0.36918  1.0000
  H   H929      1.0  0.34382  0.82279  0.32914  1.0000
  C   C525      1.0  0.11788  0.65388  0.38184  1.0000
  C   C526      1.0  0.04952  0.70363  0.38152  1.0000
  H   H930      1.0  0.39649  0.65316  0.25503  1.0000
  H   H931      1.0  0.12501  0.66754  0.38453  1.0000
  C   C527      1.0  0.25357  0.81476  0.44899  1.0000
  H   H932      1.0  0.26645  0.82402  0.44108  1.0000
  H   H933      1.0  0.09521  0.67514  0.33660  1.0000
  H   H934      1.0  0.04150  0.69370  0.39538  1.0000
  Fe  Fe65      1.0  0.38998  0.86057  0.48061  1.0000
  H   H935      1.0  0.13114  0.64421  0.37264  1.0000
  H   H936      1.0  0.36182  0.77968  0.31373  1.0000
  C   C528      1.0  0.33338  0.69983  0.25388  1.0000
  H   H937      1.0  0.11794  0.75996  0.35233  1.0000
  H   H938      1.0  0.19925  0.79009  0.38544  1.0000
  H   H939      1.0  0.11051  0.70240  0.35337  1.0000
  C   C529      1.0  0.12757  0.69838  0.32222  1.0000
  H   H940      1.0  0.18920  0.67877  0.27641  1.0000
  H   H941      1.0  0.37672  0.78631  0.34603  1.0000
  C   C530      1.0  0.13199  0.75649  0.34002  1.0000
  C   C531      1.0  0.10161  0.62347  0.35989  1.0000
  H   H942      1.0  0.24210  0.84987  0.41967  1.0000
  H   H943      1.0  0.05737  0.71511  0.38745  1.0000
  H   H944      1.0  0.05477  0.69159  0.26117  1.0000
  C   C532      1.0  0.19262  0.78229  0.40137  1.0000
  H   H945      1.0  0.46914  0.92911  0.42430  1.0000
  C   C533      1.0  0.25686  0.68612  0.47622  1.0000
  C   C534      1.0  0.22885  0.84060  0.42667  1.0000
  H   H946      1.0  0.36580  0.82256  0.28323  1.0000
  S   S122      1.0  0.13617  0.67884  0.48001  1.0000
  H   H947      1.0  0.25945  0.71986  0.47608  1.0000
  H   H948      1.0  0.37627  0.96975  0.47459  1.0000
  S   S123      1.0  0.46939  0.68970  0.25642  1.0000
  H   H949      1.0  0.06894  0.63171  0.26456  1.0000
  H   H950      1.0  0.01479  0.59332  0.47506  1.0000
  H   H951      1.0  0.31134  0.75452  0.46868  1.0000
  N   N30       1.0  0.99753  0.66724  0.26443  1.0000
  H   H952      1.0  0.19751  0.70528  0.24459  1.0000
  H   H953      1.0  0.22509  0.71291  0.48305  1.0000
  C   C535      1.0  0.04880  0.72158  0.24091  1.0000
  C   C536      1.0  0.37933  0.82151  0.24149  1.0000
  S   S124      1.0  0.99668  0.63143  0.33490  1.0000
  H   H954      1.0  0.43392  0.96057  0.48346  1.0000
  H   H955      1.0  0.28689  0.78536  0.48311  1.0000
  C   C537      1.0  0.00142  0.68039  0.28052  1.0000
  H   H956      1.0  0.32134  0.69088  0.26442  1.0000
  C   C538      1.0  0.06201  0.69998  0.24584  1.0000
  H   H957      1.0  0.21515  0.73995  0.25068  1.0000
  H   H958      1.0  0.25202  0.64508  0.47477  1.0000
  H   H959      1.0  0.35788  0.67311  0.25541  1.0000
  H   H960      1.0  0.28846  0.83020  0.47719  1.0000
  H   H961      1.0  0.02628  0.67209  0.24201  1.0000
  H   H962      1.0  0.22667  0.79688  0.48283  1.0000
  C   C539      1.0  0.25728  0.81839  0.48630  1.0000
  H   H963      1.0  0.33808  0.74407  0.23901  1.0000
  C   C540      1.0  0.12886  0.57352  0.47877  1.0000
  H   H964      1.0  0.34714  0.93550  0.48001  1.0000
  H   H965      1.0  0.38615  0.92121  0.48299  1.0000
  C   C541      1.0  0.35046  0.95152  0.48103  1.0000
  H   H966      1.0  0.14563  0.57440  0.48078  1.0000
  H   H967      1.0  0.00059  0.53452  0.41204  1.0000
  H   H968      1.0  0.01003  0.54956  0.38693  1.0000
  H   H969      1.0  0.00945  0.48583  0.41458  1.0000
  C   C542      1.0  0.38891  0.93669  0.48628  1.0000
  H   H970      1.0  0.28109  0.70162  0.48619  1.0000
  C   C543      1.0  0.99697  0.52170  0.38356  1.0000
  H   H971      1.0  0.99641  0.63907  0.28777  1.0000
  C   C544      1.0  0.99728  0.54022  0.39540  1.0000
  H   H972      1.0  0.03250  0.71901  0.23921  1.0000
  Fe  Fe66      1.0  0.35650  0.88604  0.51021  1.0000
  S   S125      1.0  0.38312  0.85974  0.51659  1.0000
  S   S126      1.0  0.34667  0.91404  0.52929  1.0000
  Fe  Fe67      1.0  0.35943  0.83796  0.51568  1.0000
  S   S127      1.0  0.35614  0.80947  0.54114  1.0000
  S   S128      1.0  0.33221  0.86415  0.51154  1.0000
  Fe  Fe68      1.0  0.14082  0.66721  0.51433  1.0000
  S   S129      1.0  0.17045  0.64474  0.50606  1.0000
  S   S130      1.0  0.13959  0.69059  0.53738  1.0000
  H   H973      1.0  0.35793  0.93337  0.71556  1.0000
  H   H974      1.0  0.24810  0.78114  0.51269  1.0000
  Fe  Fe69      1.0  0.14763  0.62152  0.50763  1.0000
  S   S131      1.0  0.15710  0.58774  0.52217  1.0000
  H   H975      1.0  0.21228  0.56514  0.63948  1.0000
  S   S132      1.0  0.11804  0.64337  0.51821  1.0000
  H   H976      1.0  0.28471  0.57458  0.70689  1.0000
  Fe  Fe70      1.0  0.26227  0.74470  0.57931  1.0000
  S   S133      1.0  0.22669  0.74919  0.59049  1.0000
  S   S134      1.0  0.27347  0.76480  0.54834  1.0000
  Fe  Fe71      1.0  0.27103  0.71222  0.61822  1.0000
  S   S135      1.0  0.23646  0.71514  0.63244  1.0000
  S   S136      1.0  0.29373  0.68740  0.63536  1.0000
  Fe  Fe72      1.0  0.23022  0.71387  0.59909  1.0000
  S   S137      1.0  0.21258  0.68735  0.59499  1.0000
  Fe  Fe73      1.0  0.23663  0.74991  0.62257  1.0000
  S   S138      1.0  0.22107  0.77524  0.64295  1.0000
  S   S139      1.0  0.26510  0.70938  0.58528  1.0000
  S   S140      1.0  0.27188  0.74711  0.61090  1.0000
  Fe  Fe74      1.0  0.13491  0.52338  0.63730  1.0000
  S   S141      1.0  0.11618  0.51543  0.67009  1.0000
  S   S142      1.0  0.11998  0.55269  0.61729  1.0000
  C   C545      1.0  0.22863  0.66571  0.49425  1.0000
  C   C546      1.0  0.17132  0.55540  0.69527  1.0000
  H   H977      1.0  0.05350  0.56385  0.51134  1.0000
  H   H978      1.0  0.16577  0.58961  0.63307  1.0000
  C   C547      1.0  0.34109  0.83258  0.66007  1.0000
  Fe  Fe75      1.0  0.14821  0.51079  0.68185  1.0000
  S   S143      1.0  0.15603  0.51800  0.71313  1.0000
  H   H979      1.0  0.26698  0.66313  0.51186  1.0000
  S   S144      1.0  0.16636  0.52111  0.64975  1.0000
  H   H980      1.0  0.27528  0.94282  0.68508  1.0000
  H   H981      1.0  0.38835  0.96861  0.50880  1.0000
  H   H982      1.0  0.42680  0.92201  0.61660  1.0000
  C   C548      1.0  0.29785  0.95863  0.69666  1.0000
  S   S145      1.0  0.38368  0.95930  0.68377  1.0000
  Fe  Fe76      1.0  0.30983  0.87354  0.70236  1.0000
  S   S146      1.0  0.27782  0.87463  0.69208  1.0000
  S   S147      1.0  0.33466  0.88505  0.67543  1.0000
  Fe  Fe77      1.0  0.27840  0.84136  0.70901  1.0000
  S   S148      1.0  0.27986  0.81073  0.69555  1.0000
  S   S149      1.0  0.31145  0.83986  0.71753  1.0000
  C   C549      1.0  0.36757  0.94052  0.68154  1.0000
  C   C550      1.0  0.36684  0.93503  0.66147  1.0000
  C   C551      1.0  0.35630  0.91824  0.65982  1.0000
  C   C552      1.0  0.34597  0.90712  0.67817  1.0000
  C   C553      1.0  0.34604  0.91297  0.69825  1.0000
  C   C554      1.0  0.35712  0.92947  0.69995  1.0000
  H   H983      1.0  0.37548  0.94288  0.64726  1.0000
  H   H984      1.0  0.35658  0.91361  0.64429  1.0000
  H   H985      1.0  0.02162  0.56846  0.49133  1.0000
  H   H986      1.0  0.34580  0.84460  0.64639  1.0000
  H   H987      1.0  0.38050  0.78108  0.57346  1.0000
  Fe  Fe78      1.0  0.38932  0.98116  0.65277  1.0000
  H   H988      1.0  0.20634  0.75239  0.70560  1.0000
  H   H989      1.0  0.09132  0.52757  0.56514  1.0000
  H   H990      1.0  0.33076  0.84083  0.67274  1.0000
  H   H991      1.0  0.11387  0.57614  0.65265  1.0000
  H   H992      1.0  0.08755  0.61450  0.51563  1.0000
  H   H993      1.0  0.33830  0.90427  0.71250  1.0000
  H   H994      1.0  0.27223  0.84230  0.51187  1.0000
  C   C555      1.0  0.29233  0.94005  0.68777  1.0000
  C   C556      1.0  0.28328  0.68116  0.66246  1.0000
  C   C557      1.0  0.28746  0.66056  0.67316  1.0000
  C   C558      1.0  0.27858  0.65550  0.69472  1.0000
  C   C559      1.0  0.26622  0.67123  0.70576  1.0000
  C   C560      1.0  0.26255  0.69185  0.69515  1.0000
  C   C561      1.0  0.27069  0.69675  0.67350  1.0000
  H   H995      1.0  0.29731  0.64850  0.66467  1.0000
  H   H996      1.0  0.28175  0.63965  0.70297  1.0000
  H   H997      1.0  0.26761  0.71271  0.66543  1.0000
  C   C562      1.0  0.23799  0.78605  0.65616  1.0000
  C   C563      1.0  0.23116  0.80568  0.66340  1.0000
  C   C564      1.0  0.24395  0.81390  0.67510  1.0000
  C   C565      1.0  0.26344  0.80227  0.67994  1.0000
  C   C566      1.0  0.27017  0.78269  0.67268  1.0000
  C   C567      1.0  0.25768  0.77470  0.66067  1.0000
  H   H998      1.0  0.21585  0.81448  0.66010  1.0000
  H   H999      1.0  0.23853  0.82895  0.68073  1.0000
  H   H1000     1.0  0.28494  0.77343  0.67676  1.0000
  H   H1001     1.0  0.26286  0.75936  0.65563  1.0000
  C   C568      1.0  0.14633  0.57798  0.54845  1.0000
  C   C569      1.0  0.12832  0.58896  0.55945  1.0000
  C   C570      1.0  0.12029  0.58083  0.58048  1.0000
  C   C571      1.0  0.13033  0.56184  0.59071  1.0000
  C   C572      1.0  0.14826  0.55080  0.57968  1.0000
  C   C573      1.0  0.15612  0.55879  0.55854  1.0000
  H   H1002     1.0  0.12064  0.60371  0.55181  1.0000
  H   H1003     1.0  0.10629  0.58932  0.58891  1.0000
  H   H1004     1.0  0.15601  0.53609  0.58740  1.0000
  H   H1005     1.0  0.17000  0.55019  0.55005  1.0000
  C   C574      1.0  0.16051  0.68965  0.55268  1.0000
  C   C575      1.0  0.16216  0.70753  0.56167  1.0000
  C   C576      1.0  0.17868  0.70742  0.57382  1.0000
  C   C577      1.0  0.19320  0.68912  0.57774  1.0000
  C   C578      1.0  0.19131  0.67109  0.56911  1.0000
  C   C579      1.0  0.17527  0.67144  0.55633  1.0000
  H   H1006     1.0  0.15074  0.72165  0.55900  1.0000
  H   H1007     1.0  0.17979  0.72129  0.58064  1.0000
  H   H1008     1.0  0.20235  0.65681  0.57230  1.0000
  H   H1009     1.0  0.17409  0.65755  0.54960  1.0000
  C   C580      1.0  0.36122  0.92576  0.54451  1.0000
  C   C581      1.0  0.38258  0.91816  0.54690  1.0000
  C   C582      1.0  0.39393  0.92871  0.55797  1.0000
  C   C583      1.0  0.38389  0.94650  0.56757  1.0000
  C   C584      1.0  0.36233  0.95381  0.56562  1.0000
  C   C585      1.0  0.35118  0.94363  0.55395  1.0000
  H   H1010     1.0  0.39046  0.90440  0.53981  1.0000
  H   H1011     1.0  0.41070  0.92319  0.55889  1.0000
  H   H1012     1.0  0.18778  0.59054  0.55544  1.0000
  H   H1013     1.0  0.33469  0.94979  0.55204  1.0000
  C   C586      1.0  0.29640  0.77712  0.54691  1.0000
  C   C587      1.0  0.29759  0.79682  0.53431  1.0000
  C   C588      1.0  0.31593  0.80673  0.53215  1.0000
  C   C589      1.0  0.33338  0.79689  0.54246  1.0000
  C   C590      1.0  0.33238  0.77696  0.55470  1.0000
  C   C591      1.0  0.31385  0.76722  0.55722  1.0000
  H   H1014     1.0  0.28417  0.80458  0.52647  1.0000
  H   H1015     1.0  0.31651  0.82201  0.52256  1.0000
  H   H1016     1.0  0.34609  0.76890  0.56199  1.0000
  H   H1017     1.0  0.31327  0.75183  0.56661  1.0000
  H   H1018     1.0  0.17686  0.68112  0.63035  1.0000
  N   N31       1.0  0.33109  0.79186  0.62520  1.0000
  C   C592      1.0  0.34537  0.78593  0.60515  1.0000
  C   C593      1.0  0.30952  0.80334  0.61989  1.0000
  C   C594      1.0  0.32830  0.77290  0.64201  1.0000
  C   C595      1.0  0.31776  0.75543  0.63583  1.0000
  C   C596      1.0  0.32868  0.81720  0.65333  1.0000
  C   C597      1.0  0.30068  0.79689  0.60106  1.0000
  C   C598      1.0  0.27702  0.80581  0.60075  1.0000
  C   C599      1.0  0.31799  0.73616  0.65312  1.0000
  H   H1019     1.0  0.34612  0.80009  0.59265  1.0000
  H   H1020     1.0  0.33857  0.77466  0.59794  1.0000
  H   H1021     1.0  0.29713  0.80206  0.63437  1.0000
  H   H1022     1.0  0.31018  0.82054  0.61520  1.0000
  H   H1023     1.0  0.34382  0.76571  0.64753  1.0000
  H   H1024     1.0  0.31801  0.77777  0.65661  1.0000
  H   H1025     1.0  0.32603  0.74994  0.62069  1.0000
  H   H1026     1.0  0.30074  0.76142  0.63428  1.0000
  H   H1027     1.0  0.32516  0.80533  0.66753  1.0000
  H   H1028     1.0  0.31326  0.82613  0.64915  1.0000
  H   H1029     1.0  0.30968  0.80325  0.58561  1.0000
  H   H1030     1.0  0.30223  0.77964  0.60167  1.0000
  H   H1031     1.0  0.26711  0.79930  0.61555  1.0000
  H   H1032     1.0  0.27466  0.82326  0.59934  1.0000
  H   H1033     1.0  0.27144  0.80130  0.58680  1.0000
  H   H1034     1.0  0.33471  0.72907  0.65518  1.0000
  C   C600      1.0  0.16903  0.60281  0.58337  1.0000
  H   H1035     1.0  0.30995  0.72412  0.64833  1.0000
  C   C601      1.0  0.18006  0.57364  0.69627  1.0000
  S   S150      1.0  0.19772  0.59994  0.71553  1.0000
  H   H1036     1.0  0.06610  0.58289  0.54842  1.0000
  H   H1037     1.0  0.47979  0.85034  0.66833  1.0000
  C   C602      1.0  0.25403  0.67641  0.51504  1.0000
  C   C603      1.0  0.24110  0.67066  0.53732  1.0000
  H   H1038     1.0  0.41213  0.95650  0.52014  1.0000
  C   C604      1.0  0.45734  0.87566  0.68162  1.0000
  C   C605      1.0  0.20306  0.70212  0.50959  1.0000
  C   C606      1.0  0.19112  0.72393  0.51317  1.0000
  C   C607      1.0  0.25603  0.66264  0.55420  1.0000
  H   H1039     1.0  0.35440  0.96761  0.57264  1.0000
  H   H1040     1.0  0.14039  0.64073  0.64115  1.0000
  H   H1041     1.0  0.21633  0.66283  0.50841  1.0000
  H   H1042     1.0  0.26269  0.49779  0.65110  1.0000
  H   H1043     1.0  0.43674  0.86759  0.50862  1.0000
  H   H1044     1.0  0.04073  0.65403  0.53235  1.0000
  H   H1045     1.0  0.26460  0.73244  0.71217  1.0000
  H   H1046     1.0  0.26321  0.76222  0.49632  1.0000
  H   H1047     1.0  0.26259  0.68948  0.51674  1.0000
  H   H1048     1.0  0.23127  0.65813  0.53736  1.0000
  H   H1049     1.0  0.23059  0.68485  0.54240  1.0000
  N   N32       1.0  0.15181  0.61986  0.61725  1.0000
  C   C608      1.0  0.40273  0.87589  0.68559  1.0000
  C   C609      1.0  0.07249  0.61056  0.51178  1.0000
  H   H1050     1.0  0.20235  0.69193  0.52521  1.0000
  H   H1051     1.0  0.09317  0.54563  0.52760  1.0000
  H   H1052     1.0  0.44657  0.87093  0.65306  1.0000
  H   H1053     1.0  0.15884  0.69149  0.70174  1.0000
  H   H1054     1.0  0.26583  0.67490  0.55541  1.0000
  H   H1055     1.0  0.24637  0.65886  0.57009  1.0000
  H   H1056     1.0  0.26681  0.64815  0.55023  1.0000
  H   H1057     1.0  0.06623  0.54717  0.54162  1.0000
  H   H1058     1.0  0.44688  0.86458  0.69147  1.0000
  C   C610      1.0  0.30020  0.75112  0.71987  1.0000
  H   H1059     1.0  0.33099  0.75994  0.70469  1.0000
  H   H1060     1.0  0.12716  0.61547  0.59959  1.0000
  H   H1061     1.0  0.45812  0.88798  0.69137  1.0000
  C   C611      1.0  0.17070  0.61725  0.59980  1.0000
  H   H1062     1.0  0.36952  0.76259  0.62073  1.0000
  H   H1063     1.0  0.11734  0.62922  0.62140  1.0000
  H   H1064     1.0  0.29757  0.74597  0.70493  1.0000
  H   H1065     1.0  0.19204  0.71920  0.72436  1.0000
  H   H1066     1.0  0.11589  0.59641  0.49971  1.0000
  Fe  Fe79      1.0  0.26450  0.88495  0.72425  1.0000
  C   C612      1.0  0.41325  0.89627  0.68229  1.0000
  H   H1067     1.0  0.35696  0.79837  0.64013  1.0000
  H   H1068     1.0  0.23228  0.74476  0.69083  1.0000
  H   H1069     1.0  0.18559  0.61110  0.60711  1.0000
  H   H1070     1.0  0.31623  0.59050  0.68970  1.0000
  C   C613      1.0  0.02075  0.58580  0.49030  1.0000
  C   C614      1.0  0.10967  0.65235  0.58196  1.0000
  H   H1071     1.0  0.29515  0.92524  0.69902  1.0000
  H   H1072     1.0  0.42717  0.88589  0.52754  1.0000
  C   C615      1.0  0.22714  0.62760  0.49090  1.0000
  H   H1073     1.0  0.34607  0.95463  0.49788  1.0000
  H   H1074     1.0  0.17677  0.65891  0.65135  1.0000
  H   H1075     1.0  0.09360  0.58288  0.53869  1.0000
  C   C616      1.0  0.22656  0.70330  0.49897  1.0000
  H   H1076     1.0  0.24272  0.52338  0.67419  1.0000
  H   H1077     1.0  0.44321  0.92644  0.64311  1.0000
  C   C617      1.0  0.17130  0.66086  0.71650  1.0000
  H   H1078     1.0  0.30920  0.74045  0.66860  1.0000
  C   C618      1.0  0.36887  0.77615  0.60774  1.0000
  H   H1079     1.0  0.20356  0.59393  0.57518  1.0000
  H   H1080     1.0  0.08059  0.55222  0.57486  1.0000
  H   H1081     1.0  0.46052  0.91998  0.67523  1.0000
  C   C619      1.0  0.14972  0.59840  0.63025  1.0000
  H   H1082     1.0  0.14299  0.58840  0.62118  1.0000
  H   H1083     1.0  0.12169  0.57629  0.67836  1.0000
  C   C620      1.0  0.13576  0.59842  0.65270  1.0000
  H   H1084     1.0  0.34668  0.81958  0.62135  1.0000
  H   H1085     1.0  0.32558  0.96647  0.61302  1.0000
  N   N33       1.0  0.42801  0.90033  0.66148  1.0000
  C   C621      1.0  0.16786  0.54068  0.71362  1.0000
  H   H1086     1.0  0.14358  0.64942  0.58058  1.0000
  H   H1087     1.0  0.12164  0.61087  0.65265  1.0000
  H   H1088     1.0  0.20335  0.59099  0.64754  1.0000
  C   C622      1.0  0.42405  0.92237  0.49726  1.0000
  H   H1089     1.0  0.41749  0.93392  0.65745  1.0000
  H   H1090     1.0  0.19204  0.61661  0.55800  1.0000
  H   H1091     1.0  0.43501  0.92549  0.69205  1.0000
  N   N34       1.0  0.31827  0.89630  0.60636  1.0000
  C   C623      1.0  0.30908  0.87813  0.62076  1.0000
  C   C624      1.0  0.34218  0.89020  0.60075  1.0000
  C   C625      1.0  0.31487  0.91445  0.61922  1.0000
  C   C626      1.0  0.30771  0.90330  0.58633  1.0000
  C   C627      1.0  0.29957  0.88604  0.57681  1.0000
  C   C628      1.0  0.28524  0.88303  0.63082  1.0000
  C   C629      1.0  0.32517  0.93426  0.60833  1.0000
  C   C630      1.0  0.34968  0.87177  0.58747  1.0000
  C   C631      1.0  0.37398  0.86540  0.58569  1.0000
  C   C632      1.0  0.29179  0.89477  0.55530  1.0000
  C   C633      1.0  0.27522  0.86290  0.63910  1.0000
  C   C634      1.0  0.31808  0.95253  0.62137  1.0000
  H   H1092     1.0  0.31844  0.87259  0.63439  1.0000
  H   H1093     1.0  0.31067  0.86429  0.61228  1.0000
  H   H1094     1.0  0.34956  0.90358  0.59084  1.0000
  H   H1095     1.0  0.34982  0.88646  0.61568  1.0000
  H   H1096     1.0  0.32099  0.90918  0.63487  1.0000
  H   H1097     1.0  0.29745  0.91999  0.62326  1.0000
  H   H1098     1.0  0.29349  0.91550  0.58923  1.0000
  H   H1099     1.0  0.31881  0.91134  0.57343  1.0000
  H   H1100     1.0  0.28582  0.87999  0.58763  1.0000
  H   H1101     1.0  0.31207  0.87238  0.57430  1.0000
  H   H1102     1.0  0.28421  0.89171  0.64462  1.0000
  H   H1103     1.0  0.27540  0.89305  0.61921  1.0000
  H   H1104     1.0  0.32056  0.93957  0.59212  1.0000
  H   H1105     1.0  0.34292  0.93100  0.60704  1.0000
  H   H1106     1.0  0.34223  0.85755  0.59464  1.0000
  H   H1107     1.0  0.34591  0.87681  0.57088  1.0000
  H   H1108     1.0  0.38239  0.87903  0.57823  1.0000
  H   H1109     1.0  0.37882  0.85945  0.60175  1.0000
  H   H1110     1.0  0.37901  0.85271  0.57544  1.0000
  H   H1111     1.0  0.28569  0.88224  0.54914  1.0000
  H   H1112     1.0  0.27864  0.90815  0.55707  1.0000
  H   H1113     1.0  0.30514  0.90016  0.54333  1.0000
  H   H1114     1.0  0.25826  0.86705  0.64624  1.0000
  H   H1115     1.0  0.27548  0.85369  0.62587  1.0000
  H   H1116     1.0  0.28388  0.85300  0.65174  1.0000
  H   H1117     1.0  0.22895  0.74973  0.49320  1.0000
  S   S151      1.0  0.41724  0.97778  0.62651  1.0000
  H   H1118     1.0  0.30038  0.95695  0.62321  1.0000
  N   N35       1.0  0.19341  0.68903  0.69298  1.0000
  H   H1119     1.0  0.26018  0.75937  0.71463  1.0000
  C   C635      1.0  0.20972  0.67791  0.67707  1.0000
  C   C636      1.0  0.18867  0.71177  0.68298  1.0000
  C   C637      1.0  0.17286  0.67940  0.69776  1.0000
  H   H1120     1.0  0.38129  0.88353  0.71440  1.0000
  H   H1121     1.0  0.22116  0.53908  0.70687  1.0000
  C   C638      1.0  0.17906  0.71567  0.66162  1.0000
  C   C639      1.0  0.21711  0.65414  0.68350  1.0000
  C   C640      1.0  0.23417  0.64547  0.66617  1.0000
  H   H1122     1.0  0.23430  0.74709  0.52056  1.0000
  C   C641      1.0  0.23674  0.53593  0.71313  1.0000
  C   C642      1.0  0.17234  0.73917  0.65475  1.0000
  H   H1123     1.0  0.21911  0.69467  0.70838  1.0000
  H   H1124     1.0  0.23358  0.71307  0.50797  1.0000
  H   H1125     1.0  0.20343  0.67891  0.66172  1.0000
  H   H1126     1.0  0.22434  0.68590  0.67316  1.0000
  H   H1127     1.0  0.20352  0.71942  0.68002  1.0000
  H   H1128     1.0  0.17696  0.72088  0.69416  1.0000
  C   C643      1.0  0.24182  0.64398  0.49063  1.0000
  H   H1129     1.0  0.16974  0.67395  0.68314  1.0000
  H   H1130     1.0  0.08891  0.56229  0.49502  1.0000
  C   C644      1.0  0.11368  0.58017  0.49837  1.0000
  H   H1131     1.0  0.24033  0.82536  0.49081  1.0000
  C   C645      1.0  0.32440  0.74980  0.71921  1.0000
  H   H1132     1.0  0.16474  0.70765  0.66316  1.0000
  H   H1133     1.0  0.19097  0.71003  0.64837  1.0000
  H   H1134     1.0  0.22409  0.65103  0.69868  1.0000
  H   H1135     1.0  0.20350  0.64515  0.68498  1.0000
  H   H1136     1.0  0.22752  0.64692  0.65091  1.0000
  H   H1137     1.0  0.24817  0.65415  0.66326  1.0000
  H   H1138     1.0  0.23971  0.62860  0.67140  1.0000
  H   H1139     1.0  0.41448  0.86235  0.68070  1.0000
  S   S152      1.0  0.29668  0.88581  0.73335  1.0000
  H   H1140     1.0  0.29522  0.97279  0.68461  1.0000
  C   C646      1.0  0.15582  0.63438  0.63195  1.0000
  H   H1141     1.0  0.05080  0.65188  0.50467  1.0000
  H   H1142     1.0  0.10737  0.54856  0.56008  1.0000
  H   H1143     1.0  0.15956  0.74583  0.66681  1.0000
  H   H1144     1.0  0.18632  0.74783  0.65267  1.0000
  H   H1145     1.0  0.16610  0.74158  0.63918  1.0000
  N   N36       1.0  0.25510  0.56096  0.68196  1.0000
  C   C647      1.0  0.23452  0.56889  0.67266  1.0000
  C   C648      1.0  0.24974  0.55452  0.70580  1.0000
  C   C649      1.0  0.26764  0.57929  0.67882  1.0000
  C   C650      1.0  0.26870  0.54306  0.67147  1.0000
  C   C651      1.0  0.25669  0.52800  0.66283  1.0000
  C   C652      1.0  0.23721  0.57952  0.64895  1.0000
  C   C653      1.0  0.28854  0.57530  0.68922  1.0000
  H   H1146     1.0  0.17373  0.72305  0.51790  1.0000
  C   C654      1.0  0.43269  0.92275  0.65850  1.0000
  H   H1147     1.0  0.03988  0.58439  0.52542  1.0000
  C   C655      1.0  0.21676  0.58105  0.63894  1.0000
  C   C656      1.0  0.30193  0.59320  0.68127  1.0000
  H   H1148     1.0  0.22447  0.58083  0.68205  1.0000
  H   H1149     1.0  0.22447  0.55620  0.67425  1.0000
  H   H1150     1.0  0.03805  0.61909  0.52388  1.0000
  H   H1151     1.0  0.18599  0.64923  0.71631  1.0000
  H   H1152     1.0  0.25738  0.59315  0.68520  1.0000
  H   H1153     1.0  0.27243  0.58444  0.66145  1.0000
  H   H1154     1.0  0.28000  0.54919  0.65751  1.0000
  H   H1155     1.0  0.27921  0.53333  0.68279  1.0000
  C   C657      1.0  0.27152  0.50788  0.65789  1.0000
  H   H1156     1.0  0.00916  0.59142  0.50383  1.0000
  H   H1157     1.0  0.24076  0.59583  0.64809  1.0000
  H   H1158     1.0  0.25063  0.57089  0.63906  1.0000
  H   H1159     1.0  0.29858  0.56035  0.68553  1.0000
  N   N37       1.0  0.28646  0.98021  0.72870  1.0000
  H   H1160     1.0  0.32332  0.94824  0.63743  1.0000
  H   H1161     1.0  0.38946  0.87828  0.67576  1.0000
  H   H1162     1.0  0.25315  0.70402  0.70366  1.0000
  H   H1163     1.0  0.05581  0.61737  0.54344  1.0000
  H   H1164     1.0  0.18223  0.58512  0.68212  1.0000
  S   S153      1.0  0.39941  0.95936  0.58080  1.0000
  C   C658      1.0  0.09078  0.54493  0.56140  1.0000
  C   C659      1.0  0.07889  0.57736  0.53572  1.0000
  H   H1165     1.0  0.21944  0.58837  0.62193  1.0000
  H   H1166     1.0  0.22831  0.72751  0.72904  1.0000
  H   H1167     1.0  0.21730  0.62485  0.50686  1.0000
  S   S154      1.0  0.14052  0.49001  0.62977  1.0000
  H   H1168     1.0  0.25211  0.63792  0.50329  1.0000
  H   H1169     1.0  0.38451  0.85635  0.71047  1.0000
  H   H1170     1.0  0.30267  0.93795  0.67231  1.0000
  H   H1171     1.0  0.14556  0.60127  0.66450  1.0000
  H   H1172     1.0  0.15555  0.60961  0.57430  1.0000
  H   H1173     1.0  0.06923  0.65040  0.52370  1.0000
  C   C660      1.0  0.08188  0.55293  0.54031  1.0000
  H   H1174     1.0  0.41593  0.88050  0.60683  1.0000
  H   H1175     1.0  0.14027  0.56394  0.65812  1.0000
  H   H1176     1.0  0.17363  0.63258  0.59022  1.0000
  C   C661      1.0  0.30908  0.97900  0.73362  1.0000
  H   H1177     1.0  0.26700  0.96157  0.71696  1.0000
  C   C662      1.0  0.43618  0.88412  0.51138  1.0000
  C   C663      1.0  0.44404  0.92871  0.67578  1.0000
  H   H1178     1.0  0.16585  0.62537  0.64407  1.0000
  C   C664      1.0  0.25662  0.74381  0.72325  1.0000
  C   C665      1.0  0.23208  0.74387  0.72516  1.0000
  H   H1179     1.0  0.41282  0.88205  0.64446  1.0000
  H   H1180     1.0  0.22584  0.77023  0.70021  1.0000
  H   H1181     1.0  0.11064  0.64011  0.57145  1.0000
  H   H1182     1.0  0.18496  0.64743  0.61586  1.0000
  C   C666      1.0  0.22371  0.75335  0.70412  1.0000
  H   H1183     1.0  0.32803  0.75545  0.73350  1.0000
  H   H1184     1.0  0.24076  0.56827  0.71340  1.0000
  H   H1185     1.0  0.16080  0.66279  0.60801  1.0000
  H   H1186     1.0  0.41627  0.92362  0.51393  1.0000
  C   C667      1.0  0.39304  0.87021  0.70893  1.0000
  H   H1187     1.0  0.40579  0.86623  0.71942  1.0000
  H   H1188     1.0  0.12816  0.66194  0.60264  1.0000
  H   H1189     1.0  0.22681  0.49462  0.69492  1.0000
  H   H1190     1.0  0.31508  0.95502  0.69849  1.0000
  H   H1191     1.0  0.45538  0.95641  0.65566  1.0000
  N   N38       1.0  0.07336  0.58697  0.51384  1.0000
  H   H1192     1.0  0.15529  0.64165  0.70102  1.0000
  H   H1193     1.0  0.10866  0.66799  0.57179  1.0000
  H   H1194     1.0  0.27705  0.49881  0.67277  1.0000
  H   H1195     1.0  0.25057  0.53573  0.64779  1.0000
  C   C668      1.0  0.44854  0.88487  0.66024  1.0000
  C   C669      1.0  0.09008  0.57890  0.49637  1.0000
  C   C670      1.0  0.44623  0.95216  0.67173  1.0000
  C   C671      1.0  0.34192  0.80671  0.63424  1.0000
  C   C672      1.0  0.12749  0.57739  0.66091  1.0000
  H   H1196     1.0  0.26459  0.54960  0.71337  1.0000
  C   C673      1.0  0.18941  0.60092  0.56706  1.0000
  H   H1197     1.0  0.39788  0.76238  0.58920  1.0000
  C   C674      1.0  0.26765  0.85112  0.49650  1.0000
  H   H1198     1.0  0.29239  0.60851  0.68459  1.0000
  H   H1199     1.0  0.11877  0.56956  0.51265  1.0000
  H   H1200     1.0  0.19299  0.73538  0.49829  1.0000
  C   C675      1.0  0.05375  0.64606  0.52142  1.0000
  H   H1201     1.0  0.24612  0.52122  0.70801  1.0000
  H   H1202     1.0  0.16706  0.55280  0.68038  1.0000
  C   C676      1.0  0.38086  0.76820  0.58724  1.0000
  C   C677      1.0  0.12956  0.64877  0.59324  1.0000
  H   H1203     1.0  0.37783  0.78813  0.61126  1.0000
  C   C678      1.0  0.13100  0.62753  0.60828  1.0000
  C   C679      1.0  0.05395  0.62222  0.52631  1.0000
  H   H1204     1.0  0.26233  0.80978  0.50150  1.0000
  C   C680      1.0  0.05210  0.58113  0.51135  1.0000
  C   C681      1.0  0.18606  0.57707  0.71544  1.0000
  H   H1205     1.0  0.44440  0.89718  0.61837  1.0000
  C   C682      1.0  0.18275  0.56231  0.73379  1.0000
  H   H1206     1.0  0.35568  0.82404  0.66664  1.0000
  H   H1207     1.0  0.37364  0.75498  0.58371  1.0000
  H   H1208     1.0  0.40013  0.90840  0.64494  1.0000
  H   H1209     1.0  0.16665  0.58671  0.59131  1.0000
  C   C683      1.0  0.16796  0.65322  0.62169  1.0000
  N   N39       1.0  0.24126  0.68272  0.49657  1.0000
  H   H1210     1.0  0.15168  0.67418  0.64456  1.0000
  C   C684      1.0  0.16825  0.66772  0.63810  1.0000
  H   H1211     1.0  0.09488  0.65201  0.59383  1.0000
  H   H1212     1.0  0.42516  0.90173  0.58764  1.0000
  H   H1213     1.0  0.39993  0.90952  0.68360  1.0000
  H   H1214     1.0  0.39955  0.90617  0.60422  1.0000
  C   C685      1.0  0.20338  0.68883  0.71283  1.0000
  C   C686      1.0  0.40608  0.96750  0.50656  1.0000
  H   H1215     1.0  0.28564  0.51167  0.64605  1.0000
  C   C687      1.0  0.42740  0.90462  0.62039  1.0000
  C   C688      1.0  0.15269  0.64904  0.71589  1.0000
  H   H1216     1.0  0.46149  0.89217  0.64908  1.0000
  C   C689      1.0  0.41624  0.89777  0.60385  1.0000
  C   C690      1.0  0.41609  0.89849  0.64346  1.0000
  H   H1217     1.0  0.33240  0.73334  0.71861  1.0000
  H   H1218     1.0  0.20735  0.67260  0.72094  1.0000
  H   H1219     1.0  0.19715  0.72967  0.52616  1.0000
  S   S155      1.0  0.25600  0.66615  0.73307  1.0000
  H   H1220     1.0  0.43019  0.96192  0.67281  1.0000
  C   C691      1.0  0.23024  0.75849  0.50633  1.0000
  C   C692      1.0  0.47985  0.86339  0.67754  1.0000
  H   H1221     1.0  0.48550  0.85652  0.69307  1.0000
  H   H1222     1.0  0.21452  0.76803  0.51086  1.0000
  H   H1223     1.0  0.20333  0.49589  0.66747  1.0000
  H   H1224     1.0  0.30747  0.59401  0.66379  1.0000
  C   C693      1.0  0.17366  0.54420  0.73287  1.0000
  H   H1225     1.0  0.45488  0.95591  0.68401  1.0000
  H   H1226     1.0  0.42140  0.89613  0.69633  1.0000
  C   C694      1.0  0.24769  0.77259  0.49918  1.0000
  H   H1227     1.0  0.07174  0.61802  0.49492  1.0000
  H   H1228     1.0  0.38287  0.93678  0.50356  1.0000
  H   H1229     1.0  0.29310  0.76780  0.71959  1.0000
  S   S156      1.0  0.24327  0.91612  0.72749  1.0000
  C   C695      1.0  0.28416  0.96137  0.71864  1.0000
  C   C696      1.0  0.04285  0.59173  0.49054  1.0000
  H   H1230     1.0  0.19425  0.69566  0.49916  1.0000
  H   H1231     1.0  0.13726  0.65986  0.71676  1.0000
  H   H1232     1.0  0.35386  0.96932  0.72550  1.0000
  H   H1233     1.0  0.28876  0.94644  0.72918  1.0000
  H   H1234     1.0  0.20021  0.49037  0.72538  1.0000
  C   C697      1.0  0.21547  0.48243  0.67020  1.0000
  H   H1235     1.0  0.25063  0.85851  0.49906  1.0000
  H   H1236     1.0  0.45288  0.88719  0.51073  1.0000
  H   H1237     1.0  0.40892  0.89482  0.49494  1.0000
  C   C698      1.0  0.42515  0.89906  0.49411  1.0000
  H   H1238     1.0  0.16861  0.66683  0.73214  1.0000
  H   H1239     1.0  0.24807  0.78262  0.73595  1.0000
  S   S157      1.0  0.25104  0.60365  0.73425  1.0000
  C   C699      1.0  0.23207  0.53191  0.73755  1.0000
  H   H1240     1.0  0.27787  0.86381  0.49115  1.0000
  Fe  Fe80      1.0  0.17023  0.48702  0.64550  1.0000
  H   H1241     1.0  0.44074  0.92544  0.49695  1.0000
  C   C700      1.0  0.19005  0.70241  0.72959  1.0000
  H   H1242     1.0  0.17269  0.70132  0.73138  1.0000
  H   H1243     1.0  0.29739  0.72039  0.73659  1.0000
  H   H1244     1.0  0.15173  0.63629  0.72978  1.0000
  H   H1245     1.0  0.49127  0.87398  0.66854  1.0000
  H   H1246     1.0  0.31625  0.96224  0.73754  1.0000
  H   H1247     1.0  0.04109  0.60916  0.48878  1.0000
  H   H1248     1.0  0.22316  0.75311  0.73775  1.0000
  H   H1249     1.0  0.43170  0.53880  0.88928  1.0000
  H   H1250     1.0  0.21378  0.53903  0.81112  1.0000
  C   C701      1.0  0.20129  0.93437  0.91848  1.0000
  H   H1251     1.0  0.40738  0.48605  0.97567  1.0000
  H   H1252     1.0  0.21982  0.64712  0.88903  1.0000
  S   S158      1.0  0.37366  0.68674  0.95076  1.0000
  H   H1253     1.0  0.29099  0.78289  0.91684  1.0000
  H   H1254     1.0  0.26255  0.77417  0.96218  1.0000
  S   S159      1.0  0.38144  0.58064  0.97175  1.0000
  S   S160      1.0  0.18449  0.93180  0.81529  1.0000
  S   S161      1.0  0.41035  0.63249  0.96704  1.0000
  H   H1255     1.0  0.14145  0.96826  0.92846  1.0000
  Fe  Fe81      1.0  0.28210  0.70458  0.88066  1.0000
  S   S162      1.0  0.24919  0.71740  0.89529  1.0000
  S   S163      1.0  0.30024  0.67673  0.89911  1.0000
  Fe  Fe82      1.0  0.27862  0.73340  0.83860  1.0000
  S   S164      1.0  0.24536  0.74858  0.84967  1.0000
  S   S165      1.0  0.29477  0.74214  0.80501  1.0000
  Fe  Fe83      1.0  0.25808  0.74897  0.88031  1.0000
  S   S166      1.0  0.25392  0.77807  0.89642  1.0000
  Fe  Fe84      1.0  0.23959  0.71552  0.86343  1.0000
  S   S167      1.0  0.20881  0.70285  0.86348  1.0000
  S   S168      1.0  0.29206  0.73627  0.86809  1.0000
  S   S169      1.0  0.27179  0.70026  0.84993  1.0000
  Fe  Fe85      1.0  0.32923  0.51399  0.87243  1.0000
  S   S170      1.0  0.34978  0.53135  0.84598  1.0000
  S   S171      1.0  0.29396  0.52658  0.87202  1.0000
  Fe  Fe86      1.0  0.37281  0.52779  0.86999  1.0000
  S   S172      1.0  0.38861  0.55424  0.87807  1.0000
  Fe  Fe87      1.0  0.36380  0.49875  0.83835  1.0000
  S   S173      1.0  0.35161  0.51171  0.89691  1.0000
  C   C702      1.0  0.22812  0.91999  0.75260  1.0000
  H   H1256     1.0  0.35876  0.72425  0.97503  1.0000
  H   H1257     1.0  0.17044  0.94528  0.90828  1.0000
  Fe  Fe88      1.0  0.25174  0.58866  0.76867  1.0000
  S   S174      1.0  0.21627  0.58764  0.77579  1.0000
  S   S175      1.0  0.27530  0.55935  0.77638  1.0000
  H   H1258     1.0  0.28762  0.60118  0.88416  1.0000
  H   H1259     1.0  0.39558  0.70269  0.98382  1.0000
  Fe  Fe89      1.0  0.21512  0.61965  0.78545  1.0000
  S   S176      1.0  0.19393  0.63031  0.81449  1.0000
  C   C703      1.0  0.20649  0.90709  0.78563  1.0000
  S   S177      1.0  0.25057  0.61949  0.78070  1.0000
  Fe  Fe90      1.0  0.21533  0.60444  0.74224  1.0000
  H   H1260     1.0  0.45428  0.51795  0.88921  1.0000
  S   S178      1.0  0.30149  0.83947  0.78095  1.0000
  H   H1261     1.0  0.24308  0.75669  0.97290  1.0000
  H   H1262     1.0  0.23864  0.50714  0.82621  1.0000
  C   C704      1.0  0.17914  0.93483  0.91990  1.0000
  C   C705      1.0  0.21049  0.94403  0.77783  1.0000
  C   C706      1.0  0.22327  0.94037  0.75830  1.0000
  H   H1263     1.0  0.24137  0.59095  0.89761  1.0000
  H   H1264     1.0  0.20676  0.95980  0.78206  1.0000
  H   H1265     1.0  0.31088  0.70737  0.95621  1.0000
  C   C707      1.0  0.16811  0.92214  0.93673  1.0000
  H   H1266     1.0  0.24382  0.96829  0.78624  1.0000
  C   C708      1.0  0.27197  0.69984  0.94900  1.0000
  H   H1267     1.0  0.26890  0.60827  0.90675  1.0000
  H   H1268     1.0  0.24749  0.64592  0.85891  1.0000
  C   C709      1.0  0.21229  0.92071  0.93384  1.0000
  C   C710      1.0  0.26574  0.71778  0.96314  1.0000
  C   C711      1.0  0.41360  0.49810  0.96287  1.0000
  C   C712      1.0  0.28804  0.53498  0.84550  1.0000
  C   C713      1.0  0.30206  0.52808  0.82799  1.0000
  C   C714      1.0  0.29783  0.53554  0.80698  1.0000
  C   C715      1.0  0.27965  0.55018  0.80316  1.0000
  C   C716      1.0  0.26512  0.55656  0.82062  1.0000
  C   C717      1.0  0.26922  0.54878  0.84173  1.0000
  H   H1269     1.0  0.31620  0.51683  0.83052  1.0000
  H   H1270     1.0  0.30894  0.53014  0.79362  1.0000
  H   H1271     1.0  0.25074  0.56740  0.81783  1.0000
  H   H1272     1.0  0.25792  0.55360  0.85515  1.0000
  H   H1273     1.0  0.29051  0.59300  0.85124  1.0000
  H   H1274     1.0  0.35168  0.62966  0.83767  1.0000
  S   S179      1.0  0.20651  0.84139  0.98681  1.0000
  C   C718      1.0  0.29669  0.76921  0.79868  1.0000
  C   C719      1.0  0.29291  0.78225  0.81467  1.0000
  C   C720      1.0  0.29478  0.80378  0.80920  1.0000
  C   C721      1.0  0.29955  0.81247  0.78769  1.0000
  C   C722      1.0  0.30294  0.79950  0.77173  1.0000
  C   C723      1.0  0.30201  0.77786  0.77728  1.0000
  H   H1275     1.0  0.28893  0.77568  0.83126  1.0000
  H   H1276     1.0  0.29250  0.81368  0.82162  1.0000
  H   H1277     1.0  0.30677  0.80603  0.75512  1.0000
  H   H1278     1.0  0.30528  0.76790  0.76491  1.0000
  C   C724      1.0  0.20586  0.68320  0.84855  1.0000
  C   C725      1.0  0.18663  0.67468  0.85327  1.0000
  C   C726      1.0  0.18319  0.65893  0.84226  1.0000
  C   C727      1.0  0.19882  0.65155  0.82614  1.0000
  C   C728      1.0  0.21816  0.66011  0.82111  1.0000
  C   C729      1.0  0.22172  0.67590  0.83241  1.0000
  H   H1279     1.0  0.17430  0.68023  0.86565  1.0000
  H   H1280     1.0  0.16831  0.65234  0.84637  1.0000
  H   H1281     1.0  0.23040  0.65436  0.80880  1.0000
  H   H1282     1.0  0.23660  0.68246  0.82867  1.0000
  C   C730      1.0  0.17912  0.90828  0.95194  1.0000
  C   C731      1.0  0.20130  0.90769  0.95045  1.0000
  H   H1283     1.0  0.32267  0.66137  0.85208  1.0000
  H   H1284     1.0  0.34136  0.66307  0.82753  1.0000
  H   H1285     1.0  0.20993  0.89744  0.96229  1.0000
  C   C732      1.0  0.20589  0.78518  0.95727  1.0000
  C   C733      1.0  0.20643  0.76814  0.94619  1.0000
  C   C734      1.0  0.22122  0.76561  0.92756  1.0000
  C   C735      1.0  0.23542  0.78024  0.91987  1.0000
  C   C736      1.0  0.23489  0.79724  0.93092  1.0000
  C   C737      1.0  0.22028  0.79962  0.94961  1.0000
  H   H1286     1.0  0.19535  0.75687  0.95202  1.0000
  H   H1287     1.0  0.22141  0.75253  0.91903  1.0000
  H   H1288     1.0  0.24599  0.80848  0.92516  1.0000
  H   H1289     1.0  0.22035  0.81253  0.95816  1.0000
  C   C738      1.0  0.38256  0.57510  0.94508  1.0000
  C   C739      1.0  0.36942  0.56109  0.94138  1.0000
  C   C740      1.0  0.37087  0.55485  0.92101  1.0000
  C   C741      1.0  0.38579  0.56219  0.90399  1.0000
  C   C742      1.0  0.39887  0.57633  0.90760  1.0000
  C   C743      1.0  0.39726  0.58277  0.92798  1.0000
  H   H1290     1.0  0.35797  0.55503  0.95442  1.0000
  H   H1291     1.0  0.36032  0.54440  0.91852  1.0000
  H   H1292     1.0  0.41051  0.58216  0.89464  1.0000
  H   H1293     1.0  0.40787  0.59312  0.93065  1.0000
  H   H1294     1.0  0.15092  0.92288  0.93785  1.0000
  C   C744      1.0  0.35299  0.68438  0.93649  1.0000
  C   C745      1.0  0.34460  0.66546  0.93923  1.0000
  C   C746      1.0  0.32802  0.66363  0.92812  1.0000
  C   C747      1.0  0.31992  0.68057  0.91378  1.0000
  C   C748      1.0  0.32822  0.69962  0.91091  1.0000
  C   C749      1.0  0.34475  0.70152  0.92228  1.0000
  H   H1295     1.0  0.35119  0.65197  0.94952  1.0000
  H   H1296     1.0  0.32172  0.64884  0.93040  1.0000
  H   H1297     1.0  0.32214  0.71274  0.89975  1.0000
  H   H1298     1.0  0.35122  0.71621  0.91999  1.0000
  H   H1299     1.0  0.36501  0.59732  0.82005  1.0000
  H   H1300     1.0  0.38383  0.57716  0.83243  1.0000
  H   H1301     1.0  0.26767  0.63374  0.87435  1.0000
  H   H1302     1.0  0.36030  0.59606  0.85948  1.0000
  H   H1303     1.0  0.43048  0.49113  0.89786  1.0000
  N   N40       1.0  0.17303  0.84769  0.91429  1.0000
  C   C750      1.0  0.16643  0.86560  0.89730  1.0000
  C   C751      1.0  0.18145  0.82805  0.90401  1.0000
  C   C752      1.0  0.15300  0.84340  0.92965  1.0000
  C   C753      1.0  0.18928  0.85268  0.92674  1.0000
  C   C754      1.0  0.20606  0.86669  0.91427  1.0000
  C   C755      1.0  0.15377  0.88574  0.90589  1.0000
  C   C756      1.0  0.15565  0.82453  0.94779  1.0000
  C   C757      1.0  0.20166  0.82881  0.88696  1.0000
  Fe  Fe91      1.0  0.29474  0.85210  0.74747  1.0000
  C   C758      1.0  0.22566  0.86421  0.92579  1.0000
  C   C759      1.0  0.15358  0.90508  0.88867  1.0000
  H   H1304     1.0  0.26733  0.94661  0.75993  1.0000
  H   H1305     1.0  0.15613  0.86044  0.88725  1.0000
  H   H1306     1.0  0.18040  0.87029  0.88588  1.0000
  H   H1307     1.0  0.18613  0.81454  0.91625  1.0000
  H   H1308     1.0  0.16854  0.82347  0.89668  1.0000
  H   H1309     1.0  0.14026  0.84088  0.92071  1.0000
  H   H1310     1.0  0.14633  0.85726  0.93806  1.0000
  H   H1311     1.0  0.18117  0.86092  0.94052  1.0000
  H   H1312     1.0  0.19797  0.83780  0.93432  1.0000
  H   H1313     1.0  0.19874  0.88351  0.91285  1.0000
  H   H1314     1.0  0.21195  0.86303  0.89789  1.0000
  H   H1315     1.0  0.13681  0.88341  0.91161  1.0000
  H   H1316     1.0  0.16062  0.88912  0.91955  1.0000
  H   H1317     1.0  0.16795  0.82655  0.95738  1.0000
  H   H1318     1.0  0.16028  0.80932  0.94141  1.0000
  H   H1319     1.0  0.19997  0.84268  0.87443  1.0000
  H   H1320     1.0  0.21585  0.82896  0.89486  1.0000
  H   H1321     1.0  0.21580  0.96727  0.97115  1.0000
  H   H1322     1.0  0.27085  0.50959  0.77166  1.0000
  S   S180      1.0  0.21034  0.63628  0.75283  1.0000
  H   H1323     1.0  0.23480  0.84815  0.92544  1.0000
  H   H1324     1.0  0.23631  0.87591  0.91774  1.0000
  H   H1325     1.0  0.22074  0.86682  0.94272  1.0000
  H   H1326     1.0  0.14275  0.91856  0.89500  1.0000
  H   H1327     1.0  0.16983  0.90972  0.88417  1.0000
  H   H1328     1.0  0.14778  0.90197  0.87420  1.0000
  H   H1329     1.0  0.18542  0.97798  0.92447  1.0000
  H   H1330     1.0  0.19618  0.95290  0.96521  1.0000
  H   H1331     1.0  0.22324  0.88763  0.76198  1.0000
  N   N41       1.0  0.36199  0.63970  0.86454  1.0000
  C   C760      1.0  0.38240  0.63751  0.87427  1.0000
  C   C761      1.0  0.36635  0.62799  0.84539  1.0000
  C   C762      1.0  0.35596  0.66282  0.85651  1.0000
  C   C763      1.0  0.34352  0.63213  0.88034  1.0000
  C   C764      1.0  0.34914  0.61394  0.89846  1.0000
  C   C765      1.0  0.38167  0.65209  0.89137  1.0000
  C   C766      1.0  0.32923  0.60445  0.90970  1.0000
  C   C767      1.0  0.39899  0.64424  0.90580  1.0000
  H   H1332     1.0  0.39603  0.64102  0.86155  1.0000
  H   H1333     1.0  0.38725  0.62105  0.88150  1.0000
  H   H1334     1.0  0.36999  0.66931  0.84638  1.0000
  H   H1335     1.0  0.35151  0.67204  0.87022  1.0000
  H   H1336     1.0  0.33436  0.64516  0.88875  1.0000
  H   H1337     1.0  0.33167  0.62743  0.87172  1.0000
  H   H1338     1.0  0.35614  0.61984  0.91072  1.0000
  H   H1339     1.0  0.36086  0.60104  0.89243  1.0000
  H   H1340     1.0  0.38411  0.66823  0.88340  1.0000
  H   H1341     1.0  0.36593  0.65329  0.90161  1.0000
  H   H1342     1.0  0.38794  0.60009  0.85800  1.0000
  H   H1343     1.0  0.31649  0.61684  0.91559  1.0000
  H   H1344     1.0  0.32312  0.59637  0.89846  1.0000
  H   H1345     1.0  0.33342  0.59266  0.92359  1.0000
  H   H1346     1.0  0.39855  0.65575  0.91698  1.0000
  H   H1347     1.0  0.39599  0.62895  0.91552  1.0000
  H   H1348     1.0  0.41514  0.64241  0.89614  1.0000
  H   H1349     1.0  0.17096  0.53294  0.74716  1.0000
  C   C768      1.0  0.27555  0.74463  0.98105  1.0000
  C   C769      1.0  0.26035  0.71728  0.75472  1.0000
  C   C770      1.0  0.25682  0.75438  0.75913  1.0000
  C   C771      1.0  0.28339  0.60794  0.84228  1.0000
  C   C772      1.0  0.26963  0.70840  0.77593  1.0000
  H   H1350     1.0  0.22927  0.95339  0.74750  1.0000
  H   H1351     1.0  0.39273  0.60126  0.81844  1.0000
  H   H1352     1.0  0.23350  0.66545  0.91313  1.0000
  C   C773      1.0  0.26480  0.68597  0.78396  1.0000
  C   C774      1.0  0.30346  0.71646  0.96951  1.0000
  C   C775      1.0  0.43644  0.69724  0.98665  1.0000
  H   H1353     1.0  0.28655  0.49015  0.81492  1.0000
  C   C776      1.0  0.29247  0.60764  0.81865  1.0000
  H   H1354     1.0  0.24003  0.75225  0.76613  1.0000
  H   H1355     1.0  0.26568  0.75147  0.77315  1.0000
  C   C777      1.0  0.24606  0.79199  0.76670  1.0000
  C   C778      1.0  0.26093  0.96227  0.78760  1.0000
  H   H1356     1.0  0.26228  0.71821  0.78864  1.0000
  H   H1357     1.0  0.28727  0.70794  0.77393  1.0000
  C   C779      1.0  0.33686  0.66852  0.84343  1.0000
  C   C780      1.0  0.37910  0.59446  0.82881  1.0000
  H   H1358     1.0  0.10837  0.97063  0.91301  1.0000
  H   H1359     1.0  0.19951  0.89429  0.79589  1.0000
  C   C781      1.0  0.21687  0.59396  0.86009  1.0000
  C   C782      1.0  0.28148  0.57544  0.90896  1.0000
  H   H1360     1.0  0.21664  0.96214  0.94422  1.0000
  C   C783      1.0  0.25866  0.60941  0.84577  1.0000
  H   H1361     1.0  0.27061  0.68033  0.79963  1.0000
  H   H1362     1.0  0.24726  0.68550  0.78606  1.0000
  H   H1363     1.0  0.27302  0.67516  0.77243  1.0000
  N   N42       1.0  0.24960  0.86511  0.82789  1.0000
  C   C784      1.0  0.26961  0.87483  0.81854  1.0000
  C   C785      1.0  0.25459  0.84623  0.84465  1.0000
  C   C786      1.0  0.24176  0.85738  0.80995  1.0000
  C   C787      1.0  0.23203  0.88101  0.83712  1.0000
  C   C788      1.0  0.23744  0.89201  0.85481  1.0000
  C   C789      1.0  0.26767  0.89259  0.79917  1.0000
  C   C790      1.0  0.22193  0.84555  0.81644  1.0000
  C   C791      1.0  0.27355  0.84610  0.85713  1.0000
  C   C792      1.0  0.27440  0.82774  0.87544  1.0000
  C   C793      1.0  0.21802  0.90684  0.86343  1.0000
  C   C794      1.0  0.28851  0.90210  0.79255  1.0000
  C   C795      1.0  0.21746  0.83620  0.79752  1.0000
  H   H1364     1.0  0.28256  0.86239  0.81314  1.0000
  H   H1365     1.0  0.27593  0.88127  0.83085  1.0000
  H   H1366     1.0  0.24008  0.84377  0.85655  1.0000
  H   H1367     1.0  0.25881  0.83146  0.83721  1.0000
  H   H1368     1.0  0.25505  0.84690  0.80161  1.0000
  H   H1369     1.0  0.23701  0.87070  0.79763  1.0000
  H   H1370     1.0  0.22643  0.89345  0.82427  1.0000
  H   H1371     1.0  0.21767  0.87339  0.84433  1.0000
  H   H1372     1.0  0.25062  0.90153  0.84859  1.0000
  H   H1373     1.0  0.24181  0.88030  0.86860  1.0000
  H   H1374     1.0  0.26480  0.88628  0.78494  1.0000
  H   H1375     1.0  0.25451  0.90544  0.80296  1.0000
  H   H1376     1.0  0.20739  0.85652  0.82147  1.0000
  H   H1377     1.0  0.22425  0.83246  0.82970  1.0000
  H   H1378     1.0  0.28901  0.84409  0.84627  1.0000
  H   H1379     1.0  0.27254  0.86083  0.86398  1.0000
  H   H1380     1.0  0.25942  0.82899  0.88707  1.0000
  H   H1381     1.0  0.27662  0.81250  0.86908  1.0000
  H   H1382     1.0  0.28813  0.82785  0.88403  1.0000
  H   H1383     1.0  0.21240  0.91889  0.85037  1.0000
  H   H1384     1.0  0.20477  0.89786  0.87093  1.0000
  H   H1385     1.0  0.22237  0.91495  0.87573  1.0000
  H   H1386     1.0  0.28724  0.91370  0.77785  1.0000
  H   H1387     1.0  0.29167  0.91021  0.80545  1.0000
  H   H1388     1.0  0.30221  0.88962  0.78892  1.0000
  H   H1389     1.0  0.20309  0.82804  0.80232  1.0000
  H   H1390     1.0  0.21450  0.84877  0.78384  1.0000
  H   H1391     1.0  0.23134  0.82457  0.79236  1.0000
  C   C796      1.0  0.43732  0.52230  0.88634  1.0000
  C   C797      1.0  0.37354  0.60395  0.84973  1.0000
  H   H1392     1.0  0.37869  0.63497  0.83306  1.0000
  S   S181      1.0  0.16434  0.89232  0.97248  1.0000
  H   H1393     1.0  0.25207  0.62232  0.83377  1.0000
  H   H1394     1.0  0.31754  0.69621  0.82885  1.0000
  C   C798      1.0  0.33036  0.69238  0.83925  1.0000
  H   H1395     1.0  0.28873  0.62145  0.84740  1.0000
  H   H1396     1.0  0.34420  0.70031  0.83097  1.0000
  Fe  Fe92      1.0  0.20189  0.96943  0.86901  1.0000
  H   H1397     1.0  0.12209  0.81960  0.95411  1.0000
  H   H1398     1.0  0.38753  0.49096  0.92167  1.0000
  H   H1399     1.0  0.18819  0.59075  0.88356  1.0000
  H   H1400     1.0  0.32418  0.69867  0.85457  1.0000
  H   H1401     1.0  0.23189  0.50744  0.77952  1.0000
  C   C799      1.0  0.27109  0.97991  0.74946  1.0000
  H   H1402     1.0  0.22940  0.92039  0.93304  1.0000
  C   C800      1.0  0.20181  0.92744  0.79141  1.0000
  C   C801      1.0  0.20577  0.96596  0.95894  1.0000
  N   N43       1.0  0.26599  0.73856  0.74399  1.0000
  C   C802      1.0  0.28534  0.48775  0.75014  1.0000
  H   H1403     1.0  0.21727  0.62742  0.85762  1.0000
  S   S182      1.0  0.26164  0.85173  0.74040  1.0000
  H   H1404     1.0  0.18944  0.70747  0.76246  1.0000
  H   H1405     1.0  0.45440  0.71119  0.95701  1.0000
  H   H1406     1.0  0.23546  0.62841  0.90649  1.0000
  H   H1407     1.0  0.25435  0.78837  0.78112  1.0000
  H   H1408     1.0  0.27678  0.70623  0.93203  1.0000
  H   H1409     1.0  0.24270  0.71775  0.75893  1.0000
  H   H1410     1.0  0.28656  0.62259  0.80886  1.0000
  S   S183      1.0  0.21543  0.95170  0.89884  1.0000
  H   H1411     1.0  0.44699  0.66520  0.96040  1.0000
  H   H1412     1.0  0.23250  0.54341  0.78685  1.0000
  H   H1413     1.0  0.20569  0.53896  0.78538  1.0000
  C   C803      1.0  0.30491  0.75836  0.94020  1.0000
  H   H1414     1.0  0.25182  0.72822  0.95684  1.0000
  H   H1415     1.0  0.43804  0.51092  0.92797  1.0000
  C   C804      1.0  0.21926  0.53454  0.79486  1.0000
  S   S184      1.0  0.18728  0.78785  0.98068  1.0000
  S   S185      1.0  0.21911  0.96296  0.83668  1.0000
  C   C805      1.0  0.24564  0.50435  0.80962  1.0000
  C   C806      1.0  0.22698  0.51096  0.79610  1.0000
  H   H1416     1.0  0.25750  0.51560  0.80454  1.0000
  H   H1417     1.0  0.21315  0.50262  0.80343  1.0000
  C   C807      1.0  0.45705  0.67811  0.95648  1.0000
  H   H1418     1.0  0.31930  0.78208  0.91681  1.0000
  H   H1419     1.0  0.24687  0.80872  0.75982  1.0000
  C   C808      1.0  0.28814  0.74314  0.94218  1.0000
  H   H1420     1.0  0.19355  0.80928  0.86562  1.0000
  C   C809      1.0  0.20618  0.80922  0.87566  1.0000
  H   H1421     1.0  0.43399  0.74164  0.95593  1.0000
  H   H1422     1.0  0.37042  0.74775  0.96316  1.0000
  H   H1423     1.0  0.23921  0.69876  0.94397  1.0000
  S   S186      1.0  0.36433  0.48695  0.80636  1.0000
  H   H1424     1.0  0.32106  0.74928  0.94164  1.0000
  H   H1425     1.0  0.21509  0.69537  0.75036  1.0000
  C   C810      1.0  0.22362  0.61298  0.86783  1.0000
  H   H1426     1.0  0.20682  0.79463  0.88749  1.0000
  N   N44       1.0  0.24736  0.61235  0.86799  1.0000
  H   H1427     1.0  0.37498  0.48313  0.97072  1.0000
  H   H1428     1.0  0.19311  0.68023  0.75884  1.0000
  N   N45       1.0  0.28325  0.73050  0.96397  1.0000
  H   H1429     1.0  0.31578  0.72610  0.97116  1.0000
  H   H1430     1.0  0.16556  0.97284  0.94686  1.0000
  C   C811      1.0  0.44362  0.76725  0.96749  1.0000
  C   C812      1.0  0.25720  0.76283  0.97621  1.0000
  H   H1431     1.0  0.26171  0.94696  0.79832  1.0000
  C   C813      1.0  0.42161  0.51011  0.92468  1.0000
  H   H1432     1.0  0.22193  0.80887  0.86524  1.0000
  C   C814      1.0  0.25071  0.63349  0.87272  1.0000
  H   H1433     1.0  0.27347  0.78154  0.74534  1.0000
  H   H1434     1.0  0.28905  0.75163  0.98474  1.0000
  H   H1435     1.0  0.43022  0.70211  0.95292  1.0000
  H   H1436     1.0  0.22064  0.59515  0.84237  1.0000
  H   H1437     1.0  0.30084  0.76893  0.95265  1.0000
  H   H1438     1.0  0.30225  0.48376  0.84924  1.0000
  H   H1439     1.0  0.22526  0.57880  0.86733  1.0000
  H   H1440     1.0  0.26802  0.56965  0.92054  1.0000
  C   C815      1.0  0.42328  0.50724  0.90081  1.0000
  H   H1441     1.0  0.18819  0.58060  0.85895  1.0000
  H   H1442     1.0  0.28835  0.56335  0.89833  1.0000
  H   H1443     1.0  0.28540  0.68813  0.95443  1.0000
  C   C816      1.0  0.25311  0.68792  0.94972  1.0000
  H   H1444     1.0  0.41236  0.52605  0.92591  1.0000
  Fe  Fe93      1.0  0.38271  0.65774  0.97422  1.0000
  H   H1445     1.0  0.38027  0.51155  0.93735  1.0000
  Fe  Fe94      1.0  0.18665  0.96112  0.82911  1.0000
  H   H1446     1.0  0.38474  0.52171  0.96774  1.0000
  C   C817      1.0  0.23637  0.64126  0.89275  1.0000
  C   C818      1.0  0.38843  0.49505  0.93769  1.0000
  H   H1447     1.0  0.29068  0.95398  0.76765  1.0000
  H   H1448     1.0  0.46075  0.76018  0.96688  1.0000
  C   C819      1.0  0.30633  0.77224  0.91841  1.0000
  H   H1449     1.0  0.25795  0.67551  0.93912  1.0000
  H   H1450     1.0  0.27317  0.75225  0.93670  1.0000
  H   H1451     1.0  0.25924  0.71077  0.97953  1.0000
  Fe  Fe95      1.0  0.38768  0.61010  0.98412  1.0000
  H   H1452     1.0  0.29408  0.57756  0.91814  1.0000
  H   H1453     1.0  0.22137  0.51964  0.74256  1.0000
  C   C820      1.0  0.24468  0.65951  0.89950  1.0000
  C   C821      1.0  0.21993  0.90329  0.76647  1.0000
  C   C822      1.0  0.44387  0.69881  0.96222  1.0000
  Fe  Fe96      1.0  0.24604  0.63444  0.74710  1.0000
  H   H1454     1.0  0.44169  0.77805  0.95233  1.0000
  S   S187      1.0  0.39047  0.49778  0.85797  1.0000
  H   H1455     1.0  0.40431  0.72418  0.96636  1.0000
  C   C823      1.0  0.25470  0.59414  0.88441  1.0000
  H   H1456     1.0  0.47104  0.67371  0.96540  1.0000
  H   H1457     1.0  0.40711  0.51056  0.89575  1.0000
  S   S188      1.0  0.16962  0.96591  0.86207  1.0000
  C   C824      1.0  0.13458  0.82282  0.96285  1.0000
  C   C825      1.0  0.19745  0.69595  0.75160  1.0000
  H   H1458     1.0  0.25558  0.59458  0.84118  1.0000
  H   H1459     1.0  0.22894  0.78986  0.77145  1.0000
  H   H1460     1.0  0.18693  0.56496  0.74874  1.0000
  H   H1461     1.0  0.26339  0.49792  0.84794  1.0000
  C   C826      1.0  0.19273  0.59350  0.86590  1.0000
  C   C827      1.0  0.42933  0.75008  0.97001  1.0000
  C   C828      1.0  0.27381  0.59632  0.89568  1.0000
  H   H1462     1.0  0.34461  0.50166  0.95050  1.0000
  H   H1463     1.0  0.28780  0.59421  0.81261  1.0000
  H   H1464     1.0  0.46300  0.67979  0.93905  1.0000
  H   H1465     1.0  0.25892  0.57936  0.87705  1.0000
  H   H1466     1.0  0.24824  0.68027  0.96627  1.0000
  H   H1467     1.0  0.43089  0.49710  0.96441  1.0000
  H   H1468     1.0  0.26077  0.65432  0.90457  1.0000
  H   H1469     1.0  0.26567  0.70544  0.74344  1.0000
  C   C829      1.0  0.35123  0.48476  0.95037  1.0000
  H   H1470     1.0  0.31025  0.60581  0.81665  1.0000
  H   H1471     1.0  0.24569  0.67265  0.88603  1.0000
  H   H1472     1.0  0.18363  0.60862  0.85933  1.0000
  H   H1473     1.0  0.29454  0.73251  0.92995  1.0000
  C   C830      1.0  0.27362  0.95932  0.76561  1.0000
  H   H1474     1.0  0.21462  0.61412  0.88415  1.0000
  H   H1475     1.0  0.12882  0.83756  0.96997  1.0000
  H   H1476     1.0  0.29681  0.73903  0.75393  1.0000
  H   H1477     1.0  0.43653  0.52140  0.86929  1.0000
  H   H1478     1.0  0.30990  0.76245  0.90520  1.0000
  H   H1479     1.0  0.41260  0.75804  0.96954  1.0000
  C   C831      1.0  0.40087  0.71816  0.98364  1.0000
  H   H1480     1.0  0.29433  0.49270  0.77960  1.0000
  H   H1481     1.0  0.40920  0.53295  0.95844  1.0000
  N   N46       1.0  0.41153  0.49359  0.94091  1.0000
  C   C832      1.0  0.25688  0.77795  0.74994  1.0000
  C   C833      1.0  0.40211  0.51974  0.96891  1.0000
  H   H1482     1.0  0.13713  0.80962  0.97605  1.0000
  H   H1483     1.0  0.27078  0.48927  0.74227  1.0000
  H   H1484     1.0  0.43910  0.77661  0.98101  1.0000
  C   C834      1.0  0.11961  0.98218  0.90642  1.0000
  H   H1485     1.0  0.24723  0.52647  0.74444  1.0000
  C   C835      1.0  0.27925  0.49319  0.77292  1.0000
  H   H1486     1.0  0.22406  0.54647  0.74406  1.0000
  H   H1487     1.0  0.26769  0.97352  0.79501  1.0000
  H   H1488     1.0  0.29608  0.49872  0.74057  1.0000
  H   H1489     1.0  0.32758  0.67712  0.98102  1.0000
  H   H1490     1.0  0.13005  0.97663  0.89219  1.0000
  C   C836      1.0  0.29025  0.73669  0.73956  1.0000
  H   H1491     1.0  0.19545  0.48588  0.75423  1.0000
  C   C837      1.0  0.36405  0.73862  0.97848  1.0000
  H   H1492     1.0  0.34991  0.74845  0.98620  1.0000
  C   C838      1.0  0.79408  0.06182  0.22729  1.0000
  H   H1493     1.0  0.81400  0.17388  0.04418  1.0000
  S   S189      1.0  0.69655  0.44940  0.08577  1.0000
  H   H1494     1.0  0.65227  0.41142  0.13833  1.0000
  C   C839      1.0  0.72346  0.26764  0.19051  1.0000
  H   H1495     1.0  0.69694  0.25189  0.14340  1.0000
  H   H1496     1.0  0.67407  0.23067  0.11576  1.0000
  Fe  Fe97      1.0  0.85430  0.02727  0.12552  1.0000
  S   S190      1.0  0.86815  0.03380  0.15349  1.0000
  S   S191      1.0  0.84410  0.05247  0.09821  1.0000
  H   H1497     1.0  0.68444  0.24867  0.07695  1.0000
  H   H1498     1.0  0.69150  0.25723  0.01787  1.0000
  Fe  Fe98      1.0  0.83915  0.02213  0.17401  1.0000
  C   C840      1.0  0.88708  0.14780  0.07523  1.0000
  H   H1499     1.0  0.70620  0.27080  0.03158  1.0000
  S   S192      1.0  0.82483  0.01672  0.14602  1.0000
  Fe  Fe99      1.0  0.85625  0.18686  0.99992  1.0000
  S   S193      1.0  0.84524  0.15524  0.00347  1.0000
  S   S194      1.0  0.83222  0.21304  0.01287  1.0000
  S   S195      1.0  0.79573  0.35289  0.22105  1.0000
  C   C841      1.0  0.84099  0.15842  0.12167  1.0000
  H   H1500     1.0  0.93268  0.11726  0.99673  1.0000
  C   C842      1.0  0.69263  0.32928  0.13764  1.0000
  H   H1501     1.0  0.76925  0.18835  0.06684  1.0000
  Fe  Fe100     1.0  0.87975  0.14198  0.00616  1.0000
  S   S196      1.0  0.89512  0.11630  0.03005  1.0000
  C   C843      1.0  0.72133  0.46898  0.20448  1.0000
  S   S197      1.0  0.89009  0.17369  0.00497  1.0000
  Fe  Fe101     1.0  0.76016  0.29235  0.13743  1.0000
  S   S198      1.0  0.73250  0.27916  0.12933  1.0000
  S   S199      1.0  0.74755  0.31900  0.15713  1.0000
  Fe  Fe102     1.0  0.79302  0.26116  0.11357  1.0000
  S   S200      1.0  0.76756  0.24614  0.10445  1.0000
  S   S201      1.0  0.82651  0.24575  0.10221  1.0000
  Fe  Fe103     1.0  0.75117  0.27903  0.09660  1.0000
  S   S202      1.0  0.73990  0.28853  0.06430  1.0000
  Fe  Fe104     1.0  0.75160  0.24761  0.13800  1.0000
  S   S203      1.0  0.73592  0.22012  0.15651  1.0000
  S   S204      1.0  0.77772  0.29437  0.10366  1.0000
  S   S205      1.0  0.77810  0.26059  0.14822  1.0000
  Fe  Fe105     1.0  0.64155  0.39573  0.00976  1.0000
  S   S206      1.0  0.61569  0.37490  0.01864  1.0000
  H   H1502     1.0  0.86505  0.17500  0.08410  1.0000
  C   C844      1.0  0.76423  0.45360  0.11724  1.0000
  C   C845      1.0  0.83392  0.16378  0.06941  1.0000
  Fe  Fe106     1.0  0.64303  0.34821  0.01858  1.0000
  S   S207      1.0  0.64490  0.32230  0.04681  1.0000
  S   S208      1.0  0.66871  0.36910  0.01156  1.0000
  C   C846      1.0  0.71350  0.29995  0.06102  1.0000
  C   C847      1.0  0.69625  0.29740  0.07739  1.0000
  C   C848      1.0  0.67512  0.30442  0.07306  1.0000
  C   C849      1.0  0.67130  0.31441  0.05255  1.0000
  C   C850      1.0  0.68863  0.31747  0.03649  1.0000
  C   C851      1.0  0.70962  0.31025  0.04074  1.0000
  H   H1503     1.0  0.69918  0.28943  0.09309  1.0000
  H   H1504     1.0  0.66172  0.30203  0.08553  1.0000
  H   H1505     1.0  0.68587  0.32478  0.02055  1.0000
  H   H1506     1.0  0.72291  0.31225  0.02811  1.0000
  H   H1507     1.0  0.68257  0.32729  0.10731  1.0000
  C   C852      1.0  0.68519  0.24197  0.14104  1.0000
  H   H1508     1.0  0.69557  0.16369  0.06130  1.0000
  C   C853      1.0  0.82585  0.26635  0.20060  1.0000
  C   C854      1.0  0.83149  0.22174  0.03771  1.0000
  C   C855      1.0  0.84792  0.21506  0.05038  1.0000
  C   C856      1.0  0.84657  0.22274  0.07001  1.0000
  C   C857      1.0  0.82868  0.23689  0.07713  1.0000
  C   C858      1.0  0.81252  0.24373  0.06422  1.0000
  C   C859      1.0  0.81389  0.23615  0.04467  1.0000
  H   H1509     1.0  0.86173  0.20426  0.04488  1.0000
  H   H1510     1.0  0.85941  0.21782  0.07963  1.0000
  H   H1511     1.0  0.79916  0.25532  0.06900  1.0000
  H   H1512     1.0  0.80131  0.24168  0.03479  1.0000
  H   H1513     1.0  0.70226  0.48221  0.17948  1.0000
  H   H1514     1.0  0.89762  0.13456  0.08328  1.0000
  H   H1515     1.0  0.75811  0.29267  0.22260  1.0000
  S   S209      1.0  0.65315  0.48113  0.12741  1.0000
  H   H1516     1.0  0.69230  0.40300  0.10502  1.0000
  C   C860      1.0  0.77110  0.20909  0.17746  1.0000
  C   C861      1.0  0.74965  0.20702  0.17769  1.0000
  H   H1517     1.0  0.68151  0.25680  0.10927  1.0000
  C   C862      1.0  0.95964  0.09909  0.02233  1.0000
  H   H1518     1.0  0.91106  0.16895  0.07124  1.0000
  H   H1519     1.0  0.77962  0.21781  0.16380  1.0000
  C   C863      1.0  0.77103  0.18800  0.21256  1.0000
  H   H1520     1.0  0.83356  0.24981  0.19990  1.0000
  C   C864      1.0  0.88067  0.09898  0.04924  1.0000
  C   C865      1.0  0.85849  0.09983  0.05055  1.0000
  C   C866      1.0  0.84761  0.08556  0.06576  1.0000
  C   C867      1.0  0.85873  0.07028  0.07980  1.0000
  C   C868      1.0  0.88088  0.06966  0.07873  1.0000
  C   C869      1.0  0.89177  0.08399  0.06353  1.0000
  H   H1521     1.0  0.84978  0.11125  0.03961  1.0000
  H   H1522     1.0  0.83049  0.08611  0.06643  1.0000
  H   H1523     1.0  0.88962  0.05799  0.08944  1.0000
  H   H1524     1.0  0.90893  0.08325  0.06265  1.0000
  H   H1525     1.0  0.69461  0.30193  0.16211  1.0000
  H   H1526     1.0  0.84873  0.16489  0.05770  1.0000
  H   H1527     1.0  0.71035  0.25653  0.06987  1.0000
  S   S210      1.0  0.87112  0.99367  0.12652  1.0000
  H   H1528     1.0  0.71436  0.11353  0.21482  1.0000
  H   H1529     1.0  0.72900  0.05657  0.23634  1.0000
  C   C870      1.0  0.76119  0.32675  0.17579  1.0000
  C   C871      1.0  0.74935  0.33868  0.19133  1.0000
  C   C872      1.0  0.75967  0.34614  0.20577  1.0000
  C   C873      1.0  0.78200  0.34225  0.20441  1.0000
  C   C874      1.0  0.79382  0.32999  0.18913  1.0000
  C   C875      1.0  0.78346  0.32218  0.17490  1.0000
  H   H1530     1.0  0.73210  0.34225  0.19216  1.0000
  H   H1531     1.0  0.81111  0.32678  0.18806  1.0000
  H   H1532     1.0  0.79276  0.31311  0.16291  1.0000
  C   C876      1.0  0.67936  0.44127  0.07057  1.0000
  C   C877      1.0  0.68816  0.42872  0.05446  1.0000
  C   C878      1.0  0.67498  0.42286  0.04144  1.0000
  C   C879      1.0  0.65290  0.42984  0.04418  1.0000
  C   C880      1.0  0.64404  0.44183  0.06074  1.0000
  C   C881      1.0  0.65716  0.44710  0.07417  1.0000
  H   H1533     1.0  0.70531  0.42385  0.05176  1.0000
  H   H1534     1.0  0.68201  0.41357  0.02880  1.0000
  H   H1535     1.0  0.71160  0.37573  0.09140  1.0000
  H   H1536     1.0  0.65022  0.45562  0.08737  1.0000
  C   C882      1.0  0.68608  0.46023  0.20304  1.0000
  C   C883      1.0  0.68617  0.24055  0.11727  1.0000
  H   H1537     1.0  0.66262  0.33975  0.12548  1.0000
  C   C884      1.0  0.87102  0.15916  0.09212  1.0000
  H   H1538     1.0  0.75021  0.26492  0.00969  1.0000
  H   H1539     1.0  0.76031  0.44233  0.10766  1.0000
  C   C885      1.0  0.68964  0.17512  0.07282  1.0000
  H   H1540     1.0  0.81739  0.18341  0.10811  1.0000
  H   H1541     1.0  0.73186  0.25078  0.00123  1.0000
  N   N47       1.0  0.76637  0.41389  0.17046  1.0000
  C   C886      1.0  0.78627  0.39891  0.16397  1.0000
  C   C887      1.0  0.77062  0.42671  0.18668  1.0000
  C   C888      1.0  0.74923  0.40056  0.18103  1.0000
  C   C889      1.0  0.75809  0.42809  0.15150  1.0000
  C   C890      1.0  0.77380  0.44195  0.13705  1.0000
  C   C891      1.0  0.78389  0.38337  0.14879  1.0000
  C   C892      1.0  0.72829  0.41221  0.19222  1.0000
  C   C893      1.0  0.79348  0.43306  0.18404  1.0000
  N   N48       1.0  0.71073  0.22452  0.08545  1.0000
  H   H1542     1.0  0.95116  0.08718  0.01796  1.0000
  C   C894      1.0  0.80552  0.37060  0.14177  1.0000
  C   C895      1.0  0.71165  0.39725  0.20032  1.0000
  H   H1543     1.0  0.79198  0.38919  0.17860  1.0000
  H   H1544     1.0  0.79972  0.40748  0.15612  1.0000
  H   H1545     1.0  0.75862  0.44123  0.18714  1.0000
  H   H1546     1.0  0.76832  0.41782  0.20318  1.0000
  H   H1547     1.0  0.75573  0.38817  0.19344  1.0000
  H   H1548     1.0  0.74429  0.39223  0.16918  1.0000
  H   H1549     1.0  0.75200  0.41881  0.14124  1.0000
  H   H1550     1.0  0.74393  0.43936  0.15695  1.0000
  H   H1551     1.0  0.78914  0.43249  0.13138  1.0000
  C   C896      1.0  0.76129  0.27973  0.23601  1.0000
  H   H1552     1.0  0.77312  0.37186  0.15702  1.0000
  H   H1553     1.0  0.77747  0.39186  0.13416  1.0000
  H   H1554     1.0  0.72088  0.42550  0.18137  1.0000
  H   H1555     1.0  0.73170  0.41832  0.20624  1.0000
  H   H1556     1.0  0.80495  0.41909  0.18935  1.0000
  H   H1557     1.0  0.95522  0.14371  0.02254  1.0000
  Fe  Fe107     1.0  0.84275  0.98425  0.14989  1.0000
  H   H1558     1.0  0.93474  0.17928  0.02237  1.0000
  H   H1559     1.0  0.77593  0.46319  0.10701  1.0000
  H   H1560     1.0  0.83040  0.12153  0.20403  1.0000
  H   H1561     1.0  0.55993  0.35428  0.99644  1.0000
  H   H1562     1.0  0.66500  0.40410  0.10069  1.0000
  H   H1563     1.0  0.81270  0.36189  0.15595  1.0000
  H   H1564     1.0  0.80321  0.35895  0.13176  1.0000
  H   H1565     1.0  0.81675  0.38109  0.13219  1.0000
  H   H1566     1.0  0.71794  0.38392  0.21192  1.0000
  H   H1567     1.0  0.69694  0.40586  0.20854  1.0000
  H   H1568     1.0  0.70723  0.39099  0.18676  1.0000
  C   C897      1.0  0.77003  0.19617  0.08082  1.0000
  C   C898      1.0  0.68733  0.44670  0.22243  1.0000
  Fe  Fe108     1.0  0.68603  0.47340  0.10922  1.0000
  H   H1569     1.0  0.77849  0.21013  0.07519  1.0000
  H   H1570     1.0  0.77955  0.18505  0.09199  1.0000
  C   C899      1.0  0.66852  0.41403  0.13005  1.0000
  C   C900      1.0  0.97547  0.10755  0.00279  1.0000
  H   H1571     1.0  0.61738  0.47277  0.01503  1.0000
  H   H1572     1.0  0.94718  0.11160  0.02818  1.0000
  H   H1573     1.0  0.91672  0.08613  0.99629  1.0000
  C   C901      1.0  0.81486  0.12755  0.21315  1.0000
  H   H1574     1.0  0.82148  0.14573  0.04960  1.0000
  S   S211      1.0  0.78460  0.17811  0.23463  1.0000
  C   C902      1.0  0.76321  0.23364  0.00363  1.0000
  C   C903      1.0  0.73255  0.26135  0.21167  1.0000
  H   H1575     1.0  0.76141  0.22195  0.99342  1.0000
  H   H1576     1.0  0.66890  0.24918  0.14750  1.0000
  H   H1577     1.0  0.69097  0.34026  0.14953  1.0000
  H   H1578     1.0  0.83988  0.40265  0.23161  1.0000
  H   H1579     1.0  0.76164  0.10019  0.22136  1.0000
  S   S212      1.0  0.74687  0.45079  0.23472  1.0000
  C   C904      1.0  0.97145  0.08844  0.04105  1.0000
  H   H1580     1.0  0.83912  0.42473  0.21047  1.0000
  S   S213      1.0  0.91666  0.98585  0.16329  1.0000
  H   H1581     1.0  0.84595  0.07928  0.14183  1.0000
  C   C905      1.0  0.84622  0.11139  0.12574  1.0000
  H   H1582     1.0  0.75894  0.22702  0.02067  1.0000
  H   H1583     1.0  0.66769  0.31244  0.15710  1.0000
  H   H1584     1.0  0.70583  0.26773  0.19339  1.0000
  C   C906      1.0  0.67614  0.39966  0.11279  1.0000
  C   C907      1.0  0.78168  0.19980  0.19492  1.0000
  C   C908      1.0  0.74855  0.25434  0.99831  1.0000
  C   C909      1.0  0.67992  0.33889  0.11880  1.0000
  H   H1585     1.0  0.79143  0.29185  0.23635  1.0000
  H   H1586     1.0  0.71484  0.21803  0.11900  1.0000
  H   H1587     1.0  0.79091  0.44418  0.21483  1.0000
  H   H1588     1.0  0.72681  0.28366  0.18309  1.0000
  H   H1589     1.0  0.73451  0.47752  0.19729  1.0000
  C   C910      1.0  0.94544  0.17495  0.00775  1.0000
  H   H1590     1.0  0.68728  0.16620  0.08922  1.0000
  H   H1591     1.0  0.96117  0.18024  0.00743  1.0000
  H   H1592     1.0  0.82165  0.14265  0.09704  1.0000
  H   H1593     1.0  0.67986  0.41119  0.14200  1.0000
  C   C911      1.0  0.67663  0.37616  0.12266  1.0000
  H   H1594     1.0  0.85189  0.15728  0.13390  1.0000
  H   H1595     1.0  0.66022  0.37404  0.13096  1.0000
  C   C912      1.0  0.81324  0.05135  0.21758  1.0000
  N   N49       1.0  0.77573  0.11494  0.17735  1.0000
  C   C913      1.0  0.75451  0.11994  0.19124  1.0000
  C   C914      1.0  0.77765  0.13128  0.15754  1.0000
  C   C915      1.0  0.77607  0.09386  0.17012  1.0000
  C   C916      1.0  0.79451  0.11308  0.18942  1.0000
  C   C917      1.0  0.79720  0.13279  0.19880  1.0000
  C   C918      1.0  0.74896  0.10336  0.21093  1.0000
  C   C919      1.0  0.79567  0.08668  0.15373  1.0000
  C   C920      1.0  0.76710  0.15431  0.15967  1.0000
  C   C921      1.0  0.77079  0.16847  0.13820  1.0000
  H   H1596     1.0  0.51496  0.38059  0.00077  1.0000
  H   H1597     1.0  0.84694  0.04183  0.21916  1.0000
  C   C922      1.0  0.79186  0.06797  0.14395  1.0000
  H   H1598     1.0  0.74122  0.12208  0.18142  1.0000
  H   H1599     1.0  0.75342  0.13516  0.19736  1.0000
  H   H1600     1.0  0.79484  0.13174  0.15086  1.0000
  H   H1601     1.0  0.77013  0.12681  0.14469  1.0000
  H   H1602     1.0  0.76117  0.09386  0.16315  1.0000
  H   H1603     1.0  0.77620  0.08096  0.18392  1.0000
  H   H1604     1.0  0.79406  0.09967  0.20260  1.0000
  H   H1605     1.0  0.80984  0.10905  0.17888  1.0000
  H   H1606     1.0  0.78233  0.13913  0.20862  1.0000
  H   H1607     1.0  0.80213  0.14523  0.18570  1.0000
  H   H1608     1.0  0.74694  0.08835  0.20594  1.0000
  H   H1609     1.0  0.74159  0.17583  0.22605  1.0000
  H   H1610     1.0  0.81011  0.08159  0.16190  1.0000
  H   H1611     1.0  0.79928  0.09925  0.14028  1.0000
  H   H1612     1.0  0.74946  0.15531  0.16429  1.0000
  H   H1613     1.0  0.77352  0.16088  0.17179  1.0000
  H   H1614     1.0  0.78807  0.16726  0.13179  1.0000
  H   H1615     1.0  0.76204  0.16396  0.12642  1.0000
  H   H1616     1.0  0.76480  0.18513  0.14022  1.0000
  C   C923      1.0  0.54553  0.36241  0.00565  1.0000
  S   S214      1.0  0.81210  0.03968  0.19491  1.0000
  H   H1617     1.0  0.68867  0.22604  0.15024  1.0000
  H   H1618     1.0  0.76169  0.27284  0.19583  1.0000
  H   H1619     1.0  0.74212  0.23377  0.07416  1.0000
  H   H1620     1.0  0.53836  0.35077  0.01837  1.0000
  H   H1621     1.0  0.77819  0.07244  0.13463  1.0000
  H   H1622     1.0  0.80640  0.06274  0.13292  1.0000
  H   H1623     1.0  0.78855  0.05457  0.15665  1.0000
  H   H1624     1.0  0.55078  0.37441  0.01338  1.0000
  Fe  Fe109     1.0  0.88285  0.99927  0.15612  1.0000
  C   C924      1.0  0.84559  0.41808  0.22564  1.0000
  C   C925      1.0  0.75740  0.25932  0.20809  1.0000
  H   H1625     1.0  0.93809  0.18338  0.99356  1.0000
  H   H1626     1.0  0.66769  0.43077  0.12261  1.0000
  H   H1627     1.0  0.81495  0.20776  0.13354  1.0000
  H   H1628     1.0  0.84343  0.13109  0.07987  1.0000
  C   C926      1.0  0.81654  0.16036  0.05708  1.0000
  H   H1629     1.0  0.73066  0.25629  0.17924  1.0000
  N   N50       1.0  0.85270  0.14752  0.10305  1.0000
  H   H1630     1.0  0.86685  0.08205  0.11956  1.0000
  C   C927      1.0  0.67376  0.36545  0.08764  1.0000
  C   C928      1.0  0.70848  0.36028  0.10078  1.0000
  C   C929      1.0  0.72013  0.34328  0.08677  1.0000
  C   C930      1.0  0.74427  0.34397  0.08249  1.0000
  C   C931      1.0  0.63953  0.37470  0.07077  1.0000
  H   H1631     1.0  0.67921  0.35304  0.07706  1.0000
  H   H1632     1.0  0.67848  0.38020  0.07776  1.0000
  H   H1633     1.0  0.71680  0.35867  0.11511  1.0000
  H   H1634     1.0  0.71777  0.32717  0.09464  1.0000
  H   H1635     1.0  0.71431  0.34592  0.07099  1.0000
  H   H1636     1.0  0.75220  0.33179  0.07232  1.0000
  H   H1637     1.0  0.74772  0.35963  0.07395  1.0000
  H   H1638     1.0  0.75114  0.34067  0.09778  1.0000
  C   C932      1.0  0.86226  0.12567  0.11227  1.0000
  H   H1639     1.0  0.64626  0.36381  0.05891  1.0000
  H   H1640     1.0  0.62185  0.37515  0.07379  1.0000
  H   H1641     1.0  0.68847  0.22914  0.04758  1.0000
  H   H1642     1.0  0.77683  0.45424  0.14587  1.0000
  C   C933      1.0  0.83759  0.14538  0.08789  1.0000
  H   H1643     1.0  0.67399  0.18387  0.06884  1.0000
  H   H1644     1.0  0.71636  0.23280  0.03964  1.0000
  H   H1645     1.0  0.87853  0.14128  0.06468  1.0000
  C   C934      1.0  0.79176  0.25353  0.22152  1.0000
  H   H1646     1.0  0.68675  0.37362  0.13571  1.0000
  H   H1647     1.0  0.83597  0.46206  0.22117  1.0000
  S   S215      1.0  0.66369  0.46241  0.18947  1.0000
  H   H1648     1.0  0.64168  0.37873  0.10284  1.0000
  S   S216      1.0  0.63599  0.42493  0.02668  1.0000
  H   H1649     1.0  0.98548  0.09331  0.99701  1.0000
  H   H1650     1.0  0.67824  0.26858  0.04127  1.0000
  H   H1651     1.0  0.83709  0.19248  0.14570  1.0000
  C   C935      1.0  0.85780  0.08959  0.13331  1.0000
  C   C936      1.0  0.73916  0.19454  0.19499  1.0000
  H   H1652     1.0  0.88047  0.16218  0.10420  1.0000
  H   H1653     1.0  0.87462  0.12666  0.12238  1.0000
  H   H1654     1.0  0.70994  0.32537  0.13175  1.0000
  H   H1655     1.0  0.72260  0.19272  0.19515  1.0000
  H   H1656     1.0  0.83231  0.27637  0.18592  1.0000
  H   H1657     1.0  0.81684  0.14194  0.21942  1.0000
  H   H1658     1.0  0.84325  0.19158  0.10719  1.0000
  H   H1659     1.0  0.79448  0.28468  0.20219  1.0000
  H   H1660     1.0  0.64383  0.35178  0.09835  1.0000
  C   C937      1.0  0.70900  0.23147  0.10721  1.0000
  H   H1661     1.0  0.91290  0.15387  0.04953  1.0000
  H   H1662     1.0  0.97939  0.09997  0.04683  1.0000
  H   H1663     1.0  0.72139  0.18063  0.07425  1.0000
  H   H1664     1.0  0.73959  0.18844  0.09791  1.0000
  H   H1665     1.0  0.75036  0.35519  0.21775  1.0000
  H   H1666     1.0  0.98366  0.07518  0.03619  1.0000
  H   H1667     1.0  0.72743  0.24595  0.21908  1.0000
  C   C938      1.0  0.94815  0.15111  0.00790  1.0000
  H   H1668     1.0  0.77943  0.06251  0.22069  1.0000
  H   H1669     1.0  0.71957  0.24369  0.10648  1.0000
  C   C939      1.0  0.74986  0.18499  0.21245  1.0000
  H   H1670     1.0  0.79591  0.23706  0.21774  1.0000
  H   H1671     1.0  0.69248  0.02165  0.23535  1.0000
  H   H1672     1.0  0.81203  0.18215  0.14848  1.0000
  H   H1673     1.0  0.72876  0.12587  0.23027  1.0000
  H   H1674     1.0  0.93199  0.14663  0.00893  1.0000
  C   C940      1.0  0.74747  0.20268  0.09224  1.0000
  C   C941      1.0  0.70590  0.19030  0.07122  1.0000
  H   H1675     1.0  0.82715  0.15045  0.12979  1.0000
  C   C942      1.0  0.64892  0.36733  0.09164  1.0000
  H   H1676     1.0  0.82910  0.17918  0.07522  1.0000
  H   H1677     1.0  0.71231  0.28200  0.98970  1.0000
  H   H1678     1.0  0.83807  0.11794  0.14040  1.0000
  H   H1679     1.0  0.86909  0.09067  0.14443  1.0000
  C   C943      1.0  0.68456  0.30902  0.14942  1.0000
  H   H1680     1.0  0.82994  0.27195  0.21472  1.0000
  H   H1681     1.0  0.74927  0.20922  0.10668  1.0000
  H   H1682     1.0  0.68777  0.98490  0.23587  1.0000
  H   H1683     1.0  0.68113  0.21196  0.08717  1.0000
  C   C944      1.0  0.69366  0.26038  0.03380  1.0000
  C   C945      1.0  0.69848  0.20610  0.08771  1.0000
  C   C946      1.0  0.82338  0.19152  0.13742  1.0000
  H   H1684     1.0  0.79948  0.43892  0.16728  1.0000
  C   C947      1.0  0.70056  0.23961  0.04753  1.0000
  H   H1685     1.0  0.74948  0.46447  0.12197  1.0000
  H   H1686     1.0  0.73668  0.21363  0.06148  1.0000
  H   H1687     1.0  0.69909  0.19644  0.10378  1.0000
  H   H1688     1.0  0.79815  0.20190  0.19482  1.0000
  C   C948      1.0  0.83138  0.18191  0.11673  1.0000
  H   H1689     1.0  0.64314  0.39072  0.06394  1.0000
  H   H1690     1.0  0.68555  0.29745  0.13819  1.0000
  H   H1691     1.0  0.72527  0.27335  0.22223  1.0000
  H   H1692     1.0  0.87075  0.11665  0.09920  1.0000
  H   H1693     1.0  0.83397  0.10931  0.11609  1.0000
  C   C949      1.0  0.73427  0.21924  0.07727  1.0000
  N   N51       1.0  0.68470  0.36020  0.10743  1.0000
  H   H1694     1.0  0.80118  0.15912  0.06786  1.0000
  H   H1695     1.0  0.67423  0.43797  0.22937  1.0000
  H   H1696     1.0  0.70825  0.19816  0.05450  1.0000
  C   C950      1.0  0.90163  0.16264  0.06127  1.0000
  H   H1697     1.0  0.76357  0.24490  0.20040  1.0000
  H   H1698     1.0  0.97884  0.14919  0.98913  1.0000
  H   H1699     1.0  0.62693  0.44693  0.06328  1.0000
  H   H1700     1.0  0.89201  0.17594  0.05228  1.0000
  C   C951      1.0  0.70135  0.24310  0.07069  1.0000
  S   S217      1.0  0.70252  0.46872  0.13838  1.0000
  C   C952      1.0  0.83210  0.05007  0.22645  1.0000
  H   H1701     1.0  0.60787  0.47669  0.10360  1.0000
  C   C953      1.0  0.72785  0.11096  0.22435  1.0000
  H   H1702     1.0  0.81040  0.45513  0.19427  1.0000
  H   H1703     1.0  0.79832  0.26329  0.18686  1.0000
  H   H1704     1.0  0.86220  0.45244  0.22679  1.0000
  C   C954      1.0  0.72294  0.45486  0.22339  1.0000
  H   H1705     1.0  0.80054  0.25373  0.23504  1.0000
  H   H1706     1.0  0.74172  0.33618  0.00123  1.0000
  C   C955      1.0  0.84521  0.45491  0.23457  1.0000
  Fe  Fe110     1.0  0.67038  0.47933  0.15596  1.0000
  H   H1707     1.0  0.81063  0.11551  0.22704  1.0000
  C   C956      1.0  0.80157  0.26799  0.20181  1.0000
  S   S218      1.0  0.85500  0.98851  0.17945  1.0000
  H   H1708     1.0  0.98684  0.11566  0.00882  1.0000
  H   H1709     1.0  0.95980  0.08211  0.05448  1.0000
  C   C957      1.0  0.79422  0.45021  0.19753  1.0000
  H   H1710     1.0  0.52098  0.34261  0.98957  1.0000
  C   C958      1.0  0.70580  0.44387  0.23253  1.0000
  H   H1711     1.0  0.76381  0.22591  0.23722  1.0000
  C   C959      1.0  0.52921  0.37315  0.99083  1.0000
  H   H1712     1.0  0.74124  0.29763  0.99689  1.0000
  H   H1713     1.0  0.78227  0.46425  0.19357  1.0000
  N   N52       1.0  0.76785  0.25869  0.22781  1.0000
  H   H1714     1.0  0.78028  0.23623  0.00115  1.0000
  H   H1715     1.0  0.86338  0.41535  0.22249  1.0000
  C   C960      1.0  0.70307  0.47153  0.19426  1.0000
  H   H1716     1.0  0.81614  0.00886  0.23662  1.0000
  Fe  Fe111     1.0  0.90414  0.46098  0.35581  1.0000
  C   C961      1.0  0.79365  0.07127  0.24555  1.0000
  S   S219      1.0  0.93013  0.43429  0.36494  1.0000
  H   H1717     1.0  0.86696  0.27709  0.35365  1.0000
  H   H1718     1.0  0.86168  0.48013  0.27115  1.0000
  H   H1719     1.0  0.95567  0.46997  0.35890  1.0000
  H   H1720     1.0  0.64277  0.30413  0.39342  1.0000
  C   C962      1.0  0.59474  0.03243  0.40738  1.0000
  Fe  Fe112     1.0  0.75606  0.41839  0.25245  1.0000
  C   C963      1.0  0.83998  0.30830  0.33162  1.0000
  Fe  Fe113     1.0  0.74453  0.38071  0.28365  1.0000
  S   S220      1.0  0.77811  0.36360  0.28080  1.0000
  S   S221      1.0  0.71579  0.36716  0.30219  1.0000
  Fe  Fe114     1.0  0.78740  0.39525  0.28253  1.0000
  S   S222      1.0  0.81558  0.39740  0.29940  1.0000
  C   C964      1.0  0.85567  0.39207  0.39614  1.0000
  S   S223      1.0  0.75354  0.41152  0.28830  1.0000
  C   C965      1.0  0.79584  0.18178  0.46311  1.0000
  S   S224      1.0  0.68668  0.02250  0.30936  1.0000
  Fe  Fe115     1.0  0.77160  0.15407  0.26110  1.0000
  S   S225      1.0  0.79324  0.14133  0.28604  1.0000
  H   H1721     1.0  0.82452  0.98772  0.25697  1.0000
  Fe  Fe116     1.0  0.73861  0.12508  0.28222  1.0000
  S   S226      1.0  0.75784  0.11023  0.30833  1.0000
  S   S227      1.0  0.70652  0.11587  0.28051  1.0000
  Fe  Fe117     1.0  0.76295  0.14344  0.30954  1.0000
  S   S228      1.0  0.75519  0.15592  0.34130  1.0000
  Fe  Fe118     1.0  0.78590  0.10968  0.28194  1.0000
  S   S229      1.0  0.81177  0.08171  0.27767  1.0000
  S   S230      1.0  0.74179  0.15845  0.28486  1.0000
  S   S231      1.0  0.76619  0.12240  0.25559  1.0000
  Fe  Fe119     1.0  0.90671  0.35300  0.47299  1.0000
  H   H1722     1.0  0.79097  0.44215  0.27843  1.0000
  S   S232      1.0  0.93196  0.36107  0.44480  1.0000
  H   H1723     1.0  0.81837  0.28963  0.35481  1.0000
  H   H1724     1.0  0.69485  0.29995  0.44149  1.0000
  S   S233      1.0  0.88347  0.32990  0.47582  1.0000
  H   H1725     1.0  0.76287  0.03825  0.24810  1.0000
  Fe  Fe120     1.0  0.77767  0.25362  0.38396  1.0000
  S   S234      1.0  0.74397  0.25497  0.40107  1.0000
  S   S235      1.0  0.79178  0.23706  0.35519  1.0000
  Fe  Fe121     1.0  0.79053  0.28187  0.41257  1.0000
  S   S236      1.0  0.75792  0.28540  0.43205  1.0000
  S   S237      1.0  0.81953  0.29690  0.41510  1.0000
  Fe  Fe122     1.0  0.75891  0.25082  0.43117  1.0000
  S   S238      1.0  0.74997  0.22844  0.46115  1.0000
  Fe  Fe123     1.0  0.74573  0.28932  0.40047  1.0000
  S   S239      1.0  0.71736  0.31351  0.39401  1.0000
  S   S240      1.0  0.79272  0.24677  0.41413  1.0000
  S   S241      1.0  0.77807  0.28846  0.38094  1.0000
  C   C966      1.0  0.72698  0.21637  0.46230  1.0000
  C   C967      1.0  0.71206  0.22402  0.44815  1.0000
  C   C968      1.0  0.69382  0.21413  0.44935  1.0000
  H   H1726     1.0  0.71466  0.23745  0.43622  1.0000
  H   H1727     1.0  0.68236  0.22000  0.43833  1.0000
  C   C969      1.0  0.82434  0.34051  0.46340  1.0000
  C   C970      1.0  0.80594  0.33068  0.46550  1.0000
  C   C971      1.0  0.80392  0.31755  0.45064  1.0000
  C   C972      1.0  0.82031  0.31422  0.43355  1.0000
  C   C973      1.0  0.83842  0.32444  0.43124  1.0000
  H   H1728     1.0  0.76576  0.37037  0.45071  1.0000
  C   C974      1.0  0.99012  0.37947  0.44854  1.0000
  H   H1729     1.0  0.78974  0.31000  0.45246  1.0000
  C   C975      1.0  0.99072  0.38733  0.47008  1.0000
  S   S242      1.0  0.82468  0.46340  0.36010  1.0000
  C   C976      1.0  0.76486  0.17925  0.34367  1.0000
  C   C977      1.0  0.78342  0.18539  0.33098  1.0000
  C   C978      1.0  0.79143  0.20327  0.33451  1.0000
  C   C979      1.0  0.78098  0.21505  0.35077  1.0000
  C   C980      1.0  0.76220  0.20910  0.36313  1.0000
  C   C981      1.0  0.75415  0.19137  0.35943  1.0000
  H   H1730     1.0  0.79183  0.17617  0.31873  1.0000
  H   H1731     1.0  0.80592  0.20783  0.32481  1.0000
  H   H1732     1.0  0.75384  0.21819  0.37547  1.0000
  H   H1733     1.0  0.73948  0.18702  0.36870  1.0000
  C   C982      1.0  0.83294  0.41072  0.43432  1.0000
  N   N53       1.0  0.84192  0.24634  0.47849  1.0000
  H   H1734     1.0  0.83989  0.39433  0.44039  1.0000
  Fe  Fe124     1.0  0.67438  0.00625  0.34205  1.0000
  H   H1735     1.0  0.94840  0.39446  0.46335  1.0000
  H   H1736     1.0  0.79795  0.38412  0.45362  1.0000
  C   C983      1.0  0.69022  0.04925  0.30498  1.0000
  C   C984      1.0  0.70655  0.05618  0.31308  1.0000
  C   C985      1.0  0.71198  0.07659  0.30568  1.0000
  C   C986      1.0  0.70064  0.09022  0.29064  1.0000
  C   C987      1.0  0.68389  0.08342  0.28325  1.0000
  C   C988      1.0  0.67897  0.06296  0.29008  1.0000
  H   H1737     1.0  0.71540  0.04557  0.32449  1.0000
  H   H1738     1.0  0.72484  0.08175  0.31159  1.0000
  H   H1739     1.0  0.67503  0.09385  0.27170  1.0000
  H   H1740     1.0  0.66663  0.05763  0.28346  1.0000
  C   C989      1.0  0.71747  0.35189  0.32739  1.0000
  C   C990      1.0  0.69854  0.34596  0.33945  1.0000
  C   C991      1.0  0.69888  0.33407  0.35974  1.0000
  C   C992      1.0  0.71820  0.32759  0.36801  1.0000
  C   C993      1.0  0.73735  0.33316  0.35587  1.0000
  C   C994      1.0  0.73694  0.34556  0.33560  1.0000
  H   H1741     1.0  0.68349  0.35084  0.33316  1.0000
  H   H1742     1.0  0.68410  0.32984  0.36899  1.0000
  H   H1743     1.0  0.75229  0.32850  0.36235  1.0000
  H   H1744     1.0  0.75153  0.35033  0.32640  1.0000
  H   H1745     1.0  0.71122  0.05396  0.42340  1.0000
  C   C995      1.0  0.92891  0.41484  0.38800  1.0000
  C   C996      1.0  0.91072  0.41337  0.40366  1.0000
  C   C997      1.0  0.91112  0.39704  0.42143  1.0000
  C   C998      1.0  0.92971  0.38225  0.42347  1.0000
  C   C999      1.0  0.94772  0.38409  0.40791  1.0000
  C   C1000     1.0  0.94733  0.40016  0.39041  1.0000
  H   H1746     1.0  0.89640  0.42464  0.40200  1.0000
  H   H1747     1.0  0.89711  0.39581  0.43338  1.0000
  H   H1748     1.0  0.96209  0.37278  0.40923  1.0000
  H   H1749     1.0  0.96140  0.40106  0.37846  1.0000
  C   C1001     1.0  0.82218  0.44555  0.34260  1.0000
  C   C1002     1.0  0.80213  0.44502  0.33644  1.0000
  C   C1003     1.0  0.79967  0.43030  0.32337  1.0000
  C   C1004     1.0  0.81730  0.41604  0.31622  1.0000
  C   C1005     1.0  0.83716  0.41628  0.32276  1.0000
  C   C1006     1.0  0.83956  0.43086  0.33587  1.0000
  H   H1750     1.0  0.78843  0.45601  0.34186  1.0000
  H   H1751     1.0  0.78413  0.42993  0.31895  1.0000
  H   H1752     1.0  0.76798  0.37929  0.42226  1.0000
  H   H1753     1.0  0.62660  0.28650  0.45095  1.0000
  H   H1754     1.0  0.65269  0.34002  0.39316  1.0000
  C   C1007     1.0  0.68651  0.14090  0.34726  1.0000
  C   C1008     1.0  0.69474  0.15769  0.32956  1.0000
  H   H1755     1.0  0.70495  0.14023  0.39082  1.0000
  H   H1756     1.0  0.67450  0.13407  0.34088  1.0000
  H   H1757     1.0  0.67846  0.14892  0.36108  1.0000
  H   H1758     1.0  0.69138  0.14616  0.42840  1.0000
  H   H1759     1.0  0.66988  0.14911  0.41267  1.0000
  H   H1760     1.0  0.70189  0.15051  0.31494  1.0000
  H   H1761     1.0  0.68123  0.17003  0.32546  1.0000
  H   H1762     1.0  0.70697  0.16527  0.33481  1.0000
  C   C1009     1.0  0.76709  0.30659  0.25850  1.0000
  H   H1763     1.0  0.79660  0.04959  0.33847  1.0000
  C   C1010     1.0  0.72370  0.19864  0.47748  1.0000
  C   C1011     1.0  0.78907  0.43109  0.39658  1.0000
  H   H1764     1.0  0.83969  0.34323  0.34562  1.0000
  H   H1765     1.0  0.69011  0.28689  0.48088  1.0000
  C   C1012     1.0  0.60958  0.26200  0.44624  1.0000
  C   C1013     1.0  0.64075  0.31081  0.40855  1.0000
  C   C1014     1.0  0.82444  0.46625  0.26889  1.0000
  S   S243      1.0  0.88129  0.46103  0.33263  1.0000
  H   H1766     1.0  0.92036  0.46261  0.40426  1.0000
  C   C1015     1.0  0.76660  0.99720  0.30593  1.0000
  H   H1767     1.0  0.63472  0.34229  0.41793  1.0000
  H   H1768     1.0  0.61275  0.24511  0.44401  1.0000
  N   N54       1.0  0.76230  0.15062  0.43657  1.0000
  C   C1016     1.0  0.73986  0.15803  0.43130  1.0000
  C   C1017     1.0  0.76217  0.13083  0.45272  1.0000
  C   C1018     1.0  0.76831  0.16740  0.44734  1.0000
  C   C1019     1.0  0.77861  0.14726  0.41698  1.0000
  C   C1020     1.0  0.77097  0.13920  0.39835  1.0000
  C   C1021     1.0  0.73638  0.18008  0.41780  1.0000
  H   H1769     1.0  0.66135  0.98261  0.27015  1.0000
  C   C1022     1.0  0.75553  0.11138  0.44581  1.0000
  C   C1023     1.0  0.77740  0.28725  0.24784  1.0000
  C   C1024     1.0  0.78988  0.13327  0.38138  1.0000
  C   C1025     1.0  0.71505  0.18397  0.40894  1.0000
  C   C1026     1.0  0.78547  0.45938  0.27698  1.0000
  H   H1770     1.0  0.72836  0.15889  0.44632  1.0000
  H   H1771     1.0  0.73445  0.14666  0.42293  1.0000
  H   H1772     1.0  0.78210  0.99127  0.31215  1.0000
  H   H1773     1.0  0.98400  0.46104  0.35451  1.0000
  H   H1774     1.0  0.95901  0.35977  0.47724  1.0000
  H   H1775     1.0  0.76910  0.18233  0.43605  1.0000
  H   H1776     1.0  0.78491  0.16224  0.40972  1.0000
  H   H1777     1.0  0.79286  0.13617  0.42169  1.0000
  H   H1778     1.0  0.75965  0.15158  0.39030  1.0000
  H   H1779     1.0  0.76258  0.12535  0.40385  1.0000
  H   H1780     1.0  0.73598  0.19244  0.42791  1.0000
  H   H1781     1.0  0.74959  0.18216  0.40443  1.0000
  C   C1027     1.0  0.87063  0.44650  0.27349  1.0000
  C   C1028     1.0  0.81241  0.07020  0.25443  1.0000
  H   H1782     1.0  0.73992  0.11505  0.43963  1.0000
  H   H1783     1.0  0.76812  0.10500  0.43346  1.0000
  C   C1029     1.0  0.87123  0.39417  0.37526  1.0000
  H   H1784     1.0  0.84246  0.22886  0.40884  1.0000
  C   C1030     1.0  0.81211  0.99391  0.24635  1.0000
  H   H1785     1.0  0.80177  0.12070  0.38842  1.0000
  H   H1786     1.0  0.78408  0.12730  0.36839  1.0000
  H   H1787     1.0  0.79777  0.14730  0.37416  1.0000
  H   H1788     1.0  0.71252  0.20029  0.40036  1.0000
  H   H1789     1.0  0.71506  0.17280  0.39758  1.0000
  H   H1790     1.0  0.70154  0.18202  0.42212  1.0000
  C   C1031     1.0  0.78998  0.16222  0.45635  1.0000
  H   H1791     1.0  0.73254  0.00304  0.32016  1.0000
  C   C1032     1.0  0.77424  0.45212  0.39441  1.0000
  H   H1792     1.0  0.71796  0.28509  0.46937  1.0000
  H   H1793     1.0  0.71687  0.13245  0.35860  1.0000
  C   C1033     1.0  0.80169  0.32220  0.32702  1.0000
  C   C1034     1.0  0.79971  0.30584  0.31257  1.0000
  H   H1794     1.0  0.75143  0.13434  0.46770  1.0000
  H   H1795     1.0  0.79057  0.33681  0.32257  1.0000
  H   H1796     1.0  0.81023  0.29079  0.31659  1.0000
  H   H1797     1.0  0.77869  0.41857  0.40169  1.0000
  H   H1798     1.0  0.74251  0.24382  0.24866  1.0000
  H   H1799     1.0  0.81737  0.43840  0.44936  1.0000
  C   C1035     1.0  0.78986  0.99735  0.25949  1.0000
  C   C1036     1.0  0.83791  0.43291  0.24244  1.0000
  H   H1800     1.0  0.60902  0.03132  0.39489  1.0000
  H   H1801     1.0  0.99381  0.40395  0.46586  1.0000
  H   H1802     1.0  0.80714  0.27329  0.46148  1.0000
  C   C1037     1.0  0.72707  0.47971  0.28798  1.0000
  H   H1803     1.0  0.79417  0.43350  0.42810  1.0000
  C   C1038     1.0  0.72891  0.04272  0.24908  1.0000
  C   C1039     1.0  0.76191  0.21741  0.27990  1.0000
  S   S244      1.0  0.88273  0.37838  0.48630  1.0000
  H   H1804     1.0  0.80194  0.46764  0.24548  1.0000
  C   C1040     1.0  0.83454  0.41728  0.47209  1.0000
  H   H1805     1.0  0.76400  0.45445  0.40989  1.0000
  H   H1806     1.0  0.74101  0.09894  0.47784  1.0000
  C   C1041     1.0  0.69096  0.98949  0.25086  1.0000
  C   C1042     1.0  0.70588  0.18834  0.47822  1.0000
  C   C1043     1.0  0.74859  0.99861  0.32540  1.0000
  H   H1807     1.0  0.73647  0.47640  0.30160  1.0000
  S   S245      1.0  0.70262  0.13255  0.47416  1.0000
  S   S246      1.0  0.87929  0.47399  0.38097  1.0000
  H   H1808     1.0  0.79950  0.24737  0.46447  1.0000
  H   H1809     1.0  0.77142  0.29476  0.33257  1.0000
  H   H1810     1.0  0.85480  0.43026  0.34125  1.0000
  H   H1811     1.0  0.97746  0.38938  0.43991  1.0000
  H   H1812     1.0  0.76307  0.25052  0.27480  1.0000
  H   H1813     1.0  0.76847  0.20310  0.27223  1.0000
  H   H1814     1.0  0.76785  0.21543  0.29557  1.0000
  H   H1815     1.0  0.74413  0.21883  0.28288  1.0000
  H   H1816     1.0  0.70689  0.43298  0.24719  1.0000
  H   H1817     1.0  0.96980  0.32129  0.48757  1.0000
  H   H1818     1.0  0.88515  0.38147  0.37622  1.0000
  H   H1819     1.0  0.55285  0.99052  0.48274  1.0000
  H   H1820     1.0  0.84529  0.27875  0.47977  1.0000
  H   H1821     1.0  0.85008  0.42336  0.46654  1.0000
  H   H1822     1.0  0.80394  0.31187  0.29539  1.0000
  H   H1823     1.0  0.81138  0.37224  0.37047  1.0000
  C   C1044     1.0  0.68314  0.06598  0.44391  1.0000
  H   H1824     1.0  0.85903  0.44323  0.28816  1.0000
  C   C1045     1.0  0.69440  0.05310  0.42887  1.0000
  C   C1046     1.0  0.70521  0.12385  0.35387  1.0000
  C   C1047     1.0  0.69823  0.12744  0.40226  1.0000
  C   C1048     1.0  0.68264  0.13765  0.41974  1.0000
  C   C1049     1.0  0.77722  0.37331  0.43583  1.0000
  N   N55       1.0  0.84270  0.46977  0.25103  1.0000
  H   H1825     1.0  0.77931  0.31252  0.26554  1.0000
  C   C1050     1.0  0.77674  0.30086  0.31556  1.0000
  H   H1826     1.0  0.79482  0.31595  0.34341  1.0000
  H   H1827     1.0  0.71368  0.11733  0.33915  1.0000
  H   H1828     1.0  0.71126  0.11726  0.41019  1.0000
  C   C1051     1.0  0.69070  0.19621  0.46436  1.0000
  C   C1052     1.0  0.81198  0.35554  0.37806  1.0000
  H   H1829     1.0  0.67101  0.12281  0.38803  1.0000
  H   H1830     1.0  0.78351  0.27492  0.26035  1.0000
  H   H1831     1.0  0.87681  0.47105  0.24768  1.0000
  H   H1832     1.0  0.76366  0.98435  0.29776  1.0000
  H   H1833     1.0  0.63646  0.26040  0.46280  1.0000
  C   C1053     1.0  0.68688  0.11390  0.39118  1.0000
  H   H1834     1.0  0.66910  0.10436  0.36016  1.0000
  H   H1835     1.0  0.74666  0.10500  0.35808  1.0000
  N   N56       1.0  0.82392  0.32758  0.32648  1.0000
  H   H1836     1.0  0.78652  0.01848  0.32752  1.0000
  N   N57       1.0  0.69916  0.10606  0.37107  1.0000
  H   H1837     1.0  0.67512  0.12551  0.43158  1.0000
  S   S247      1.0  0.66781  0.18393  0.46565  1.0000
  H   H1838     1.0  0.81845  0.35069  0.29871  1.0000
  H   H1839     1.0  0.67535  0.29220  0.37969  1.0000
  H   H1840     1.0  0.76056  0.31946  0.24660  1.0000
  C   C1054     1.0  0.68471  0.09437  0.36225  1.0000
  H   H1841     1.0  0.69207  0.09062  0.34600  1.0000
  C   C1055     1.0  0.63035  0.26977  0.44830  1.0000
  S   S248      1.0  0.82656  0.35740  0.48180  1.0000
  H   H1842     1.0  0.63923  0.27068  0.41388  1.0000
  H   H1843     1.0  0.84371  0.42507  0.25753  1.0000
  C   C1056     1.0  0.68419  0.03885  0.42109  1.0000
  S   S249      1.0  0.69673  0.08412  0.45257  1.0000
  H   H1844     1.0  0.84289  0.29833  0.31857  1.0000
  C   C1057     1.0  0.83102  0.33767  0.30392  1.0000
  H   H1845     1.0  0.77836  0.12528  0.45744  1.0000
  C   C1058     1.0  0.71895  0.09080  0.37598  1.0000
  C   C1059     1.0  0.74003  0.10012  0.37505  1.0000
  H   H1846     1.0  0.72309  0.07922  0.36434  1.0000
  H   H1847     1.0  0.68304  0.10044  0.40365  1.0000
  H   H1848     1.0  0.73761  0.11411  0.38335  1.0000
  N   N58       1.0  0.66611  0.27896  0.42597  1.0000
  H   H1849     1.0  0.66379  0.28003  0.45998  1.0000
  H   H1850     1.0  0.69312  0.02892  0.40969  1.0000
  H   H1851     1.0  0.74819  0.05543  0.26665  1.0000
  C   C1060     1.0  0.83454  0.29415  0.35314  1.0000
  H   H1852     1.0  0.76791  0.05229  0.33931  1.0000
  H   H1853     1.0  0.73147  0.46636  0.27852  1.0000
  C   C1061     1.0  0.75699  0.08382  0.38512  1.0000
  H   H1854     1.0  0.76025  0.06951  0.37705  1.0000
  H   H1855     1.0  0.75155  0.07936  0.40247  1.0000
  H   H1856     1.0  0.67298  0.05896  0.34956  1.0000
  H   H1857     1.0  0.66081  0.04831  0.37568  1.0000
  C   C1062     1.0  0.64743  0.26686  0.42832  1.0000
  C   C1063     1.0  0.69655  0.28274  0.44710  1.0000
  C   C1064     1.0  0.67727  0.27506  0.38557  1.0000
  H   H1858     1.0  0.69766  0.27844  0.40724  1.0000
  H   H1859     1.0  0.90523  0.44633  0.26618  1.0000
  H   H1860     1.0  0.77005  0.46246  0.27047  1.0000
  H   H1861     1.0  0.91117  0.41393  0.46743  1.0000
  H   H1862     1.0  0.81887  0.35983  0.33328  1.0000
  H   H1863     1.0  0.83302  0.32618  0.29241  1.0000
  H   H1864     1.0  0.62551  0.30666  0.41809  1.0000
  H   H1865     1.0  0.98697  0.36292  0.45101  1.0000
  C   C1065     1.0  0.67904  0.07348  0.37602  1.0000
  C   C1066     1.0  0.78070  0.26776  0.48592  1.0000
  C   C1067     1.0  0.66470  0.06304  0.36533  1.0000
  H   H1866     1.0  0.71565  0.08132  0.39204  1.0000
  H   H1867     1.0  0.67016  0.07637  0.39193  1.0000
  C   C1068     1.0  0.68307  0.27101  0.40859  1.0000
  C   C1069     1.0  0.67549  0.27384  0.44677  1.0000
  H   H1868     1.0  0.78697  0.23459  0.26353  1.0000
  H   H1869     1.0  0.65542  0.30957  0.43659  1.0000
  C   C1070     1.0  0.66252  0.03732  0.42827  1.0000
  C   C1071     1.0  0.74862  0.04043  0.26035  1.0000
  H   H1870     1.0  0.77148  0.04987  0.28936  1.0000
  H   H1871     1.0  0.66639  0.01721  0.24935  1.0000
  H   H1872     1.0  0.69363  0.06198  0.37838  1.0000
  H   H1873     1.0  0.77217  0.09055  0.38336  1.0000
  Fe  Fe125     1.0  0.85664  0.47566  0.35683  1.0000
  C   C1072     1.0  0.70274  0.27883  0.46966  1.0000
  H   H1874     1.0  0.71026  0.27166  0.36939  1.0000
  H   H1875     1.0  0.88241  0.26550  0.47508  1.0000
  H   H1876     1.0  0.70529  0.26166  0.47551  1.0000
  H   H1877     1.0  0.76559  0.31515  0.31048  1.0000
  C   C1073     1.0  0.82337  0.34352  0.34145  1.0000
  C   C1074     1.0  0.85027  0.27371  0.35499  1.0000
  H   H1878     1.0  0.83577  0.30237  0.36666  1.0000
  H   H1879     1.0  0.84917  0.26424  0.34235  1.0000
  H   H1880     1.0  0.85584  0.31289  0.33222  1.0000
  C   C1075     1.0  0.78349  0.05154  0.32856  1.0000
  C   C1076     1.0  0.65128  0.05010  0.44341  1.0000
  H   H1881     1.0  0.85145  0.35975  0.31014  1.0000
  C   C1077     1.0  0.65983  0.30258  0.42141  1.0000
  H   H1882     1.0  0.64944  0.07360  0.36308  1.0000
  H   H1883     1.0  0.65325  0.24962  0.42932  1.0000
  H   H1884     1.0  0.71020  0.27488  0.43683  1.0000
  H   H1885     1.0  0.79226  0.02892  0.26490  1.0000
  H   H1886     1.0  0.79071  0.34759  0.35892  1.0000
  C   C1078     1.0  0.89250  0.44644  0.28030  1.0000
  H   H1887     1.0  0.78400  0.06662  0.31757  1.0000
  C   C1079     1.0  0.85242  0.34705  0.30021  1.0000
  H   H1888     1.0  0.68818  0.25378  0.41275  1.0000
  H   H1889     1.0  0.67846  0.25651  0.45163  1.0000
  C   C1080     1.0  0.76880  0.03569  0.30130  1.0000
  H   H1890     1.0  0.75298  0.04012  0.31087  1.0000
  H   H1891     1.0  0.96722  0.46790  0.32110  1.0000
  H   H1892     1.0  0.86600  0.33477  0.30408  1.0000
  H   H1893     1.0  0.84618  0.05831  0.25192  1.0000
  H   H1894     1.0  0.82655  0.44991  0.27745  1.0000
  H   H1895     1.0  0.89631  0.43219  0.29200  1.0000
  H   H1896     1.0  0.80258  0.03268  0.30589  1.0000
  C   C1081     1.0  0.80731  0.34191  0.36256  1.0000
  C   C1082     1.0  0.78655  0.03308  0.31582  1.0000
  C   C1083     1.0  0.66149  0.06440  0.45116  1.0000
  H   H1897     1.0  0.60004  0.03265  0.42303  1.0000
  C   C1084     1.0  0.74885  0.02153  0.27864  1.0000
  H   H1898     1.0  0.84619  0.26423  0.37085  1.0000
  H   H1899     1.0  0.77866  0.07886  0.25313  1.0000
  C   C1085     1.0  0.86318  0.46792  0.26047  1.0000
  H   H1900     1.0  0.82765  0.25050  0.43749  1.0000
  N   N59       1.0  0.76826  0.01709  0.29017  1.0000
  C   C1086     1.0  0.78879  0.01381  0.27483  1.0000
  H   H1901     1.0  0.73402  0.02493  0.29004  1.0000
  H   H1902     1.0  0.80760  0.32565  0.37103  1.0000
  C   C1087     1.0  0.85777  0.35656  0.27677  1.0000
  H   H1903     1.0  0.78370  0.46541  0.38921  1.0000
  C   C1088     1.0  0.76921  0.23705  0.26580  1.0000
  H   H1904     1.0  0.85012  0.37649  0.39810  1.0000
  H   H1905     1.0  0.69846  0.24748  0.37511  1.0000
  C   C1089     1.0  0.97161  0.48101  0.32789  1.0000
  H   H1906     1.0  0.80267  0.00872  0.28388  1.0000
  H   H1907     1.0  0.86007  0.34424  0.26614  1.0000
  C   C1090     1.0  0.95991  0.47817  0.39881  1.0000
  H   H1908     1.0  0.87339  0.29930  0.45120  1.0000
  C   C1091     1.0  0.84452  0.23060  0.46293  1.0000
  H   H1909     1.0  0.87281  0.36362  0.27460  1.0000
  H   H1910     1.0  0.63456  0.04898  0.44919  1.0000
  H   H1911     1.0  0.82802  0.34975  0.38310  1.0000
  H   H1912     1.0  0.71402  0.04519  0.26063  1.0000
  H   H1913     1.0  0.62435  0.34030  0.39388  1.0000
  H   H1914     1.0  0.69070  0.26769  0.35374  1.0000
  C   C1092     1.0  0.84961  0.26694  0.46835  1.0000
  H   H1915     1.0  0.85108  0.32215  0.41798  1.0000
  C   C1093     1.0  0.84270  0.23961  0.43915  1.0000
  H   H1916     1.0  0.76823  0.27238  0.47521  1.0000
  H   H1917     1.0  0.79978  0.35458  0.39260  1.0000
  H   H1918     1.0  0.58427  0.04749  0.40320  1.0000
  H   H1919     1.0  0.80318  0.15632  0.44427  1.0000
  H   H1920     1.0  0.85886  0.21107  0.42636  1.0000
  H   H1921     1.0  0.87737  0.40957  0.37244  1.0000
  S   S250      1.0  0.64890  0.01949  0.41914  1.0000
  C   C1094     1.0  0.83640  0.41018  0.39574  1.0000
  C   C1095     1.0  0.80176  0.47140  0.26181  1.0000
  C   C1096     1.0  0.57025  0.98460  0.48227  1.0000
  C   C1097     1.0  0.80979  0.39106  0.41955  1.0000
  H   H1922     1.0  0.85616  0.24847  0.43191  1.0000
  H   H1923     1.0  0.84126  0.27430  0.45451  1.0000
  S   S251      1.0  0.64216  0.01168  0.36217  1.0000
  S   S252      1.0  0.79068  0.40424  0.24681  1.0000
  H   H1924     1.0  0.82156  0.37666  0.42264  1.0000
  H   H1925     1.0  0.60817  0.99415  0.42406  1.0000
  C   C1098     1.0  0.58240  0.01394  0.40865  1.0000
  H   H1926     1.0  0.74670  0.00734  0.27203  1.0000
  C   C1099     1.0  0.87970  0.28442  0.44455  1.0000
  C   C1100     1.0  0.82089  0.42106  0.45395  1.0000
  H   H1927     1.0  0.65262  0.07418  0.46273  1.0000
  Fe  Fe126     1.0  0.66066  0.00207  0.39025  1.0000
  C   C1101     1.0  0.84354  0.22197  0.42580  1.0000
  H   H1928     1.0  0.60223  0.27142  0.43247  1.0000
  H   H1929     1.0  0.86321  0.39277  0.36152  1.0000
  H   H1930     1.0  0.57666  0.01496  0.39296  1.0000
  C   C1102     1.0  0.76021  0.24097  0.24421  1.0000
  C   C1103     1.0  0.63802  0.33481  0.40309  1.0000
  S   S253      1.0  0.69304  0.99883  0.36979  1.0000
  H   H1931     1.0  0.84692  0.41943  0.42851  1.0000
  H   H1932     1.0  0.86493  0.39216  0.40935  1.0000
  H   H1933     1.0  0.77593  0.28857  0.30568  1.0000
  C   C1104     1.0  0.80216  0.25991  0.47322  1.0000
  C   C1105     1.0  0.80465  0.43048  0.41300  1.0000
  H   H1934     1.0  0.82840  0.40891  0.38193  1.0000
  H   H1935     1.0  0.84314  0.42536  0.39149  1.0000
  H   H1936     1.0  0.66246  0.26866  0.38471  1.0000
  H   H1937     1.0  0.74839  0.08000  0.45942  1.0000
  C   C1106     1.0  0.83162  0.05935  0.24499  1.0000
  H   H1938     1.0  0.74572  0.27976  0.24684  1.0000
  H   H1939     1.0  0.89259  0.46062  0.28781  1.0000
  H   H1940     1.0  0.84474  0.36914  0.27192  1.0000
  H   H1941     1.0  0.81337  0.44442  0.40817  1.0000
  H   H1942     1.0  0.59797  0.26364  0.46106  1.0000
  Fe  Fe127     1.0  0.68499  0.10469  0.47933  1.0000
  H   H1943     1.0  0.87277  0.43359  0.26372  1.0000
  S   S254      1.0  0.74417  0.38906  0.24811  1.0000
  H   H1944     1.0  0.78286  0.46460  0.29301  1.0000
  H   H1945     1.0  0.87270  0.28460  0.42971  1.0000
  C   C1107     1.0  0.84045  0.33747  0.44605  1.0000
  H   H1946     1.0  0.99435  0.46416  0.42298  1.0000
  H   H1947     1.0  0.85083  0.40510  0.31767  1.0000
  H   H1948     1.0  0.96042  0.46216  0.39445  1.0000
  H   H1949     1.0  0.95707  0.41628  0.47081  1.0000
  H   H1950     1.0  0.76889  0.08848  0.47098  1.0000
  H   H1951     1.0  0.75572  0.17114  0.46096  1.0000
  Fe  Fe128     1.0  0.77852  0.37408  0.24545  1.0000
  C   C1108     1.0  0.87416  0.26559  0.46103  1.0000
  C   C1109     1.0  0.59665  0.99239  0.41348  1.0000
  C   C1110     1.0  0.79122  0.38940  0.43839  1.0000
  C   C1111     1.0  0.97149  0.47485  0.35203  1.0000
  N   N60       1.0  0.82051  0.41056  0.41611  1.0000
  Fe  Fe129     1.0  0.67169  0.15154  0.48497  1.0000
  H   H1952     1.0  0.75079  0.01035  0.33531  1.0000
  H   H1953     1.0  0.80384  0.38938  0.40461  1.0000
  H   H1954     1.0  0.82989  0.21298  0.43176  1.0000
  H   H1955     1.0  0.88077  0.25101  0.45392  1.0000
  C   C1112     1.0  0.68390  0.01321  0.24993  1.0000
  H   H1956     1.0  0.78295  0.18806  0.47530  1.0000
  H   H1957     1.0  0.83262  0.21940  0.46837  1.0000
  H   H1958     1.0  0.78053  0.40448  0.43978  1.0000
  H   H1959     1.0  0.67391  0.31009  0.41286  1.0000
  C   C1113     1.0  0.69530  0.26477  0.37009  1.0000
  H   H1960     1.0  0.79796  0.19426  0.44911  1.0000
  H   H1961     1.0  0.57999  0.00476  0.45354  1.0000
  H   H1962     1.0  0.76371  0.45231  0.38217  1.0000
  H   H1963     1.0  0.75394  0.30255  0.27147  1.0000
  C   C1114     1.0  0.95244  0.40045  0.47731  1.0000
  H   H1964     1.0  0.89737  0.28350  0.44041  1.0000
  H   H1965     1.0  0.72902  0.02845  0.24160  1.0000
  H   H1966     1.0  0.79785  0.42888  0.38054  1.0000
  H   H1967     1.0  0.86048  0.22059  0.46275  1.0000
  H   H1968     1.0  0.60698  0.98936  0.39812  1.0000
  H   H1969     1.0  0.80562  0.41489  0.46032  1.0000
  H   H1970     1.0  0.81102  0.17767  0.47015  1.0000
  C   C1115     1.0  0.75338  0.09367  0.46469  1.0000
  H   H1971     1.0  0.56810  0.01588  0.42099  1.0000
  H   H1972     1.0  0.68768  0.01881  0.26418  1.0000
  H   H1973     1.0  0.78721  0.35817  0.43274  1.0000
  H   H1974     1.0  0.70852  0.98646  0.25122  1.0000
  H   H1975     1.0  0.85441  0.34541  0.44385  1.0000
  H   H1976     1.0  0.83765  0.40021  0.47812  1.0000
  H   H1977     1.0  0.82587  0.42551  0.48558  1.0000
  H   H1978     1.0  0.78885  0.15019  0.47086  1.0000
  H   H1979     1.0  0.91957  0.43498  0.47797  1.0000
  H   H1980     1.0  0.82018  0.43452  0.24546  1.0000
  H   H1981     1.0  0.55622  0.98752  0.40757  1.0000
  H   H1982     1.0  0.82447  0.47618  0.28155  1.0000
  H   H1983     1.0  0.79327  0.33316  0.47871  1.0000
  H   H1984     1.0  0.68187  0.98275  0.28544  1.0000
  C   C1116     1.0  0.58179  0.98759  0.45929  1.0000
  N   N61       1.0  0.97083  0.38596  0.48633  1.0000
  C   C1117     1.0  0.91426  0.41921  0.48217  1.0000
  H   H1985     1.0  0.77808  0.00269  0.24807  1.0000
  H   H1986     1.0  0.70976  0.48075  0.29451  1.0000
  H   H1987     1.0  0.55566  0.98438  0.44352  1.0000
  C   C1118     1.0  0.92020  0.47742  0.41088  1.0000
  H   H1988     1.0  0.96170  0.47553  0.41607  1.0000
  H   H1989     1.0  0.92319  0.47354  0.42780  1.0000
  S   S255      1.0  0.65299  0.12436  0.48770  1.0000
  H   H1990     1.0  0.72443  0.09890  0.23846  1.0000
  H   H1991     1.0  0.95182  0.36284  0.50443  1.0000
  C   C1119     1.0  0.88371  0.27758  0.59267  1.0000
  Fe  Fe130     1.0  0.53641  0.13689  0.67493  1.0000
  S   S256      1.0  0.52551  0.16445  0.65132  1.0000
  Fe  Fe131     1.0  0.51160  0.10702  0.65794  1.0000
  C   C1120     1.0  0.77726  0.20651  0.51631  1.0000
  Fe  Fe132     1.0  0.53326  0.14125  0.62761  1.0000
  S   S257      1.0  0.55038  0.15135  0.59434  1.0000
  C   C1121     1.0  0.50165  0.17102  0.71765  1.0000
  S   S258      1.0  0.54580  0.11408  0.65084  1.0000
  C   C1122     1.0  0.87735  0.24314  0.61498  1.0000
  H   H1992     1.0  0.81154  0.28289  0.58312  1.0000
  H   H1993     1.0  0.73801  0.25560  0.50928  1.0000
  H   H1994     1.0  0.55642  0.08801  0.61816  1.0000
  S   S259      1.0  0.96433  0.36244  0.68224  1.0000
  H   H1995     1.0  0.74960  0.27859  0.53130  1.0000
  H   H1996     1.0  0.88292  0.29582  0.66030  1.0000
  S   S260      1.0  0.55897  0.13869  0.69854  1.0000
  C   C1123     1.0  0.68984  0.20708  0.52944  1.0000
  S   S261      1.0  0.92877  0.27534  0.69467  1.0000
  S   S262      1.0  0.83707  0.23841  0.71159  1.0000
  H   H1997     1.0  0.87826  0.14864  0.70690  1.0000
  S   S263      1.0  0.86651  0.34271  0.52477  1.0000
  S   S264      1.0  0.89087  0.28540  0.52585  1.0000
  Fe  Fe133     1.0  0.89287  0.36308  0.51823  1.0000
  S   S265      1.0  0.90252  0.38131  0.54208  1.0000
  H   H1998     1.0  0.90964  0.28280  0.60878  1.0000
  C   C1124     1.0  0.75907  0.27938  0.73072  1.0000
  H   H1999     1.0  0.80588  0.30897  0.59048  1.0000
  Fe  Fe134     1.0  0.70688  0.12616  0.50868  1.0000
  S   S266      1.0  0.67649  0.14656  0.51950  1.0000
  S   S267      1.0  0.73967  0.13183  0.51374  1.0000
  Fe  Fe135     1.0  0.66071  0.11760  0.52175  1.0000
  S   S268      1.0  0.63941  0.10545  0.55205  1.0000
  H   H2000     1.0  0.89899  0.26574  0.64052  1.0000
  H   H2001     1.0  0.87052  0.17548  0.69738  1.0000
  S   S269      1.0  0.69196  0.09643  0.51341  1.0000
  C   C1125     1.0  0.90768  0.27496  0.59526  1.0000
  Fe  Fe136     1.0  0.76430  0.23352  0.62242  1.0000
  S   S270      1.0  0.77499  0.19900  0.63093  1.0000
  S   S271      1.0  0.74012  0.25422  0.64277  1.0000
  Fe  Fe137     1.0  0.79104  0.23496  0.57780  1.0000
  S   S272      1.0  0.80342  0.20033  0.58259  1.0000
  S   S273      1.0  0.79824  0.25735  0.54740  1.0000
  Fe  Fe138     1.0  0.76955  0.19630  0.59758  1.0000
  S   S274      1.0  0.74746  0.17311  0.59504  1.0000
  Fe  Fe139     1.0  0.80759  0.20633  0.61533  1.0000
  S   S275      1.0  0.83804  0.19511  0.62999  1.0000
  S   S276      1.0  0.75688  0.23059  0.59017  1.0000
  S   S277      1.0  0.79738  0.24122  0.60939  1.0000
  H   H2002     1.0  0.73649  0.29358  0.50960  1.0000
  H   H2003     1.0  0.86808  0.29364  0.62674  1.0000
  H   H2004     1.0  0.60634  0.07479  0.56212  1.0000
  C   C1126     1.0  0.72591  0.26317  0.52119  1.0000
  H   H2005     1.0  0.94656  0.28883  0.61603  1.0000
  C   C1127     1.0  0.74564  0.16224  0.57196  1.0000
  C   C1128     1.0  0.76234  0.16133  0.55483  1.0000
  C   C1129     1.0  0.76033  0.15197  0.53703  1.0000
  C   C1130     1.0  0.74147  0.14395  0.53602  1.0000
  C   C1131     1.0  0.72463  0.14525  0.55296  1.0000
  C   C1132     1.0  0.72687  0.15405  0.57099  1.0000
  H   H2006     1.0  0.77698  0.16731  0.55558  1.0000
  H   H2007     1.0  0.77349  0.15079  0.52406  1.0000
  H   H2008     1.0  0.71014  0.13889  0.55247  1.0000
  H   H2009     1.0  0.71397  0.15449  0.58428  1.0000
  C   C1133     1.0  0.86490  0.27813  0.53241  1.0000
  C   C1134     1.0  0.84728  0.29104  0.52456  1.0000
  C   C1135     1.0  0.82681  0.28474  0.52959  1.0000
  C   C1136     1.0  0.82374  0.26563  0.54269  1.0000
  C   C1137     1.0  0.84130  0.25282  0.55074  1.0000
  C   C1138     1.0  0.86186  0.25894  0.54534  1.0000
  H   H2010     1.0  0.84942  0.30572  0.51425  1.0000
  H   H2011     1.0  0.81334  0.29468  0.52314  1.0000
  H   H2012     1.0  0.83913  0.23788  0.56055  1.0000
  C   C1139     1.0  0.73696  0.21548  0.52651  1.0000
  C   C1140     1.0  0.83855  0.22742  0.68804  1.0000
  C   C1141     1.0  0.81996  0.22966  0.67852  1.0000
  C   C1142     1.0  0.81986  0.21994  0.66061  1.0000
  C   C1143     1.0  0.83838  0.20766  0.65218  1.0000
  C   C1144     1.0  0.85716  0.20544  0.66159  1.0000
  C   C1145     1.0  0.85733  0.21561  0.67934  1.0000
  H   H2013     1.0  0.80551  0.23885  0.68507  1.0000
  H   H2014     1.0  0.80526  0.22159  0.65362  1.0000
  H   H2015     1.0  0.87155  0.19594  0.65509  1.0000
  H   H2016     1.0  0.87180  0.21394  0.68656  1.0000
  C   C1146     1.0  0.96706  0.36464  0.56903  1.0000
  C   C1147     1.0  0.96071  0.35102  0.55710  1.0000
  C   C1148     1.0  0.94090  0.35575  0.54916  1.0000
  C   C1149     1.0  0.92741  0.37456  0.55238  1.0000
  C   C1150     1.0  0.93368  0.38818  0.56442  1.0000
  C   C1151     1.0  0.95335  0.38323  0.57276  1.0000
  H   H2017     1.0  0.97111  0.33654  0.55420  1.0000
  H   H2018     1.0  0.93609  0.34478  0.54057  1.0000
  H   H2019     1.0  0.92334  0.40273  0.56717  1.0000
  H   H2020     1.0  0.95814  0.39400  0.58169  1.0000
  C   C1152     1.0  0.95489  0.33784  0.68671  1.0000
  C   C1153     1.0  0.96055  0.32426  0.67134  1.0000
  C   C1154     1.0  0.95309  0.30481  0.67472  1.0000
  C   C1155     1.0  0.93915  0.29895  0.69318  1.0000
  C   C1156     1.0  0.93329  0.31238  0.70882  1.0000
  C   C1157     1.0  0.94124  0.33183  0.70558  1.0000
  H   H2021     1.0  0.96999  0.32898  0.65640  1.0000
  H   H2022     1.0  0.95755  0.29451  0.66256  1.0000
  H   H2023     1.0  0.92242  0.30797  0.72313  1.0000
  H   H2024     1.0  0.93662  0.34234  0.71754  1.0000
  C   C1158     1.0  0.70341  0.22447  0.70491  1.0000
  C   C1159     1.0  0.72252  0.21350  0.69556  1.0000
  C   C1160     1.0  0.73343  0.22210  0.67601  1.0000
  C   C1161     1.0  0.72536  0.24182  0.66576  1.0000
  C   C1162     1.0  0.70600  0.25259  0.67489  1.0000
  C   C1163     1.0  0.69493  0.24386  0.69434  1.0000
  H   H2025     1.0  0.72908  0.19842  0.70359  1.0000
  H   H2026     1.0  0.74841  0.21376  0.66922  1.0000
  H   H2027     1.0  0.69970  0.26787  0.66704  1.0000
  C   C1164     1.0  0.57556  0.13890  0.58319  1.0000
  C   C1165     1.0  0.58608  0.12064  0.59393  1.0000
  C   C1166     1.0  0.60572  0.11072  0.58424  1.0000
  C   C1167     1.0  0.61516  0.11907  0.56382  1.0000
  C   C1168     1.0  0.60484  0.13757  0.55324  1.0000
  C   C1169     1.0  0.58508  0.14738  0.56288  1.0000
  H   H2028     1.0  0.57902  0.11407  0.60959  1.0000
  H   H2029     1.0  0.61367  0.09646  0.59258  1.0000
  H   H2030     1.0  0.61194  0.14413  0.53751  1.0000
  H   H2031     1.0  0.57706  0.16155  0.55446  1.0000
  H   H2032     1.0  0.93818  0.39486  0.64670  1.0000
  H   H2033     1.0  0.90861  0.20859  0.60517  1.0000
  H   H2034     1.0  0.54859  0.18327  0.68121  1.0000
  H   H2035     1.0  0.90169  0.38639  0.64613  1.0000
  H   H2036     1.0  0.68021  0.25241  0.70144  1.0000
  H   H2037     1.0  0.87552  0.24863  0.55081  1.0000
  N   N62       1.0  0.91084  0.34782  0.62740  1.0000
  C   C1170     1.0  0.92500  0.36401  0.62828  1.0000
  C   C1171     1.0  0.92455  0.32652  0.62791  1.0000
  C   C1172     1.0  0.90076  0.35361  0.60711  1.0000
  C   C1173     1.0  0.89324  0.34703  0.64628  1.0000
  C   C1174     1.0  0.90074  0.34308  0.66864  1.0000
  C   C1175     1.0  0.88638  0.33796  0.60317  1.0000
  C   C1176     1.0  0.94103  0.32308  0.60763  1.0000
  C   C1177     1.0  0.95590  0.30222  0.61107  1.0000
  C   C1178     1.0  0.88167  0.34337  0.68654  1.0000
  C   C1179     1.0  0.87993  0.34329  0.58073  1.0000
  H   H2038     1.0  0.93657  0.36584  0.61333  1.0000
  H   H2039     1.0  0.93526  0.35862  0.64122  1.0000
  H   H2040     1.0  0.93391  0.32383  0.64144  1.0000
  H   H2041     1.0  0.91454  0.31357  0.63131  1.0000
  H   H2042     1.0  0.91329  0.35576  0.59297  1.0000
  H   H2043     1.0  0.89045  0.36917  0.60697  1.0000
  H   H2044     1.0  0.88142  0.36168  0.64514  1.0000
  H   H2045     1.0  0.88387  0.33411  0.64612  1.0000
  H   H2046     1.0  0.91044  0.35512  0.67057  1.0000
  H   H2047     1.0  0.91046  0.32737  0.67106  1.0000
  H   H2048     1.0  0.87139  0.33872  0.61478  1.0000
  H   H2049     1.0  0.89465  0.32156  0.60477  1.0000
  H   H2050     1.0  0.93281  0.32286  0.59370  1.0000
  H   H2051     1.0  0.95135  0.33567  0.60351  1.0000
  H   H2052     1.0  0.96542  0.41809  0.53939  1.0000
  H   H2053     1.0  0.83087  0.18466  0.70400  1.0000
  H   H2054     1.0  0.79084  0.30240  0.73601  1.0000
  H   H2055     1.0  0.88764  0.34032  0.70230  1.0000
  H   H2056     1.0  0.87147  0.35900  0.68524  1.0000
  H   H2057     1.0  0.87191  0.33090  0.68594  1.0000
  H   H2058     1.0  0.86845  0.33290  0.57880  1.0000
  H   H2059     1.0  0.87209  0.35990  0.57791  1.0000
  H   H2060     1.0  0.89425  0.34090  0.56844  1.0000
  N   N63       1.0  0.61156  0.16299  0.64141  1.0000
  C   C1180     1.0  0.58997  0.17042  0.63393  1.0000
  C   C1181     1.0  0.61109  0.14162  0.65485  1.0000
  C   C1182     1.0  0.61479  0.17810  0.65585  1.0000
  C   C1183     1.0  0.62999  0.16239  0.62316  1.0000
  C   C1184     1.0  0.62534  0.15771  0.60144  1.0000
  C   C1185     1.0  0.58627  0.19387  0.62373  1.0000
  C   C1186     1.0  0.63469  0.17176  0.66778  1.0000
  C   C1187     1.0  0.60624  0.12377  0.64390  1.0000
  C   C1188     1.0  0.60402  0.10375  0.65992  1.0000
  C   C1189     1.0  0.64604  0.15373  0.58591  1.0000
  C   C1190     1.0  0.56799  0.19823  0.61021  1.0000
  C   C1191     1.0  0.63903  0.19010  0.67790  1.0000
  H   H2061     1.0  0.57685  0.16824  0.64763  1.0000
  H   H2062     1.0  0.58699  0.16068  0.62232  1.0000
  H   H2063     1.0  0.62678  0.13566  0.66060  1.0000
  H   H2064     1.0  0.59905  0.14295  0.66951  1.0000
  H   H2065     1.0  0.60052  0.18036  0.66828  1.0000
  H   H2066     1.0  0.61622  0.19398  0.64657  1.0000
  H   H2067     1.0  0.63641  0.17771  0.61940  1.0000
  H   H2068     1.0  0.64374  0.15065  0.62806  1.0000
  H   H2069     1.0  0.61500  0.17127  0.59366  1.0000
  H   H2070     1.0  0.61700  0.14382  0.60339  1.0000
  H   H2071     1.0  0.58196  0.20407  0.63659  1.0000
  H   H2072     1.0  0.60092  0.19860  0.61339  1.0000
  H   H2073     1.0  0.64929  0.16672  0.65676  1.0000
  H   H2074     1.0  0.63193  0.15864  0.68099  1.0000
  H   H2075     1.0  0.59102  0.12821  0.63711  1.0000
  H   H2076     1.0  0.61960  0.11970  0.63115  1.0000
  H   H2077     1.0  0.59049  0.10670  0.67294  1.0000
  H   H2078     1.0  0.60071  0.09118  0.65162  1.0000
  H   H2079     1.0  0.61904  0.09813  0.66704  1.0000
  H   H2080     1.0  0.65502  0.16740  0.58312  1.0000
  H   H2081     1.0  0.65639  0.13934  0.59226  1.0000
  H   H2082     1.0  0.64216  0.15124  0.57028  1.0000
  H   H2083     1.0  0.56510  0.21528  0.60401  1.0000
  H   H2084     1.0  0.57213  0.18930  0.59635  1.0000
  H   H2085     1.0  0.55298  0.19364  0.61997  1.0000
  H   H2086     1.0  0.65284  0.18490  0.68697  1.0000
  H   H2087     1.0  0.64297  0.20344  0.66537  1.0000
  H   H2088     1.0  0.62483  0.19564  0.68919  1.0000
  H   H2089     1.0  0.56001  0.21549  0.68921  1.0000
  H   H2090     1.0  0.80363  0.28652  0.61099  1.0000
  C   C1192     1.0  0.76629  0.20791  0.73105  1.0000
  H   H2091     1.0  0.54792  0.05963  0.64810  1.0000
  C   C1193     1.0  0.59814  0.06823  0.55125  1.0000
  C   C1194     1.0  0.52736  0.09779  0.58802  1.0000
  C   C1195     1.0  0.57677  0.06195  0.56294  1.0000
  H   H2092     1.0  0.76243  0.23255  0.53222  1.0000
  H   H2093     1.0  0.96309  0.32385  0.51577  1.0000
  H   H2094     1.0  0.59972  0.17773  0.73333  1.0000
  H   H2095     1.0  0.86159  0.28110  0.67399  1.0000
  H   H2096     1.0  0.89390  0.19950  0.58758  1.0000
  C   C1196     1.0  0.56630  0.20021  0.69707  1.0000
  C   C1197     1.0  0.86670  0.27655  0.63080  1.0000
  H   H2097     1.0  0.50450  0.03282  0.57073  1.0000
  S   S278      1.0  0.63295  0.25070  0.72719  1.0000
  H   H2098     1.0  0.53246  0.11902  0.55763  1.0000
  H   H2099     1.0  0.92338  0.17469  0.71513  1.0000
  H   H2100     1.0  0.85518  0.24906  0.50674  1.0000
  H   H2101     1.0  0.76123  0.20736  0.54851  1.0000
  C   C1198     1.0  0.49789  0.18547  0.73489  1.0000
  H   H2102     1.0  0.99313  0.41859  0.49517  1.0000
  N   N64       1.0  0.54044  0.07707  0.58328  1.0000
  H   H2103     1.0  0.89125  0.23822  0.58188  1.0000
  H   H2104     1.0  0.51714  0.26194  0.70218  1.0000
  H   H2105     1.0  0.97499  0.27205  0.71113  1.0000
  Fe  Fe140     1.0  0.89077  0.31889  0.50924  1.0000
  Fe  Fe141     1.0  0.90642  0.26056  0.72188  1.0000
  H   H2106     1.0  0.68453  0.19961  0.54593  1.0000
  H   H2107     1.0  0.85872  0.19227  0.53538  1.0000
  S   S279      1.0  0.98881  0.39294  0.62638  1.0000
  H   H2108     1.0  0.73553  0.19851  0.52739  1.0000
  H   H2109     1.0  0.88246  0.27282  0.57702  1.0000
  H   H2110     1.0  0.85024  0.27588  0.63986  1.0000
  N   N65       1.0  0.71808  0.22633  0.54014  1.0000
  C   C1199     1.0  0.71557  0.21343  0.56203  1.0000
  H   H2111     1.0  0.65685  0.22073  0.52569  1.0000
  C   C1200     1.0  0.72150  0.24818  0.54247  1.0000
  H   H2112     1.0  0.56924  0.09194  0.57563  1.0000
  H   H2113     1.0  0.53697  0.10714  0.59487  1.0000
  C   C1201     1.0  0.69622  0.22142  0.57819  1.0000
  C   C1202     1.0  0.56078  0.08158  0.56875  1.0000
  H   H2114     1.0  0.96458  0.42650  0.50046  1.0000
  H   H2115     1.0  0.91441  0.30221  0.57142  1.0000
  H   H2116     1.0  0.71085  0.26821  0.51406  1.0000
  C   C1203     1.0  0.69426  0.20597  0.59897  1.0000
  C   C1204     1.0  0.58053  0.19889  0.71201  1.0000
  H   H2117     1.0  0.73008  0.21253  0.56970  1.0000
  H   H2118     1.0  0.71465  0.19680  0.56071  1.0000
  H   H2119     1.0  0.98356  0.26601  0.68426  1.0000
  C   C1205     1.0  0.91121  0.16890  0.70788  1.0000
  H   H2120     1.0  0.73454  0.24747  0.55226  1.0000
  H   H2121     1.0  0.70710  0.25631  0.55170  1.0000
  H   H2122     1.0  0.68495  0.23898  0.53701  1.0000
  C   C1206     1.0  0.50548  0.06178  0.58337  1.0000
  H   H2123     1.0  0.77525  0.19009  0.51538  1.0000
  H   H2124     1.0  0.52751  0.07234  0.55537  1.0000
  H   H2125     1.0  0.69829  0.23673  0.58250  1.0000
  H   H2126     1.0  0.68091  0.22339  0.57160  1.0000
  Fe  Fe142     1.0  0.86715  0.23866  0.72565  1.0000
  H   H2127     1.0  0.51059  0.10429  0.55932  1.0000
  C   C1207     1.0  0.97827  0.41529  0.50605  1.0000
  C   C1208     1.0  0.78320  0.27189  0.73201  1.0000
  H   H2128     1.0  0.96668  0.29972  0.59591  1.0000
  H   H2129     1.0  0.98392  0.43617  0.52716  1.0000
  C   C1209     1.0  0.81796  0.15839  0.67994  1.0000
  H   H2130     1.0  0.78305  0.23423  0.71896  1.0000
  H   H2131     1.0  0.96605  0.30260  0.62349  1.0000
  H   H2132     1.0  0.81737  0.16443  0.71994  1.0000
  H   H2133     1.0  0.69225  0.19019  0.59575  1.0000
  H   H2134     1.0  0.70879  0.20445  0.60688  1.0000
  H   H2135     1.0  0.68014  0.21183  0.61015  1.0000
  C   C1210     1.0  0.51895  0.11253  0.56855  1.0000
  H   H2136     1.0  0.79308  0.20636  0.52145  1.0000
  H   H2137     1.0  0.72221  0.29143  0.53651  1.0000
  N   N66       1.0  0.74881  0.26880  0.71654  1.0000
  C   C1211     1.0  0.76003  0.27085  0.69373  1.0000
  H   H2138     1.0  0.88887  0.27193  0.67826  1.0000
  C   C1212     1.0  0.72599  0.27965  0.71606  1.0000
  C   C1213     1.0  0.84741  0.26872  0.60376  1.0000
  C   C1214     1.0  0.98032  0.23923  0.70843  1.0000
  C   C1215     1.0  0.76098  0.29356  0.68190  1.0000
  C   C1216     1.0  0.88098  0.23066  0.59569  1.0000
  H   H2139     1.0  0.86583  0.23547  0.62761  1.0000
  C   C1217     1.0  0.76745  0.22959  0.71785  1.0000
  C   C1218     1.0  0.77469  0.29334  0.65990  1.0000
  H   H2140     1.0  0.55702  0.09081  0.55323  1.0000
  H   H2141     1.0  0.75215  0.26253  0.68395  1.0000
  H   H2142     1.0  0.77673  0.26288  0.69278  1.0000
  H   H2143     1.0  0.70242  0.19571  0.52173  1.0000
  H   H2144     1.0  0.93772  0.28369  0.57741  1.0000
  H   H2145     1.0  0.71895  0.27451  0.70330  1.0000
  H   H2146     1.0  0.72557  0.29700  0.71178  1.0000
  H   H2147     1.0  0.84812  0.26116  0.58933  1.0000
  H   H2148     1.0  0.87001  0.21619  0.53371  1.0000
  H   H2149     1.0  0.74469  0.30158  0.67924  1.0000
  H   H2150     1.0  0.76816  0.30297  0.69106  1.0000
  C   C1219     1.0  0.89232  0.20828  0.60138  1.0000
  H   H2151     1.0  0.87845  0.25077  0.65475  1.0000
  H   H2152     1.0  0.57772  0.07021  0.60601  1.0000
  H   H2153     1.0  0.59573  0.08015  0.53694  1.0000
  H   H2154     1.0  0.56910  0.04143  0.63571  1.0000
  H   H2155     1.0  0.76793  0.28442  0.64984  1.0000
  H   H2156     1.0  0.77493  0.30972  0.65159  1.0000
  H   H2157     1.0  0.79144  0.28600  0.66155  1.0000
  C   C1220     1.0  0.54511  0.06398  0.60426  1.0000
  H   H2158     1.0  0.83695  0.30158  0.61051  1.0000
  H   H2159     1.0  0.57540  0.06401  0.64518  1.0000
  C   C1221     1.0  0.56356  0.05826  0.63746  1.0000
  H   H2160     1.0  0.60880  0.05418  0.54595  1.0000
  H   H2161     1.0  0.57014  0.05376  0.55214  1.0000
  H   H2162     1.0  0.58808  0.14550  0.72552  1.0000
  C   C1222     1.0  0.58861  0.17902  0.72196  1.0000
  H   H2163     1.0  0.77704  0.21589  0.50015  1.0000
  H   H2164     1.0  0.85115  0.15999  0.67988  1.0000
  H   H2165     1.0  0.75677  0.29676  0.72593  1.0000
  H   H2166     1.0  0.66538  0.19553  0.51646  1.0000
  C   C1223     1.0  0.87189  0.16420  0.71231  1.0000
  H   H2167     1.0  0.67462  0.21873  0.50072  1.0000
  H   H2168     1.0  0.86546  0.22927  0.59076  1.0000
  C   C1224     1.0  0.56153  0.07146  0.61560  1.0000
  H   H2169     1.0  0.84457  0.29902  0.58254  1.0000
  H   H2170     1.0  0.53008  0.06356  0.61591  1.0000
  C   C1225     1.0  0.55976  0.18194  0.69251  1.0000
  C   C1226     1.0  0.91337  0.38649  0.63124  1.0000
  H   H2171     1.0  0.90482  0.39355  0.61744  1.0000
  C   C1227     1.0  0.88189  0.26685  0.64763  1.0000
  C   C1228     1.0  0.83644  0.29173  0.59806  1.0000
  S   S280      1.0  0.90191  0.22929  0.71392  1.0000
  N   N67       1.0  0.86934  0.26643  0.61056  1.0000
  H   H2172     1.0  0.92076  0.41696  0.63506  1.0000
  H   H2173     1.0  0.49732  0.14144  0.56146  1.0000
  C   C1229     1.0  0.52843  0.06492  0.57224  1.0000
  H   H2174     1.0  0.83645  0.26024  0.61647  1.0000
  H   H2175     1.0  0.50581  0.05336  0.59991  1.0000
  C   C1230     1.0  0.81295  0.29247  0.59555  1.0000
  H   H2176     1.0  0.88298  0.19974  0.61532  1.0000
  C   C1231     1.0  0.92938  0.40101  0.63281  1.0000
  H   H2177     1.0  0.94109  0.40246  0.61793  1.0000
  C   C1232     1.0  0.84755  0.21729  0.51112  1.0000
  H   H2178     1.0  0.83330  0.22212  0.52272  1.0000
  C   C1233     1.0  0.92065  0.28521  0.57509  1.0000
  H   H2179     1.0  0.89276  0.24028  0.62152  1.0000
  C   C1234     1.0  0.56735  0.16212  0.70296  1.0000
  S   S281      1.0  0.87122  0.27081  0.73107  1.0000
  C   C1235     1.0  0.71020  0.27609  0.73717  1.0000
  C   C1236     1.0  0.96525  0.36387  0.49104  1.0000
  H   H2180     1.0  0.84129  0.13780  0.69691  1.0000
  C   C1237     1.0  0.75948  0.21622  0.53237  1.0000
  H   H2181     1.0  0.55088  0.04722  0.60220  1.0000
  H   H2182     1.0  0.91474  0.25815  0.59799  1.0000
  S   S282      1.0  0.91754  0.33839  0.50462  1.0000
  H   H2183     1.0  0.68125  0.28239  0.72181  1.0000
  C   C1238     1.0  0.87853  0.27984  0.66608  1.0000
  H   H2184     1.0  0.81308  0.17542  0.67473  1.0000
  C   C1239     1.0  0.67050  0.21084  0.51733  1.0000
  H   H2185     1.0  0.87815  0.29480  0.59060  1.0000
  H   H2186     1.0  0.53741  0.04887  0.57093  1.0000
  C   C1240     1.0  0.83320  0.16768  0.71092  1.0000
  H   H2187     1.0  0.51028  0.15533  0.72337  1.0000
  H   H2188     1.0  0.58018  0.05058  0.57731  1.0000
  H   H2189     1.0  0.79295  0.27224  0.71596  1.0000
  S   S283      1.0  0.99249  0.35791  0.57819  1.0000
  H   H2190     1.0  0.77551  0.25517  0.49871  1.0000
  H   H2191     1.0  0.51353  0.09512  0.60073  1.0000
  H   H2192     1.0  0.98926  0.34864  0.51210  1.0000
  H   H2193     1.0  0.78215  0.28166  0.49336  1.0000
  C   C1241     1.0  0.69833  0.22808  0.52953  1.0000
  H   H2194     1.0  0.91670  0.15206  0.70618  1.0000
  C   C1242     1.0  0.83753  0.15493  0.69170  1.0000
  H   H2195     1.0  0.96164  0.38865  0.52007  1.0000
  C   C1243     1.0  0.97594  0.32459  0.50178  1.0000
  C   C1244     1.0  0.97487  0.39209  0.50692  1.0000
  H   H2196     1.0  0.51264  0.22561  0.71348  1.0000
  H   H2197     1.0  0.91006  0.17823  0.69180  1.0000
  H   H2198     1.0  0.81298  0.23641  0.49766  1.0000
  H   H2199     1.0  0.91992  0.27731  0.56113  1.0000
  H   H2200     1.0  0.53616  0.23017  0.72273  1.0000
  H   H2201     1.0  0.77894  0.19623  0.72382  1.0000
  C   C1245     1.0  0.50301  0.13117  0.57569  1.0000
  H   H2202     1.0  0.80424  0.15183  0.69041  1.0000
  C   C1246     1.0  0.58198  0.16077  0.71750  1.0000
  C   C1247     1.0  0.86500  0.20554  0.52417  1.0000
  H   H2203     1.0  0.87920  0.19905  0.51345  1.0000
  H   H2204     1.0  0.82191  0.15038  0.66543  1.0000
  H   H2205     1.0  0.73701  0.22192  0.50927  1.0000
  S   S284      1.0  0.50126  0.07426  0.66337  1.0000
  S   S285      1.0  0.58663  0.22253  0.71855  1.0000
  H   H2206     1.0  0.51077  0.14075  0.58417  1.0000
  H   H2207     1.0  0.96325  0.23923  0.70687  1.0000
  S   S286      1.0  0.50368  0.12686  0.68466  1.0000
  H   H2208     1.0  0.98943  0.38224  0.51248  1.0000
  H   H2209     1.0  0.53073  0.19232  0.72715  1.0000
  H   H2210     1.0  0.89902  0.42060  0.49343  1.0000
  H   H2211     1.0  0.51121  0.17807  0.70290  1.0000
  H   H2212     1.0  0.70379  0.17446  0.48980  1.0000
  H   H2213     1.0  0.52085  0.26561  0.72853  1.0000
  H   H2214     1.0  0.81755  0.26192  0.50041  1.0000
  C   C1248     1.0  0.98624  0.26140  0.70119  1.0000
  H   H2215     1.0  0.93327  0.40918  0.50758  1.0000
  H   H2216     1.0  0.98832  0.30165  0.70677  1.0000
  H   H2217     1.0  0.70151  0.23537  0.51248  1.0000
  Fe  Fe143     1.0  0.85986  0.35444  0.49099  1.0000
  H   H2218     1.0  0.75046  0.20287  0.73128  1.0000
  H   H2219     1.0  0.85228  0.12967  0.72791  1.0000
  H   H2220     1.0  0.99040  0.22790  0.69837  1.0000
  C   C1249     1.0  0.98355  0.34616  0.49736  1.0000
  S   S287      1.0  0.49975  0.13273  0.63305  1.0000
  H   H2221     1.0  0.76722  0.22794  0.70085  1.0000
  C   C1250     1.0  0.73401  0.28289  0.52497  1.0000
  H   H2222     1.0  0.49497  0.07711  0.58412  1.0000
  N   N68       1.0  0.85008  0.16349  0.72578  1.0000
  C   C1251     1.0  0.74814  0.24581  0.72547  1.0000
  H   H2223     1.0  0.73408  0.24040  0.72095  1.0000
  C   C1252     1.0  0.51234  0.25716  0.71958  1.0000
  C   C1253     1.0  0.88959  0.17145  0.72226  1.0000
  H   H2224     1.0  0.68816  0.30514  0.73066  1.0000
  C   C1254     1.0  0.51845  0.23339  0.72516  1.0000
  H   H2225     1.0  0.98952  0.31216  0.50547  1.0000
  C   C1255     1.0  0.81885  0.25090  0.48853  1.0000
  C   C1256     1.0  0.49510  0.04876  0.57122  1.0000
  C   C1257     1.0  0.85498  0.23701  0.49634  1.0000
  H   H2226     1.0  0.87206  0.23248  0.48970  1.0000
  H   H2227     1.0  0.98388  0.33684  0.72126  1.0000
  C   C1258     1.0  0.98052  0.41979  0.52824  1.0000
  S   S288      1.0  0.69201  0.21466  0.73087  1.0000
  C   C1259     1.0  0.93116  0.40334  0.49283  1.0000
  H   H2228     1.0  0.88535  0.18841  0.72396  1.0000
  C   C1260     1.0  0.68778  0.28791  0.73463  1.0000
  H   H2229     1.0  0.84325  0.20609  0.50174  1.0000
  H   H2230     1.0  0.84686  0.19613  0.72982  1.0000
  H   H2231     1.0  0.98241  0.23391  0.72547  1.0000
  H   H2232     1.0  0.57706  0.99355  0.49226  1.0000
  H   H2233     1.0  0.92472  0.38817  0.49747  1.0000
  Fe  Fe144     1.0  0.99152  0.36768  0.65495  1.0000
  H   H2234     1.0  0.49478  0.26183  0.72343  1.0000
  H   H2235     1.0  0.99388  0.40881  0.53490  1.0000
  H   H2236     1.0  0.73525  0.19241  0.48838  1.0000
  Fe  Fe145     1.0  0.51852  0.34369  0.84159  1.0000
  S   S289      1.0  0.52732  0.33590  0.80776  1.0000
  S   S290      1.0  0.52849  0.36582  0.86059  1.0000
  H   H2237     1.0  0.69859  0.19190  0.77376  1.0000
  H   H2238     1.0  0.55714  0.20756  0.87751  1.0000
  N   N69       1.0  0.53904  0.23509  0.86168  1.0000
  Fe  Fe146     1.0  0.62691  0.21801  0.78378  1.0000
  S   S291      1.0  0.65068  0.24036  0.77325  1.0000
  S   S292      1.0  0.62384  0.20140  0.81789  1.0000
  Fe  Fe147     1.0  0.62371  0.26201  0.75946  1.0000
  S   S293      1.0  0.61990  0.29447  0.76943  1.0000
  H   H2239     1.0  0.80950  0.28006  0.74503  1.0000
  H   H2240     1.0  0.83201  0.14080  0.74662  1.0000
  S   S294      1.0  0.59931  0.24010  0.77139  1.0000
  H   H2241     1.0  0.76295  0.31185  0.90432  1.0000
  H   H2242     1.0  0.85752  0.28560  0.88106  1.0000
  S   S295      1.0  0.69597  0.36372  0.95220  1.0000
  C   C1261     1.0  0.98853  0.18986  0.78251  1.0000
  H   H2243     1.0  0.67780  0.28306  0.96061  1.0000
  Fe  Fe148     1.0  0.70975  0.23044  0.87962  1.0000
  S   S296      1.0  0.71150  0.25726  0.85298  1.0000
  S   S297      1.0  0.68354  0.20984  0.88556  1.0000
  Fe  Fe149     1.0  0.74814  0.24026  0.89749  1.0000
  S   S298      1.0  0.75267  0.26811  0.87202  1.0000
  S   S299      1.0  0.76756  0.23512  0.92493  1.0000
  Fe  Fe150     1.0  0.71682  0.27562  0.87795  1.0000
  S   S300      1.0  0.69795  0.30773  0.88073  1.0000
  Fe  Fe151     1.0  0.74709  0.24689  0.84965  1.0000
  S   S301      1.0  0.76446  0.24312  0.81646  1.0000
  S   S302      1.0  0.71256  0.24952  0.90499  1.0000
  S   S303      1.0  0.74512  0.21837  0.87473  1.0000
  Fe  Fe152     1.0  0.87643  0.25494  0.76413  1.0000
  S   S304      1.0  0.87053  0.22327  0.75921  1.0000
  S   S305      1.0  0.85895  0.26646  0.79458  1.0000
  S   S306      1.0  0.55074  0.32636  0.91072  1.0000
  C   C1262     1.0  0.85898  0.11419  0.76941  1.0000
  C   C1263     1.0  0.96774  0.20554  0.85462  1.0000
  Fe  Fe153     1.0  0.61772  0.37323  0.98341  1.0000
  S   S307      1.0  0.92498  0.18611  0.75959  1.0000
  H   H2244     1.0  0.95069  0.12272  0.91052  1.0000
  H   H2245     1.0  0.95749  0.15491  0.97346  1.0000
  H   H2246     1.0  0.98301  0.20832  0.84417  1.0000
  C   C1264     1.0  0.97794  0.20744  0.77068  1.0000
  C   C1265     1.0  0.95865  0.20631  0.76339  1.0000
  C   C1266     1.0  0.94980  0.18752  0.76773  1.0000
  C   C1267     1.0  0.96075  0.16970  0.77897  1.0000
  H   H2247     1.0  0.76145  0.34029  0.97765  1.0000
  H   H2248     1.0  0.53730  0.35288  0.96629  1.0000
  C   C1268     1.0  0.79052  0.25006  0.81052  1.0000
  C   C1269     1.0  0.79963  0.25782  0.82553  1.0000
  C   C1270     1.0  0.82043  0.26328  0.82030  1.0000
  C   C1271     1.0  0.83243  0.26060  0.80029  1.0000
  C   C1272     1.0  0.82321  0.25305  0.78520  1.0000
  C   C1273     1.0  0.80231  0.24784  0.79031  1.0000
  H   H2249     1.0  0.79065  0.25971  0.84110  1.0000
  H   H2250     1.0  0.82725  0.26963  0.83171  1.0000
  H   H2251     1.0  0.83202  0.25154  0.76947  1.0000
  H   H2252     1.0  0.79522  0.24219  0.77853  1.0000
  C   C1274     1.0  0.69933  0.34476  0.93467  1.0000
  C   C1275     1.0  0.71472  0.34639  0.91634  1.0000
  C   C1276     1.0  0.71547  0.33382  0.90030  1.0000
  C   C1277     1.0  0.70150  0.31887  0.90294  1.0000
  C   C1278     1.0  0.68774  0.31568  0.92225  1.0000
  C   C1279     1.0  0.68642  0.32880  0.93800  1.0000
  H   H2253     1.0  0.72519  0.35831  0.91391  1.0000
  H   H2254     1.0  0.72617  0.33641  0.88541  1.0000
  H   H2255     1.0  0.67724  0.30383  0.92446  1.0000
  H   H2256     1.0  0.67500  0.32693  0.95239  1.0000
  C   C1280     1.0  0.95422  0.13781  0.91292  1.0000
  C   C1281     1.0  0.94009  0.14962  0.92732  1.0000
  H   H2257     1.0  0.67241  0.16911  0.77058  1.0000
  H   H2258     1.0  0.92568  0.14372  0.93566  1.0000
  C   C1282     1.0  0.81521  0.17539  0.93878  1.0000
  C   C1283     1.0  0.80518  0.17855  0.92033  1.0000
  C   C1284     1.0  0.78997  0.19651  0.91613  1.0000
  C   C1285     1.0  0.78465  0.21125  0.93049  1.0000
  Fe  Fe154     1.0  0.90595  0.21743  0.74825  1.0000
  H   H2259     1.0  0.80946  0.16727  0.90911  1.0000
  H   H2260     1.0  0.78268  0.19911  0.90164  1.0000
  C   C1286     1.0  0.56052  0.27011  0.89557  1.0000
  H   H2261     1.0  0.52196  0.38349  0.94221  1.0000
  C   C1287     1.0  0.64099  0.20465  0.83588  1.0000
  C   C1288     1.0  0.64004  0.19174  0.85572  1.0000
  C   C1289     1.0  0.65311  0.19365  0.87069  1.0000
  C   C1290     1.0  0.66725  0.20859  0.86614  1.0000
  C   C1291     1.0  0.66808  0.22183  0.84647  1.0000
  C   C1292     1.0  0.65513  0.21974  0.83127  1.0000
  H   H2262     1.0  0.62930  0.18001  0.85950  1.0000
  H   H2263     1.0  0.65232  0.18337  0.88586  1.0000
  H   H2264     1.0  0.67868  0.23363  0.84301  1.0000
  H   H2265     1.0  0.65603  0.22992  0.81617  1.0000
  C   C1293     1.0  0.56214  0.34193  0.92486  1.0000
  C   C1294     1.0  0.57473  0.33195  0.94074  1.0000
  C   C1295     1.0  0.58329  0.34385  0.95296  1.0000
  C   C1296     1.0  0.57937  0.36588  0.94933  1.0000
  C   C1297     1.0  0.56700  0.37581  0.93326  1.0000
  C   C1298     1.0  0.55854  0.36392  0.92098  1.0000
  H   H2266     1.0  0.57765  0.31493  0.94382  1.0000
  H   H2267     1.0  0.56384  0.39282  0.93035  1.0000
  H   H2268     1.0  0.54899  0.37178  0.90871  1.0000
  C   C1299     1.0  0.55318  0.32344  0.79866  1.0000
  C   C1300     1.0  0.57162  0.32875  0.80434  1.0000
  C   C1301     1.0  0.59202  0.32011  0.79496  1.0000
  C   C1302     1.0  0.59411  0.30522  0.78083  1.0000
  C   C1303     1.0  0.57566  0.29946  0.77572  1.0000
  C   C1304     1.0  0.55532  0.30900  0.78412  1.0000
  H   H2269     1.0  0.57013  0.34026  0.81512  1.0000
  H   H2270     1.0  0.71569  0.28177  0.75048  1.0000
  H   H2271     1.0  0.57709  0.28833  0.76453  1.0000
  H   H2272     1.0  0.54119  0.30538  0.77910  1.0000
  C   C1305     1.0  0.74760  0.29062  0.94360  1.0000
  C   C1306     1.0  0.97288  0.14533  0.90164  1.0000
  C   C1307     1.0  0.52936  0.24452  0.82273  1.0000
  H   H2273     1.0  0.97279  0.11727  0.82036  1.0000
  H   H2274     1.0  0.78963  0.21859  0.96077  1.0000
  H   H2275     1.0  0.50727  0.17872  0.78228  1.0000
  C   C1308     1.0  0.83883  0.30041  0.85620  1.0000
  H   H2276     1.0  0.73575  0.30354  0.93688  1.0000
  H   H2277     1.0  0.96678  0.19164  0.92184  1.0000
  H   H2278     1.0  0.95647  0.22053  0.85358  1.0000
  H   H2279     1.0  0.77654  0.16799  0.75964  1.0000
  N   N70       1.0  0.51789  0.20330  0.75742  1.0000
  N   N71       1.0  0.84189  0.24697  0.89503  1.0000
  C   C1309     1.0  0.83322  0.22740  0.89249  1.0000
  C   C1310     1.0  0.83079  0.25450  0.91572  1.0000
  C   C1311     1.0  0.83583  0.26382  0.87686  1.0000
  C   C1312     1.0  0.86602  0.24367  0.89423  1.0000
  C   C1313     1.0  0.87675  0.22135  0.90296  1.0000
  C   C1314     1.0  0.84002  0.21983  0.87021  1.0000
  C   C1315     1.0  0.84097  0.28620  0.87754  1.0000
  C   C1316     1.0  0.83574  0.24016  0.93664  1.0000
  H   H2280     1.0  0.80468  0.25000  0.95468  1.0000
  C   C1317     1.0  0.90035  0.22126  0.90463  1.0000
  C   C1318     1.0  0.83614  0.19719  0.87076  1.0000
  H   H2281     1.0  0.81532  0.23013  0.89514  1.0000
  H   H2282     1.0  0.83749  0.21409  0.90504  1.0000
  H   H2283     1.0  0.83537  0.26984  0.91730  1.0000
  H   H2284     1.0  0.81305  0.25719  0.91579  1.0000
  H   H2285     1.0  0.81834  0.26529  0.87585  1.0000
  H   H2286     1.0  0.84440  0.25924  0.86135  1.0000
  H   H2287     1.0  0.87410  0.24708  0.87745  1.0000
  H   H2288     1.0  0.87082  0.25524  0.90294  1.0000
  H   H2289     1.0  0.87609  0.21002  0.89204  1.0000
  H   H2290     1.0  0.86880  0.21519  0.91890  1.0000
  H   H2291     1.0  0.83041  0.22991  0.85836  1.0000
  H   H2292     1.0  0.85717  0.22087  0.86419  1.0000
  H   H2293     1.0  0.82952  0.29386  0.88997  1.0000
  H   H2294     1.0  0.83268  0.22390  0.93675  1.0000
  H   H2295     1.0  0.85270  0.23981  0.93875  1.0000
  H   H2296     1.0  0.55584  0.26158  0.91178  1.0000
  C   C1319     1.0  0.67599  0.17064  0.78663  1.0000
  H   H2297     1.0  0.71456  0.26864  0.94477  1.0000
  H   H2298     1.0  0.90188  0.23115  0.91676  1.0000
  H   H2299     1.0  0.90785  0.20495  0.90981  1.0000
  H   H2300     1.0  0.90919  0.22719  0.88892  1.0000
  H   H2301     1.0  0.81874  0.19610  0.87484  1.0000
  H   H2302     1.0  0.84175  0.19222  0.85473  1.0000
  H   H2303     1.0  0.84494  0.18629  0.88269  1.0000
  N   N72       1.0  0.92391  0.17040  0.85332  1.0000
  C   C1320     1.0  0.91824  0.17974  0.83134  1.0000
  C   C1321     1.0  0.93534  0.14801  0.85330  1.0000
  C   C1322     1.0  0.90305  0.16962  0.86839  1.0000
  C   C1323     1.0  0.93718  0.18372  0.86148  1.0000
  C   C1324     1.0  0.95842  0.18829  0.84713  1.0000
  C   C1325     1.0  0.90568  0.20244  0.82935  1.0000
  C   C1326     1.0  0.90499  0.15931  0.89179  1.0000
  C   C1327     1.0  0.95015  0.14277  0.83252  1.0000
  C   C1328     1.0  0.96262  0.12057  0.83562  1.0000
  H   H2304     1.0  0.82234  0.30176  0.85217  1.0000
  C   C1329     1.0  0.90322  0.21116  0.80609  1.0000
  C   C1330     1.0  0.88298  0.15715  0.90490  1.0000
  H   H2305     1.0  0.90847  0.16946  0.82592  1.0000
  H   H2306     1.0  0.93270  0.18004  0.81909  1.0000
  H   H2307     1.0  0.94510  0.14348  0.86673  1.0000
  H   H2308     1.0  0.92355  0.13662  0.85628  1.0000
  H   H2309     1.0  0.89224  0.16113  0.86198  1.0000
  H   H2310     1.0  0.89436  0.18570  0.86964  1.0000
  H   H2311     1.0  0.92744  0.19892  0.86493  1.0000
  H   H2312     1.0  0.94191  0.17600  0.87721  1.0000
  C   C1331     1.0  0.50347  0.19604  0.77751  1.0000
  H   H2313     1.0  0.97051  0.17389  0.84815  1.0000
  H   H2314     1.0  0.88924  0.20266  0.83830  1.0000
  H   H2315     1.0  0.91404  0.21343  0.83536  1.0000
  H   H2316     1.0  0.91273  0.16931  0.89976  1.0000
  H   H2317     1.0  0.91445  0.14336  0.89253  1.0000
  H   H2318     1.0  0.94040  0.14346  0.81950  1.0000
  H   H2319     1.0  0.96188  0.15391  0.82722  1.0000
  H   H2320     1.0  0.95083  0.21991  0.75412  1.0000
  H   H2321     1.0  0.97328  0.11910  0.84801  1.0000
  H   H2322     1.0  0.80390  0.20167  0.77700  1.0000
  H   H2323     1.0  0.87051  0.10916  0.78115  1.0000
  H   H2324     1.0  0.98842  0.15707  0.79501  1.0000
  H   H2325     1.0  0.89333  0.22695  0.80523  1.0000
  H   H2326     1.0  0.91915  0.21285  0.79650  1.0000
  H   H2327     1.0  0.89519  0.20062  0.79901  1.0000
  H   H2328     1.0  0.88501  0.14937  0.92140  1.0000
  H   H2329     1.0  0.87325  0.17282  0.90610  1.0000
  H   H2330     1.0  0.87417  0.14737  0.89771  1.0000
  C   C1332     1.0  0.79224  0.28590  0.74425  1.0000
  C   C1333     1.0  0.77030  0.29693  0.93595  1.0000
  H   H2331     1.0  0.75088  0.27701  0.74751  1.0000
  H   H2332     1.0  0.51971  0.20298  0.80286  1.0000
  C   C1334     1.0  0.54011  0.20417  0.76208  1.0000
  H   H2333     1.0  0.52639  0.17195  0.74853  1.0000
  H   H2334     1.0  0.53418  0.22807  0.81975  1.0000
  H   H2335     1.0  0.98374  0.10263  0.96108  1.0000
  C   C1335     1.0  0.55209  0.18335  0.77276  1.0000
  C   C1336     1.0  0.82288  0.18270  0.75374  1.0000
  H   H2336     1.0  0.67484  0.15538  0.79719  1.0000
  H   H2337     1.0  0.59280  0.33600  0.96527  1.0000
  C   C1337     1.0  0.57259  0.18726  0.77997  1.0000
  C   C1338     1.0  0.76345  0.15812  0.76411  1.0000
  S   S308      1.0  0.86459  0.19011  0.96411  1.0000
  H   H2338     1.0  0.53981  0.21685  0.77194  1.0000
  H   H2339     1.0  0.78283  0.28468  0.94225  1.0000
  H   H2340     1.0  0.82180  0.21570  0.75707  1.0000
  H   H2341     1.0  0.79115  0.30514  0.90634  1.0000
  H   H2342     1.0  0.50804  0.31165  0.93402  1.0000
  H   H2343     1.0  0.82503  0.23748  0.97083  1.0000
  H   H2344     1.0  0.51019  0.23680  0.75879  1.0000
  H   H2345     1.0  0.73972  0.15002  0.79103  1.0000
  H   H2346     1.0  0.55684  0.17188  0.76115  1.0000
  H   H2347     1.0  0.54214  0.17595  0.78695  1.0000
  S   S309      1.0  0.83545  0.15377  0.94314  1.0000
  H   H2348     1.0  0.57735  0.17278  0.83599  1.0000
  C   C1339     1.0  0.55746  0.21719  0.86134  1.0000
  C   C1340     1.0  0.51942  0.18800  0.74174  1.0000
  C   C1341     1.0  0.55897  0.20217  0.84454  1.0000
  H   H2349     1.0  0.58140  0.17211  0.78679  1.0000
  H   H2350     1.0  0.58326  0.19451  0.76618  1.0000
  H   H2351     1.0  0.56872  0.19791  0.79240  1.0000
  C   C1342     1.0  0.96316  0.14463  0.98777  1.0000
  H   H2352     1.0  0.74681  0.27705  0.93535  1.0000
  H   H2353     1.0  0.98413  0.26367  0.76545  1.0000
  H   H2354     1.0  0.92426  0.07169  0.97382  1.0000
  C   C1343     1.0  0.71028  0.26652  0.96242  1.0000
  N   N73       1.0  0.96572  0.12180  0.98461  1.0000
  C   C1344     1.0  0.94453  0.16907  0.93066  1.0000
  H   H2355     1.0  0.95635  0.19368  0.83016  1.0000
  S   S310      1.0  0.64176  0.39607  0.97443  1.0000
  S   S311      1.0  0.51851  0.31685  0.86844  1.0000
  Fe  Fe155     1.0  0.85531  0.15796  0.96783  1.0000
  H   H2356     1.0  0.93674  0.12872  0.96993  1.0000
  C   C1345     1.0  0.57488  0.18228  0.84936  1.0000
  S   S312      1.0  0.88876  0.14126  0.97063  1.0000
  H   H2357     1.0  0.81667  0.18737  0.96788  1.0000
  C   C1346     1.0  0.82012  0.20039  0.76742  1.0000
  H   H2358     1.0  0.97990  0.24913  0.79197  1.0000
  H   H2359     1.0  0.77156  0.31203  0.94126  1.0000
  H   H2360     1.0  0.68099  0.25525  0.95930  1.0000
  H   H2361     1.0  0.85724  0.17885  0.75107  1.0000
  C   C1347     1.0  0.73539  0.32433  0.97318  1.0000
  C   C1348     1.0  0.98834  0.26174  0.78191  1.0000
  H   H2362     1.0  0.86047  0.10156  0.75926  1.0000
  C   C1349     1.0  0.94428  0.11654  0.98186  1.0000
  C   C1350     1.0  0.82192  0.24857  0.95614  1.0000
  C   C1351     1.0  0.68591  0.26740  0.96707  1.0000
  C   C1352     1.0  0.97730  0.16483  0.90487  1.0000
  H   H2363     1.0  0.75207  0.16243  0.75216  1.0000
  C   C1353     1.0  0.77523  0.29982  0.91151  1.0000
  C   C1354     1.0  0.84529  0.18065  0.73991  1.0000
  H   H2364     1.0  0.50921  0.29393  0.77484  1.0000
  S   S313      1.0  0.63530  0.20223  0.75407  1.0000
  H   H2365     1.0  0.51899  0.21346  0.88144  1.0000
  S   S314      1.0  0.92739  0.18426  0.94895  1.0000
  C   C1355     1.0  0.54064  0.24721  0.87950  1.0000
  C   C1356     1.0  0.53483  0.25868  0.80164  1.0000
  H   H2366     1.0  0.55740  0.25115  0.83413  1.0000
  H   H2367     1.0  0.56638  0.26513  0.86255  1.0000
  C   C1357     1.0  0.49831  0.29579  0.76265  1.0000
  H   H2368     1.0  0.53007  0.27547  0.80385  1.0000
  H   H2369     1.0  0.55231  0.25593  0.79582  1.0000
  H   H2370     1.0  0.52600  0.25529  0.78932  1.0000
  H   H2371     1.0  0.99172  0.17070  0.89640  1.0000
  N   N74       1.0  0.62455  0.29255  0.85762  1.0000
  C   C1358     1.0  0.61849  0.27338  0.85090  1.0000
  C   C1359     1.0  0.63073  0.28675  0.87987  1.0000
  C   C1360     1.0  0.60484  0.30908  0.85885  1.0000
  C   C1361     1.0  0.64227  0.30194  0.84212  1.0000
  C   C1362     1.0  0.65930  0.28668  0.82975  1.0000
  C   C1363     1.0  0.60703  0.27772  0.83076  1.0000
  C   C1364     1.0  0.60670  0.32879  0.86883  1.0000
  C   C1365     1.0  0.64982  0.26898  0.88289  1.0000
  C   C1366     1.0  0.65243  0.26308  0.90656  1.0000
  C   C1367     1.0  0.67799  0.29799  0.81805  1.0000
  C   C1368     1.0  0.60541  0.25747  0.82245  1.0000
  C   C1369     1.0  0.58906  0.34695  0.86348  1.0000
  H   H2372     1.0  0.60764  0.26548  0.86412  1.0000
  H   H2373     1.0  0.63265  0.26125  0.84799  1.0000
  H   H2374     1.0  0.63531  0.30053  0.88529  1.0000
  H   H2375     1.0  0.61661  0.28221  0.89145  1.0000
  H   H2376     1.0  0.59070  0.30216  0.86821  1.0000
  H   H2377     1.0  0.60042  0.31496  0.84255  1.0000
  H   H2378     1.0  0.63550  0.31392  0.82947  1.0000
  H   H2379     1.0  0.65098  0.31078  0.85060  1.0000
  H   H2380     1.0  0.65221  0.28083  0.81752  1.0000
  H   H2381     1.0  0.66585  0.27281  0.84040  1.0000
  H   H2382     1.0  0.59040  0.28582  0.83451  1.0000
  H   H2383     1.0  0.61579  0.28784  0.81778  1.0000
  H   H2384     1.0  0.62235  0.33442  0.86294  1.0000
  H   H2385     1.0  0.60503  0.32489  0.88656  1.0000
  H   H2386     1.0  0.64766  0.25445  0.87706  1.0000
  H   H2387     1.0  0.66496  0.27444  0.87446  1.0000
  H   H2388     1.0  0.66558  0.24972  0.90842  1.0000
  H   H2389     1.0  0.65653  0.27662  0.91287  1.0000
  H   H2390     1.0  0.63753  0.25803  0.91614  1.0000
  H   H2391     1.0  0.67217  0.31183  0.80674  1.0000
  H   H2392     1.0  0.68635  0.30327  0.82972  1.0000
  H   H2393     1.0  0.68976  0.28719  0.80875  1.0000
  H   H2394     1.0  0.59906  0.24567  0.83552  1.0000
  H   H2395     1.0  0.59453  0.26108  0.81007  1.0000
  H   H2396     1.0  0.62139  0.25070  0.81490  1.0000
  H   H2397     1.0  0.58974  0.36015  0.87225  1.0000
  H   H2398     1.0  0.59110  0.35273  0.84601  1.0000
  H   H2399     1.0  0.57304  0.34176  0.86831  1.0000
  N   N75       1.0  0.64447  0.38753  0.90221  1.0000
  C   C1370     1.0  0.64890  0.36465  0.91166  1.0000
  C   C1371     1.0  0.66380  0.39796  0.90264  1.0000
  C   C1372     1.0  0.62593  0.39782  0.91674  1.0000
  C   C1373     1.0  0.63854  0.39047  0.87984  1.0000
  C   C1374     1.0  0.64888  0.37322  0.86556  1.0000
  C   C1375     1.0  0.62914  0.35275  0.91611  1.0000
  C   C1376     1.0  0.62036  0.42211  0.91175  1.0000
  C   C1377     1.0  0.68457  0.39057  0.88806  1.0000
  C   C1378     1.0  0.70351  0.40004  0.89243  1.0000
  C   C1379     1.0  0.64305  0.37920  0.84290  1.0000
  C   C1380     1.0  0.63527  0.32889  0.91927  1.0000
  C   C1381     1.0  0.59871  0.42997  0.92412  1.0000
  H   H2400     1.0  0.65499  0.36330  0.92728  1.0000
  H   H2401     1.0  0.66197  0.35583  0.90154  1.0000
  H   H2402     1.0  0.66058  0.41518  0.89737  1.0000
  H   H2403     1.0  0.66742  0.39603  0.91943  1.0000
  H   H2404     1.0  0.62893  0.39406  0.93371  1.0000
  H   H2405     1.0  0.61099  0.39127  0.91634  1.0000
  H   H2406     1.0  0.62087  0.39128  0.88046  1.0000
  H   H2407     1.0  0.64231  0.40597  0.87099  1.0000
  H   H2408     1.0  0.64309  0.35801  0.87219  1.0000
  H   H2409     1.0  0.66656  0.37038  0.86433  1.0000
  H   H2410     1.0  0.61947  0.35693  0.93117  1.0000
  H   H2411     1.0  0.61894  0.35722  0.90316  1.0000
  H   H2412     1.0  0.61968  0.42723  0.89441  1.0000
  H   H2413     1.0  0.63251  0.42995  0.91678  1.0000
  H   H2414     1.0  0.68878  0.37327  0.89049  1.0000
  H   H2415     1.0  0.68264  0.39598  0.87100  1.0000
  H   H2416     1.0  0.70063  0.41750  0.88889  1.0000
  H   H2417     1.0  0.70611  0.39541  0.90944  1.0000
  H   H2418     1.0  0.71832  0.39415  0.88211  1.0000
  H   H2419     1.0  0.62537  0.38137  0.84325  1.0000
  H   H2420     1.0  0.64928  0.39396  0.83502  1.0000
  H   H2421     1.0  0.65032  0.36644  0.83321  1.0000
  H   H2422     1.0  0.64245  0.32373  0.93426  1.0000
  H   H2423     1.0  0.62069  0.32124  0.92084  1.0000
  H   H2424     1.0  0.64671  0.32377  0.90541  1.0000
  H   H2425     1.0  0.59886  0.42542  0.94165  1.0000
  H   H2426     1.0  0.59538  0.44741  0.92069  1.0000
  H   H2427     1.0  0.58562  0.42327  0.91933  1.0000
  N   N76       1.0  0.72456  0.18742  0.80700  1.0000
  C   C1382     1.0  0.74140  0.18417  0.78783  1.0000
  C   C1383     1.0  0.71909  0.21074  0.80803  1.0000
  C   C1384     1.0  0.73444  0.17745  0.82686  1.0000
  C   C1385     1.0  0.70463  0.17773  0.80675  1.0000
  C   C1386     1.0  0.69840  0.17675  0.78447  1.0000
  C   C1387     1.0  0.75181  0.16099  0.78654  1.0000
  C   C1388     1.0  0.72036  0.18069  0.84864  1.0000
  C   C1389     1.0  0.70798  0.22428  0.78963  1.0000
  C   C1390     1.0  0.70466  0.24757  0.79225  1.0000
  C   C1391     1.0  0.50650  0.38530  0.95311  1.0000
  H   H2428     1.0  0.49791  0.28001  0.75837  1.0000
  C   C1392     1.0  0.72984  0.16638  0.86726  1.0000
  H   H2429     1.0  0.75471  0.19336  0.78774  1.0000
  H   H2430     1.0  0.73491  0.19063  0.77266  1.0000
  H   H2431     1.0  0.70790  0.21369  0.82274  1.0000
  H   H2432     1.0  0.73377  0.21746  0.80912  1.0000
  H   H2433     1.0  0.74985  0.18346  0.82681  1.0000
  H   H2434     1.0  0.73849  0.16012  0.82709  1.0000
  H   H2435     1.0  0.70614  0.16118  0.81503  1.0000
  H   H2436     1.0  0.69055  0.18615  0.81626  1.0000
  H   H2437     1.0  0.52792  0.26118  0.87983  1.0000
  H   H2438     1.0  0.70973  0.16478  0.77623  1.0000
  H   H2439     1.0  0.76386  0.15627  0.79779  1.0000
  S   S315      1.0  0.58918  0.38171  0.96454  1.0000
  H   H2440     1.0  0.70382  0.17736  0.84898  1.0000
  H   H2441     1.0  0.71951  0.19712  0.85169  1.0000
  H   H2442     1.0  0.71745  0.22256  0.77369  1.0000
  H   H2443     1.0  0.69184  0.21988  0.79017  1.0000
  H   H2444     1.0  0.69491  0.25684  0.78016  1.0000
  H   H2445     1.0  0.69584  0.24994  0.80833  1.0000
  H   H2446     1.0  0.72034  0.25348  0.79019  1.0000
  H   H2447     1.0  0.50975  0.40925  0.91197  1.0000
  C   C1393     1.0  0.50385  0.20692  0.79721  1.0000
  H   H2448     1.0  0.98269  0.27681  0.78846  1.0000
  S   S316      1.0  0.91233  0.24814  0.75568  1.0000
  H   H2449     1.0  0.76889  0.20829  0.74772  1.0000
  H   H2450     1.0  0.51166  0.24694  0.82706  1.0000
  H   H2451     1.0  0.71983  0.16975  0.88260  1.0000
  H   H2452     1.0  0.73004  0.14956  0.86586  1.0000
  H   H2453     1.0  0.74640  0.16931  0.86771  1.0000
  Fe  Fe156     1.0  0.66648  0.36716  0.97717  1.0000
  H   H2454     1.0  0.98470  0.22199  0.76708  1.0000
  H   H2455     1.0  0.50776  0.39744  0.96304  1.0000
  H   H2456     1.0  0.56500  0.21019  0.82846  1.0000
  H   H2457     1.0  0.97291  0.12830  0.95006  1.0000
  H   H2458     1.0  0.66381  0.18303  0.79331  1.0000
  H   H2459     1.0  0.83222  0.19721  0.77862  1.0000
  H   H2460     1.0  0.82056  0.16791  0.76473  1.0000
  H   H2461     1.0  0.84251  0.11627  0.77839  1.0000
  H   H2462     1.0  0.51578  0.34912  0.93904  1.0000
  C   C1394     1.0  0.86401  0.13484  0.75568  1.0000
  H   H2463     1.0  0.53775  0.23725  0.89538  1.0000
  H   H2464     1.0  0.78368  0.28556  0.76089  1.0000
  C   C1395     1.0  0.98061  0.11938  0.96386  1.0000
  H   H2465     1.0  0.51523  0.21796  0.85432  1.0000
  H   H2466     1.0  0.77058  0.14137  0.76381  1.0000
  H   H2467     1.0  0.73783  0.32932  0.95564  1.0000
  Fe  Fe157     1.0  0.89736  0.17343  0.96928  1.0000
  H   H2468     1.0  0.97108  0.20078  0.87137  1.0000
  H   H2469     1.0  0.71763  0.25057  0.96894  1.0000
  H   H2470     1.0  0.74566  0.24368  0.74332  1.0000
  H   H2471     1.0  0.86276  0.14663  0.76667  1.0000
  H   H2472     1.0  0.85053  0.29408  0.84308  1.0000
  H   H2473     1.0  0.70874  0.29904  0.96575  1.0000
  H   H2474     1.0  0.59064  0.18639  0.85109  1.0000
  H   H2475     1.0  0.57311  0.22327  0.85782  1.0000
  H   H2476     1.0  0.75373  0.25240  0.96430  1.0000
  C   C1396     1.0  0.94495  0.09484  0.97440  1.0000
  Fe  Fe158     1.0  0.65742  0.22662  0.74261  1.0000
  C   C1397     1.0  0.80936  0.18983  0.95340  1.0000
  H   H2477     1.0  0.56871  0.17254  0.86436  1.0000
  H   H2478     1.0  0.82579  0.26418  0.95784  1.0000
  Fe  Fe159     1.0  0.52578  0.33964  0.88836  1.0000
  C   C1398     1.0  0.98002  0.17088  0.78645  1.0000
  H   H2479     1.0  0.95149  0.10864  0.84047  1.0000
  H   H2480     1.0  0.55070  0.20880  0.74711  1.0000
  C   C1399     1.0  0.56209  0.25586  0.87843  1.0000
  H   H2481     1.0  0.95432  0.15496  0.78189  1.0000
  H   H2482     1.0  0.84210  0.31642  0.85729  1.0000
  C   C1400     1.0  0.54032  0.24986  0.84073  1.0000
  H   H2483     1.0  0.77555  0.28468  0.90547  1.0000
  C   C1401     1.0  0.96317  0.17663  0.91933  1.0000
  C   C1402     1.0  0.79402  0.20758  0.94933  1.0000
  N   N77       1.0  0.50341  0.36453  0.96696  1.0000
  H   H2484     1.0  0.54345  0.19699  0.84400  1.0000
  H   H2485     1.0  0.57530  0.24282  0.88150  1.0000
  H   H2486     1.0  0.53290  0.26620  0.84330  1.0000
  C   C1403     1.0  0.71787  0.28389  0.97215  1.0000
  C   C1404     1.0  0.50856  0.22523  0.74833  1.0000
  H   H2487     1.0  0.77181  0.26599  0.97281  1.0000
  H   H2488     1.0  0.54856  0.28436  0.89264  1.0000
  C   C1405     1.0  0.75456  0.26428  0.97471  1.0000
  H   H2489     1.0  0.60624  0.32494  0.79866  1.0000
  C   C1406     1.0  0.51818  0.22601  0.86731  1.0000
  H   H2490     1.0  0.53674  0.38570  0.97959  1.0000
  Fe  Fe160     1.0  0.61025  0.22682  0.74024  1.0000
  H   H2491     1.0  0.57628  0.27527  0.89530  1.0000
  N   N78       1.0  0.74159  0.28510  0.96751  1.0000
  H   H2492     1.0  0.95027  0.09605  0.95683  1.0000
  H   H2493     1.0  0.67674  0.28495  0.74983  1.0000
  S   S317      1.0  0.99025  0.12959  0.88410  1.0000
  H   H2494     1.0  0.73542  0.35616  0.97921  1.0000
  H   H2495     1.0  0.76406  0.30157  0.97783  1.0000
  C   C1407     1.0  0.74643  0.30153  0.97943  1.0000
  H   H2496     1.0  0.78546  0.25570  0.74086  1.0000
  C   C1408     1.0  0.92296  0.08743  0.97890  1.0000
  H   H2497     1.0  0.95638  0.08253  0.98241  1.0000
  H   H2498     1.0  0.91141  0.09853  0.96981  1.0000
  H   H2499     1.0  0.71788  0.32555  0.97881  1.0000
  H   H2500     1.0  0.68048  0.26433  0.98452  1.0000
  H   H2501     1.0  0.89171  0.16270  0.73830  1.0000
  C   C1409     1.0  0.50250  0.34845  0.95272  1.0000
  H   H2502     1.0  0.80998  0.18663  0.74350  1.0000
  C   C1410     1.0  0.49791  0.24203  0.87281  1.0000
  H   H2503     1.0  0.49797  0.25678  0.86134  1.0000
  H   H2504     1.0  0.50039  0.22426  0.79322  1.0000
  H   H2505     1.0  0.50453  0.30610  0.74809  1.0000
  H   H2506     1.0  0.88080  0.13186  0.74768  1.0000
  H   H2507     1.0  0.70849  0.25918  0.74186  1.0000
  H   H2508     1.0  0.49978  0.42628  0.93231  1.0000
  C   C1411     1.0  0.49757  0.31104  0.94976  1.0000
  C   C1412     1.0  0.52304  0.35724  0.97810  1.0000
  C   C1413     1.0  0.74410  0.34011  0.98351  1.0000
  S   S318      1.0  0.64262  0.34431  0.98423  1.0000
  H   H2509     1.0  0.49738  0.24607  0.88913  1.0000
  C   C1414     1.0  0.50410  0.32522  0.96368  1.0000
  H   H2510     1.0  0.52096  0.31915  0.96622  1.0000
  H   H2511     1.0  0.49928  0.29449  0.95785  1.0000
  C   C1415     1.0  0.84870  0.14199  0.73864  1.0000
  C   C1416     1.0  0.49567  0.41438  0.92363  1.0000
  Fe  Fe161     1.0  0.51831  0.65561  0.09891  1.0000
  H   H2512     1.0  0.53361  0.77752  0.22198  1.0000
  C   C1417     1.0  0.51268  0.74302  0.22430  1.0000
  Fe  Fe162     1.0  0.54646  0.66309  0.13178  1.0000
  S   S319      1.0  0.53029  0.64087  0.15786  1.0000
  S   S320      1.0  0.57682  0.67309  0.13930  1.0000
  Fe  Fe163     1.0  0.53377  0.61975  0.13262  1.0000
  S   S321      1.0  0.54483  0.58456  0.13946  1.0000
  H   H2513     1.0  0.52531  0.65366  0.23183  1.0000
  C   C1418     1.0  0.72677  0.74665  0.22050  1.0000
  S   S322      1.0  0.55116  0.64103  0.10708  1.0000
  S   S323      1.0  0.51548  0.68014  0.12084  1.0000
  H   H2514     1.0  0.90506  0.95587  0.13956  1.0000
  S   S324      1.0  0.64466  0.73845  0.19559  1.0000
  C   C1419     1.0  0.96850  0.68439  0.21347  1.0000
  H   H2515     1.0  0.70870  0.48737  0.05024  1.0000
  S   S325      1.0  0.61828  0.78250  0.21115  1.0000
  H   H2516     1.0  0.55386  0.82451  0.17199  1.0000
  Fe  Fe164     1.0  0.61024  0.75172  0.20471  1.0000
  S   S326      1.0  0.58193  0.75010  0.18768  1.0000
  Fe  Fe165     1.0  0.65279  0.76762  0.20547  1.0000
  H   H2517     1.0  0.90231  0.94758  0.20263  1.0000
  Fe  Fe166     1.0  0.49975  0.65634  0.14546  1.0000
  H   H2518     1.0  0.69857  0.56681  0.11244  1.0000
  Fe  Fe167     1.0  0.65961  0.51492  0.12045  1.0000
  S   S327      1.0  0.69193  0.50717  0.10085  1.0000
  S   S328      1.0  0.63915  0.54359  0.10457  1.0000
  S   S329      1.0  0.51209  0.66232  0.06403  1.0000
  Fe  Fe168     1.0  0.70532  0.50316  0.13184  1.0000
  S   S330      1.0  0.73677  0.51174  0.13728  1.0000
  H   H2519     1.0  0.68195  0.60415  0.11144  1.0000
  S   S331      1.0  0.67369  0.51365  0.15072  1.0000
  C   C1420     1.0  0.89483  0.87639  0.18238  1.0000
  H   H2520     1.0  0.53801  0.78541  0.16194  1.0000
  S   S332      1.0  0.77520  0.62372  0.19795  1.0000
  H   H2521     1.0  0.86041  0.89685  0.11674  1.0000
  H   H2522     1.0  0.57604  0.62318  0.03955  1.0000
  S   S333      1.0  0.79331  0.57355  0.20961  1.0000
  H   H2523     1.0  0.56712  0.59484  0.06857  1.0000
  Fe  Fe169     1.0  0.80621  0.60438  0.20578  1.0000
  S   S334      1.0  0.83781  0.60863  0.18510  1.0000
  Fe  Fe170     1.0  0.76148  0.59323  0.20541  1.0000
  S   S335      1.0  0.73467  0.58825  0.18821  1.0000
  C   C1421     1.0  0.81490  0.66785  0.23145  1.0000
  C   C1422     1.0  0.88880  0.91051  0.19645  1.0000
  S   S336      1.0  0.82889  0.95441  0.14990  1.0000
  H   H2524     1.0  0.71124  0.75443  0.21509  1.0000
  C   C1423     1.0  0.73324  0.71878  0.19547  1.0000
  H   H2525     1.0  0.59004  0.48524  0.01494  1.0000
  C   C1424     1.0  0.67577  0.59234  0.12454  1.0000
  H   H2526     1.0  0.96605  0.91998  0.17735  1.0000
  H   H2527     1.0  0.58533  0.49537  0.11243  1.0000
  C   C1425     1.0  0.60629  0.50807  0.08467  1.0000
  H   H2528     1.0  0.86808  0.64626  0.23179  1.0000
  H   H2529     1.0  0.54856  0.78636  0.18563  1.0000
  S   S337      1.0  0.99305  0.84761  0.13387  1.0000
  C   C1426     1.0  0.52501  0.82018  0.23698  1.0000
  C   C1427     1.0  0.85902  0.87894  0.22204  1.0000
  C   C1428     1.0  0.61061  0.66069  0.20804  1.0000
  H   H2530     1.0  0.53066  0.56707  0.04802  1.0000
  C   C1429     1.0  0.55453  0.60236  0.05851  1.0000
  C   C1430     1.0  0.71480  0.88625  0.13153  1.0000
  C   C1431     1.0  0.91035  0.86788  0.19917  1.0000
  H   H2531     1.0  0.87330  0.94192  0.18380  1.0000
  H   H2532     1.0  0.80828  0.77870  0.21952  1.0000
  S   S338      1.0  0.90630  0.66051  0.20479  1.0000
  H   H2533     1.0  0.78424  0.95845  0.11305  1.0000
  H   H2534     1.0  0.92038  0.91883  0.13554  1.0000
  C   C1432     1.0  0.95597  0.76220  0.18022  1.0000
  C   C1433     1.0  0.94758  0.74981  0.19892  1.0000
  C   C1434     1.0  0.95303  0.75175  0.21871  1.0000
  H   H2535     1.0  0.95221  0.76025  0.16484  1.0000
  H   H2536     1.0  0.93729  0.73847  0.19792  1.0000
  C   C1435     1.0  0.72833  0.94456  0.20573  1.0000
  H   H2537     1.0  0.81036  0.97497  0.18681  1.0000
  H   H2538     1.0  0.52950  0.73734  0.22714  1.0000
  C   C1436     1.0  0.55180  0.81341  0.16130  1.0000
  C   C1437     1.0  0.52784  0.81686  0.21312  1.0000
  H   H2539     1.0  0.71581  0.72193  0.19420  1.0000
  C   C1438     1.0  0.53913  0.79606  0.17352  1.0000
  H   H2540     1.0  0.70529  0.87314  0.13782  1.0000
  H   H2541     1.0  0.52110  0.66918  0.19418  1.0000
  H   H2542     1.0  0.92222  0.87885  0.19813  1.0000
  C   C1439     1.0  0.92728  0.95935  0.16015  1.0000
  C   C1440     1.0  0.91844  0.94821  0.14770  1.0000
  C   C1441     1.0  0.94498  0.94922  0.17026  1.0000
  H   H2543     1.0  0.95197  0.95773  0.17989  1.0000
  C   C1442     1.0  0.81526  0.94515  0.17498  1.0000
  C   C1443     1.0  0.81159  0.92408  0.17959  1.0000
  C   C1444     1.0  0.80045  0.91657  0.19949  1.0000
  C   C1445     1.0  0.79249  0.93026  0.21457  1.0000
  H   H2544     1.0  0.88629  0.86330  0.18060  1.0000
  C   C1446     1.0  0.80775  0.95865  0.19031  1.0000
  H   H2545     1.0  0.81744  0.91359  0.16777  1.0000
  H   H2546     1.0  0.79798  0.90024  0.20322  1.0000
  H   H2547     1.0  0.90012  0.76135  0.23068  1.0000
  C   C1447     1.0  0.85695  0.62187  0.19231  1.0000
  C   C1448     1.0  0.85471  0.62892  0.21225  1.0000
  C   C1449     1.0  0.86995  0.64055  0.21657  1.0000
  C   C1450     1.0  0.88748  0.64491  0.20103  1.0000
  C   C1451     1.0  0.89011  0.63696  0.18160  1.0000
  C   C1452     1.0  0.87485  0.62571  0.17719  1.0000
  H   H2548     1.0  0.52015  0.71603  0.17565  1.0000
  H   H2549     1.0  0.66285  0.52406  0.20460  1.0000
  H   H2550     1.0  0.90376  0.63998  0.16962  1.0000
  H   H2551     1.0  0.87686  0.62010  0.16186  1.0000
  H   H2552     1.0  0.79412  0.89103  0.14392  1.0000
  C   C1453     1.0  0.55964  0.62434  0.04872  1.0000
  H   H2553     1.0  0.87850  0.87970  0.14711  1.0000
  H   H2554     1.0  0.58274  0.61872  0.17585  1.0000
  H   H2555     1.0  0.96763  0.87550  0.09512  1.0000
  H   H2556     1.0  0.87655  0.95990  0.21398  1.0000
  C   C1454     1.0  0.73602  0.53250  0.15219  1.0000
  C   C1455     1.0  0.71713  0.54632  0.15652  1.0000
  C   C1456     1.0  0.71707  0.56336  0.16747  1.0000
  C   C1457     1.0  0.73578  0.56656  0.17453  1.0000
  C   C1458     1.0  0.75463  0.55253  0.17062  1.0000
  C   C1459     1.0  0.75476  0.53560  0.15937  1.0000
  H   H2557     1.0  0.70267  0.54406  0.15113  1.0000
  H   H2558     1.0  0.70243  0.57405  0.17055  1.0000
  H   H2559     1.0  0.76917  0.55501  0.17581  1.0000
  H   H2560     1.0  0.76947  0.52502  0.15600  1.0000
  Fe  Fe171     1.0  0.76774  0.62513  0.23317  1.0000
  C   C1460     1.0  0.72656  0.89028  0.14909  1.0000
  H   H2561     1.0  0.60278  0.52448  0.08848  1.0000
  H   H2562     1.0  0.85095  0.88935  0.15597  1.0000
  H   H2563     1.0  0.76559  0.98124  0.11966  1.0000
  H   H2564     1.0  0.49886  0.60843  0.04499  1.0000
  C   C1461     1.0  0.85811  0.89034  0.19893  1.0000
  H   H2565     1.0  0.75558  0.81478  0.18797  1.0000
  H   H2566     1.0  0.74003  0.75045  0.18647  1.0000
  H   H2567     1.0  0.64662  0.58452  0.14371  1.0000
  C   C1462     1.0  0.69010  0.80525  0.19068  1.0000
  H   H2568     1.0  0.79500  0.73163  0.20827  1.0000
  H   H2569     1.0  0.98081  0.69316  0.20320  1.0000
  C   C1463     1.0  0.71137  0.83762  0.19795  1.0000
  C   C1464     1.0  0.71402  0.83143  0.17765  1.0000
  C   C1465     1.0  0.70381  0.81515  0.17416  1.0000
  C   C1466     1.0  0.58985  0.66450  0.22350  1.0000
  H   H2570     1.0  0.71551  0.53964  0.20828  1.0000
  C   C1467     1.0  0.65829  0.51773  0.04712  1.0000
  H   H2571     1.0  0.70661  0.81011  0.15850  1.0000
  H   H2572     1.0  0.73582  0.95017  0.21783  1.0000
  C   C1468     1.0  0.57143  0.57368  0.13026  1.0000
  C   C1469     1.0  0.58006  0.55380  0.14001  1.0000
  C   C1470     1.0  0.60099  0.54452  0.13269  1.0000
  C   C1471     1.0  0.61324  0.55489  0.11519  1.0000
  C   C1472     1.0  0.60448  0.57461  0.10523  1.0000
  C   C1473     1.0  0.58378  0.58408  0.11285  1.0000
  H   H2573     1.0  0.57059  0.54558  0.15342  1.0000
  H   H2574     1.0  0.60753  0.52929  0.14045  1.0000
  H   H2575     1.0  0.61383  0.58271  0.09164  1.0000
  H   H2576     1.0  0.57731  0.59930  0.10510  1.0000
  H   H2577     1.0  0.72077  0.51203  0.21130  1.0000
  H   H2578     1.0  0.68473  0.59124  0.13823  1.0000
  H   H2579     1.0  0.77350  0.87647  0.14066  1.0000
  H   H2580     1.0  0.77747  0.92277  0.13177  1.0000
  H   H2581     1.0  0.90192  0.86611  0.21576  1.0000
  C   C1474     1.0  0.57855  0.69544  0.15128  1.0000
  C   C1475     1.0  0.59699  0.69600  0.16040  1.0000
  C   C1476     1.0  0.59845  0.71284  0.17120  1.0000
  C   C1477     1.0  0.58144  0.72933  0.17299  1.0000
  C   C1478     1.0  0.56327  0.72909  0.16330  1.0000
  C   C1479     1.0  0.56192  0.71234  0.15234  1.0000
  H   H2582     1.0  0.61010  0.68319  0.15947  1.0000
  H   H2583     1.0  0.61263  0.71294  0.17836  1.0000
  H   H2584     1.0  0.55016  0.74192  0.16429  1.0000
  H   H2585     1.0  0.54795  0.71240  0.14478  1.0000
  C   C1480     1.0  0.95313  0.92789  0.16868  1.0000
  H   H2586     1.0  0.80909  0.63931  0.16239  1.0000
  H   H2587     1.0  0.78699  0.65949  0.15621  1.0000
  C   C1481     1.0  0.63137  0.50238  0.03414  1.0000
  N   N79       1.0  0.73633  0.76174  0.23055  1.0000
  N   N80       1.0  0.87891  0.89593  0.18609  1.0000
  H   H2588     1.0  0.77073  0.75248  0.23029  1.0000
  C   C1482     1.0  0.57091  0.67611  0.21165  1.0000
  H   H2589     1.0  0.79409  0.50219  0.21037  1.0000
  C   C1483     1.0  0.55232  0.63796  0.21212  1.0000
  H   H2590     1.0  0.50716  0.78100  0.23564  1.0000
  H   H2591     1.0  0.74649  0.95050  0.12453  1.0000
  C   C1484     1.0  0.62965  0.50365  0.07317  1.0000
  H   H2592     1.0  0.67264  0.48498  0.04226  1.0000
  C   C1485     1.0  0.65523  0.62063  0.15837  1.0000
  H   H2593     1.0  0.92040  0.80885  0.22951  1.0000
  H   H2594     1.0  0.71429  0.89397  0.16289  1.0000
  C   C1486     1.0  0.75147  0.79734  0.22030  1.0000
  H   H2595     1.0  0.78337  0.96789  0.13829  1.0000
  C   C1487     1.0  0.50040  0.58812  0.02155  1.0000
  H   H2596     1.0  0.88797  0.91458  0.15573  1.0000
  H   H2597     1.0  0.61147  0.49835  0.99933  1.0000
  H   H2598     1.0  0.71990  0.95845  0.19632  1.0000
  H   H2599     1.0  0.60984  0.59209  0.14287  1.0000
  C   C1488     1.0  0.97167  0.95547  0.08875  1.0000
  C   C1489     1.0  0.92295  0.84649  0.19493  1.0000
  H   H2600     1.0  0.72452  0.83887  0.16460  1.0000
  H   H2601     1.0  0.79098  0.80961  0.23751  1.0000
  S   S339      1.0  0.72560  0.85782  0.20091  1.0000
  C   C1490     1.0  0.64963  0.63593  0.12185  1.0000
  H   H2602     1.0  0.60852  0.65123  0.19577  1.0000
  H   H2603     1.0  0.54806  0.63209  0.03765  1.0000
  H   H2604     1.0  0.97096  0.76768  0.23502  1.0000
  C   C1491     1.0  0.94992  0.96895  0.09365  1.0000
  H   H2605     1.0  0.77996  0.79984  0.19649  1.0000
  C   C1492     1.0  0.85626  0.50035  0.22315  1.0000
  H   H2606     1.0  0.72272  0.56965  0.23073  1.0000
  H   H2607     1.0  0.71660  0.93411  0.21421  1.0000
  H   H2608     1.0  0.52359  0.62326  0.21432  1.0000
  Fe  Fe172     1.0  0.89753  0.68378  0.22835  1.0000
  H   H2609     1.0  0.69679  0.56524  0.22655  1.0000
  H   H2610     1.0  0.64280  0.55488  0.02390  1.0000
  H   H2611     1.0  0.90440  0.91370  0.18675  1.0000
  C   C1493     1.0  0.86691  0.89411  0.14945  1.0000
  H   H2612     1.0  0.72000  0.63796  0.23237  1.0000
  C   C1494     1.0  0.51693  0.57720  0.05609  1.0000
  H   H2613     1.0  0.78041  0.85193  0.17387  1.0000
  C   C1495     1.0  0.62617  0.55105  0.02689  1.0000
  H   H2614     1.0  0.52356  0.76086  0.19446  1.0000
  H   H2615     1.0  0.55887  0.63429  0.06143  1.0000
  H   H2616     1.0  0.78408  0.52974  0.20468  1.0000
  H   H2617     1.0  0.83606  0.51732  0.19959  1.0000
  H   H2618     1.0  0.93808  0.95908  0.10316  1.0000
  C   C1496     1.0  0.96658  0.76633  0.21975  1.0000
  C   C1497     1.0  0.94394  0.91670  0.15654  1.0000
  H   H2619     1.0  0.73764  0.80844  0.22660  1.0000
  C   C1498     1.0  0.78143  0.88175  0.15259  1.0000
  H   H2620     1.0  0.96566  0.91134  0.10385  1.0000
  S   S340      1.0  0.95134  0.88932  0.15590  1.0000
  H   H2621     1.0  0.70123  0.50627  0.02779  1.0000
  C   C1499     1.0  0.53099  0.54414  0.09397  1.0000
  C   C1500     1.0  0.74577  0.93256  0.19113  1.0000
  C   C1501     1.0  0.79244  0.86208  0.16530  1.0000
  Fe  Fe173     1.0  0.98240  0.86703  0.16068  1.0000
  C   C1502     1.0  0.88649  0.94450  0.21174  1.0000
  H   H2622     1.0  0.63801  0.50937  0.01781  1.0000
  H   H2623     1.0  0.78368  0.75197  0.17384  1.0000
  H   H2624     1.0  0.64357  0.63369  0.10710  1.0000
  H   H2625     1.0  0.63693  0.60425  0.18632  1.0000
  H   H2626     1.0  0.51723  0.65739  0.02046  1.0000
  H   H2627     1.0  0.88883  0.93568  0.22779  1.0000
  H   H2628     1.0  0.66112  0.52906  0.05738  1.0000
  H   H2629     1.0  0.97824  0.89272  0.07212  1.0000
  H   H2630     1.0  0.61336  0.58047  0.03965  1.0000
  C   C1503     1.0  0.62197  0.53683  0.04868  1.0000
  H   H2631     1.0  0.96171  0.67565  0.20326  1.0000
  H   H2632     1.0  0.86767  0.86271  0.22168  1.0000
  H   H2633     1.0  0.54357  0.82225  0.14784  1.0000
  H   H2634     1.0  0.91374  0.78186  0.21459  1.0000
  C   C1504     1.0  0.68650  0.81198  0.21092  1.0000
  H   H2635     1.0  0.65884  0.58723  0.17325  1.0000
  H   H2636     1.0  0.84015  0.53284  0.21916  1.0000
  H   H2637     1.0  0.80411  0.85288  0.15422  1.0000
  C   C1505     1.0  0.54978  0.52681  0.09776  1.0000
  H   H2638     1.0  0.90572  0.87944  0.16697  1.0000
  C   C1506     1.0  0.87531  0.93221  0.19953  1.0000
  H   H2639     1.0  0.56798  0.80613  0.15458  1.0000
  H   H2640     1.0  0.72642  0.88170  0.11753  1.0000
  H   H2641     1.0  0.62360  0.65204  0.21707  1.0000
  N   N81       1.0  0.63482  0.51508  0.05073  1.0000
  H   H2642     1.0  0.54473  0.80949  0.20900  1.0000
  C   C1507     1.0  0.64666  0.67475  0.10631  1.0000
  H   H2643     1.0  0.60278  0.48798  0.04830  1.0000
  C   C1508     1.0  0.54083  0.61855  0.21601  1.0000
  H   H2644     1.0  0.93232  0.84775  0.17860  1.0000
  H   H2645     1.0  0.55314  0.56273  0.07307  1.0000
  C   C1509     1.0  0.51606  0.80472  0.18352  1.0000
  C   C1510     1.0  0.75656  0.95154  0.13679  1.0000
  C   C1511     1.0  0.77351  0.96556  0.12631  1.0000
  H   H2646     1.0  0.99461  0.72681  0.19957  1.0000
  H   H2647     1.0  0.80121  0.86652  0.17714  1.0000
  H   H2648     1.0  0.86079  0.92083  0.16647  1.0000
  H   H2649     1.0  0.81172  0.75174  0.16287  1.0000
  H   H2650     1.0  0.59410  0.56928  0.02868  1.0000
  H   H2651     1.0  0.73635  0.70510  0.20799  1.0000
  H   H2652     1.0  0.64840  0.66285  0.13932  1.0000
  H   H2653     1.0  0.72620  0.91191  0.18349  1.0000
  H   H2654     1.0  0.66658  0.59299  0.20793  1.0000
  H   H2655     1.0  0.84121  0.62556  0.22421  1.0000
  H   H2656     1.0  0.61499  0.63368  0.15760  1.0000
  H   H2657     1.0  0.78882  0.69035  0.22021  1.0000
  H   H2658     1.0  0.67456  0.55855  0.12824  1.0000
  C   C1512     1.0  0.80471  0.65523  0.15362  1.0000
  H   H2659     1.0  0.64295  0.59732  0.11772  1.0000
  N   N82       1.0  0.51249  0.80391  0.20755  1.0000
  C   C1513     1.0  0.86529  0.90669  0.12722  1.0000
  C   C1514     1.0  0.96945  0.77690  0.18128  1.0000
  C   C1515     1.0  0.78351  0.51561  0.21703  1.0000
  H   H2660     1.0  0.74211  0.71459  0.17995  1.0000
  H   H2661     1.0  0.81006  0.65462  0.13627  1.0000
  H   H2662     1.0  0.55970  0.53117  0.10866  1.0000
  C   C1516     1.0  0.65362  0.60316  0.17793  1.0000
  H   H2663     1.0  0.57729  0.59424  0.16956  1.0000
  C   C1517     1.0  0.76724  0.92932  0.14567  1.0000
  C   C1518     1.0  0.98138  0.90108  0.10302  1.0000
  C   C1519     1.0  0.69748  0.82795  0.21469  1.0000
  C   C1520     1.0  0.65130  0.59788  0.13159  1.0000
  H   H2664     1.0  0.94381  0.97628  0.07846  1.0000
  H   H2665     1.0  0.55982  0.52421  0.08228  1.0000
  H   H2666     1.0  0.81639  0.65705  0.19323  1.0000
  H   H2667     1.0  0.83320  0.66645  0.15774  1.0000
  H   H2668     1.0  0.68142  0.65134  0.23096  1.0000
  H   H2669     1.0  0.86357  0.48843  0.21252  1.0000
  H   H2670     1.0  0.70365  0.90049  0.12631  1.0000
  S   S341      1.0  0.83749  0.74229  0.23226  1.0000
  H   H2671     1.0  0.57671  0.61721  0.14951  1.0000
  C   C1521     1.0  0.81560  0.67141  0.16105  1.0000
  H   H2672     1.0  0.54809  0.60791  0.20401  1.0000
  N   N83       1.0  0.64398  0.61871  0.13993  1.0000
  H   H2673     1.0  0.77878  0.93132  0.15615  1.0000
  S   S342      1.0  0.98114  0.79093  0.15739  1.0000
  C   C1522     1.0  0.80894  0.67243  0.18533  1.0000
  H   H2674     1.0  0.78959  0.51867  0.23137  1.0000
  H   H2675     1.0  0.81123  0.68661  0.15106  1.0000
  H   H2676     1.0  0.88159  0.70617  0.15277  1.0000
  H   H2677     1.0  0.72893  0.92243  0.13502  1.0000
  H   H2678     1.0  0.60451  0.53604  0.05170  1.0000
  H   H2679     1.0  0.61607  0.59267  0.16898  1.0000
  H   H2680     1.0  0.53749  0.70587  0.20850  1.0000
  S   S343      1.0  0.98338  0.83853  0.18595  1.0000
  H   H2681     1.0  0.79125  0.67238  0.18925  1.0000
  H   H2682     1.0  0.84711  0.67294  0.19219  1.0000
  H   H2683     1.0  0.85314  0.92095  0.12821  1.0000
  C   C1523     1.0  0.87389  0.90741  0.16453  1.0000
  H   H2684     1.0  0.68483  0.60511  0.18681  1.0000
  C   C1524     1.0  0.80671  0.68859  0.21761  1.0000
  H   H2685     1.0  0.75667  0.77202  0.20140  1.0000
  H   H2686     1.0  0.75454  0.88445  0.17827  1.0000
  H   H2687     1.0  0.95131  0.98169  0.10277  1.0000
  H   H2688     1.0  0.72449  0.93650  0.16688  1.0000
  H   H2689     1.0  0.85110  0.87988  0.19073  1.0000
  H   H2690     1.0  0.84601  0.90468  0.19968  1.0000
  H   H2691     1.0  0.50658  0.73098  0.21741  1.0000
  H   H2692     1.0  0.84472  0.69752  0.15538  1.0000
  H   H2693     1.0  0.66249  0.62117  0.20030  1.0000
  H   H2694     1.0  0.52472  0.60284  0.03016  1.0000
  H   H2695     1.0  0.54503  0.57063  0.09876  1.0000
  H   H2696     1.0  0.61177  0.62913  0.13182  1.0000
  C   C1525     1.0  0.60811  0.49882  0.03382  1.0000
  H   H2697     1.0  0.54369  0.51188  0.10524  1.0000
  C   C1526     1.0  0.76061  0.51044  0.22286  1.0000
  S   S344      1.0  0.89585  0.71856  0.21723  1.0000
  H   H2698     1.0  0.54373  0.68106  0.17977  1.0000
  H   H2699     1.0  0.69503  0.83291  0.23034  1.0000
  H   H2700     1.0  0.59290  0.67426  0.23511  1.0000
  C   C1527     1.0  0.84789  0.52049  0.20915  1.0000
  H   H2701     1.0  0.99349  0.91337  0.13832  1.0000
  H   H2702     1.0  0.88239  0.79383  0.19489  1.0000
  H   H2703     1.0  0.89317  0.76661  0.19349  1.0000
  N   N84       1.0  0.81517  0.69053  0.19391  1.0000
  C   C1528     1.0  0.83931  0.68962  0.19089  1.0000
  C   C1529     1.0  0.84995  0.70149  0.16967  1.0000
  C   C1530     1.0  0.87436  0.69639  0.16721  1.0000
  C   C1531     1.0  0.67957  0.52763  0.20209  1.0000
  H   H2704     1.0  0.88051  0.69969  0.18140  1.0000
  H   H2705     1.0  0.75131  0.90436  0.12650  1.0000
  H   H2706     1.0  0.98483  0.79043  0.20215  1.0000
  C   C1532     1.0  0.76518  0.89496  0.16775  1.0000
  H   H2707     1.0  0.52057  0.54498  0.10964  1.0000
  H   H2708     1.0  0.75536  0.50809  0.20785  1.0000
  C   C1533     1.0  0.67443  0.49735  0.05156  1.0000
  H   H2709     1.0  0.67256  0.62158  0.15271  1.0000
  H   H2710     1.0  0.77468  0.89959  0.17874  1.0000
  C   C1534     1.0  0.88463  0.77791  0.20439  1.0000
  H   H2711     1.0  0.64881  0.63568  0.16477  1.0000
  S   S345      1.0  0.67963  0.78354  0.18518  1.0000
  H   H2712     1.0  0.84442  0.69609  0.20405  1.0000
  H   H2713     1.0  0.87951  0.67958  0.16526  1.0000
  C   C1535     1.0  0.73614  0.92380  0.17423  1.0000
  C   C1536     1.0  0.76466  0.80966  0.20175  1.0000
  H   H2714     1.0  0.53396  0.60779  0.08805  1.0000
  C   C1537     1.0  0.52871  0.68371  0.19092  1.0000
  H   H2715     1.0  0.54816  0.84240  0.23180  1.0000
  C   C1538     1.0  0.80399  0.71098  0.18340  1.0000
  H   H2716     1.0  0.78656  0.71012  0.18439  1.0000
  H   H2717     1.0  0.80984  0.71380  0.16603  1.0000
  H   H2718     1.0  0.75781  0.73387  0.20341  1.0000
  C   C1539     1.0  0.53887  0.56567  0.08534  1.0000
  H   H2719     1.0  0.66731  0.63524  0.11767  1.0000
  C   C1540     1.0  0.92703  0.92717  0.14558  1.0000
  H   H2720     1.0  0.81248  0.98237  0.23525  1.0000
  H   H2721     1.0  0.67566  0.80460  0.22368  1.0000
  H   H2722     1.0  0.73681  0.87535  0.15407  1.0000
  H   H2723     1.0  0.83258  0.66492  0.22874  1.0000
  C   C1541     1.0  0.79629  0.95123  0.21001  1.0000
  H   H2724     1.0  0.64053  0.48627  0.03650  1.0000
  H   H2725     1.0  0.75738  0.94349  0.18370  1.0000
  H   H2726     1.0  0.68606  0.50691  0.23071  1.0000
  H   H2727     1.0  0.84592  0.71876  0.16940  1.0000
  H   H2728     1.0  0.49789  0.70394  0.19039  1.0000
  H   H2729     1.0  0.61565  0.67594  0.20003  1.0000
  H   H2730     1.0  0.80073  0.76495  0.18571  1.0000
  C   C1542     1.0  0.60873  0.60229  0.15543  1.0000
  C   C1543     1.0  0.74087  0.73814  0.20073  1.0000
  H   H2731     1.0  0.63906  0.67206  0.09276  1.0000
  H   H2732     1.0  0.52184  0.53949  0.08261  1.0000
  H   H2733     1.0  0.86142  0.52661  0.19795  1.0000
  H   H2734     1.0  0.55570  0.59295  0.04529  1.0000
  N   N85       1.0  0.75218  0.91416  0.15714  1.0000
  C   C1544     1.0  0.51332  0.70103  0.17979  1.0000
  H   H2735     1.0  0.62349  0.66140  0.13040  1.0000
  H   H2736     1.0  0.85925  0.93046  0.20875  1.0000
  H   H2737     1.0  0.88103  0.91155  0.11977  1.0000
  H   H2738     1.0  0.66431  0.67351  0.10154  1.0000
  H   H2739     1.0  0.93441  0.84111  0.20666  1.0000
  C   C1545     1.0  0.80595  0.73090  0.19296  1.0000
  H   H2740     1.0  0.82242  0.73064  0.19643  1.0000
  H   H2741     1.0  0.70047  0.51466  0.05352  1.0000
  C   C1546     1.0  0.80009  0.75110  0.17787  1.0000
  C   C1547     1.0  0.64115  0.65891  0.12614  1.0000
  H   H2742     1.0  0.55103  0.64564  0.19556  1.0000
  S   S346      1.0  0.50130  0.63279  0.12301  1.0000
  N   N86       1.0  0.54883  0.67504  0.22424  1.0000
  C   C1548     1.0  0.50126  0.65402  0.02719  1.0000
  C   C1549     1.0  0.53213  0.60317  0.07248  1.0000
  C   C1550     1.0  0.68092  0.57113  0.11613  1.0000
  C   C1551     1.0  0.51159  0.76360  0.20877  1.0000
  C   C1552     1.0  0.58492  0.60857  0.16308  1.0000
  H   H2743     1.0  0.75405  0.91938  0.20148  1.0000
  H   H2744     1.0  0.79007  0.96189  0.22161  1.0000
  H   H2745     1.0  0.98256  0.96570  0.07823  1.0000
  H   H2746     1.0  0.50774  0.58721  0.10856  1.0000
  H   H2747     1.0  0.64048  0.69099  0.10991  1.0000
  C   C1553     1.0  0.97439  0.77921  0.20118  1.0000
  C   C1554     1.0  0.54305  0.65295  0.22906  1.0000
  H   H2748     1.0  0.67378  0.57198  0.10124  1.0000
  H   H2749     1.0  0.52124  0.61652  0.06524  1.0000
  H   H2750     1.0  0.62501  0.54546  0.06135  1.0000
  H   H2751     1.0  0.57234  0.67022  0.19608  1.0000
  H   H2752     1.0  0.80836  0.65433  0.22770  1.0000
  H   H2753     1.0  0.52647  0.83280  0.20340  1.0000
  H   H2754     1.0  0.74679  0.54304  0.22160  1.0000
  C   C1555     1.0  0.66774  0.60583  0.19417  1.0000
  H   H2755     1.0  0.56959  0.63239  0.21293  1.0000
  Fe  Fe174     1.0  0.64413  0.72521  0.23032  1.0000
  H   H2756     1.0  0.95539  0.69586  0.22035  1.0000
  C   C1556     1.0  0.61981  0.62202  0.14610  1.0000
  C   C1557     1.0  0.74013  0.90850  0.14099  1.0000
  H   H2757     1.0  0.51012  0.69618  0.16490  1.0000
  H   H2758     1.0  0.58628  0.64914  0.23258  1.0000
  H   H2759     1.0  0.63984  0.50755  0.08411  1.0000
  H   H2760     1.0  0.57371  0.69284  0.20716  1.0000
  H   H2761     1.0  0.49667  0.60151  0.00886  1.0000
  C   C1558     1.0  0.61110  0.57197  0.02663  1.0000
  C   C1559     1.0  0.98102  0.94587  0.10970  1.0000
  C   C1560     1.0  0.60675  0.48818  0.01456  1.0000
  H   H2762     1.0  0.70572  0.78075  0.23730  1.0000
  H   H2763     1.0  0.73011  0.78565  0.20345  1.0000
  H   H2764     1.0  0.62350  0.54333  0.01352  1.0000
  C   C1561     1.0  0.74339  0.77880  0.21296  1.0000
  H   H2765     1.0  0.66325  0.52459  0.03026  1.0000
  H   H2766     1.0  0.81123  0.70139  0.22481  1.0000
  C   C1562     1.0  0.97853  0.66889  0.23106  1.0000
  H   H2767     1.0  0.59691  0.51379  0.03287  1.0000
  H   H2768     1.0  0.51656  0.69123  0.22182  1.0000
  C   C1563     1.0  0.53269  0.68981  0.21209  1.0000
  H   H2769     1.0  0.50504  0.79567  0.17837  1.0000
  H   H2770     1.0  0.76842  0.82388  0.20703  1.0000
  H   H2771     1.0  0.95764  0.81767  0.23113  1.0000
  N   N87       1.0  0.52250  0.58296  0.07631  1.0000
  H   H2772     1.0  0.89288  0.90301  0.21240  1.0000
  H   H2773     1.0  0.91200  0.83456  0.19645  1.0000
  H   H2774     1.0  0.67962  0.54443  0.19508  1.0000
  H   H2775     1.0  0.63367  0.48644  0.07311  1.0000
  C   C1564     1.0  0.89784  0.77772  0.22230  1.0000
  H   H2776     1.0  0.82370  0.49417  0.23198  1.0000
  H   H2777     1.0  0.49583  0.56988  0.09670  1.0000
  H   H2778     1.0  0.99251  0.65925  0.22303  1.0000
  H   H2779     1.0  0.86898  0.50417  0.23124  1.0000
  H   H2780     1.0  0.61464  0.58209  0.01106  1.0000
  H   H2781     1.0  0.50378  0.56727  0.06019  1.0000
  H   H2782     1.0  0.74640  0.95960  0.14968  1.0000
  C   C1565     1.0  0.51651  0.78179  0.21933  1.0000
  C   C1566     1.0  0.83640  0.87704  0.23390  1.0000
  C   C1567     1.0  0.50299  0.58475  0.09320  1.0000
  H   H2783     1.0  0.98318  0.89247  0.11918  1.0000
  C   C1568     1.0  0.66844  0.91690  0.23599  1.0000
  H   H2784     1.0  0.68175  0.91962  0.22275  1.0000
  C   C1569     1.0  0.98091  0.88482  0.08843  1.0000
  H   H2785     1.0  0.72248  0.73297  0.23231  1.0000
  S   S347      1.0  0.77431  0.86162  0.22903  1.0000
  C   C1570     1.0  0.69164  0.66123  0.23521  1.0000
  C   C1571     1.0  0.71266  0.52533  0.21989  1.0000
  H   H2786     1.0  0.76117  0.49531  0.23381  1.0000
  H   H2787     1.0  0.76160  0.79172  0.23315  1.0000
  Fe  Fe175     1.0  0.73877  0.86099  0.23065  1.0000
  H   H2788     1.0  0.86872  0.77308  0.21112  1.0000
  C   C1572     1.0  0.69758  0.50179  0.04538  1.0000
  C   C1573     1.0  0.60262  0.49345  0.10583  1.0000
  H   H2789     1.0  0.54229  0.60978  0.23228  1.0000
  H   H2790     1.0  0.68943  0.51756  0.19064  1.0000
  H   H2791     1.0  0.96856  0.93799  0.12093  1.0000
  H   H2792     1.0  0.59449  0.50606  0.07467  1.0000
  H   H2793     1.0  0.82709  0.89290  0.23539  1.0000
  C   C1574     1.0  0.51044  0.59567  0.03848  1.0000
  H   H2794     1.0  0.86689  0.88752  0.23142  1.0000
  H   H2795     1.0  0.67218  0.49079  0.06879  1.0000
  H   H2796     1.0  0.61144  0.49762  0.11772  1.0000
  H   H2797     1.0  0.51160  0.57556  0.01401  1.0000
  H   H2798     1.0  0.88253  0.80893  0.22833  1.0000
  H   H2799     1.0  0.51154  0.82113  0.17565  1.0000
  C   C1575     1.0  0.81166  0.77993  0.23524  1.0000
  C   C1576     1.0  0.68845  0.52323  0.22338  1.0000
  C   C1577     1.0  0.71348  0.65359  0.23608  1.0000
  H   H2800     1.0  0.82773  0.86833  0.22534  1.0000
  C   C1578     1.0  0.74558  0.52844  0.23334  1.0000
  H   H2801     1.0  0.98294  0.95947  0.11739  1.0000
  H   H2802     1.0  0.65326  0.92622  0.23140  1.0000
  H   H2803     1.0  0.67879  0.53429  0.23390  1.0000
  H   H2804     1.0  0.96920  0.94310  0.07976  1.0000
  H   H2805     1.0  0.49558  0.76689  0.20352  1.0000
  C   C1579     1.0  0.88633  0.79324  0.23804  1.0000
  H   H2806     1.0  0.71019  0.92839  0.27425  1.0000
  S   S348      1.0  0.52237  0.85168  0.38203  1.0000
  Fe  Fe176     1.0  0.54014  0.86904  0.32147  1.0000
  S   S349      1.0  0.55918  0.84433  0.34218  1.0000
  S   S350      1.0  0.55711  0.87176  0.28718  1.0000
  Fe  Fe177     1.0  0.52764  0.83264  0.35453  1.0000
  H   H2807     1.0  0.51649  0.82368  0.31193  1.0000
  Fe  Fe178     1.0  0.55135  0.86724  0.36599  1.0000
  S   S351      1.0  0.57888  0.87542  0.38057  1.0000
  H   H2808     1.0  0.88588  0.82830  0.25607  1.0000
  S   S352      1.0  0.53311  0.89252  0.34494  1.0000
  S   S353      1.0  0.86126  0.50926  0.34367  1.0000
  S   S354      1.0  0.88462  0.50949  0.28567  1.0000
  Fe  Fe179     1.0  0.88773  0.50569  0.36392  1.0000
  S   S355      1.0  0.89632  0.53170  0.37988  1.0000
  H   H2809     1.0  0.86083  0.79586  0.28696  1.0000
  H   H2810     1.0  0.98224  0.71126  0.27272  1.0000
  H   H2811     1.0  0.97737  0.50696  0.41157  1.0000
  S   S356      1.0  0.65712  0.96764  0.39301  1.0000
  S   S357      1.0  0.61030  0.96608  0.35820  1.0000
  H   H2812     1.0  0.93338  0.49338  0.38073  1.0000
  C   C1580     1.0  0.70890  0.75756  0.26538  1.0000
  Fe  Fe180     1.0  0.68768  0.96543  0.36982  1.0000
  S   S358      1.0  0.71426  0.93805  0.36783  1.0000
  C   C1581     1.0  0.61736  0.95066  0.43763  1.0000
  H   H2813     1.0  0.75017  0.95400  0.26696  1.0000
  S   S359      1.0  0.70030  0.88130  0.30105  1.0000
  H   H2814     1.0  0.69511  0.78286  0.28433  1.0000
  S   S360      1.0  0.96373  0.67803  0.35810  1.0000
  S   S361      1.0  0.98445  0.61951  0.38778  1.0000
  H   H2815     1.0  0.92341  0.83093  0.25464  1.0000
  Fe  Fe181     1.0  0.72796  0.87304  0.27541  1.0000
  C   C1582     1.0  0.94328  0.67515  0.34379  1.0000
  C   C1583     1.0  0.93465  0.65626  0.34697  1.0000
  C   C1584     1.0  0.91773  0.65453  0.33610  1.0000
  C   C1585     1.0  0.91012  0.67126  0.32114  1.0000
  C   C1586     1.0  0.91916  0.68993  0.31753  1.0000
  C   C1587     1.0  0.93529  0.69206  0.32923  1.0000
  C   C1588     1.0  0.72050  0.87680  0.39324  1.0000
  H   H2816     1.0  0.91333  0.70288  0.30607  1.0000
  H   H2817     1.0  0.94177  0.70674  0.32684  1.0000
  H   H2818     1.0  0.76210  0.77770  0.37691  1.0000
  H   H2819     1.0  0.72503  0.78416  0.25305  1.0000
  H   H2820     1.0  0.60647  0.79297  0.31846  1.0000
  S   S362      1.0  0.88933  0.66860  0.30716  1.0000
  H   H2821     1.0  0.62241  0.79340  0.33901  1.0000
  H   H2822     1.0  0.71686  0.84705  0.38505  1.0000
  C   C1589     1.0  0.71047  0.92199  0.34956  1.0000
  C   C1590     1.0  0.69004  0.91735  0.34871  1.0000
  C   C1591     1.0  0.68726  0.90443  0.33411  1.0000
  C   C1592     1.0  0.70467  0.89668  0.31980  1.0000
  C   C1593     1.0  0.72507  0.90139  0.32063  1.0000
  C   C1594     1.0  0.72803  0.91371  0.33570  1.0000
  H   H2823     1.0  0.67641  0.92355  0.35948  1.0000
  H   H2824     1.0  0.67146  0.90085  0.33360  1.0000
  H   H2825     1.0  0.73857  0.89574  0.30961  1.0000
  H   H2826     1.0  0.74385  0.91734  0.33625  1.0000
  C   C1595     1.0  0.91949  0.54463  0.37081  1.0000
  C   C1596     1.0  0.92416  0.55945  0.38250  1.0000
  C   C1597     1.0  0.94274  0.56944  0.37600  1.0000
  C   C1598     1.0  0.95698  0.56459  0.35775  1.0000
  C   C1599     1.0  0.95208  0.55004  0.34593  1.0000
  C   C1600     1.0  0.93347  0.54028  0.35231  1.0000
  H   H2827     1.0  0.91342  0.56317  0.39675  1.0000
  H   H2828     1.0  0.94622  0.58062  0.38529  1.0000
  H   H2829     1.0  0.96289  0.54615  0.33178  1.0000
  H   H2830     1.0  0.93021  0.52906  0.34306  1.0000
  C   C1601     1.0  0.85832  0.52110  0.28132  1.0000
  C   C1602     1.0  0.84048  0.51417  0.29475  1.0000
  H   H2831     1.0  0.84266  0.50148  0.30779  1.0000
  H   H2832     1.0  0.80597  0.51770  0.30152  1.0000
  C   C1603     1.0  0.58762  0.90067  0.37424  1.0000
  C   C1604     1.0  0.57608  0.91768  0.36264  1.0000
  C   C1605     1.0  0.58340  0.93742  0.35782  1.0000
  C   C1606     1.0  0.60241  0.94053  0.36441  1.0000
  C   C1607     1.0  0.61418  0.92351  0.37584  1.0000
  C   C1608     1.0  0.60666  0.90378  0.38092  1.0000
  H   H2833     1.0  0.56137  0.91576  0.35749  1.0000
  H   H2834     1.0  0.57418  0.95042  0.34892  1.0000
  H   H2835     1.0  0.62892  0.92560  0.38094  1.0000
  H   H2836     1.0  0.61563  0.89084  0.39010  1.0000
  C   C1609     1.0  0.56966  0.84657  0.28140  1.0000
  C   C1610     1.0  0.58655  0.84394  0.26445  1.0000
  C   C1611     1.0  0.59721  0.82354  0.26134  1.0000
  C   C1612     1.0  0.59102  0.80585  0.27528  1.0000
  C   C1613     1.0  0.57381  0.80870  0.29163  1.0000
  C   C1614     1.0  0.56315  0.82878  0.29451  1.0000
  H   H2837     1.0  0.62378  0.91637  0.43995  1.0000
  H   H2838     1.0  0.72616  0.89191  0.38566  1.0000
  H   H2839     1.0  0.56880  0.79542  0.30252  1.0000
  H   H2840     1.0  0.54989  0.83048  0.30713  1.0000
  C   C1615     1.0  0.67875  0.97723  0.27077  1.0000
  H   H2841     1.0  0.59460  0.80555  0.34148  1.0000
  H   H2842     1.0  0.53693  0.70228  0.28201  1.0000
  H   H2843     1.0  0.65606  0.83959  0.35607  1.0000
  H   H2844     1.0  0.53053  0.77733  0.27899  1.0000
  S   S363      1.0  0.73473  0.84171  0.26319  1.0000
  Fe  Fe182     1.0  0.50434  0.87637  0.36021  1.0000
  H   H2845     1.0  0.74656  0.92899  0.28325  1.0000
  H   H2846     1.0  0.55976  0.67254  0.25498  1.0000
  S   S364      1.0  0.79298  0.82003  0.27934  1.0000
  H   H2847     1.0  0.74066  0.81924  0.39305  1.0000
  H   H2848     1.0  0.71337  0.94741  0.30384  1.0000
  H   H2849     1.0  0.51260  0.69104  0.29191  1.0000
  H   H2850     1.0  0.87228  0.62353  0.26692  1.0000
  H   H2851     1.0  0.84140  0.75370  0.27345  1.0000
  C   C1616     1.0  0.67523  0.94663  0.25432  1.0000
  C   C1617     1.0  0.81963  0.52325  0.29105  1.0000
  C   C1618     1.0  0.50826  0.81033  0.31349  1.0000
  N   N88       1.0  0.87879  0.58449  0.29777  1.0000
  C   C1619     1.0  0.88627  0.56117  0.29844  1.0000
  C   C1620     1.0  0.85637  0.58944  0.29180  1.0000
  C   C1621     1.0  0.89327  0.59561  0.27990  1.0000
  C   C1622     1.0  0.87972  0.59256  0.31845  1.0000
  C   C1623     1.0  0.87667  0.57695  0.33954  1.0000
  C   C1624     1.0  0.90995  0.55351  0.30226  1.0000
  C   C1625     1.0  0.88701  0.61979  0.27471  1.0000
  C   C1626     1.0  0.83879  0.57816  0.30671  1.0000
  C   C1627     1.0  0.81708  0.58495  0.29866  1.0000
  C   C1628     1.0  0.87466  0.58820  0.35911  1.0000
  C   C1629     1.0  0.92498  0.54821  0.28200  1.0000
  C   C1630     1.0  0.88593  0.81321  0.26727  1.0000
  H   H2852     1.0  0.88374  0.55589  0.28345  1.0000
  H   H2853     1.0  0.87622  0.55194  0.31120  1.0000
  H   H2854     1.0  0.85041  0.60655  0.29136  1.0000
  H   H2855     1.0  0.85655  0.58576  0.27531  1.0000
  H   H2856     1.0  0.89407  0.58891  0.26476  1.0000
  H   H2857     1.0  0.90995  0.59305  0.28372  1.0000
  H   H2858     1.0  0.89548  0.59797  0.31812  1.0000
  H   H2859     1.0  0.86774  0.60695  0.32020  1.0000
  H   H2860     1.0  0.89073  0.56449  0.34030  1.0000
  H   H2861     1.0  0.86241  0.56896  0.34105  1.0000
  H   H2862     1.0  0.91660  0.56491  0.30955  1.0000
  H   H2863     1.0  0.91029  0.53879  0.31390  1.0000
  H   H2864     1.0  0.88419  0.62746  0.28940  1.0000
  H   H2865     1.0  0.90246  0.78538  0.30103  1.0000
  H   H2866     1.0  0.84250  0.56080  0.30742  1.0000
  H   H2867     1.0  0.83673  0.58251  0.32301  1.0000
  H   H2868     1.0  0.80499  0.57567  0.30869  1.0000
  H   H2869     1.0  0.81149  0.60193  0.29955  1.0000
  H   H2870     1.0  0.81813  0.58215  0.28185  1.0000
  H   H2871     1.0  0.87268  0.57668  0.37394  1.0000
  H   H2872     1.0  0.88936  0.59535  0.35887  1.0000
  H   H2873     1.0  0.86048  0.60066  0.35954  1.0000
  H   H2874     1.0  0.94138  0.54242  0.28606  1.0000
  H   H2875     1.0  0.91953  0.53558  0.27539  1.0000
  H   H2876     1.0  0.92581  0.56216  0.26950  1.0000
  H   H2877     1.0  0.96428  0.65968  0.30218  1.0000
  C   C1631     1.0  0.91085  0.77359  0.29067  1.0000
  H   H2878     1.0  0.65777  0.84448  0.30985  1.0000
  C   C1632     1.0  0.95385  0.63279  0.29391  1.0000
  Fe  Fe183     1.0  0.88634  0.49430  0.31995  1.0000
  H   H2879     1.0  0.60961  0.83678  0.34796  1.0000
  H   H2880     1.0  0.67873  0.94905  0.30713  1.0000
  S   S365      1.0  0.75420  0.65705  0.24344  1.0000
  H   H2881     1.0  0.64357  0.96688  0.30090  1.0000
  H   H2882     1.0  0.96934  0.68866  0.25546  1.0000
  H   H2883     1.0  0.75707  0.76038  0.25451  1.0000
  S   S366      1.0  0.72911  0.89206  0.24285  1.0000
  H   H2884     1.0  0.90907  0.76204  0.26191  1.0000
  C   C1633     1.0  0.71909  0.95372  0.28707  1.0000
  H   H2885     1.0  0.63537  0.88411  0.33883  1.0000
  H   H2886     1.0  0.67716  0.77644  0.26798  1.0000
  H   H2887     1.0  0.72616  0.49116  0.24461  1.0000
  C   C1634     1.0  0.83419  0.54637  0.26045  1.0000
  S   S367      1.0  0.78989  0.55019  0.26976  1.0000
  H   H2888     1.0  0.68056  0.57790  0.26109  1.0000
  C   C1635     1.0  0.85509  0.53707  0.26400  1.0000
  H   H2889     1.0  0.89923  0.64656  0.25469  1.0000
  C   C1636     1.0  0.60015  0.95389  0.42253  1.0000
  H   H2890     1.0  0.54133  0.83093  0.25920  1.0000
  H   H2891     1.0  0.63675  0.82642  0.34004  1.0000
  C   C1637     1.0  0.64548  0.85854  0.30686  1.0000
  H   H2892     1.0  0.91892  0.75136  0.31850  1.0000
  H   H2893     1.0  0.90406  0.48687  0.41062  1.0000
  C   C1638     1.0  0.73186  0.50038  0.27411  1.0000
  H   H2894     1.0  0.98980  0.49976  0.35279  1.0000
  C   C1639     1.0  0.82603  0.76417  0.24527  1.0000
  C   C1640     1.0  0.80179  0.79735  0.24541  1.0000
  C   C1641     1.0  0.97806  0.50943  0.39383  1.0000
  H   H2895     1.0  0.65542  0.85678  0.25154  1.0000
  C   C1642     1.0  0.75620  0.72794  0.25125  1.0000
  C   C1643     1.0  0.72673  0.66611  0.24198  1.0000
  C   C1644     1.0  0.60957  0.80260  0.33012  1.0000
  H   H2896     1.0  0.62067  0.86647  0.35741  1.0000
  S   S368      1.0  0.91310  0.49238  0.33938  1.0000
  H   H2897     1.0  0.81445  0.68184  0.26034  1.0000
  H   H2898     1.0  0.88371  0.76970  0.27592  1.0000
  H   H2899     1.0  0.67131  0.86617  0.26787  1.0000
  N   N89       1.0  0.57074  0.73361  0.31589  1.0000
  C   C1645     1.0  0.55815  0.75145  0.30286  1.0000
  C   C1646     1.0  0.57937  0.74168  0.33320  1.0000
  C   C1647     1.0  0.58975  0.72486  0.30078  1.0000
  C   C1648     1.0  0.55770  0.71610  0.32519  1.0000
  C   C1649     1.0  0.53652  0.72219  0.33992  1.0000
  C   C1650     1.0  0.54643  0.74517  0.28600  1.0000
  C   C1651     1.0  0.60683  0.70814  0.31108  1.0000
  C   C1652     1.0  0.56485  0.75930  0.34473  1.0000
  C   C1653     1.0  0.57346  0.76228  0.36478  1.0000
  C   C1654     1.0  0.52213  0.70498  0.34362  1.0000
  N   N90       1.0  0.89833  0.79539  0.25591  1.0000
  C   C1655     1.0  0.62537  0.70135  0.29404  1.0000
  H   H2900     1.0  0.56896  0.76285  0.29449  1.0000
  H   H2901     1.0  0.54556  0.76077  0.31300  1.0000
  H   H2902     1.0  0.58402  0.72835  0.34568  1.0000
  H   H2903     1.0  0.59436  0.74856  0.32635  1.0000
  H   H2904     1.0  0.59834  0.73788  0.29166  1.0000
  H   H2905     1.0  0.58454  0.71736  0.28852  1.0000
  H   H2906     1.0  0.55396  0.70855  0.31211  1.0000
  H   H2907     1.0  0.56718  0.70332  0.33498  1.0000
  H   H2908     1.0  0.52714  0.73695  0.33314  1.0000
  H   H2909     1.0  0.54016  0.72407  0.35583  1.0000
  C   C1656     1.0  0.50763  0.79584  0.33225  1.0000
  H   H2910     1.0  0.53192  0.73825  0.29414  1.0000
  H   H2911     1.0  0.59982  0.69384  0.31898  1.0000
  H   H2912     1.0  0.61378  0.71443  0.32308  1.0000
  H   H2913     1.0  0.56445  0.77453  0.33396  1.0000
  H   H2914     1.0  0.54810  0.75628  0.34953  1.0000
  H   H2915     1.0  0.56333  0.77570  0.37194  1.0000
  H   H2916     1.0  0.57293  0.74791  0.37685  1.0000
  H   H2917     1.0  0.59019  0.76583  0.36071  1.0000
  H   H2918     1.0  0.75120  0.95058  0.29536  1.0000
  H   H2919     1.0  0.60965  0.94925  0.45457  1.0000
  C   C1657     1.0  0.83808  0.49219  0.24015  1.0000
  C   C1658     1.0  0.69658  0.58153  0.25306  1.0000
  H   H2920     1.0  0.64220  0.91966  0.31584  1.0000
  H   H2921     1.0  0.70286  0.74440  0.26033  1.0000
  H   H2922     1.0  0.63341  0.71504  0.28590  1.0000
  N   N91       1.0  0.75096  0.84132  0.35015  1.0000
  C   C1659     1.0  0.73132  0.83894  0.34089  1.0000
  C   C1660     1.0  0.74569  0.85819  0.36480  1.0000
  C   C1661     1.0  0.76732  0.84847  0.33166  1.0000
  C   C1662     1.0  0.76076  0.82078  0.36172  1.0000
  C   C1663     1.0  0.74568  0.80955  0.37987  1.0000
  C   C1664     1.0  0.73448  0.82267  0.32499  1.0000
  C   C1665     1.0  0.78865  0.85280  0.33757  1.0000
  C   C1666     1.0  0.72241  0.86189  0.37666  1.0000
  C   C1667     1.0  0.75712  0.78834  0.38932  1.0000
  C   C1668     1.0  0.71298  0.81967  0.31920  1.0000
  C   C1669     1.0  0.80195  0.86369  0.31804  1.0000
  H   H2923     1.0  0.72479  0.85440  0.33235  1.0000
  H   H2924     1.0  0.71820  0.83459  0.35368  1.0000
  H   H2925     1.0  0.75683  0.85519  0.37701  1.0000
  H   H2926     1.0  0.74834  0.87393  0.35565  1.0000
  H   H2927     1.0  0.76009  0.86308  0.32224  1.0000
  H   H2928     1.0  0.77211  0.83657  0.32046  1.0000
  H   H2929     1.0  0.76794  0.80956  0.35020  1.0000
  H   H2930     1.0  0.77450  0.82327  0.36922  1.0000
  H   H2931     1.0  0.73130  0.80640  0.37401  1.0000
  H   H2932     1.0  0.74448  0.82811  0.30982  1.0000
  H   H2933     1.0  0.74218  0.80703  0.33187  1.0000
  H   H2934     1.0  0.79842  0.83773  0.34319  1.0000
  H   H2935     1.0  0.78591  0.86302  0.35031  1.0000
  H   H2936     1.0  0.71133  0.86931  0.36495  1.0000
  H   H2937     1.0  0.73008  0.86951  0.40625  1.0000
  H   H2938     1.0  0.74610  0.78069  0.40250  1.0000
  H   H2939     1.0  0.70465  0.83485  0.31185  1.0000
  H   H2940     1.0  0.71575  0.80836  0.30745  1.0000
  H   H2941     1.0  0.70251  0.81333  0.33366  1.0000
  H   H2942     1.0  0.81768  0.86549  0.32221  1.0000
  H   H2943     1.0  0.80482  0.85426  0.30459  1.0000
  H   H2944     1.0  0.79350  0.87959  0.31271  1.0000
  C   C1670     1.0  0.63969  0.85964  0.28397  1.0000
  H   H2945     1.0  0.64597  0.86140  0.38477  1.0000
  C   C1671     1.0  0.96393  0.65308  0.28733  1.0000
  H   H2946     1.0  0.69453  0.59722  0.24306  1.0000
  H   H2947     1.0  0.77461  0.70410  0.27152  1.0000
  S   S369      1.0  0.98174  0.57491  0.34960  1.0000
  H   H2948     1.0  0.55064  0.95014  0.42865  1.0000
  C   C1672     1.0  0.65985  0.85503  0.26790  1.0000
  C   C1673     1.0  0.64778  0.95021  0.29799  1.0000
  H   H2949     1.0  0.79028  0.67105  0.25912  1.0000
  H   H2950     1.0  0.66889  0.85981  0.33862  1.0000
  H   H2951     1.0  0.67437  0.85916  0.37568  1.0000
  C   C1674     1.0  0.63815  0.93652  0.31777  1.0000
  H   H2952     1.0  0.71679  0.97114  0.28567  1.0000
  H   H2953     1.0  0.59358  0.87009  0.33293  1.0000
  H   H2954     1.0  0.60280  0.83201  0.31012  1.0000
  C   C1675     1.0  0.61633  0.82342  0.31826  1.0000
  C   C1676     1.0  0.67324  0.92282  0.25668  1.0000
  H   H2955     1.0  0.63999  0.94827  0.28434  1.0000
  S   S370      1.0  0.67109  0.97275  0.34090  1.0000
  H   H2956     1.0  0.72086  0.75115  0.27641  1.0000
  H   H2957     1.0  0.50750  0.70943  0.35490  1.0000
  H   H2958     1.0  0.92034  0.73955  0.29468  1.0000
  N   N92       1.0  0.58452  0.97406  0.42245  1.0000
  H   H2959     1.0  0.72024  0.54440  0.26495  1.0000
  H   H2960     1.0  0.51794  0.67194  0.26069  1.0000
  H   H2961     1.0  0.69517  0.53896  0.26081  1.0000
  H   H2962     1.0  0.53805  0.67411  0.29022  1.0000
  H   H2963     1.0  0.96659  0.65836  0.23889  1.0000
  H   H2964     1.0  0.55657  0.73365  0.27635  1.0000
  H   H2965     1.0  0.75262  0.53117  0.24731  1.0000
  N   N93       1.0  0.62727  0.85843  0.32523  1.0000
  H   H2966     1.0  0.85245  0.81237  0.26336  1.0000
  C   C1677     1.0  0.72035  0.50447  0.25396  1.0000
  H   H2967     1.0  0.96331  0.52055  0.39066  1.0000
  H   H2968     1.0  0.83515  0.82671  0.29586  1.0000
  H   H2969     1.0  0.98687  0.63751  0.26383  1.0000
  H   H2970     1.0  0.68815  0.91285  0.26089  1.0000
  H   H2971     1.0  0.57700  0.97458  0.39047  1.0000
  H   H2972     1.0  0.52849  0.76000  0.26043  1.0000
  S   S371      1.0  0.88617  0.72447  0.26841  1.0000
  C   C1678     1.0  0.71800  0.68634  0.24681  1.0000
  H   H2973     1.0  0.56807  0.93996  0.40629  1.0000
  H   H2974     1.0  0.62267  0.89871  0.30240  1.0000
  Fe  Fe184     1.0  0.88938  0.68916  0.27517  1.0000
  H   H2975     1.0  0.52231  0.80549  0.24793  1.0000
  C   C1679     1.0  0.98696  0.64847  0.27547  1.0000
  H   H2976     1.0  0.57334  0.90374  0.31151  1.0000
  H   H2977     1.0  0.86068  0.82748  0.30396  1.0000
  H   H2978     1.0  0.60660  0.90309  0.32755  1.0000
  C   C1680     1.0  0.49731  0.77809  0.33331  1.0000
  S   S372      1.0  0.65504  0.75317  0.23953  1.0000
  C   C1681     1.0  0.98891  0.70845  0.30485  1.0000
  C   C1682     1.0  0.62261  0.83632  0.33394  1.0000
  H   H2979     1.0  0.72644  0.51311  0.28419  1.0000
  H   H2980     1.0  0.70673  0.58234  0.26536  1.0000
  H   H2981     1.0  0.99011  0.69655  0.31938  1.0000
  H   H2982     1.0  0.89452  0.74810  0.30951  1.0000
  H   H2983     1.0  0.98779  0.48419  0.31993  1.0000
  H   H2984     1.0  0.83732  0.86835  0.25027  1.0000
  C   C1683     1.0  0.97540  0.49357  0.36240  1.0000
  C   C1684     1.0  0.83050  0.76589  0.26554  1.0000
  H   H2985     1.0  0.65922  0.95561  0.25170  1.0000
  S   S373      1.0  0.60565  0.78027  0.27500  1.0000
  C   C1685     1.0  0.68990  0.76982  0.27815  1.0000
  H   H2986     1.0  0.94066  0.64316  0.35822  1.0000
  S   S374      1.0  0.76221  0.87430  0.27751  1.0000
  H   H2987     1.0  0.59163  0.93993  0.42754  1.0000
  C   C1686     1.0  0.81638  0.53942  0.27397  1.0000
  H   H2988     1.0  0.70345  0.88032  0.40038  1.0000
  N   N94       1.0  0.72239  0.52522  0.23985  1.0000
  H   H2989     1.0  0.55341  0.77004  0.25966  1.0000
  C   C1687     1.0  0.91109  0.75182  0.30412  1.0000
  Fe  Fe185     1.0  0.64079  0.97703  0.36375  1.0000
  H   H2990     1.0  0.62043  0.94070  0.32007  1.0000
  H   H2991     1.0  0.66782  0.83864  0.27193  1.0000
  H   H2992     1.0  0.91083  0.64004  0.33898  1.0000
  H   H2993     1.0  0.82328  0.78407  0.29183  1.0000
  C   C1688     1.0  0.82022  0.78308  0.27591  1.0000
  C   C1689     1.0  0.77466  0.72087  0.26447  1.0000
  C   C1690     1.0  0.56882  0.97348  0.40729  1.0000
  H   H2994     1.0  0.58969  0.90082  0.28591  1.0000
  C   C1691     1.0  0.80582  0.79881  0.26588  1.0000
  C   C1692     1.0  0.49867  0.80745  0.29619  1.0000
  Fe  Fe186     1.0  0.76951  0.84458  0.26271  1.0000
  H   H2995     1.0  0.68296  0.75908  0.29197  1.0000
  H   H2996     1.0  0.74119  0.72486  0.26181  1.0000
  H   H2997     1.0  0.63745  0.68940  0.30160  1.0000
  H   H2998     1.0  0.61954  0.69429  0.28179  1.0000
  H   H2999     1.0  0.77150  0.79051  0.39597  1.0000
  H   H3000     1.0  0.60116  0.86594  0.30601  1.0000
  C   C1693     1.0  0.58880  0.90663  0.30146  1.0000
  H   H3001     1.0  0.62865  0.84851  0.28309  1.0000
  C   C1694     1.0  0.98476  0.68063  0.24789  1.0000
  Fe  Fe187     1.0  0.91507  0.71902  0.24344  1.0000
  C   C1695     1.0  0.52638  0.68575  0.25963  1.0000
  S   S375      1.0  0.86746  0.68645  0.25184  1.0000
  H   H3002     1.0  0.83403  0.50327  0.25223  1.0000
  C   C1696     1.0  0.71098  0.54275  0.25217  1.0000
  H   H3003     1.0  0.70316  0.50309  0.25977  1.0000
  H   H3004     1.0  0.74948  0.49936  0.26959  1.0000
  C   C1697     1.0  0.86221  0.81109  0.27648  1.0000
  C   C1698     1.0  0.70718  0.94591  0.27122  1.0000
  H   H3005     1.0  0.81438  0.65376  0.26465  1.0000
  C   C1699     1.0  0.98358  0.69858  0.28662  1.0000
  H   H3006     1.0  0.59908  0.98221  0.45976  1.0000
  H   H3007     1.0  0.51706  0.70310  0.32832  1.0000
  C   C1700     1.0  0.52877  0.68844  0.28235  1.0000
  C   C1701     1.0  0.53827  0.95722  0.39854  1.0000
  C   C1702     1.0  0.89980  0.77472  0.27067  1.0000
  C   C1703     1.0  0.60677  0.87166  0.31925  1.0000
  C   C1704     1.0  0.63360  0.86719  0.34342  1.0000
  C   C1705     1.0  0.65519  0.85680  0.35133  1.0000
  H   H3008     1.0  0.96225  0.62209  0.30632  1.0000
  S   S376      1.0  0.91947  0.68399  0.25221  1.0000
  Fe  Fe188     1.0  0.78515  0.57828  0.24409  1.0000
  Fe  Fe189     1.0  0.86712  0.72143  0.24274  1.0000
  H   H3009     1.0  0.63034  0.81938  0.30612  1.0000
  C   C1706     1.0  0.65834  0.86576  0.37107  1.0000
  H   H3010     1.0  0.63166  0.87562  0.27842  1.0000
  H   H3011     1.0  0.65997  0.91872  0.26948  1.0000
  H   H3012     1.0  0.49951  0.81890  0.28185  1.0000
  Fe  Fe190     1.0  0.76404  0.89119  0.24407  1.0000
  N   N95       1.0  0.68340  0.95355  0.27255  1.0000
  H   H3013     1.0  0.95338  0.66424  0.27728  1.0000
  C   C1707     1.0  0.60762  0.89562  0.31294  1.0000
  S   S377      1.0  0.51973  0.79962  0.35429  1.0000
  H   H3014     1.0  0.85276  0.84427  0.28016  1.0000
  H   H3015     1.0  0.65400  0.87236  0.30605  1.0000
  H   H3016     1.0  0.92987  0.80941  0.27503  1.0000
  H   H3017     1.0  0.93674  0.63655  0.30059  1.0000
  H   H3018     1.0  0.95980  0.49527  0.32440  1.0000
  S   S378      1.0  0.79997  0.60790  0.24057  1.0000
  H   H3019     1.0  0.96774  0.69322  0.29164  1.0000
  H   H3020     1.0  0.96194  0.50639  0.35981  1.0000
  C   C1708     1.0  0.74863  0.97736  0.33981  1.0000
  H   H3021     1.0  0.76449  0.97189  0.34531  1.0000
  H   H3022     1.0  0.79597  0.48853  0.26154  1.0000
  H   H3023     1.0  0.65717  0.88319  0.36789  1.0000
  H   H3024     1.0  0.64435  0.93906  0.33224  1.0000
  H   H3025     1.0  0.59166  0.85764  0.25409  1.0000
  H   H3026     1.0  0.58923  0.92387  0.29834  1.0000
  C   C1709     1.0  0.85219  0.82853  0.28991  1.0000
  H   H3027     1.0  0.92784  0.77599  0.28579  1.0000
  C   C1710     1.0  0.92055  0.80032  0.24609  1.0000
  H   H3028     1.0  0.71549  0.95017  0.25473  1.0000
  H   H3029     1.0  0.64526  0.92850  0.44562  1.0000
  H   H3030     1.0  0.83184  0.55880  0.24719  1.0000
  H   H3031     1.0  0.95454  0.62452  0.27989  1.0000
  H   H3032     1.0  0.54398  0.96110  0.38116  1.0000
  H   H3033     1.0  0.89381  0.81545  0.28076  1.0000
  H   H3034     1.0  0.64054  0.93003  0.41837  1.0000
  H   H3035     1.0  0.98171  0.55080  0.39585  1.0000
  H   H3036     1.0  0.67649  0.92676  0.29601  1.0000
  H   H3037     1.0  0.77283  0.73032  0.27780  1.0000
  C   C1711     1.0  0.93698  0.49019  0.39742  1.0000
  H   H3038     1.0  0.86877  0.54237  0.25336  1.0000
  H   H3039     1.0  0.68978  0.70988  0.24896  1.0000
  C   C1712     1.0  0.74320  0.94636  0.28285  1.0000
  C   C1713     1.0  0.67248  0.94419  0.29384  1.0000
  S   S379      1.0  0.75216  0.59580  0.24046  1.0000
  Fe  Fe191     1.0  0.98757  0.64860  0.36335  1.0000
  H   H3040     1.0  0.56980  0.95995  0.45325  1.0000
  C   C1714     1.0  0.95510  0.81381  0.24886  1.0000
  H   H3041     1.0  0.52585  0.97015  0.40379  1.0000
  C   C1715     1.0  0.68304  0.68165  0.23959  1.0000
  H   H3042     1.0  0.93490  0.50542  0.40371  1.0000
  C   C1716     1.0  0.93123  0.81431  0.25751  1.0000
  H   H3043     1.0  0.74464  0.96532  0.33122  1.0000
  C   C1717     1.0  0.80803  0.66883  0.25534  1.0000
  H   H3044     1.0  0.51599  0.70008  0.25323  1.0000
  S   S380      1.0  0.65539  0.69044  0.23917  1.0000
  H   H3045     1.0  0.91946  0.62785  0.26660  1.0000
  C   C1718     1.0  0.55699  0.95386  0.41144  1.0000
  H   H3046     1.0  0.72807  0.69585  0.25176  1.0000
  H   H3047     1.0  0.97602  0.72147  0.30891  1.0000
  C   C1719     1.0  0.63263  0.93014  0.43518  1.0000
  H   H3048     1.0  0.53062  0.68972  0.35063  1.0000
  C   C1720     1.0  0.53930  0.76437  0.27031  1.0000
  H   H3049     1.0  0.60852  0.95255  0.40598  1.0000
  C   C1721     1.0  0.90467  0.62956  0.25911  1.0000
  C   C1722     1.0  0.57220  0.97590  0.44456  1.0000
  S   S381      1.0  0.50883  0.85697  0.33346  1.0000
  H   H3050     1.0  0.96183  0.82550  0.25569  1.0000
  C   C1723     1.0  0.54848  0.68322  0.24513  1.0000
  H   H3051     1.0  0.75872  0.71782  0.23842  1.0000
  S   S382      1.0  0.60914  0.73691  0.23906  1.0000
  C   C1724     1.0  0.71896  0.77214  0.24603  1.0000
  H   H3052     1.0  0.53087  0.94254  0.40096  1.0000
  H   H3053     1.0  0.79033  0.72255  0.25427  1.0000
  Fe  Fe192     1.0  0.62001  0.76644  0.24475  1.0000
  H   H3054     1.0  0.62707  0.96376  0.43431  1.0000
  C   C1725     1.0  0.69635  0.69427  0.24523  1.0000
  H   H3055     1.0  0.49667  0.76669  0.34769  1.0000
  N   N96       1.0  0.97803  0.48888  0.38578  1.0000
  H   H3056     1.0  0.61061  0.82158  0.24871  1.0000
  H   H3057     1.0  0.78658  0.98185  0.26845  1.0000
  H   H3058     1.0  0.50259  0.74515  0.23990  1.0000
  C   C1726     1.0  0.75551  0.75147  0.24151  1.0000
  H   H3059     1.0  0.96402  0.79799  0.25353  1.0000
  H   H3060     1.0  0.93172  0.78544  0.24430  1.0000
  S   S383      1.0  0.94335  0.73629  0.24254  1.0000
  H   H3061     1.0  0.68585  0.95049  0.23902  1.0000
  H   H3062     1.0  0.73642  0.97886  0.35418  1.0000
  H   H3063     1.0  0.54836  0.64466  0.24439  1.0000
  H   H3064     1.0  0.55430  0.69887  0.24202  1.0000
  S   S384      1.0  0.77725  0.92192  0.23905  1.0000
  H   H3065     1.0  0.90831  0.62215  0.24421  1.0000
  H   H3066     1.0  0.87068  0.78764  0.24467  1.0000
  C   C1727     1.0  0.70726  0.56490  0.23885  1.0000
  H   H3067     1.0  0.51106  0.83244  0.24044  1.0000
  C   C1728     1.0  0.54462  0.82767  0.24239  1.0000
  H   H3068     1.0  0.99365  0.69364  0.23928  1.0000
  H   H3069     1.0  0.66670  0.89992  0.23838  1.0000
  H   H3070     1.0  0.49473  0.79972  0.40306  1.0000
  H   H3071     1.0  0.55886  0.81533  0.24084  1.0000
  H   H3072     1.0  0.57241  0.96769  0.48923  1.0000
