data_image0
_chemical_formula_structural       HSFeS2FeS2FeSFeS3HC3H2CH2C7H4C7H3C6H3NC12H18CH10CH2CHSHCH4CH2NCH9C2H2CHSNH6NCH2C2H4C4H7C2H2CHCHSH3C2HCHC2SHCH2Fe2H2CH4C2H4CHCH5CH3C2H4CH4CH3CHC2H5CH5CH3CH5CHC3H5C3H2C2H7SCH2CSH3CH3CFeHSFeS2CFeCS2FeS2FeSFeSFeS3FeSHFeS2FeSFeHSHFe2S2FeHFeS3FeS2FeS2FeSFeS3H5C6H4CHC6H4CHC6H4C4SH6CHC6H4C3H4C3H2CHC4HCH5SHNC7H15C2HCH3C2H10NC2HCH9CH3CNC4HC4NH2SH3CH3CHCSHCH2C2H3CH5CH2CH2CH3CNC8H3CH10SHC2HC2H7CH4CH2CH2NH3CHCH3NSHC4H4CH4NCH4CH3SCH3C3HCH2CHCHNHCHCH2C3HC2H5SH3CHCNCHCH3CHCH3CH2C4H6CHCH6C2HCH3C3H3CHC2HSHCH5C2HCHCH3CHCH10SH2CH3CH4C2H4CH4CH2C2HCH2CH3CH2CHCH3CHCNFeC2H2C2H2C2H2CH2C3H4CH4CNHCH6CHCH3CH2Fe2S4FeS2FeS2FeSFeS4H2FeC6H4C6H4C2H2CH4CH6C6H6SCSH2C3H11C2H7C2HC3HC2HCH11CSH2CH4NC4HC4HC2H8C3H9CH2CHCH2NC8HC3H16CH15CHCH4CHCHFeH3SHCHCH7C2NCH2SHFeH2CH2CH6C2H3C3HCHC2HCHCH3SCH11C4NH8FeC2HCH2FeHCHNCHSNC2H4CH7C4HCH2C3H2C2HC3H5C2HCSHCSFeS2FeS2FeSHCS2C2HCHCHC6H4C6H4C2HC3HC3H2SNCH3CH6CH2CH2C5HCHCH4C2H2CH6CHCH3NC2H8FeCHCH2CHC4HCH3FeHCH3CH7CH3CH9SHCHCH5CNCHCH4C3HFeS2FeS2FeSFeS3FeS2FeS2FeSFeS3HNCHC4FeH2FeSH2S2CFeS2FeSHFeSFeS3FeS2FeS2FeCFeS3CH3C6H4C5H3C7H3CH4CHCH5C7H4C6H4C3SH6C6H4CHC2H3SH2C2H3CH4C6H5CH6NC9HC2H21CH2CH3CH3C2H7CH3C3H3CHC2H3CH2CH3CHC3H2C2HC3HC2H3CH2CH2CHCHNC11H25CH2NC2H4C2H2CHCH4FeH2CHCH3C2H7CHNC10HCH21CH4CHNCHC3H8CH3CH3CH2C2H2SC5H8CNHCHCHCS2CHNH8C2H2C3H10CNHCH9CHC2H8CH3SH2CHCH6C4H3NCH7C2H5CH2CFeSHFeH2FeS2FeSHCSHSHNHC6H4CHC2HCSHC8H4C3H8C2HCH3CH3FeHC3H4C2H3C2H9C4H3CH2CH4SHSHC4HNH3CFeSHC2HSC3HCH2SNCHC2SHCH6SHC2HFeH6CH3CHNH6C2SFeH3SCHCH2C2HC2H11CFeSFeS2FeSFeS3FeS2FeS2FeSFeS3FeS3FeHFeS2HFeHS2H2CHCSH2CH6C7H3CFeH3C6H4C2H2C2HCH2C6H4C3H2CHCH2C6H4CHNH4C2NC5FeC4HC2H9CH12CH6C2H5CHC3SHC2H2CH3CH5C2HSH6NHSH3C2H3CH3CH3CHCH8C4H2CH2CHNHC4HC4H3NH5C2H5CH7SC5H4NH16C3HC2H7SH7CHCH4CH2CHC2HC2H2C2H3NC3H2SH2C2HC2H2CHCH2C2H5C2HCHCH6CH3CH3CH2NH2CFeHCFeS2FeSCSHFeS2FeS2CFeSHSCHC2H6C4HNH2C3H4SHC4HCHCHCHCH4CH2CHCH2NH4C2HCH4CHFeH5C3H2CH2CH3FeHCHS2CH2CHC2H3CH2C2H3CH6NHSHC3HC3H5CHCHCH3C3H11CHC2H4C5HCH2CFeS2FeSHFeSFeS3FeSHFeS2FeSFeS3FeS2FeS2FeSFeS3FeCSH2CHC2SHC5H3SC7H4C6H4C6H4C3HC2H2CH5CH6NC12H28CHCHC2HCH3C5H7CH3C2HCHCH3CH2CHCH3CNC12H17CH14CHCHNH2CNH2CHCH2CH6C3H3CH2SH8CHCH5C2H7NHC2H3CH3CHCHCH11CH5CHCHC3H2C3HCHFeS2FeS2FeSFeS3FeS2FeSHFeSFeS3CFeSCFeSFeSFeS3H2FeS2FeH2SHFeCH4C7H4C6H5CH5CH4SC2NHC6H4C3HCH2CHC6H4NC10H16CH4CH2CH6NSH3CH2CH6C2H2CH7CH2CH4CH3CH2NHCH3CH2C2SCHSCH2CH2CHC2H3CH4CH4C5H6CH7CHCHC2H4C2H2CNHCHNHC4H6CH6CH4CHSCH2C2HC2H5CFeCH9CH4CHCH2CHCH5CHCHC3H3C2HSH2NHCHSH4C3H6CHC2H2CH6C2SH3CSFeS2FeS2FeSFeS3FeSCFeS2FeS2C4HCHCHC6H5CHC6H4CHC4HCHC2H2C2HNH4CFeHCH6C2HCHCH5SH2C2H7C3H5CH2CHC2H2NHC2HCH4CH9CH6C2HCH2NC12H19CH9C2H7C3H5C2HCH2CHCH2CHNC2H4CNHCHCSC3H4CH3CSH3CHC2H3C3HCH3CHNH6CH2CHSH3CH5CH10C2H3CHCHCH5CHCH3CH2FeS2FeS2FeSFeS3FeS2FeS2FeHFeS3FeSHFeS2FeSCS2FeHSFeHC3HS2C2HNHC2HCH2CHNCHC6H4C6H5CHC6H4C2H3CH2CHC3H2CH8CH4CHSC2HCHCH3CH2CHCH5CH2NH2CHCH4C2HCH4CH4NH2CH2CHCH4C3HCHC2NHCHC2H6CHCNCFeHCH2C3H5C2H6CHSHFeCH5NC12H25C2H2CHC2H2CH5CH2SH10CH7CH5CH3CHFeH3CH9CH3CH3C2SCH2SH2CHC2HC3H2C2H2CSHCH3CH2C2HC2H7CHCHCHCHCHCHCH3SHFeS2FeS2FeSFeS3FeS2FeS2FeSFeS3CFeS2FeCFeCSNHCH2CHCH2CH2C3HC2HCH2C2H3CH4C6H4C3H2C6H4C2FeCH4CHC6H4CH3CSHCH2CH4NC3HC4HC2H7CHNH4CHC2H2CH3NC3HC2HC3H5CH3C3H8CH4NC4HC3H2CH3C2H4CH5CH11SH2CH4C2HCH2CH5SH8C2H3CH3C2H3NC12H32CH4CSH6CH4CH2CSHNC2H4SFeNC12H21CH3CSH3CHCHC2H5C3H3CNH2C3H5FeCH8FeCSFeHSFeSH2S2FeS2FeSHFeCH2S2H2CNHC6H5CH4CHCH7C2FeH3CH4C3HC2H3SCSHCHSCH3CH6CHC2HC2H2CHC2NH3SH3C2HFeHCFeSCFeS2FeSFeS4HFeS2FeSHFeSFeS3FeS2FeS2FeHFeS3HC6H3C6H4CHCH2C2H7C7H5C7H4C3H2CH2SC2H2SHCH4CFeCH2NH4CH3CH3CH3CH3CH2CH2C2HCHCHSCHC2HCHCH3C2HCH2NHC4HC3HSCH8CH8CH2CH3CH4CH2CH2C4H4CH2CH2CFeNH5NC5HC6H22C3H3CH4C3H6CH4CH4CHNH4C2H2NHC2H2CHCH6C2H2CH7S2HFeS2FeS2FeSFeS3CFeS2FeS2FeSFeS3CH3FeS2FeSFeSFeS3CH2C3H4C7H4CH2C6H4CHC4H4C2HC6H4CNC3H4C3H2C6H6CHC2H2C2H5C2H2CH2SCNH2CNC9HC2H29C5HC3H2C2H3C2NH2CH13CH2NC6HC2HCH12CH7CH3CHCH2C3HCH4CH3C2H2C2H2CHCHCH4C2H3C2H11SH4CH3CH3C2HCHCH9C2H4C2H6C2HC3HC2NCH3C2H3CHC2NHC2NH10CH6CH3C2HCH2FeH2C2H3CH3CHCSHCH2CHC3H7CH4CHCH4CH6NH2FeS2FeSFeSFeS3FeS2FeS2FeHFeS3CNHC6H4C3H7C6H5C2H3CHC2H2CH2CH7CH3CH2CH5CH2CH4CH4CH6CHCH3CHC2HCHSH4C2HCHC2HSHC2HCH3CHC3HCH5SH2CH5CH2C2HCH2SHC2HCHCH2CH2CH3CH4CH4CHCHCH2NCH8C3HCHNHCH11CH3CFeS2FeS2FeSFeS3HSHFeS2FeS2FeSFeCS2FeS2FeSFeSFeS3HC3H2C2HC3H3C6H4C6H4C6H4C2H2C2HCH3CHC5H2C2H4CH6SHC3HCH2C2NHC4NC4H3CH20CHCH8CH2C3HCHSH4CH3C2H4C2H2C4H3CNCH3CHCH6CH3C2H4C2H2CHCHCH3CH3CH2C3H2C2H2CH8C2H2CH3CH3C2H6CH2NCH2CH6C2H3CH2CHCHCH2CHCH6C2H3NH2C2H2CHC2H3CHCH3CH3NH2CHCH7CH5CH2C2H6CH2NH2C2H6CSCSHCSFeSCH2FeS2FeS2FeSFeS3C6H4C6H5C6H4SH4C7HCHNC7H2C3H14C2H12NC2HC3HCHC2H4C3H12CH8NCH6C2HCH3CH3NHCHCHCHC2H3CH3CHC3HC2H3SH2FeHSC2H4CH2CH4CH14CHC2H5CH2CH2C2H12CHCH3CHC2SHCH3CHC2HSNH4FeHSFeCSCHS3FeSHFeS2FeSFeS3FeS2FeS2FeHFeS3FeSHFeS2FeCFeS2FeS2FeS2FeSFeS3HCH4FeHC9H4C6H4C6H4C6H4C3H2C3H2CH2C6H4CH2C2H3C3H2CH2CHCH2SH6CHC2H3CH4SHCH4C3H3NH5CHCH2NC12H29CHCH2NC2HC2H2C2H4CH6S2CH6C2H4C3HCHCHC2H2CH3CH2CH2CFeH3CHCH2CHC2H3CH5CSH3CNCHCH5CHCH12C2HC4HC2H5C2HCH5CH4C3H2CNC3H3CH7CH2NHSHCH6CH6NH2SCFeSFeHFeSHFeS2Fe2CHCS2FeS2FeS2FeSFeS3CHC6H4CH3C6H4SHCH2C7H11NC12H28NHC4HCH2CH3C2H10CHC2SH4CHCH3CH5CH3C2H3CH3CHCH4CHC2H4CHNH2CHCNHCHSCH5CHCH2CH5CHSCH6CH3CH2CHC4H8C3HC2H2FeHCH5CH6CHCHC2SNHNC2HC2H2CHCH4NCH4CSCHSCHCH2CHCHC2HCH2CHCH2C3H5CH2C2FeS2FeS2FeS2FeS2H2FeS3H7C6H7C6H5C3HCH2CH2CHCNH7CH3C2H3C4SH2CH2CHFeHCH2NHCH2CNH4CHC2HC2HC2H6C3H6SHC2H4C2HC2H4FeCH2FeH7CHSHS2H3CFeHC2FeS2FeS2FeSFeS3FeSHFeS2FeSFeS3CH2CSHFeHFeSFeS2FeS2FeSFeS3FeS2FeS2FeSFeS3C2H2C2HC2HC6H5C3H2C3H3C2HC2H4SCH3C2HSC2HC7H4C6H4C6H4CH4C2H3C6H4C2H3NC12H28NC12H21CH6CH12CH3C2H4CH3C2H3C3H2NC2HCH2CH2C3NH4CH3CH3C2H6CH2CH4CH2C2NCH4C4H4C2H2NCH2C3H4CSCHSCH3CH5NHC2H3CSCHC2HCH8CH2C2H4C2HC2H3CHCH8CHCH7CH9C2HCHNCH2CH2CH5C2H2CHCHC3HCH3CH3CH3NH6C2H2CSHCH2C2H5SFeSCFeS2H2CFeSHSFeH2FeSCFeSFeS2HC6H4C6HSH3FeC2FeH8SC2FeHNCH6SH2CH3CHSH2FeH4NC11H21CSCH2CH2C3H4CHCH9SH8
_chemical_formula_sum              "H4608 S576 Fe288 C2592 N144"
_cell_length_a       71.4871
_cell_length_b       70.5875
_cell_length_c       71.0055
_cell_angle_alpha    81.4543
_cell_angle_beta     81.3038
_cell_angle_gamma    81.6354

_space_group_name_H-M_alt    "P 1"
_space_group_IT_number       1

loop_
  _space_group_symop_operation_xyz
  'x, y, z'

loop_
  _atom_site_type_symbol
  _atom_site_label
  _atom_site_symmetry_multiplicity
  _atom_site_fract_x
  _atom_site_fract_y
  _atom_site_fract_z
  _atom_site_occupancy
  H   H1        1.0  0.20022  0.40980  0.20286  1.0000
  S   S1        1.0  0.21213  0.37201  0.14757  1.0000
  Fe  Fe1       1.0  0.10407  0.39536  0.18446  1.0000
  S   S2        1.0  0.10742  0.39974  0.21437  1.0000
  S   S3        1.0  0.12479  0.40747  0.15951  1.0000
  Fe  Fe2       1.0  0.06701  0.37703  0.19817  1.0000
  S   S4        1.0  0.06818  0.37928  0.22912  1.0000
  S   S5        1.0  0.04184  0.36391  0.19191  1.0000
  Fe  Fe3       1.0  0.07588  0.40884  0.21792  1.0000
  S   S6        1.0  0.06146  0.43485  0.23135  1.0000
  Fe  Fe4       1.0  0.09942  0.36985  0.22276  1.0000
  S   S7        1.0  0.11608  0.34779  0.24208  1.0000
  S   S8        1.0  0.07288  0.40734  0.18729  1.0000
  S   S9        1.0  0.09799  0.36462  0.19251  1.0000
  H   H2        1.0  0.19256  0.41035  0.13610  1.0000
  C   C1        1.0  0.01916  0.37779  0.19434  1.0000
  C   C2        1.0  0.01724  0.39794  0.19028  1.0000
  C   C3        1.0  0.03960  0.36194  0.28407  1.0000
  H   H3        1.0  0.03899  0.42822  0.29021  1.0000
  H   H4        1.0  0.17484  0.41950  0.17903  1.0000
  C   C4        1.0  0.17708  0.45519  0.24573  1.0000
  H   H5        1.0  0.06802  0.44481  0.28199  1.0000
  H   H6        1.0  0.22702  0.41933  0.17849  1.0000
  C   C5        1.0  0.24061  0.40336  0.04545  1.0000
  C   C6        1.0  0.12195  0.35425  0.26325  1.0000
  C   C7        1.0  0.10952  0.36669  0.27456  1.0000
  C   C8        1.0  0.11431  0.37007  0.29226  1.0000
  C   C9        1.0  0.13179  0.36149  0.29821  1.0000
  C   C10       1.0  0.14436  0.34970  0.28649  1.0000
  C   C11       1.0  0.13931  0.34579  0.26933  1.0000
  H   H7        1.0  0.09610  0.37323  0.26986  1.0000
  H   H8        1.0  0.10460  0.37924  0.30128  1.0000
  H   H9        1.0  0.15800  0.34331  0.29080  1.0000
  H   H10       1.0  0.14896  0.33624  0.26064  1.0000
  C   C12       1.0  0.10815  0.47122  0.23476  1.0000
  C   C13       1.0  0.09172  0.47955  0.22670  1.0000
  C   C14       1.0  0.07703  0.46852  0.22644  1.0000
  C   C15       1.0  0.07913  0.44887  0.23338  1.0000
  C   C16       1.0  0.09566  0.44039  0.24122  1.0000
  C   C17       1.0  0.10994  0.45168  0.24240  1.0000
  C   C18       1.0  0.07534  0.43123  0.28906  1.0000
  H   H11       1.0  0.06438  0.47514  0.22024  1.0000
  H   H12       1.0  0.09733  0.42517  0.24664  1.0000
  H   H13       1.0  0.12243  0.44518  0.24897  1.0000
  C   C19       1.0  0.18803  0.38238  0.15139  1.0000
  C   C20       1.0  0.17435  0.37107  0.16179  1.0000
  C   C21       1.0  0.15496  0.37867  0.16462  1.0000
  C   C22       1.0  0.14906  0.39760  0.15687  1.0000
  C   C23       1.0  0.16272  0.40891  0.14643  1.0000
  C   C24       1.0  0.18216  0.40144  0.14396  1.0000
  H   H14       1.0  0.17877  0.35633  0.16768  1.0000
  H   H15       1.0  0.14455  0.36980  0.17266  1.0000
  H   H16       1.0  0.15823  0.42356  0.14038  1.0000
  N   N1        1.0  0.18182  0.38028  0.08999  1.0000
  C   C25       1.0  0.16655  0.37261  0.10513  1.0000
  C   C26       1.0  0.20104  0.37032  0.09470  1.0000
  C   C27       1.0  0.18126  0.40153  0.09136  1.0000
  C   C28       1.0  0.17915  0.37807  0.06973  1.0000
  C   C29       1.0  0.16963  0.36042  0.06700  1.0000
  C   C30       1.0  0.14634  0.38414  0.10520  1.0000
  C   C31       1.0  0.19749  0.41183  0.07887  1.0000
  C   C32       1.0  0.20456  0.34812  0.09502  1.0000
  C   C33       1.0  0.22371  0.33976  0.10180  1.0000
  C   C34       1.0  0.17187  0.35768  0.04577  1.0000
  C   C35       1.0  0.13128  0.37293  0.11786  1.0000
  C   C36       1.0  0.19360  0.43369  0.07908  1.0000
  H   H17       1.0  0.17060  0.37237  0.11975  1.0000
  H   H18       1.0  0.16529  0.35734  0.10415  1.0000
  H   H19       1.0  0.21266  0.37582  0.08407  1.0000
  H   H20       1.0  0.20358  0.37373  0.10887  1.0000
  H   H21       1.0  0.18151  0.40379  0.10645  1.0000
  H   H22       1.0  0.16766  0.40968  0.08717  1.0000
  H   H23       1.0  0.17020  0.39095  0.06324  1.0000
  H   H24       1.0  0.19314  0.37776  0.06029  1.0000
  H   H25       1.0  0.15414  0.36264  0.07223  1.0000
  H   H26       1.0  0.17567  0.34679  0.07493  1.0000
  H   H27       1.0  0.14591  0.39790  0.11121  1.0000
  H   H28       1.0  0.14234  0.38763  0.09046  1.0000
  H   H29       1.0  0.19916  0.40892  0.06373  1.0000
  H   H30       1.0  0.21118  0.40686  0.08467  1.0000
  H   H31       1.0  0.19342  0.34088  0.10486  1.0000
  H   H32       1.0  0.20517  0.34437  0.08030  1.0000
  H   H33       1.0  0.17153  0.28056  0.33488  1.0000
  H   H34       1.0  0.06711  0.34378  0.28132  1.0000
  C   C37       1.0  0.17196  0.49001  0.12420  1.0000
  H   H35       1.0  0.18721  0.35461  0.04002  1.0000
  H   H36       1.0  0.16456  0.34530  0.04409  1.0000
  H   H37       1.0  0.16546  0.37083  0.03719  1.0000
  H   H38       1.0  0.11714  0.38191  0.11832  1.0000
  H   H39       1.0  0.13028  0.35938  0.11209  1.0000
  H   H40       1.0  0.13482  0.36938  0.13281  1.0000
  H   H41       1.0  0.18266  0.30946  0.29938  1.0000
  H   H42       1.0  0.20563  0.44063  0.07040  1.0000
  H   H43       1.0  0.10738  0.45445  0.19556  1.0000
  H   H44       1.0  0.02739  0.39260  0.23059  1.0000
  C   C38       1.0  0.14293  0.43328  0.19891  1.0000
  H   H45       1.0  0.16464  0.50495  0.12115  1.0000
  H   H46       1.0  0.22739  0.47873  0.15836  1.0000
  C   C39       1.0  0.01626  0.46781  0.18735  1.0000
  H   H47       1.0  0.22746  0.48723  0.19012  1.0000
  S   S10       1.0  0.24497  0.41995  0.06000  1.0000
  H   H48       1.0  0.16269  0.46155  0.25182  1.0000
  C   C40       1.0  0.03660  0.46054  0.19267  1.0000
  H   H49       1.0  0.17449  0.36944  0.22769  1.0000
  H   H50       1.0  0.17990  0.50309  0.25117  1.0000
  H   H51       1.0  0.24358  0.37844  0.06672  1.0000
  H   H52       1.0  0.01188  0.45553  0.18169  1.0000
  C   C41       1.0  0.05114  0.45834  0.17477  1.0000
  H   H53       1.0  0.13125  0.43101  0.21101  1.0000
  H   H54       1.0  0.10848  0.48734  0.29634  1.0000
  N   N2        1.0  0.03574  0.39888  0.28671  1.0000
  C   C42       1.0  0.04436  0.48500  0.32666  1.0000
  H   H55       1.0  0.00209  0.39987  0.23343  1.0000
  H   H56       1.0  0.17680  0.44374  0.18089  1.0000
  H   H57       1.0  0.14425  0.29898  0.31801  1.0000
  H   H58       1.0  0.17564  0.40508  0.22505  1.0000
  H   H59       1.0  0.04555  0.40075  0.25630  1.0000
  H   H60       1.0  0.07346  0.43152  0.30485  1.0000
  H   H61       1.0  0.01825  0.41761  0.23206  1.0000
  H   H62       1.0  0.05319  0.34055  0.30487  1.0000
  H   H63       1.0  0.03667  0.44613  0.20144  1.0000
  C   C43       1.0  0.21212  0.42226  0.17507  1.0000
  C   C44       1.0  0.21660  0.47865  0.10144  1.0000
  H   H64       1.0  0.07272  0.46926  0.32006  1.0000
  H   H65       1.0  0.11005  0.48964  0.32044  1.0000
  C   C45       1.0  0.17169  0.29559  0.32765  1.0000
  H   H66       1.0  0.17430  0.38995  0.19603  1.0000
  S   S11       1.0  0.13851  0.36435  0.32037  1.0000
  N   N3        1.0  0.20478  0.49958  0.12926  1.0000
  H   H67       1.0  0.16830  0.42737  0.24681  1.0000
  H   H68       1.0  0.05189  0.37602  0.30350  1.0000
  H   H69       1.0  0.00925  0.46343  0.32807  1.0000
  H   H70       1.0  0.06963  0.49394  0.30872  1.0000
  H   H71       1.0  0.14826  0.45656  0.17509  1.0000
  H   H72       1.0  0.04724  0.44781  0.16631  1.0000
  N   N4        1.0  0.16207  0.42867  0.20631  1.0000
  C   C46       1.0  0.04634  0.41329  0.29325  1.0000
  H   H73       1.0  0.14161  0.42338  0.18853  1.0000
  H   H74       1.0  0.14583  0.47780  0.12390  1.0000
  C   C47       1.0  0.00894  0.49103  0.21070  1.0000
  C   C48       1.0  0.17741  0.42909  0.18921  1.0000
  H   H75       1.0  0.17818  0.48490  0.11035  1.0000
  H   H76       1.0  0.19224  0.43721  0.09401  1.0000
  H   H77       1.0  0.23196  0.46289  0.07852  1.0000
  H   H78       1.0  0.24515  0.47987  0.08584  1.0000
  C   C49       1.0  0.23506  0.46907  0.09105  1.0000
  C   C50       1.0  0.11116  0.31726  0.32570  1.0000
  C   C51       1.0  0.23615  0.37100  0.04076  1.0000
  C   C52       1.0  0.04792  0.37948  0.28870  1.0000
  H   H79       1.0  0.02982  0.40523  0.18619  1.0000
  H   H80       1.0  0.13890  0.46522  0.19766  1.0000
  H   H81       1.0  0.20947  0.41016  0.16785  1.0000
  H   H82       1.0  0.01687  0.37118  0.15583  1.0000
  H   H83       1.0  0.23585  0.50664  0.17291  1.0000
  H   H84       1.0  0.11696  0.44702  0.17238  1.0000
  H   H85       1.0  0.15045  0.40906  0.23005  1.0000
  C   C53       1.0  0.11812  0.45702  0.18272  1.0000
  C   C54       1.0  0.13380  0.47185  0.30634  1.0000
  H   H86       1.0  0.14024  0.46965  0.29148  1.0000
  H   H87       1.0  0.01146  0.42580  0.31148  1.0000
  C   C55       1.0  0.06747  0.41372  0.28434  1.0000
  H   H88       1.0  0.15231  0.32107  0.31976  1.0000
  C   C56       1.0  0.15665  0.47733  0.13372  1.0000
  H   H89       1.0  0.02525  0.36042  0.29214  1.0000
  S   S12       1.0  0.12666  0.48506  0.23463  1.0000
  H   H90       1.0  0.00830  0.38814  0.29583  1.0000
  H   H91       1.0  0.19161  0.47450  0.14342  1.0000
  H   H92       1.0  0.16030  0.36087  0.21254  1.0000
  C   C57       1.0  0.11858  0.48981  0.30592  1.0000
  C   C58       1.0  0.01727  0.39793  0.30007  1.0000
  H   H93       1.0  0.11362  0.45123  0.30686  1.0000
  C   C59       1.0  0.22032  0.48571  0.12000  1.0000
  H   H94       1.0  0.18036  0.30326  0.33501  1.0000
  C   C60       1.0  0.18184  0.29467  0.30718  1.0000
  C   C61       1.0  0.01510  0.39865  0.25935  1.0000
  S   S13       1.0  0.23032  0.41869  0.11609  1.0000
  H   H95       1.0  0.14929  0.48269  0.14721  1.0000
  C   C62       1.0  0.17545  0.43784  0.23580  1.0000
  H   H96       1.0  0.01799  0.48533  0.22229  1.0000
  H   H97       1.0  0.06907  0.41411  0.26854  1.0000
  Fe  Fe5       1.0  0.24963  0.40844  0.09059  1.0000
  Fe  Fe6       1.0  0.23553  0.38814  0.13002  1.0000
  H   H98       1.0  0.21083  0.49055  0.09108  1.0000
  H   H99       1.0  0.01341  0.45368  0.22546  1.0000
  C   C63       1.0  0.24045  0.38378  0.05240  1.0000
  H   H100      1.0  0.04143  0.45539  0.33819  1.0000
  H   H101      1.0  0.22326  0.47238  0.13014  1.0000
  H   H102      1.0  0.02024  0.39136  0.31462  1.0000
  H   H103      1.0  0.14916  0.44927  0.22577  1.0000
  C   C64       1.0  0.13823  0.45402  0.18844  1.0000
  C   C65       1.0  0.21237  0.50615  0.14566  1.0000
  H   H104      1.0  0.11973  0.32409  0.31278  1.0000
  H   H105      1.0  0.03903  0.36322  0.26840  1.0000
  H   H106      1.0  0.07640  0.40069  0.29039  1.0000
  H   H107      1.0  0.17941  0.49691  0.15002  1.0000
  C   C66       1.0  0.16130  0.37287  0.22070  1.0000
  H   H108      1.0  0.16138  0.49001  0.28122  1.0000
  C   C67       1.0  0.16354  0.44390  0.21880  1.0000
  H   H109      1.0  0.18034  0.43970  0.07278  1.0000
  H   H110      1.0  0.04160  0.47049  0.20093  1.0000
  H   H111      1.0  0.19002  0.43104  0.23113  1.0000
  H   H112      1.0  0.23581  0.35589  0.04628  1.0000
  H   H113      1.0  0.16894  0.45683  0.20985  1.0000
  C   C68       1.0  0.19822  0.42382  0.19358  1.0000
  H   H114      1.0  0.21075  0.43591  0.16504  1.0000
  H   H115      1.0  0.09083  0.43042  0.28371  1.0000
  H   H116      1.0  0.16303  0.46208  0.13697  1.0000
  C   C69       1.0  0.22327  0.49897  0.17873  1.0000
  C   C70       1.0  0.00542  0.47554  0.33696  1.0000
  H   H117      1.0  0.11838  0.45485  0.33034  1.0000
  H   H118      1.0  0.23562  0.34544  0.09164  1.0000
  H   H119      1.0  0.03072  0.42138  0.26292  1.0000
  H   H120      1.0  0.07194  0.48908  0.33386  1.0000
  C   C71       1.0  0.18729  0.48981  0.13758  1.0000
  H   H121      1.0  0.05204  0.47250  0.16566  1.0000
  H   H122      1.0  0.14869  0.37386  0.23193  1.0000
  H   H123      1.0  0.19659  0.28721  0.30763  1.0000
  H   H124      1.0  0.06545  0.45296  0.17917  1.0000
  C   C72       1.0  0.16251  0.40894  0.21806  1.0000
  H   H125      1.0  0.03830  0.49984  0.32953  1.0000
  H   H126      1.0  0.22562  0.32379  0.10242  1.0000
  H   H127      1.0  0.02507  0.35348  0.13966  1.0000
  C   C73       1.0  0.23267  0.37765  0.02187  1.0000
  H   H128      1.0  0.13591  0.44090  0.31529  1.0000
  C   C74       1.0  0.16163  0.39176  0.20706  1.0000
  C   C75       1.0  0.01489  0.36664  0.14201  1.0000
  H   H129      1.0  0.20227  0.43534  0.20064  1.0000
  H   H130      1.0  0.11480  0.47208  0.17584  1.0000
  H   H131      1.0  0.14859  0.39375  0.20000  1.0000
  H   H132      1.0  0.09029  0.49444  0.22041  1.0000
  H   H133      1.0  0.20652  0.46769  0.10517  1.0000
  C   C76       1.0  0.12480  0.45365  0.31523  1.0000
  H   H134      1.0  0.23674  0.42516  0.02127  1.0000
  H   H135      1.0  0.17418  0.28654  0.29917  1.0000
  H   H136      1.0  0.18577  0.45050  0.25770  1.0000
  H   H137      1.0  0.03898  0.48224  0.31355  1.0000
  H   H138      1.0  0.06156  0.37994  0.27887  1.0000
  C   C77       1.0  0.23326  0.39714  0.01475  1.0000
  H   H139      1.0  0.23406  0.49198  0.11700  1.0000
  H   H140      1.0  0.04628  0.41051  0.30912  1.0000
  H   H141      1.0  0.22433  0.34336  0.11640  1.0000
  C   C78       1.0  0.00268  0.36848  0.19936  1.0000
  H   H142      1.0  0.13497  0.27224  0.33376  1.0000
  H   H143      1.0  0.01735  0.47963  0.17507  1.0000
  H   H144      1.0  0.11082  0.30209  0.32371  1.0000
  H   H145      1.0  0.08499  0.32546  0.31306  1.0000
  H   H146      1.0  0.01394  0.38316  0.26371  1.0000
  C   C79       1.0  0.00499  0.41771  0.30236  1.0000
  H   H147      1.0  0.00407  0.42668  0.28827  1.0000
  C   C80       1.0  0.05248  0.34318  0.28918  1.0000
  C   C81       1.0  0.03257  0.40533  0.26605  1.0000
  C   C82       1.0  0.09084  0.32766  0.32607  1.0000
  H   H148      1.0  0.00793  0.48897  0.32704  1.0000
  H   H149      1.0  0.14511  0.47316  0.31498  1.0000
  H   H150      1.0  0.04660  0.33087  0.28509  1.0000
  H   H151      1.0  0.23047  0.47626  0.01921  1.0000
  H   H152      1.0  0.18402  0.46636  0.23546  1.0000
  C   C83       1.0  0.06602  0.48416  0.32211  1.0000
  C   C84       1.0  0.01578  0.40250  0.23754  1.0000
  C   C85       1.0  0.21628  0.49042  0.16290  1.0000
  H   H153      1.0  0.09082  0.34342  0.32589  1.0000
  H   H154      1.0  0.20324  0.48384  0.16942  1.0000
  C   C86       1.0  0.15114  0.30624  0.32743  1.0000
  C   C87       1.0  0.23693  0.41001  0.02663  1.0000
  H   H155      1.0  0.01831  0.37826  0.13015  1.0000
  H   H156      1.0  0.24199  0.45725  0.10080  1.0000
  H   H157      1.0  0.01863  0.49855  0.19915  1.0000
  H   H158      1.0  0.00408  0.35290  0.20244  1.0000
  H   H159      1.0  0.15784  0.49689  0.24625  1.0000
  H   H160      1.0  0.12797  0.50213  0.27036  1.0000
  H   H161      1.0  0.15270  0.50246  0.31127  1.0000
  S   S14       1.0  0.10478  0.40988  0.33863  1.0000
  C   C88       1.0  0.15696  0.50496  0.27483  1.0000
  H   H162      1.0  0.03762  0.34807  0.33632  1.0000
  H   H163      1.0  0.05839  0.37291  0.33794  1.0000
  C   C89       1.0  0.16417  0.50684  0.25336  1.0000
  S   S15       1.0  0.22738  0.36155  0.00741  1.0000
  H   H164      1.0  0.08149  0.32193  0.33898  1.0000
  H   H165      1.0  0.15382  0.11832  0.47907  1.0000
  H   H166      1.0  0.13329  0.31181  0.38699  1.0000
  C   C90       1.0  0.21659  0.14604  0.65002  1.0000
  H   H167      1.0  0.11519  0.03564  0.48318  1.0000
  H   H168      1.0  0.00839  0.22972  0.57504  1.0000
  H   H169      1.0  0.22696  0.05481  0.42721  1.0000
  C   C91       1.0  0.05057  0.33100  0.66320  1.0000
  Fe  Fe7       1.0  0.11322  0.41102  0.36757  1.0000
  H   H170      1.0  0.23644  0.11075  0.46862  1.0000
  S   S16       1.0  0.12763  0.43588  0.37300  1.0000
  Fe  Fe8       1.0  0.10023  0.37118  0.38443  1.0000
  S   S17       1.0  0.09064  0.36716  0.35689  1.0000
  S   S18       1.0  0.09691  0.34977  0.41176  1.0000
  C   C92       1.0  0.11281  0.40539  0.62621  1.0000
  Fe  Fe9       1.0  0.07877  0.39853  0.35559  1.0000
  C   C93       1.0  0.03157  0.36145  0.34180  1.0000
  S   S19       1.0  0.12825  0.38064  0.37022  1.0000
  S   S20       1.0  0.08613  0.40188  0.38432  1.0000
  Fe  Fe10      1.0  0.16873  0.07776  0.60965  1.0000
  S   S21       1.0  0.19885  0.08415  0.60002  1.0000
  S   S22       1.0  0.14274  0.10034  0.61320  1.0000
  Fe  Fe11      1.0  0.18002  0.03359  0.61024  1.0000
  S   S23       1.0  0.21080  0.03673  0.60036  1.0000
  Fe  Fe12      1.0  0.20703  0.05837  0.62115  1.0000
  S   S24       1.0  0.22797  0.05528  0.64235  1.0000
  Fe  Fe13      1.0  0.19970  0.06191  0.58028  1.0000
  S   S25       1.0  0.21153  0.06708  0.54924  1.0000
  S   S26       1.0  0.17681  0.05369  0.63261  1.0000
  S   S27       1.0  0.16903  0.05719  0.58829  1.0000
  Fe  Fe14      1.0  0.16602  0.03694  0.47400  1.0000
  S   S28       1.0  0.14620  0.05260  0.45363  1.0000
  H   H171      1.0  0.05583  0.36708  0.41492  1.0000
  Fe  Fe15      1.0  0.19885  0.03015  0.44243  1.0000
  S   S29       1.0  0.18222  0.04600  0.41922  1.0000
  S   S30       1.0  0.22827  0.01383  0.43952  1.0000
  Fe  Fe16      1.0  0.17118  0.06785  0.43988  1.0000
  S   S31       1.0  0.17028  0.10056  0.43353  1.0000
  Fe  Fe17      1.0  0.15871  0.02941  0.43505  1.0000
  H   H172      1.0  0.24443  0.04160  0.47435  1.0000
  S   S32       1.0  0.19051  0.05329  0.46138  1.0000
  H   H173      1.0  0.11872  0.50461  0.38149  1.0000
  Fe  Fe18      1.0  0.11126  0.24536  0.64260  1.0000
  Fe  Fe19      1.0  0.09462  0.24078  0.60663  1.0000
  S   S33       1.0  0.09607  0.20858  0.61320  1.0000
  S   S34       1.0  0.08044  0.25493  0.58092  1.0000
  Fe  Fe20      1.0  0.08509  0.21467  0.64320  1.0000
  H   H174      1.0  0.08304  0.13557  0.48585  1.0000
  Fe  Fe21      1.0  0.12497  0.20985  0.62124  1.0000
  S   S35       1.0  0.15108  0.18857  0.61348  1.0000
  S   S36       1.0  0.08120  0.24686  0.63621  1.0000
  S   S37       1.0  0.12463  0.24192  0.61220  1.0000
  Fe  Fe22      1.0  0.09492  0.23788  0.44080  1.0000
  S   S38       1.0  0.07413  0.21644  0.44213  1.0000
  S   S39       1.0  0.09727  0.25915  0.41329  1.0000
  Fe  Fe23      1.0  0.10443  0.22230  0.48089  1.0000
  S   S40       1.0  0.08419  0.20027  0.48536  1.0000
  S   S41       1.0  0.12163  0.22145  0.50521  1.0000
  Fe  Fe24      1.0  0.09595  0.19416  0.45547  1.0000
  S   S42       1.0  0.09763  0.16210  0.45258  1.0000
  Fe  Fe25      1.0  0.06423  0.22387  0.47182  1.0000
  S   S43       1.0  0.03343  0.22929  0.48447  1.0000
  S   S44       1.0  0.11783  0.21487  0.45158  1.0000
  S   S45       1.0  0.08342  0.24675  0.46986  1.0000
  H   H175      1.0  0.04859  0.35927  0.38293  1.0000
  H   H176      1.0  0.14243  0.15036  0.66225  1.0000
  H   H177      1.0  0.11978  0.17954  0.50895  1.0000
  H   H178      1.0  0.04131  0.19844  0.46063  1.0000
  H   H179      1.0  0.06549  0.08401  0.42663  1.0000
  C   C94       1.0  0.09158  0.24531  0.55997  1.0000
  C   C95       1.0  0.08268  0.24895  0.54328  1.0000
  C   C96       1.0  0.09150  0.24126  0.52649  1.0000
  C   C97       1.0  0.10960  0.23050  0.52619  1.0000
  C   C98       1.0  0.11851  0.22702  0.54285  1.0000
  C   C99       1.0  0.10941  0.23412  0.55979  1.0000
  H   H180      1.0  0.06908  0.25793  0.54329  1.0000
  H   H181      1.0  0.08460  0.24415  0.51364  1.0000
  H   H182      1.0  0.13261  0.21904  0.54262  1.0000
  H   H183      1.0  0.11646  0.23138  0.57255  1.0000
  C   C100      1.0  0.04535  0.19443  0.64818  1.0000
  H   H184      1.0  0.06684  0.18121  0.62785  1.0000
  C   C101      1.0  0.14994  0.11745  0.43903  1.0000
  C   C102      1.0  0.13181  0.11174  0.44502  1.0000
  C   C103      1.0  0.11603  0.12560  0.44928  1.0000
  C   C104      1.0  0.11815  0.14531  0.44753  1.0000
  C   C105      1.0  0.13626  0.15104  0.44160  1.0000
  C   C106      1.0  0.15206  0.13716  0.43737  1.0000
  H   H185      1.0  0.12995  0.09667  0.44612  1.0000
  H   H186      1.0  0.10209  0.12105  0.45382  1.0000
  H   H187      1.0  0.13808  0.16617  0.44003  1.0000
  H   H188      1.0  0.16601  0.14174  0.43265  1.0000
  C   C107      1.0  0.02957  0.34602  0.44045  1.0000
  H   H189      1.0  0.15949  0.16810  0.57052  1.0000
  C   C108      1.0  0.14544  0.12487  0.61260  1.0000
  C   C109      1.0  0.12923  0.13870  0.61268  1.0000
  C   C110      1.0  0.13071  0.15823  0.61329  1.0000
  C   C111      1.0  0.14855  0.16416  0.61315  1.0000
  C   C112      1.0  0.16485  0.15044  0.61240  1.0000
  C   C113      1.0  0.16330  0.13083  0.61228  1.0000
  H   H190      1.0  0.11547  0.13424  0.61251  1.0000
  H   H191      1.0  0.11809  0.16874  0.61368  1.0000
  H   H192      1.0  0.17865  0.15506  0.61208  1.0000
  H   H193      1.0  0.17587  0.12031  0.61187  1.0000
  C   C114      1.0  0.19752  0.05618  0.53688  1.0000
  C   C115      1.0  0.19357  0.06469  0.51865  1.0000
  C   C116      1.0  0.18131  0.05680  0.50925  1.0000
  C   C117      1.0  0.00239  0.19196  0.55636  1.0000
  S   S46       1.0  0.14068  0.01501  0.41945  1.0000
  H   H194      1.0  0.13997  0.36824  0.56696  1.0000
  H   H195      1.0  0.19927  0.07784  0.51211  1.0000
  H   H196      1.0  0.04364  0.31605  0.39021  1.0000
  H   H197      1.0  0.04505  0.23892  0.54064  1.0000
  H   H198      1.0  0.00802  0.27420  0.57933  1.0000
  H   H199      1.0  0.15428  0.08939  0.51597  1.0000
  C   C118      1.0  0.00846  0.21141  0.54585  1.0000
  H   H200      1.0  0.12552  0.33509  0.37455  1.0000
  C   C119      1.0  0.09624  0.32470  0.41212  1.0000
  C   C120      1.0  0.09269  0.31710  0.39609  1.0000
  C   C121      1.0  0.09272  0.29704  0.39674  1.0000
  C   C122      1.0  0.09602  0.28440  0.41352  1.0000
  C   C123      1.0  0.09888  0.29208  0.42977  1.0000
  C   C124      1.0  0.09904  0.31213  0.42903  1.0000
  H   H201      1.0  0.08996  0.32674  0.38323  1.0000
  H   H202      1.0  0.09024  0.29126  0.38418  1.0000
  H   H203      1.0  0.10146  0.28254  0.44277  1.0000
  H   H204      1.0  0.10164  0.31788  0.44156  1.0000
  C   C125      1.0  0.09515  0.46204  0.37027  1.0000
  C   C126      1.0  0.11420  0.45892  0.37358  1.0000
  C   C127      1.0  0.12274  0.47439  0.37746  1.0000
  H   H205      1.0  0.03825  0.28572  0.43864  1.0000
  H   H206      1.0  0.08837  0.45019  0.36748  1.0000
  H   H207      1.0  0.03017  0.39641  0.43856  1.0000
  H   H208      1.0  0.05127  0.32399  0.42871  1.0000
  C   C128      1.0  0.01190  0.36501  0.34741  1.0000
  C   C129      1.0  0.11008  0.30004  0.64930  1.0000
  C   C130      1.0  0.10639  0.31998  0.65057  1.0000
  H   H209      1.0  0.10832  0.29453  0.63633  1.0000
  H   H210      1.0  0.10169  0.32979  0.63850  1.0000
  C   C131      1.0  0.02717  0.26001  0.43345  1.0000
  H   H211      1.0  0.24946  0.04583  0.55803  1.0000
  C   C132      1.0  0.11601  0.28723  0.66485  1.0000
  C   C133      1.0  0.09340  0.49612  0.37418  1.0000
  C   C134      1.0  0.18934  0.03966  0.54560  1.0000
  C   C135      1.0  0.04139  0.37462  0.41895  1.0000
  H   H212      1.0  0.05075  0.20493  0.51766  1.0000
  C   C136      1.0  0.01887  0.21377  0.47844  1.0000
  H   H213      1.0  0.09106  0.08212  0.42539  1.0000
  H   H214      1.0  0.07996  0.09104  0.40411  1.0000
  H   H215      1.0  0.02648  0.13108  0.48605  1.0000
  H   H216      1.0  0.03909  0.15194  0.48007  1.0000
  H   H217      1.0  0.05216  0.12784  0.48144  1.0000
  S   S47       1.0  0.12018  0.26201  0.66421  1.0000
  H   H218      1.0  0.11366  0.41665  0.63533  1.0000
  N   N5        1.0  0.13950  0.16094  0.54061  1.0000
  C   C137      1.0  0.14416  0.14228  0.55349  1.0000
  C   C138      1.0  0.11928  0.16999  0.54653  1.0000
  C   C139      1.0  0.14071  0.15599  0.52041  1.0000
  C   C140      1.0  0.16367  0.13027  0.54773  1.0000
  C   C141      1.0  0.11157  0.16737  0.56830  1.0000
  C   C142      1.0  0.09258  0.18002  0.57265  1.0000
  C   C143      1.0  0.16799  0.11319  0.56303  1.0000
  H   H219      1.0  0.13296  0.13271  0.55395  1.0000
  H   H220      1.0  0.14374  0.14481  0.56861  1.0000
  H   H221      1.0  0.11762  0.18575  0.54122  1.0000
  H   H222      1.0  0.10895  0.16387  0.53957  1.0000
  H   H223      1.0  0.13185  0.14426  0.52036  1.0000
  H   H224      1.0  0.16356  0.12414  0.53423  1.0000
  H   H225      1.0  0.10916  0.15211  0.57319  1.0000
  H   H226      1.0  0.12162  0.17107  0.57710  1.0000
  H   H227      1.0  0.09426  0.19554  0.56840  1.0000
  H   H228      1.0  0.08157  0.17615  0.56495  1.0000
  H   H229      1.0  0.08756  0.17779  0.58831  1.0000
  H   H230      1.0  0.17057  0.11839  0.57627  1.0000
  H   H231      1.0  0.15601  0.10432  0.56657  1.0000
  H   H232      1.0  0.07689  0.15122  0.39688  1.0000
  H   H233      1.0  0.03624  0.27419  0.53243  1.0000
  C   C144      1.0  0.09022  0.18426  0.40180  1.0000
  C   C145      1.0  0.05822  0.30334  0.64396  1.0000
  H   H234      1.0  0.01655  0.36019  0.39576  1.0000
  C   C146      1.0  0.23359  0.13116  0.62208  1.0000
  H   H235      1.0  0.23030  0.01800  0.56415  1.0000
  H   H236      1.0  0.05066  0.37892  0.64170  1.0000
  H   H237      1.0  0.00369  0.43045  0.39912  1.0000
  C   C147      1.0  0.05387  0.30928  0.62297  1.0000
  C   C148      1.0  0.07067  0.30215  0.60864  1.0000
  H   H238      1.0  0.05007  0.32944  0.47099  1.0000
  H   H239      1.0  0.12798  0.28936  0.37197  1.0000
  H   H240      1.0  0.21233  0.15515  0.61231  1.0000
  H   H241      1.0  0.00979  0.21122  0.53003  1.0000
  H   H242      1.0  0.06423  0.11323  0.62227  1.0000
  H   H243      1.0  0.07294  0.30627  0.64449  1.0000
  H   H244      1.0  0.05878  0.28729  0.64630  1.0000
  H   H245      1.0  0.03845  0.37070  0.66494  1.0000
  H   H246      1.0  0.06416  0.36620  0.66019  1.0000
  H   H247      1.0  0.22481  0.06994  0.48082  1.0000
  N   N6        1.0  0.13915  0.30758  0.34672  1.0000
  C   C149      1.0  0.07166  0.17668  0.41146  1.0000
  C   C150      1.0  0.10237  0.06542  0.48546  1.0000
  H   H248      1.0  0.24106  0.13529  0.58212  1.0000
  C   C151      1.0  0.15065  0.33361  0.38804  1.0000
  H   H249      1.0  0.04557  0.37618  0.44887  1.0000
  H   H250      1.0  0.19238  0.03304  0.55973  1.0000
  H   H251      1.0  0.04130  0.30264  0.62079  1.0000
  H   H252      1.0  0.05077  0.32509  0.61937  1.0000
  H   H253      1.0  0.06726  0.30641  0.59373  1.0000
  H   H254      1.0  0.08365  0.30854  0.60999  1.0000
  H   H255      1.0  0.07377  0.28615  0.61107  1.0000
  H   H256      1.0  0.14693  0.40208  0.65071  1.0000
  H   H257      1.0  0.01784  0.13546  0.42692  1.0000
  C   C152      1.0  0.25175  0.05435  0.49863  1.0000
  H   H258      1.0  0.17235  0.10249  0.64821  1.0000
  H   H259      1.0  0.09005  0.03828  0.49239  1.0000
  H   H260      1.0  0.10530  0.12266  0.52032  1.0000
  C   C153      1.0  0.04443  0.42111  0.66845  1.0000
  N   N7        1.0  0.14575  0.38471  0.62837  1.0000
  C   C154      1.0  0.12780  0.27395  0.34848  1.0000
  C   C155      1.0  0.15485  0.36654  0.63931  1.0000
  C   C156      1.0  0.15223  0.40167  0.63519  1.0000
  C   C157      1.0  0.15189  0.38530  0.60699  1.0000
  H   H261      1.0  0.04326  0.45122  0.65755  1.0000
  C   C158      1.0  0.22632  0.09990  0.47207  1.0000
  C   C159      1.0  0.17407  0.40238  0.63277  1.0000
  C   C160      1.0  0.00416  0.38232  0.35447  1.0000
  C   C161      1.0  0.23660  0.07901  0.47574  1.0000
  N   N8        1.0  0.22396  0.12702  0.64248  1.0000
  H   H262      1.0  0.01917  0.33748  0.41013  1.0000
  H   H263      1.0  0.00514  0.38466  0.41545  1.0000
  S   S48       1.0  0.17600  0.01240  0.45688  1.0000
  H   H264      1.0  0.09361  0.18089  0.38678  1.0000
  H   H265      1.0  0.12953  0.17236  0.65180  1.0000
  H   H266      1.0  0.00759  0.23989  0.41829  1.0000
  C   C162      1.0  0.04914  0.34800  0.64680  1.0000
  H   H267      1.0  0.14594  0.41552  0.62757  1.0000
  H   H268      1.0  0.15209  0.40051  0.59999  1.0000
  H   H269      1.0  0.16690  0.37837  0.60424  1.0000
  C   C163      1.0  0.24600  0.02921  0.43509  1.0000
  H   H270      1.0  0.01394  0.17982  0.55452  1.0000
  C   C164      1.0  0.14934  0.31845  0.35805  1.0000
  S   S49       1.0  0.00252  0.17602  0.61520  1.0000
  H   H271      1.0  0.18084  0.40002  0.61805  1.0000
  C   C165      1.0  0.02420  0.44945  0.38377  1.0000
  H   H272      1.0  0.17069  0.01902  0.54293  1.0000
  H   H273      1.0  0.15779  0.34435  0.62015  1.0000
  C   C166      1.0  0.03785  0.23041  0.57903  1.0000
  C   C167      1.0  0.03538  0.39295  0.34950  1.0000
  H   H274      1.0  0.08360  0.41742  0.62282  1.0000
  H   H275      1.0  0.13085  0.09343  0.48252  1.0000
  H   H276      1.0  0.15560  0.15042  0.51492  1.0000
  C   C168      1.0  0.11231  0.49291  0.37789  1.0000
  H   H277      1.0  0.15429  0.31647  0.64543  1.0000
  H   H278      1.0  0.04262  0.16131  0.39780  1.0000
  H   H279      1.0  0.10076  0.15625  0.64680  1.0000
  H   H280      1.0  0.21075  0.13244  0.60409  1.0000
  H   H281      1.0  0.02624  0.42734  0.40838  1.0000
  C   C169      1.0  0.05173  0.18457  0.63225  1.0000
  H   H282      1.0  0.07351  0.38837  0.42751  1.0000
  H   H283      1.0  0.06506  0.31144  0.45818  1.0000
  C   C170      1.0  0.02242  0.22077  0.57203  1.0000
  H   H284      1.0  0.05220  0.22210  0.57647  1.0000
  H   H285      1.0  0.11246  0.27924  0.34806  1.0000
  C   C171      1.0  0.24147  0.04895  0.42927  1.0000
  H   H286      1.0  0.17733  0.06416  0.49584  1.0000
  H   H287      1.0  0.08737  0.11870  0.61017  1.0000
  H   H288      1.0  0.05620  0.26618  0.43242  1.0000
  C   C172      1.0  0.12439  0.38613  0.63375  1.0000
  N   N9        1.0  0.05596  0.14495  0.42172  1.0000
  C   C173      1.0  0.05914  0.12428  0.41748  1.0000
  C   C174      1.0  0.07326  0.15439  0.41203  1.0000
  C   C175      1.0  0.05417  0.14617  0.44297  1.0000
  C   C176      1.0  0.03788  0.13644  0.45592  1.0000
  C   C177      1.0  0.07673  0.11146  0.42500  1.0000
  C   C178      1.0  0.14315  0.46852  0.65217  1.0000
  C   C179      1.0  0.03907  0.13689  0.47716  1.0000
  C   C180      1.0  0.07832  0.09093  0.41994  1.0000
  H   H289      1.0  0.17285  0.43371  0.62598  1.0000
  H   H290      1.0  0.06057  0.12404  0.40165  1.0000
  H   H291      1.0  0.04664  0.11664  0.42352  1.0000
  C   C181      1.0  0.13703  0.28794  0.35797  1.0000
  H   H292      1.0  0.06780  0.14017  0.44860  1.0000
  H   H293      1.0  0.05191  0.16147  0.44571  1.0000
  H   H294      1.0  0.03840  0.12113  0.45377  1.0000
  H   H295      1.0  0.02385  0.14438  0.45300  1.0000
  H   H296      1.0  0.09021  0.11723  0.41855  1.0000
  H   H297      1.0  0.07555  0.11040  0.44087  1.0000
  H   H298      1.0  0.04181  0.27967  0.56809  1.0000
  H   H299      1.0  0.14293  0.18971  0.56575  1.0000
  H   H300      1.0  0.02513  0.13475  0.40182  1.0000
  H   H301      1.0  0.05297  0.41633  0.65520  1.0000
  S   S50       1.0  0.11402  0.21330  0.65200  1.0000
  H   H302      1.0  0.08600  0.14832  0.41925  1.0000
  C   C182      1.0  0.02591  0.35100  0.40572  1.0000
  C   C183      1.0  0.15604  0.18084  0.55993  1.0000
  H   H303      1.0  0.17554  0.13919  0.54573  1.0000
  C   C184      1.0  0.15356  0.17506  0.54034  1.0000
  C   C185      1.0  0.13460  0.17281  0.50499  1.0000
  H   H304      1.0  0.12503  0.15555  0.48611  1.0000
  H   H305      1.0  0.23605  0.02621  0.53903  1.0000
  H   H306      1.0  0.11838  0.41078  0.61124  1.0000
  H   H307      1.0  0.18104  0.10385  0.55773  1.0000
  H   H308      1.0  0.14929  0.18887  0.53136  1.0000
  H   H309      1.0  0.10225  0.17777  0.40989  1.0000
  H   H310      1.0  0.01872  0.23896  0.60406  1.0000
  C   C186      1.0  0.13554  0.16577  0.48551  1.0000
  H   H311      1.0  0.14435  0.18402  0.50294  1.0000
  H   H312      1.0  0.09880  0.11568  0.64187  1.0000
  H   H313      1.0  0.16786  0.16961  0.53320  1.0000
  H   H314      1.0  0.16937  0.20661  0.54756  1.0000
  C   C187      1.0  0.03342  0.23181  0.60050  1.0000
  H   H315      1.0  0.13664  0.36139  0.60222  1.0000
  H   H316      1.0  0.09736  0.10151  0.48817  1.0000
  C   C188      1.0  0.17222  0.19329  0.55774  1.0000
  H   H317      1.0  0.18604  0.18510  0.55255  1.0000
  H   H318      1.0  0.13200  0.17826  0.47462  1.0000
  N   N10       1.0  0.02650  0.36083  0.42316  1.0000
  H   H319      1.0  0.07333  0.13442  0.51103  1.0000
  H   H320      1.0  0.17187  0.11280  0.49492  1.0000
  H   H321      1.0  0.15007  0.15871  0.48075  1.0000
  C   C189      1.0  0.23255  0.14810  0.58799  1.0000
  H   H322      1.0  0.11551  0.12506  0.49519  1.0000
  C   C190      1.0  0.01596  0.25305  0.53889  1.0000
  H   H323      1.0  0.09019  0.15109  0.50052  1.0000
  H   H324      1.0  0.12151  0.25472  0.37505  1.0000
  H   H325      1.0  0.03966  0.31098  0.46232  1.0000
  N   N11       1.0  0.02621  0.21718  0.55128  1.0000
  S   S51       1.0  0.12664  0.43587  0.66373  1.0000
  H   H326      1.0  0.17333  0.19763  0.57192  1.0000
  C   C191      1.0  0.09897  0.10085  0.50359  1.0000
  C   C192      1.0  0.13302  0.08687  0.49739  1.0000
  C   C193      1.0  0.10292  0.12136  0.50553  1.0000
  C   C194      1.0  0.16102  0.10667  0.48880  1.0000
  H   H327      1.0  0.03228  0.24428  0.43444  1.0000
  H   H328      1.0  0.16841  0.09519  0.48021  1.0000
  H   H329      1.0  0.16033  0.50555  0.34366  1.0000
  H   H330      1.0  0.11641  0.06945  0.56925  1.0000
  C   C195      1.0  0.10753  0.06589  0.50583  1.0000
  H   H331      1.0  0.08478  0.09842  0.51187  1.0000
  H   H332      1.0  0.14152  0.07259  0.49547  1.0000
  H   H333      1.0  0.01986  0.46049  0.39372  1.0000
  H   H334      1.0  0.04113  0.18918  0.56071  1.0000
  N   N12       1.0  0.11390  0.08444  0.50937  1.0000
  C   C196      1.0  0.14642  0.09871  0.50497  1.0000
  H   H335      1.0  0.13876  0.11112  0.51187  1.0000
  H   H336      1.0  0.09482  0.06235  0.51625  1.0000
  H   H337      1.0  0.11889  0.05357  0.50839  1.0000
  H   H338      1.0  0.06112  0.34562  0.63514  1.0000
  C   C197      1.0  0.11457  0.08309  0.53069  1.0000
  H   H339      1.0  0.12083  0.38446  0.64968  1.0000
  H   H340      1.0  0.06098  0.40563  0.44276  1.0000
  H   H341      1.0  0.08578  0.39767  0.64197  1.0000
  S   S52       1.0  0.15747  0.03094  0.50590  1.0000
  C   C198      1.0  0.13954  0.37600  0.59550  1.0000
  H   H342      1.0  0.09989  0.08300  0.53868  1.0000
  H   H343      1.0  0.11966  0.09594  0.53446  1.0000
  H   H344      1.0  0.15104  0.28063  0.36188  1.0000
  C   C199      1.0  0.17844  0.42191  0.63666  1.0000
  C   C200      1.0  0.02576  0.19883  0.65383  1.0000
  C   C201      1.0  0.02979  0.49646  0.37238  1.0000
  H   H345      1.0  0.16282  0.30972  0.36184  1.0000
  C   C202      1.0  0.04931  0.33364  0.44002  1.0000
  H   H346      1.0  0.14087  0.06252  0.53068  1.0000
  H   H347      1.0  0.02079  0.20641  0.66618  1.0000
  C   C203      1.0  0.15046  0.34704  0.63462  1.0000
  H   H348      1.0  0.06566  0.32898  0.66601  1.0000
  C   C204      1.0  0.12684  0.06494  0.53951  1.0000
  H   H349      1.0  0.11957  0.05190  0.54036  1.0000
  N   N13       1.0  0.08909  0.13247  0.66547  1.0000
  H   H350      1.0  0.04346  0.17065  0.61025  1.0000
  C   C205      1.0  0.01579  0.39635  0.35527  1.0000
  H   H351      1.0  0.01996  0.17796  0.45105  1.0000
  C   C206      1.0  0.03853  0.17853  0.62238  1.0000
  H   H352      1.0  0.20228  0.15160  0.64556  1.0000
  H   H353      1.0  0.15079  0.36693  0.65505  1.0000
  C   C207      1.0  0.08480  0.48052  0.37078  1.0000
  C   C208      1.0  0.02634  0.19998  0.46617  1.0000
  C   C209      1.0  0.18205  0.09555  0.65880  1.0000
  H   H354      1.0  0.04369  0.24017  0.60490  1.0000
  C   C210      1.0  0.04195  0.26979  0.44066  1.0000
  C   C211      1.0  0.13017  0.06671  0.55987  1.0000
  H   H355      1.0  0.05720  0.34131  0.40107  1.0000
  H   H356      1.0  0.13887  0.07855  0.55973  1.0000
  H   H357      1.0  0.13803  0.05298  0.56598  1.0000
  H   H358      1.0  0.04284  0.26468  0.45611  1.0000
  H   H359      1.0  0.15352  0.33197  0.34913  1.0000
  S   S53       1.0  0.04947  0.41121  0.34939  1.0000
  H   H360      1.0  0.15659  0.34607  0.37885  1.0000
  H   H361      1.0  0.03328  0.16891  0.42043  1.0000
  H   H362      1.0  0.23691  0.09803  0.54261  1.0000
  C   C212      1.0  0.10510  0.14451  0.65817  1.0000
  H   H363      1.0  0.02657  0.26564  0.41808  1.0000
  C   C213      1.0  0.10876  0.32730  0.66732  1.0000
  N   N14       1.0  0.04471  0.31222  0.65977  1.0000
  C   C214      1.0  0.01432  0.18820  0.46091  1.0000
  H   H364      1.0  0.02477  0.41819  0.38640  1.0000
  C   C215      1.0  0.04510  0.34613  0.39283  1.0000
  H   H365      1.0  0.24039  0.11752  0.61662  1.0000
  H   H366      1.0  0.09778  0.04490  0.46716  1.0000
  H   H367      1.0  0.07539  0.28389  0.67248  1.0000
  C   C216      1.0  0.24991  0.06417  0.63486  1.0000
  H   H368      1.0  0.01578  0.44228  0.35783  1.0000
  C   C217      1.0  0.17712  0.03170  0.53608  1.0000
  H   H369      1.0  0.19716  0.12415  0.63315  1.0000
  H   H370      1.0  0.15605  0.49441  0.64173  1.0000
  H   H371      1.0  0.07006  0.48277  0.36854  1.0000
  C   C218      1.0  0.01330  0.45487  0.36609  1.0000
  H   H372      1.0  0.05672  0.32897  0.36981  1.0000
  H   H373      1.0  0.19411  0.42187  0.63560  1.0000
  C   C219      1.0  0.01255  0.19346  0.64351  1.0000
  C   C220      1.0  0.04397  0.33012  0.38086  1.0000
  C   C221      1.0  0.04679  0.19351  0.52948  1.0000
  C   C222      1.0  0.17321  0.04023  0.51778  1.0000
  H   H374      1.0  0.02539  0.30023  0.56038  1.0000
  H   H375      1.0  0.11757  0.13563  0.65108  1.0000
  H   H376      1.0  0.02098  0.20693  0.58167  1.0000
  H   H377      1.0  0.06069  0.14222  0.63887  1.0000
  H   H378      1.0  0.06011  0.18425  0.40327  1.0000
  H   H379      1.0  0.08814  0.07378  0.48388  1.0000
  C   C223      1.0  0.21450  0.10210  0.45547  1.0000
  H   H380      1.0  0.22293  0.15538  0.57746  1.0000
  C   C224      1.0  0.03108  0.29152  0.57311  1.0000
  H   H381      1.0  0.06483  0.17113  0.51549  1.0000
  H   H382      1.0  0.03842  0.30071  0.58027  1.0000
  H   H383      1.0  0.12044  0.33467  0.34359  1.0000
  H   H384      1.0  0.19411  0.01685  0.36295  1.0000
  H   H385      1.0  0.24062  0.01759  0.50379  1.0000
  H   H386      1.0  0.24533  0.14008  0.62156  1.0000
  C   C225      1.0  0.20781  0.11558  0.64190  1.0000
  C   C226      1.0  0.08522  0.12281  0.64907  1.0000
  H   H387      1.0  0.23073  0.08469  0.51310  1.0000
  C   C227      1.0  0.00488  0.25602  0.64654  1.0000
  H   H388      1.0  0.05627  0.20690  0.55097  1.0000
  H   H389      1.0  0.03475  0.21724  0.60879  1.0000
  H   H390      1.0  0.13739  0.47200  0.38033  1.0000
  C   C228      1.0  0.13815  0.32440  0.37723  1.0000
  C   C229      1.0  0.04287  0.20152  0.54909  1.0000
  C   C230      1.0  0.03864  0.15581  0.41323  1.0000
  H   H391      1.0  0.11851  0.37413  0.62917  1.0000
  H   H392      1.0  0.05049  0.12648  0.67016  1.0000
  H   H393      1.0  0.11297  0.07180  0.47419  1.0000
  C   C231      1.0  0.03838  0.46966  0.34374  1.0000
  H   H394      1.0  0.14392  0.24750  0.36078  1.0000
  C   C232      1.0  0.14929  0.37445  0.57499  1.0000
  C   C233      1.0  0.02155  0.14450  0.41315  1.0000
  H   H395      1.0  0.14928  0.46160  0.63966  1.0000
  S   S54       1.0  0.06172  0.20014  0.66186  1.0000
  H   H396      1.0  0.16258  0.32288  0.39270  1.0000
  C   C234      1.0  0.13144  0.45889  0.66695  1.0000
  H   H397      1.0  0.03849  0.24528  0.57153  1.0000
  H   H398      1.0  0.05773  0.40882  0.41780  1.0000
  H   H399      1.0  0.24146  0.09991  0.64951  1.0000
  H   H400      1.0  0.12554  0.38494  0.59449  1.0000
  H   H401      1.0  0.03422  0.18772  0.52618  1.0000
  C   C235      1.0  0.00714  0.47448  0.67164  1.0000
  C   C236      1.0  0.08626  0.13645  0.50048  1.0000
  H   H402      1.0  0.06036  0.16539  0.54121  1.0000
  C   C237      1.0  0.22069  0.14197  0.60713  1.0000
  H   H403      1.0  0.00790  0.25322  0.45929  1.0000
  C   C238      1.0  0.06325  0.17712  0.52929  1.0000
  H   H404      1.0  0.10921  0.31518  0.35676  1.0000
  H   H405      1.0  0.04832  0.46856  0.35451  1.0000
  H   H406      1.0  0.07676  0.18265  0.53044  1.0000
  C   C239      1.0  0.19602  0.10916  0.66134  1.0000
  H   H407      1.0  0.17064  0.36562  0.63668  1.0000
  C   C240      1.0  0.02360  0.27077  0.52682  1.0000
  H   H408      1.0  0.15194  0.38893  0.56737  1.0000
  H   H409      1.0  0.08989  0.39299  0.61721  1.0000
  H   H410      1.0  0.03356  0.23225  0.52297  1.0000
  H   H411      1.0  0.03263  0.15876  0.67003  1.0000
  H   H412      1.0  0.16304  0.36483  0.57510  1.0000
  H   H413      1.0  0.20716  0.11709  0.45321  1.0000
  H   H414      1.0  0.00945  0.40988  0.36025  1.0000
  H   H415      1.0  0.21635  0.10340  0.48505  1.0000
  H   H416      1.0  0.03544  0.34978  0.64088  1.0000
  H   H417      1.0  0.06347  0.44164  0.66980  1.0000
  S   S55       1.0  0.10351  0.35245  0.66807  1.0000
  H   H418      1.0  0.00309  0.25066  0.53297  1.0000
  H   H419      1.0  0.06104  0.34275  0.43757  1.0000
  C   C241      1.0  0.03119  0.23506  0.53813  1.0000
  H   H420      1.0  0.22583  0.15734  0.64335  1.0000
  H   H421      1.0  0.23808  0.05209  0.50810  1.0000
  H   H422      1.0  0.00644  0.16745  0.39478  1.0000
  C   C242      1.0  0.09172  0.40317  0.62711  1.0000
  H   H423      1.0  0.21140  0.17773  0.67028  1.0000
  H   H424      1.0  0.12167  0.24423  0.35340  1.0000
  H   H425      1.0  0.02768  0.26816  0.51159  1.0000
  H   H426      1.0  0.24079  0.08316  0.61042  1.0000
  C   C243      1.0  0.05988  0.39791  0.43051  1.0000
  C   C244      1.0  0.04785  0.44161  0.67027  1.0000
  H   H427      1.0  0.18084  0.39124  0.64328  1.0000
  H   H428      1.0  0.02911  0.42061  0.66763  1.0000
  H   H429      1.0  0.18999  0.08206  0.65387  1.0000
  H   H430      1.0  0.02288  0.32321  0.64120  1.0000
  C   C245      1.0  0.00726  0.26320  0.44562  1.0000
  H   H431      1.0  0.00774  0.29549  0.41909  1.0000
  H   H432      1.0  0.01198  0.33940  0.67038  1.0000
  H   H433      1.0  0.03099  0.33318  0.37354  1.0000
  H   H434      1.0  0.03855  0.38527  0.40611  1.0000
  C   C246      1.0  0.05072  0.36708  0.65388  1.0000
  H   H435      1.0  0.20345  0.09213  0.45873  1.0000
  H   H436      1.0  0.22374  0.09902  0.44194  1.0000
  C   C247      1.0  0.04315  0.38606  0.43555  1.0000
  C   C248      1.0  0.10128  0.04478  0.48190  1.0000
  H   H437      1.0  0.21338  0.10242  0.63478  1.0000
  C   C249      1.0  0.24514  0.08753  0.50582  1.0000
  H   H438      1.0  0.06875  0.18091  0.42612  1.0000
  H   H439      1.0  0.01057  0.46157  0.66395  1.0000
  C   C250      1.0  0.01892  0.18307  0.62796  1.0000
  H   H440      1.0  0.14195  0.33888  0.40102  1.0000
  H   H441      1.0  0.03987  0.44807  0.37958  1.0000
  H   H442      1.0  0.08873  0.20018  0.40154  1.0000
  C   C251      1.0  0.00910  0.32449  0.66988  1.0000
  H   H443      1.0  0.18739  0.12193  0.66709  1.0000
  H   H444      1.0  0.17188  0.42489  0.65133  1.0000
  C   C252      1.0  0.18381  0.01354  0.37598  1.0000
  H   H445      1.0  0.01904  0.33551  0.44244  1.0000
  C   C253      1.0  0.05103  0.32062  0.45908  1.0000
  H   H446      1.0  0.07644  0.11084  0.65444  1.0000
  H   H447      1.0  0.03525  0.48281  0.66149  1.0000
  H   H448      1.0  0.24345  0.10311  0.50030  1.0000
  C   C254      1.0  0.15778  0.33026  0.64899  1.0000
  H   H449      1.0  0.06841  0.15790  0.66184  1.0000
  C   C255      1.0  0.11981  0.31894  0.34412  1.0000
  N   N15       1.0  0.01786  0.47288  0.35284  1.0000
  Fe  Fe26      1.0  0.11756  0.37884  0.34246  1.0000
  C   C256      1.0  0.04335  0.37539  0.34298  1.0000
  C   C257      1.0  0.01340  0.49046  0.36341  1.0000
  H   H450      1.0  0.02673  0.35301  0.45383  1.0000
  H   H451      1.0  0.02172  0.27346  0.59871  1.0000
  C   C258      1.0  0.07319  0.12501  0.61681  1.0000
  C   C259      1.0  0.23837  0.11459  0.65405  1.0000
  H   H452      1.0  0.13501  0.34659  0.63512  1.0000
  H   H453      1.0  0.03661  0.48442  0.38187  1.0000
  C   C260      1.0  0.14695  0.48715  0.65331  1.0000
  C   C261      1.0  0.13100  0.16240  0.66528  1.0000
  H   H454      1.0  0.17633  0.02736  0.38061  1.0000
  H   H455      1.0  0.02030  0.30019  0.65428  1.0000
  C   C262      1.0  0.07526  0.13614  0.63311  1.0000
  H   H456      1.0  0.04099  0.50158  0.36098  1.0000
  H   H457      1.0  0.23261  0.11196  0.66946  1.0000
  C   C263      1.0  0.13874  0.49667  0.66903  1.0000
  C   C264      1.0  0.24219  0.01909  0.55214  1.0000
  C   C265      1.0  0.02441  0.31457  0.65536  1.0000
  H   H458      1.0  0.20439  0.01084  0.39586  1.0000
  H   H459      1.0  0.15082  0.33211  0.66381  1.0000
  H   H460      1.0  0.17348  0.32929  0.64851  1.0000
  H   H461      1.0  0.08348  0.14825  0.62684  1.0000
  C   C266      1.0  0.12884  0.25390  0.36018  1.0000
  H   H462      1.0  0.24232  0.15838  0.58982  1.0000
  H   H463      1.0  0.00827  0.30624  0.60459  1.0000
  H   H464      1.0  0.24321  0.07451  0.46160  1.0000
  H   H465      1.0  0.06616  0.13496  0.60558  1.0000
  C   C267      1.0  0.01936  0.43018  0.39506  1.0000
  N   N16       1.0  0.25119  0.07523  0.48974  1.0000
  H   H466      1.0  0.00395  0.49447  0.64540  1.0000
  C   C268      1.0  0.00734  0.37272  0.42744  1.0000
  H   H467      1.0  0.01152  0.25643  0.55375  1.0000
  H   H468      1.0  0.11491  0.09782  0.66404  1.0000
  H   H469      1.0  0.00545  0.27781  0.45008  1.0000
  H   H470      1.0  0.01238  0.28340  0.52737  1.0000
  H   H471      1.0  0.00671  0.37975  0.44056  1.0000
  H   H472      1.0  0.01396  0.24664  0.63662  1.0000
  C   C269      1.0  0.01503  0.28307  0.58708  1.0000
  H   H473      1.0  0.01322  0.25751  0.65811  1.0000
  C   C270      1.0  0.00368  0.15822  0.40875  1.0000
  H   H474      1.0  0.00842  0.50345  0.35369  1.0000
  H   H475      1.0  0.01194  0.28241  0.62964  1.0000
  H   H476      1.0  0.17326  0.09164  0.67276  1.0000
  C   C271      1.0  0.21512  0.14629  0.67204  1.0000
  H   H477      1.0  0.20517  0.10136  0.67202  1.0000
  H   H478      1.0  0.12855  0.49786  0.34001  1.0000
  Fe  Fe27      1.0  0.08445  0.39890  0.71633  1.0000
  Fe  Fe28      1.0  0.12484  0.38492  0.72228  1.0000
  S   S56       1.0  0.13478  0.38434  0.69073  1.0000
  S   S57       1.0  0.14525  0.38054  0.74413  1.0000
  S   S58       1.0  0.10869  0.41473  0.71867  1.0000
  S   S59       1.0  0.09975  0.36896  0.72252  1.0000
  Fe  Fe29      1.0  0.09922  0.41823  0.84348  1.0000
  S   S60       1.0  0.08783  0.41877  0.87454  1.0000
  S   S61       1.0  0.10144  0.44465  0.82177  1.0000
  Fe  Fe30      1.0  0.10394  0.37496  0.84722  1.0000
  S   S62       1.0  0.09268  0.37153  0.87880  1.0000
  S   S63       1.0  0.11040  0.35083  0.82892  1.0000
  Fe  Fe31      1.0  0.07026  0.39603  0.87064  1.0000
  S   S64       1.0  0.03862  0.40183  0.88108  1.0000
  Fe  Fe32      1.0  0.11132  0.39449  0.88009  1.0000
  S   S65       1.0  0.12743  0.39532  0.90527  1.0000
  S   S66       1.0  0.08007  0.39743  0.83918  1.0000
  S   S67       1.0  0.12419  0.39593  0.84911  1.0000
  S   S68       1.0  0.21489  0.36430  0.91137  1.0000
  H   H479      1.0  0.06702  0.44833  0.91445  1.0000
  H   H480      1.0  0.17496  0.42296  0.83481  1.0000
  Fe  Fe33      1.0  0.11671  0.41310  0.68728  1.0000
  C   C272      1.0  0.15205  0.38762  0.90614  1.0000
  C   C273      1.0  0.16391  0.37988  0.89086  1.0000
  C   C274      1.0  0.18318  0.37299  0.89260  1.0000
  C   C275      1.0  0.19083  0.37395  0.90952  1.0000
  C   C276      1.0  0.17902  0.38192  0.92468  1.0000
  C   C277      1.0  0.15972  0.38864  0.92301  1.0000
  H   H481      1.0  0.15819  0.37899  0.87780  1.0000
  H   H482      1.0  0.19221  0.36681  0.88081  1.0000
  H   H483      1.0  0.18469  0.38261  0.93782  1.0000
  H   H484      1.0  0.15062  0.39448  0.93494  1.0000
  C   C278      1.0  0.11790  0.45769  0.82834  1.0000
  C   C279      1.0  0.12455  0.47331  0.81587  1.0000
  C   C280      1.0  0.13753  0.48384  0.82146  1.0000
  C   C281      1.0  0.14366  0.47880  0.83957  1.0000
  C   C282      1.0  0.13671  0.46345  0.85210  1.0000
  C   C283      1.0  0.12407  0.45273  0.84639  1.0000
  H   H485      1.0  0.11962  0.47731  0.80199  1.0000
  H   H486      1.0  0.02244  0.48842  0.83773  1.0000
  H   H487      1.0  0.14095  0.45995  0.86629  1.0000
  H   H488      1.0  0.11887  0.44082  0.85616  1.0000
  C   C284      1.0  0.02106  0.38794  0.87741  1.0000
  C   C285      1.0  0.02575  0.37023  0.87012  1.0000
  H   H489      1.0  0.03875  0.16081  0.69340  1.0000
  H   H490      1.0  0.08015  0.27262  0.70581  1.0000
  C   C286      1.0  0.16336  0.42428  0.71320  1.0000
  H   H491      1.0  0.10587  0.07831  0.69546  1.0000
  H   H492      1.0  0.04057  0.36473  0.86635  1.0000
  H   H493      1.0  0.08521  0.49743  0.67633  1.0000
  H   H494      1.0  0.13049  0.43644  0.73814  1.0000
  C   C287      1.0  0.18473  0.49837  0.88923  1.0000
  H   H495      1.0  0.04873  0.41089  0.68098  1.0000
  H   H496      1.0  0.11212  0.45120  0.76185  1.0000
  H   H497      1.0  0.11691  0.32000  0.69570  1.0000
  H   H498      1.0  0.20375  0.16527  0.69360  1.0000
  H   H499      1.0  0.19412  0.49998  0.87529  1.0000
  H   H500      1.0  0.22341  0.49759  0.89823  1.0000
  C   C288      1.0  0.13564  0.37192  0.76757  1.0000
  C   C289      1.0  0.12423  0.35693  0.77098  1.0000
  C   C290      1.0  0.11717  0.34994  0.78992  1.0000
  C   C291      1.0  0.12054  0.35868  0.80538  1.0000
  C   C292      1.0  0.13173  0.37383  0.80187  1.0000
  C   C293      1.0  0.13963  0.38010  0.78307  1.0000
  H   H501      1.0  0.12137  0.35035  0.75907  1.0000
  H   H502      1.0  0.10886  0.33795  0.79256  1.0000
  H   H503      1.0  0.13474  0.38041  0.81366  1.0000
  H   H504      1.0  0.14872  0.39143  0.78051  1.0000
  H   H505      1.0  0.15123  0.31461  0.88827  1.0000
  H   H506      1.0  0.02191  0.32083  0.83950  1.0000
  S   S69       1.0  0.05459  0.40820  0.72933  1.0000
  C   C294      1.0  0.23385  0.48350  0.00435  1.0000
  S   S70       1.0  0.15948  0.49200  0.84699  1.0000
  H   H507      1.0  0.13024  0.35953  0.93172  1.0000
  H   H508      1.0  0.06457  0.37502  0.70943  1.0000
  C   C295      1.0  0.17962  0.43742  0.91424  1.0000
  C   C296      1.0  0.15802  0.44257  0.92100  1.0000
  C   C297      1.0  0.15384  0.43943  0.94291  1.0000
  H   H509      1.0  0.16014  0.43575  0.88432  1.0000
  H   H510      1.0  0.18287  0.42166  0.91867  1.0000
  H   H511      1.0  0.18794  0.44424  0.92285  1.0000
  H   H512      1.0  0.16560  0.46745  0.88584  1.0000
  H   H513      1.0  0.17834  0.47693  0.91318  1.0000
  H   H514      1.0  0.15286  0.45782  0.91611  1.0000
  H   H515      1.0  0.16124  0.44923  0.94927  1.0000
  H   H516      1.0  0.13825  0.44258  0.94737  1.0000
  H   H517      1.0  0.15856  0.42422  0.94855  1.0000
  H   H518      1.0  0.21306  0.44355  0.87469  1.0000
  H   H519      1.0  0.03740  0.30490  0.69061  1.0000
  C   C298      1.0  0.16979  0.50141  0.72129  1.0000
  C   C299      1.0  0.00981  0.45408  0.87916  1.0000
  H   H520      1.0  0.16722  0.32188  0.91493  1.0000
  H   H521      1.0  0.04790  0.46894  0.72818  1.0000
  H   H522      1.0  0.15698  0.31360  0.95169  1.0000
  H   H523      1.0  0.08337  0.10687  0.68510  1.0000
  H   H524      1.0  0.12049  0.49450  0.69612  1.0000
  H   H525      1.0  0.02790  0.43384  0.84875  1.0000
  H   H526      1.0  0.10346  0.31600  0.91717  1.0000
  C   C300      1.0  0.12494  0.34514  0.93438  1.0000
  C   C301      1.0  0.08358  0.49227  0.84679  1.0000
  H   H527      1.0  0.11441  0.14484  0.68661  1.0000
  C   C302      1.0  0.18167  0.43336  0.85998  1.0000
  C   C303      1.0  0.04578  0.29834  0.67813  1.0000
  C   C304      1.0  0.02129  0.46904  0.74661  1.0000
  H   H528      1.0  0.02968  0.31611  0.81487  1.0000
  C   C305      1.0  0.05362  0.13560  0.68042  1.0000
  C   C306      1.0  0.18117  0.46361  0.88657  1.0000
  H   H529      1.0  0.01490  0.34553  0.86296  1.0000
  C   C307      1.0  0.01156  0.40244  0.82621  1.0000
  H   H530      1.0  0.24030  0.47169  0.94969  1.0000
  H   H531      1.0  0.10001  0.28170  0.91791  1.0000
  H   H532      1.0  0.09577  0.36088  0.96034  1.0000
  H   H533      1.0  0.08322  0.49395  0.81646  1.0000
  H   H534      1.0  0.17716  0.41473  0.71214  1.0000
  H   H535      1.0  0.17295  0.44237  0.73046  1.0000
  H   H536      1.0  0.12629  0.33961  0.94967  1.0000
  H   H537      1.0  0.22840  0.50271  0.86128  1.0000
  H   H538      1.0  0.14055  0.49187  0.74775  1.0000
  H   H539      1.0  0.15667  0.33902  0.95305  1.0000
  H   H540      1.0  0.00287  0.45405  0.86624  1.0000
  C   C308      1.0  0.22008  0.50212  0.00174  1.0000
  S   S71       1.0  0.24470  0.34788  0.95611  1.0000
  H   H541      1.0  0.10477  0.28618  0.94095  1.0000
  H   H542      1.0  0.04512  0.43941  0.70076  1.0000
  C   C309      1.0  0.01119  0.35938  0.86819  1.0000
  H   H543      1.0  0.08384  0.47636  0.84972  1.0000
  H   H544      1.0  0.15177  0.41526  0.71365  1.0000
  H   H545      1.0  0.05573  0.47174  0.92070  1.0000
  H   H546      1.0  0.23044  0.40238  0.00020  1.0000
  N   N17       1.0  0.02744  0.46432  0.87454  1.0000
  C   C310      1.0  0.23639  0.41172  0.88714  1.0000
  C   C311      1.0  0.04140  0.45533  0.85910  1.0000
  C   C312      1.0  0.03691  0.46147  0.89261  1.0000
  C   C313      1.0  0.02264  0.48571  0.86878  1.0000
  H   H547      1.0  0.16332  0.43518  0.70018  1.0000
  C   C314      1.0  0.06541  0.27727  0.70225  1.0000
  C   C315      1.0  0.05694  0.46829  0.89049  1.0000
  C   C316      1.0  0.03304  0.44793  0.84299  1.0000
  C   C317      1.0  0.04811  0.44501  0.82562  1.0000
  H   H548      1.0  0.13642  0.48596  0.72531  1.0000
  C   C318      1.0  0.14113  0.44687  0.73384  1.0000
  C   C319      1.0  0.06518  0.46411  0.90953  1.0000
  H   H549      1.0  0.12333  0.28473  0.69356  1.0000
  H   H550      1.0  0.16203  0.34661  0.91816  1.0000
  H   H551      1.0  0.05171  0.46551  0.85229  1.0000
  H   H552      1.0  0.05024  0.44235  0.86558  1.0000
  H   H553      1.0  0.03847  0.44587  0.89866  1.0000
  H   H554      1.0  0.08518  0.48985  0.70188  1.0000
  H   H555      1.0  0.18742  0.32094  0.95980  1.0000
  H   H556      1.0  0.03579  0.49292  0.86571  1.0000
  C   C320      1.0  0.09338  0.36453  0.94505  1.0000
  C   C321      1.0  0.02063  0.39560  0.72687  1.0000
  C   C322      1.0  0.16078  0.43414  0.73136  1.0000
  H   H557      1.0  0.00319  0.33378  0.78011  1.0000
  H   H558      1.0  0.05615  0.48406  0.88606  1.0000
  H   H559      1.0  0.06727  0.46087  0.87984  1.0000
  H   H560      1.0  0.00394  0.34343  0.80818  1.0000
  H   H561      1.0  0.02084  0.45768  0.83777  1.0000
  H   H562      1.0  0.03926  0.28513  0.67720  1.0000
  H   H563      1.0  0.01392  0.49253  0.88094  1.0000
  H   H564      1.0  0.06074  0.43531  0.83007  1.0000
  H   H565      1.0  0.14836  0.46719  0.77351  1.0000
  C   C323      1.0  0.14917  0.33058  0.88504  1.0000
  H   H566      1.0  0.06015  0.49448  0.83083  1.0000
  H   H567      1.0  0.19118  0.31208  0.93681  1.0000
  C   C324      1.0  0.04934  0.37716  0.71314  1.0000
  H   H568      1.0  0.02797  0.46933  0.90392  1.0000
  C   C325      1.0  0.11498  0.31454  0.68277  1.0000
  H   H569      1.0  0.21042  0.49607  0.93298  1.0000
  H   H570      1.0  0.07936  0.46936  0.90758  1.0000
  N   N18       1.0  0.05448  0.38002  0.79158  1.0000
  C   C326      1.0  0.04327  0.37173  0.77909  1.0000
  C   C327      1.0  0.04119  0.39421  0.80290  1.0000
  C   C328      1.0  0.06882  0.39130  0.77834  1.0000
  C   C329      1.0  0.06496  0.36467  0.80474  1.0000
  C   C330      1.0  0.05544  0.34608  0.81240  1.0000
  C   C331      1.0  0.05535  0.35901  0.76442  1.0000
  C   C332      1.0  0.08175  0.40166  0.78811  1.0000
  C   C333      1.0  0.02462  0.38620  0.81705  1.0000
  H   H571      1.0  0.17742  0.41562  0.88782  1.0000
  C   C334      1.0  0.06565  0.33376  0.82829  1.0000
  C   C335      1.0  0.04335  0.34570  0.75771  1.0000
  C   C336      1.0  0.09610  0.41165  0.77319  1.0000
  H   H572      1.0  0.03478  0.38361  0.77060  1.0000
  H   H573      1.0  0.03258  0.36308  0.78790  1.0000
  H   H574      1.0  0.04917  0.40078  0.81199  1.0000
  H   H575      1.0  0.03494  0.40636  0.79287  1.0000
  H   H576      1.0  0.06140  0.40242  0.76822  1.0000
  H   H577      1.0  0.07882  0.38167  0.76925  1.0000
  H   H578      1.0  0.07924  0.35959  0.79737  1.0000
  H   H579      1.0  0.06801  0.37091  0.81728  1.0000
  H   H580      1.0  0.05619  0.33707  0.80072  1.0000
  H   H581      1.0  0.04026  0.34920  0.81817  1.0000
  H   H582      1.0  0.06118  0.36842  0.75158  1.0000
  H   H583      1.0  0.06767  0.35003  0.77042  1.0000
  H   H584      1.0  0.08989  0.39115  0.79805  1.0000
  H   H585      1.0  0.07336  0.41307  0.79616  1.0000
  H   H586      1.0  0.03609  0.44793  0.72928  1.0000
  H   H587      1.0  0.03042  0.37630  0.82901  1.0000
  C   C337      1.0  0.14220  0.43769  0.77874  1.0000
  H   H588      1.0  0.21447  0.44346  0.89934  1.0000
  H   H589      1.0  0.11526  0.47413  0.76739  1.0000
  H   H590      1.0  0.05849  0.32073  0.83378  1.0000
  H   H591      1.0  0.08067  0.32893  0.82262  1.0000
  H   H592      1.0  0.06549  0.34206  0.84046  1.0000
  H   H593      1.0  0.05191  0.33826  0.74592  1.0000
  H   H594      1.0  0.03892  0.33461  0.76971  1.0000
  H   H595      1.0  0.03048  0.35414  0.75221  1.0000
  H   H596      1.0  0.10559  0.41826  0.78064  1.0000
  H   H597      1.0  0.10503  0.40113  0.76437  1.0000
  H   H598      1.0  0.08861  0.42314  0.76355  1.0000
  H   H599      1.0  0.00866  0.31630  0.68449  1.0000
  H   H600      1.0  0.11219  0.50716  0.77121  1.0000
  H   H601      1.0  0.07965  0.48132  0.76239  1.0000
  H   H602      1.0  0.10577  0.49022  0.73655  1.0000
  C   C338      1.0  0.11092  0.28574  0.92566  1.0000
  H   H603      1.0  0.00505  0.41308  0.81512  1.0000
  C   C339      1.0  0.13230  0.31136  0.92652  1.0000
  H   H604      1.0  0.14268  0.49595  0.81188  1.0000
  H   H605      1.0  0.15008  0.41789  0.80349  1.0000
  H   H606      1.0  0.16159  0.50721  0.70912  1.0000
  H   H607      1.0  0.15808  0.44122  0.80164  1.0000
  C   C340      1.0  0.02456  0.47306  0.71019  1.0000
  H   H608      1.0  0.01888  0.48494  0.74664  1.0000
  C   C341      1.0  0.07417  0.50002  0.82880  1.0000
  H   H609      1.0  0.16468  0.45135  0.76022  1.0000
  Fe  Fe34      1.0  0.25112  0.40174  0.94561  1.0000
  H   H610      1.0  0.09416  0.12326  0.69504  1.0000
  H   H611      1.0  0.10659  0.46744  0.72761  1.0000
  H   H612      1.0  0.05918  0.26424  0.70040  1.0000
  S   S72       1.0  0.00590  0.34892  0.70833  1.0000
  H   H613      1.0  0.04215  0.43846  0.81492  1.0000
  C   C342      1.0  0.02005  0.31214  0.82823  1.0000
  H   H614      1.0  0.02833  0.46237  0.75933  1.0000
  C   C343      1.0  0.09437  0.11698  0.68152  1.0000
  H   H615      1.0  0.19043  0.33758  0.93811  1.0000
  H   H616      1.0  0.02412  0.29666  0.83341  1.0000
  H   H617      1.0  0.17714  0.40466  0.85523  1.0000
  H   H618      1.0  0.24558  0.48134  0.87856  1.0000
  H   H619      1.0  0.09854  0.49549  0.84472  1.0000
  H   H620      1.0  0.15368  0.32981  0.85417  1.0000
  H   H621      1.0  0.14021  0.42589  0.77081  1.0000
  C   C344      1.0  0.05694  0.49573  0.69275  1.0000
  C   C345      1.0  0.16265  0.32705  0.94450  1.0000
  N   N19       1.0  0.18594  0.44233  0.89304  1.0000
  C   C346      1.0  0.15603  0.42973  0.79327  1.0000
  H   H622      1.0  0.00732  0.46350  0.74776  1.0000
  H   H623      1.0  0.18520  0.50127  0.71583  1.0000
  S   S73       1.0  0.24692  0.43421  0.93912  1.0000
  H   H624      1.0  0.16980  0.50280  0.88647  1.0000
  Fe  Fe35      1.0  0.10809  0.37097  0.69035  1.0000
  H   H625      1.0  0.07369  0.48170  0.73861  1.0000
  H   H626      1.0  0.07308  0.30375  0.68624  1.0000
  C   C347      1.0  0.13460  0.33983  0.90064  1.0000
  H   H627      1.0  0.01059  0.46752  0.71184  1.0000
  H   H628      1.0  0.14516  0.30080  0.92322  1.0000
  C   C348      1.0  0.18423  0.32423  0.94474  1.0000
  H   H629      1.0  0.25154  0.44919  0.89602  1.0000
  H   H630      1.0  0.24303  0.41707  0.89816  1.0000
  H   H631      1.0  0.02085  0.48884  0.71093  1.0000
  H   H632      1.0  0.22957  0.14491  0.67641  1.0000
  H   H633      1.0  0.20889  0.40758  0.88156  1.0000
  H   H634      1.0  0.11404  0.46083  0.69428  1.0000
  C   C349      1.0  0.14274  0.33607  0.86516  1.0000
  C   C350      1.0  0.04050  0.39280  0.72252  1.0000
  H   H635      1.0  0.13564  0.35557  0.89817  1.0000
  H   H636      1.0  0.12011  0.33881  0.89746  1.0000
  H   H637      1.0  0.18798  0.46734  0.87155  1.0000
  C   C351      1.0  0.20423  0.16527  0.67789  1.0000
  C   C352      1.0  0.10321  0.34849  0.93334  1.0000
  C   C353      1.0  0.11652  0.30547  0.91651  1.0000
  H   H638      1.0  0.01393  0.43854  0.88430  1.0000
  C   C354      1.0  0.18722  0.47749  0.89891  1.0000
  H   H639      1.0  0.14953  0.43317  0.91542  1.0000
  C   C355      1.0  0.21469  0.41520  0.89153  1.0000
  C   C356      1.0  0.05575  0.47476  0.68931  1.0000
  H   H640      1.0  0.05686  0.28420  0.71439  1.0000
  C   C357      1.0  0.03855  0.36383  0.70885  1.0000
  H   H641      1.0  0.16321  0.33588  0.88431  1.0000
  C   C358      1.0  0.20732  0.43711  0.88932  1.0000
  H   H642      1.0  0.17748  0.44839  0.85350  1.0000
  H   H643      1.0  0.19726  0.42978  0.85610  1.0000
  H   H644      1.0  0.20235  0.47365  0.90120  1.0000
  S   S74       1.0  0.22236  0.39157  0.95499  1.0000
  C   C359      1.0  0.23303  0.49775  0.90891  1.0000
  H   H645      1.0  0.14077  0.35202  0.86134  1.0000
  H   H646      1.0  0.12910  0.33043  0.86475  1.0000
  H   H647      1.0  0.01971  0.40983  0.83435  1.0000
  H   H648      1.0  0.23846  0.48251  0.91356  1.0000
  H   H649      1.0  0.16906  0.47229  0.71711  1.0000
  H   H650      1.0  0.10148  0.16713  0.67705  1.0000
  H   H651      1.0  0.15614  0.42235  0.85476  1.0000
  H   H652      1.0  0.09887  0.37845  0.93910  1.0000
  H   H653      1.0  0.05274  0.45906  0.81872  1.0000
  H   H654      1.0  0.06441  0.46459  0.69917  1.0000
  H   H655      1.0  0.01566  0.37867  0.80993  1.0000
  C   C360      1.0  0.14435  0.48068  0.73777  1.0000
  C   C361      1.0  0.16559  0.48090  0.72932  1.0000
  C   C362      1.0  0.17578  0.43119  0.88207  1.0000
  C   C363      1.0  0.03394  0.46387  0.72829  1.0000
  N   N20       1.0  0.13845  0.46161  0.74777  1.0000
  H   H656      1.0  0.13813  0.45414  0.71938  1.0000
  H   H657      1.0  0.05543  0.12632  0.69426  1.0000
  H   H658      1.0  0.12174  0.30443  0.90111  1.0000
  H   H659      1.0  0.09993  0.35289  0.91847  1.0000
  H   H660      1.0  0.07482  0.15234  0.68513  1.0000
  H   H661      1.0  0.07779  0.36644  0.94435  1.0000
  H   H662      1.0  0.17521  0.47531  0.74029  1.0000
  H   H663      1.0  0.12831  0.44229  0.78709  1.0000
  Fe  Fe36      1.0  0.23212  0.37030  0.93398  1.0000
  C   C364      1.0  0.17184  0.41999  0.85069  1.0000
  C   C365      1.0  0.14924  0.45509  0.76480  1.0000
  H   H664      1.0  0.17002  0.42386  0.78586  1.0000
  C   C366      1.0  0.10389  0.47474  0.74071  1.0000
  H   H665      1.0  0.12353  0.27450  0.92480  1.0000
  H   H666      1.0  0.23109  0.47414  0.99405  1.0000
  Fe  Fe37      1.0  0.23750  0.37034  0.97616  1.0000
  H   H667      1.0  0.16181  0.42263  0.74379  1.0000
  C   C367      1.0  0.01242  0.49165  0.85072  1.0000
  H   H668      1.0  0.12821  0.30832  0.94234  1.0000
  N   N21       1.0  0.03587  0.46932  0.69105  1.0000
  C   C368      1.0  0.06613  0.29146  0.68377  1.0000
  H   H669      1.0  0.04567  0.35141  0.70226  1.0000
  S   S75       1.0  0.09087  0.39998  0.68448  1.0000
  N   N22       1.0  0.13702  0.33185  0.92120  1.0000
  C   C369      1.0  0.11748  0.46509  0.75546  1.0000
  C   C370      1.0  0.08301  0.47402  0.74923  1.0000
  H   H670      1.0  0.07985  0.45886  0.75273  1.0000
  H   H671      1.0  0.05019  0.49849  0.70735  1.0000
  H   H672      1.0  0.21075  0.40837  0.90643  1.0000
  H   H673      1.0  0.09677  0.33519  0.93954  1.0000
  C   C371      1.0  0.15763  0.33213  0.92367  1.0000
  H   H674      1.0  0.01371  0.40783  0.73392  1.0000
  H   H675      1.0  0.20520  0.49866  0.00363  1.0000
  H   H676      1.0  0.20784  0.13436  0.68046  1.0000
  H   H677      1.0  0.04980  0.50635  0.68211  1.0000
  H   H678      1.0  0.07569  0.49881  0.85942  1.0000
  H   H679      1.0  0.24138  0.41896  0.87265  1.0000
  H   H680      1.0  0.13530  0.17049  0.67587  1.0000
  C   C372      1.0  0.01874  0.36642  0.71328  1.0000
  C   C373      1.0  0.11862  0.29457  0.68150  1.0000
  C   C374      1.0  0.07765  0.49956  0.69087  1.0000
  C   C375      1.0  0.12338  0.46812  0.68301  1.0000
  H   H681      1.0  0.04223  0.33582  0.67657  1.0000
  C   C376      1.0  0.03725  0.44809  0.68943  1.0000
  H   H682      1.0  0.02282  0.44322  0.69222  1.0000
  H   H683      1.0  0.02367  0.14319  0.69080  1.0000
  C   C377      1.0  0.00970  0.38248  0.72202  1.0000
  C   C378      1.0  0.11699  0.08813  0.69381  1.0000
  C   C379      1.0  0.02568  0.48150  0.67540  1.0000
  H   H684      1.0  0.13116  0.07958  0.69059  1.0000
  H   H685      1.0  0.11659  0.09405  0.70754  1.0000
  C   C380      1.0  0.00177  0.39483  0.88234  1.0000
  C   C381      1.0  0.11393  0.10446  0.67743  1.0000
  H   H686      1.0  0.24105  0.39597  0.88751  1.0000
  C   C382      1.0  0.12695  0.48713  0.68400  1.0000
  C   C383      1.0  0.22102  0.50593  0.92622  1.0000
  C   C384      1.0  0.03615  0.15055  0.68390  1.0000
  H   H687      1.0  0.06343  0.47314  0.67466  1.0000
  H   H688      1.0  0.23007  0.50764  0.93710  1.0000
  H   H689      1.0  0.02182  0.49661  0.67879  1.0000
  H   H690      1.0  0.18934  0.16705  0.67451  1.0000
  H   H691      1.0  0.12585  0.11327  0.67593  1.0000
  C   C385      1.0  0.11210  0.15467  0.67327  1.0000
  C   C386      1.0  0.07181  0.14551  0.67294  1.0000
  H   H692      1.0  0.05908  0.61713  0.17109  1.0000
  C   C387      1.0  0.04179  0.56174  0.33594  1.0000
  S   S76       1.0  0.23817  0.56059  0.16106  1.0000
  H   H693      1.0  0.13903  0.61682  0.27227  1.0000
  C   C388      1.0  0.19564  0.54435  0.24171  1.0000
  S   S77       1.0  0.14130  0.56842  0.31297  1.0000
  Fe  Fe38      1.0  0.13196  0.54162  0.18246  1.0000
  S   S78       1.0  0.13768  0.53821  0.21306  1.0000
  S   S79       1.0  0.15295  0.54806  0.15572  1.0000
  Fe  Fe39      1.0  0.08960  0.53553  0.19382  1.0000
  S   S80       1.0  0.09176  0.53234  0.22539  1.0000
  S   S81       1.0  0.06485  0.52905  0.18022  1.0000
  Fe  Fe40      1.0  0.10956  0.55674  0.21796  1.0000
  S   S82       1.0  0.10495  0.58152  0.23537  1.0000
  H   H694      1.0  0.22607  0.51221  0.14058  1.0000
  C   C389      1.0  0.18588  0.60699  0.21235  1.0000
  S   S83       1.0  0.10482  0.56186  0.18694  1.0000
  S   S84       1.0  0.04972  0.59917  0.32997  1.0000
  C   C390      1.0  0.04126  0.54045  0.18472  1.0000
  C   C391      1.0  0.02673  0.53371  0.17723  1.0000
  H   H695      1.0  0.16871  0.57546  0.24957  1.0000
  C   C392      1.0  0.03681  0.55647  0.19476  1.0000
  H   H696      1.0  0.03014  0.52147  0.16924  1.0000
  C   C393      1.0  0.05866  0.57247  0.12160  1.0000
  H   H697      1.0  0.04791  0.56176  0.20058  1.0000
  C   C394      1.0  0.13133  0.57223  0.29135  1.0000
  C   C395      1.0  0.11432  0.58453  0.28958  1.0000
  C   C396      1.0  0.10631  0.58729  0.27236  1.0000
  C   C397      1.0  0.11484  0.57720  0.25708  1.0000
  C   C398      1.0  0.13165  0.56458  0.25898  1.0000
  C   C399      1.0  0.14008  0.56239  0.27596  1.0000
  H   H698      1.0  0.10740  0.59214  0.30142  1.0000
  H   H699      1.0  0.09329  0.59708  0.27101  1.0000
  H   H700      1.0  0.13834  0.55680  0.24726  1.0000
  H   H701      1.0  0.15316  0.55277  0.27734  1.0000
  C   C400      1.0  0.21432  0.55787  0.15941  1.0000
  C   C401      1.0  0.20641  0.56342  0.14228  1.0000
  C   C402      1.0  0.18740  0.56083  0.14151  1.0000
  C   C403      1.0  0.17615  0.55267  0.15780  1.0000
  C   C404      1.0  0.18396  0.54743  0.17503  1.0000
  C   C405      1.0  0.20299  0.54999  0.17577  1.0000
  H   H702      1.0  0.21495  0.56973  0.12964  1.0000
  H   H703      1.0  0.18137  0.56514  0.12822  1.0000
  H   H704      1.0  0.17556  0.54090  0.18761  1.0000
  H   H705      1.0  0.20922  0.54538  0.18890  1.0000
  C   C406      1.0  0.17888  0.57865  0.23639  1.0000
  C   C407      1.0  0.20035  0.59638  0.19764  1.0000
  H   H706      1.0  0.14293  0.63924  0.25703  1.0000
  C   C408      1.0  0.13229  0.51241  0.33390  1.0000
  C   C409      1.0  0.00307  0.52074  0.22817  1.0000
  C   C410      1.0  0.03633  0.58077  0.32807  1.0000
  H   H707      1.0  0.19449  0.61136  0.22240  1.0000
  C   C411      1.0  0.04324  0.56262  0.13596  1.0000
  C   C412      1.0  0.08337  0.59957  0.10080  1.0000
  C   C413      1.0  0.20914  0.54564  0.09123  1.0000
  H   H708      1.0  0.17949  0.62084  0.20480  1.0000
  H   H709      1.0  0.22369  0.60200  0.17509  1.0000
  S   S85       1.0  0.11645  0.51559  0.18675  1.0000
  N   N23       1.0  0.07825  0.57039  0.12781  1.0000
  C   C414      1.0  0.11296  0.52214  0.13497  1.0000
  H   H710      1.0  0.08508  0.54312  0.11622  1.0000
  H   H711      1.0  0.13270  0.52573  0.27176  1.0000
  H   H712      1.0  0.04681  0.54669  0.13784  1.0000
  C   C415      1.0  0.06787  0.59805  0.14914  1.0000
  H   H713      1.0  0.22123  0.61677  0.19418  1.0000
  H   H714      1.0  0.11349  0.53898  0.30041  1.0000
  H   H715      1.0  0.14426  0.60163  0.24244  1.0000
  H   H716      1.0  0.15153  0.62231  0.22724  1.0000
  H   H717      1.0  0.14569  0.58473  0.17644  1.0000
  H   H718      1.0  0.02895  0.57254  0.24600  1.0000
  C   C416      1.0  0.01798  0.56584  0.19702  1.0000
  H   H719      1.0  0.11966  0.52323  0.33663  1.0000
  H   H720      1.0  0.20978  0.58487  0.20531  1.0000
  C   C417      1.0  0.15019  0.60518  0.19509  1.0000
  H   H721      1.0  0.01649  0.52491  0.21956  1.0000
  H   H722      1.0  0.10817  0.60077  0.07874  1.0000
  C   C418      1.0  0.07701  0.54066  0.29106  1.0000
  C   C419      1.0  0.07765  0.57728  0.14704  1.0000
  C   C420      1.0  0.14996  0.62630  0.26539  1.0000
  C   C421      1.0  0.13764  0.59705  0.18349  1.0000
  C   C422      1.0  0.24939  0.57704  0.01473  1.0000
  H   H723      1.0  0.14669  0.58196  0.21869  1.0000
  C   C423      1.0  0.15705  0.60878  0.23587  1.0000
  H   H724      1.0  0.17645  0.62507  0.24655  1.0000
  C   C424      1.0  0.08581  0.54913  0.12972  1.0000
  H   H725      1.0  0.10748  0.54738  0.14916  1.0000
  H   H726      1.0  0.11688  0.55150  0.12416  1.0000
  H   H727      1.0  0.02809  0.59860  0.24265  1.0000
  H   H728      1.0  0.07429  0.59590  0.09079  1.0000
  C   C425      1.0  0.01979  0.58515  0.31914  1.0000
  C   C426      1.0  0.09474  0.52642  0.28608  1.0000
  H   H729      1.0  0.17217  0.60292  0.26174  1.0000
  H   H730      1.0  0.10332  0.51374  0.14575  1.0000
  C   C427      1.0  0.21322  0.61015  0.18516  1.0000
  H   H731      1.0  0.17117  0.55300  0.22684  1.0000
  H   H732      1.0  0.16175  0.61132  0.18479  1.0000
  H   H733      1.0  0.22133  0.53569  0.11720  1.0000
  H   H734      1.0  0.19681  0.55512  0.09768  1.0000
  H   H735      1.0  0.07682  0.54081  0.14119  1.0000
  H   H736      1.0  0.13255  0.60843  0.17220  1.0000
  C   C428      1.0  0.02633  0.58565  0.25344  1.0000
  H   H737      1.0  0.19296  0.56062  0.21411  1.0000
  C   C429      1.0  0.00340  0.55895  0.18972  1.0000
  H   H738      1.0  0.16700  0.57809  0.20158  1.0000
  H   H739      1.0  0.19319  0.58992  0.18781  1.0000
  H   H740      1.0  0.22084  0.55460  0.08570  1.0000
  N   N24       1.0  0.17043  0.59569  0.22333  1.0000
  C   C430      1.0  0.15866  0.58918  0.21007  1.0000
  C   C431      1.0  0.02376  0.56714  0.12880  1.0000
  H   H741      1.0  0.19913  0.53047  0.23561  1.0000
  H   H742      1.0  0.16447  0.51488  0.28091  1.0000
  H   H743      1.0  0.01893  0.58291  0.12752  1.0000
  H   H744      1.0  0.15245  0.53117  0.33863  1.0000
  H   H745      1.0  0.05967  0.56662  0.10768  1.0000
  H   H746      1.0  0.05331  0.60049  0.14497  1.0000
  H   H747      1.0  0.14113  0.61701  0.20199  1.0000
  H   H748      1.0  0.20504  0.53986  0.07893  1.0000
  Fe  Fe41      1.0  0.11950  0.51406  0.21781  1.0000
  C   C432      1.0  0.13497  0.51059  0.27873  1.0000
  H   H749      1.0  0.07665  0.60867  0.14030  1.0000
  C   C433      1.0  0.21591  0.52916  0.10618  1.0000
  H   H750      1.0  0.20467  0.62170  0.17652  1.0000
  H   H751      1.0  0.08028  0.60059  0.17482  1.0000
  C   C434      1.0  0.18429  0.55906  0.22833  1.0000
  H   H752      1.0  0.12501  0.59222  0.19311  1.0000
  C   C435      1.0  0.19943  0.51737  0.11553  1.0000
  C   C436      1.0  0.16552  0.61531  0.25243  1.0000
  C   C437      1.0  0.09914  0.61021  0.08867  1.0000
  C   C438      1.0  0.06602  0.60214  0.16994  1.0000
  H   H753      1.0  0.09236  0.57692  0.15046  1.0000
  C   C439      1.0  0.09181  0.58083  0.11263  1.0000
  H   H754      1.0  0.07077  0.56721  0.15875  1.0000
  H   H755      1.0  0.07448  0.60970  0.10999  1.0000
  H   H756      1.0  0.22121  0.51162  0.01257  1.0000
  Fe  Fe42      1.0  0.11772  0.57237  0.33754  1.0000
  H   H757      1.0  0.10395  0.58428  0.11915  1.0000
  C   C440      1.0  0.10872  0.52452  0.30126  1.0000
  H   H758      1.0  0.09849  0.57125  0.10163  1.0000
  H   H759      1.0  0.18719  0.54179  0.25613  1.0000
  H   H760      1.0  0.20923  0.54953  0.24321  1.0000
  C   C441      1.0  0.10654  0.54379  0.13470  1.0000
  H   H761      1.0  0.04165  0.56780  0.15018  1.0000
  H   H762      1.0  0.10825  0.61489  0.09804  1.0000
  H   H763      1.0  0.05710  0.59209  0.17960  1.0000
  H   H764      1.0  0.18818  0.52731  0.12309  1.0000
  H   H765      1.0  0.09270  0.62324  0.07997  1.0000
  H   H766      1.0  0.06739  0.54208  0.27990  1.0000
  H   H767      1.0  0.01531  0.59988  0.31332  1.0000
  C   C442      1.0  0.00784  0.54280  0.17987  1.0000
  H   H768      1.0  0.20226  0.51811  0.15145  1.0000
  H   H769      1.0  0.14433  0.52742  0.30710  1.0000
  H   H770      1.0  0.05272  0.58785  0.11872  1.0000
  C   C443      1.0  0.03128  0.54699  0.33418  1.0000
  H   H771      1.0  0.08108  0.55516  0.29164  1.0000
  H   H772      1.0  0.11307  0.51770  0.12059  1.0000
  H   H773      1.0  0.19172  0.58224  0.24162  1.0000
  H   H774      1.0  0.01467  0.57843  0.20451  1.0000
  H   H775      1.0  0.10006  0.52209  0.31563  1.0000
  H   H776      1.0  0.06908  0.53555  0.30517  1.0000
  H   H777      1.0  0.02435  0.56199  0.11465  1.0000
  H   H778      1.0  0.15631  0.63109  0.27695  1.0000
  H   H779      1.0  0.03720  0.58443  0.26337  1.0000
  S   S86       1.0  0.09219  0.55892  0.33453  1.0000
  H   H780      1.0  0.12763  0.51871  0.13899  1.0000
  C   C444      1.0  0.13957  0.51296  0.31221  1.0000
  H   H781      1.0  0.19283  0.51382  0.10357  1.0000
  C   C445      1.0  0.01477  0.55138  0.32532  1.0000
  H   H782      1.0  0.01307  0.55973  0.13921  1.0000
  H   H783      1.0  0.10151  0.53197  0.27158  1.0000
  H   H784      1.0  0.22790  0.52002  0.09879  1.0000
  H   H785      1.0  0.16051  0.52186  0.24654  1.0000
  H   H786      1.0  0.21173  0.50922  0.18529  1.0000
  C   C446      1.0  0.24982  0.55712  0.02002  1.0000
  N   N25       1.0  0.12577  0.50911  0.29951  1.0000
  C   C447      1.0  0.00637  0.58739  0.26488  1.0000
  H   H787      1.0  0.24926  0.60451  0.02471  1.0000
  C   C448      1.0  0.00890  0.57046  0.31802  1.0000
  H   H788      1.0  0.00491  0.60033  0.27237  1.0000
  H   H789      1.0  0.00629  0.51344  0.24250  1.0000
  H   H790      1.0  0.08998  0.51241  0.28511  1.0000
  H   H791      1.0  0.25117  0.53383  0.04332  1.0000
  C   C449      1.0  0.24997  0.58906  0.02867  1.0000
  C   C450      1.0  0.25171  0.58110  0.04771  1.0000
  C   C451      1.0  0.25085  0.54924  0.03919  1.0000
  H   H792      1.0  0.00576  0.57432  0.27560  1.0000
  Fe  Fe43      1.0  0.12096  0.74353  0.59572  1.0000
  S   S87       1.0  0.12383  0.71583  0.58272  1.0000
  S   S88       1.0  0.14405  0.76301  0.58396  1.0000
  Fe  Fe44      1.0  0.08421  0.73404  0.62112  1.0000
  S   S89       1.0  0.08377  0.70611  0.60995  1.0000
  S   S90       1.0  0.06313  0.74439  0.64540  1.0000
  Fe  Fe45      1.0  0.11504  0.70127  0.61254  1.0000
  S   S91       1.0  0.13104  0.67301  0.62483  1.0000
  Fe  Fe46      1.0  0.09245  0.72277  0.58128  1.0000
  S   S92       1.0  0.07768  0.72152  0.55578  1.0000
  S   S93       1.0  0.11504  0.72832  0.62577  1.0000
  S   S94       1.0  0.09002  0.75143  0.59216  1.0000
  Fe  Fe47      1.0  0.12005  0.70964  0.45960  1.0000
  S   S95       1.0  0.13667  0.71522  0.43036  1.0000
  S   S96       1.0  0.13242  0.69271  0.48502  1.0000
  Fe  Fe48      1.0  0.08393  0.73264  0.44817  1.0000
  S   S97       1.0  0.09730  0.74023  0.41780  1.0000
  S   S98       1.0  0.05384  0.74289  0.46048  1.0000
  Fe  Fe49      1.0  0.11018  0.70901  0.41993  1.0000
  S   S99       1.0  0.11202  0.69205  0.39471  1.0000
  Fe  Fe50      1.0  0.12249  0.74588  0.43094  1.0000
  S   S100      1.0  0.13736  0.77255  0.41916  1.0000
  S   S101      1.0  0.09471  0.70109  0.44933  1.0000
  S   S102      1.0  0.10805  0.74060  0.46106  1.0000
  H   H793      1.0  0.18139  0.75368  0.51145  1.0000
  N   N26       1.0  0.02102  0.75334  0.57234  1.0000
  C   C452      1.0  0.02679  0.69347  0.48979  1.0000
  H   H794      1.0  0.03015  0.79738  0.60360  1.0000
  C   C453      1.0  0.24492  0.86425  0.65877  1.0000
  C   C454      1.0  0.01212  0.65099  0.63145  1.0000
  C   C455      1.0  0.22374  0.95129  0.39480  1.0000
  C   C456      1.0  0.02267  0.63003  0.66120  1.0000
  Fe  Fe51      1.0  0.09133  0.54788  0.36583  1.0000
  H   H795      1.0  0.10166  0.78668  0.44973  1.0000
  H   H796      1.0  0.02573  0.64639  0.62255  1.0000
  Fe  Fe52      1.0  0.09980  0.58716  0.37496  1.0000
  S   S103      1.0  0.10102  0.60336  0.40022  1.0000
  H   H797      1.0  0.05172  0.66468  0.65064  1.0000
  H   H798      1.0  0.02890  0.78234  0.39448  1.0000
  S   S104      1.0  0.07272  0.57435  0.37503  1.0000
  S   S105      1.0  0.11851  0.55940  0.36850  1.0000
  C   C457      1.0  0.00706  0.63499  0.64768  1.0000
  Fe  Fe53      1.0  0.20936  0.86714  0.57402  1.0000
  S   S106      1.0  0.18061  0.88068  0.56666  1.0000
  S   S107      1.0  0.23081  0.85489  0.55122  1.0000
  Fe  Fe54      1.0  0.20079  0.87623  0.61457  1.0000
  S   S108      1.0  0.17118  0.89068  0.61082  1.0000
  H   H799      1.0  0.15172  0.67313  0.37705  1.0000
  Fe  Fe55      1.0  0.16958  0.86531  0.59529  1.0000
  S   S109      1.0  0.14312  0.84996  0.59962  1.0000
  Fe  Fe56      1.0  0.18501  0.90464  0.58261  1.0000
  S   S110      1.0  0.18208  0.93586  0.56853  1.0000
  S   S111      1.0  0.19813  0.84994  0.60137  1.0000
  S   S112      1.0  0.21471  0.89202  0.58772  1.0000
  Fe  Fe57      1.0  0.18019  0.86161  0.44703  1.0000
  S   S113      1.0  0.21021  0.86551  0.45094  1.0000
  S   S114      1.0  0.16673  0.83451  0.46143  1.0000
  Fe  Fe58      1.0  0.17264  0.90296  0.42691  1.0000
  S   S115      1.0  0.20164  0.90991  0.42883  1.0000
  S   S116      1.0  0.15115  0.92508  0.41284  1.0000
  Fe  Fe59      1.0  0.21232  0.88044  0.42069  1.0000
  C   C458      1.0  0.01275  0.72246  0.50702  1.0000
  Fe  Fe60      1.0  0.19752  0.89479  0.45874  1.0000
  S   S117      1.0  0.20564  0.91131  0.48040  1.0000
  S   S118      1.0  0.18336  0.87446  0.41582  1.0000
  S   S119      1.0  0.16740  0.88993  0.45770  1.0000
  C   C459      1.0  0.09165  0.63826  0.65214  1.0000
  H   H800      1.0  0.01141  0.69313  0.51950  1.0000
  H   H801      1.0  0.12476  0.99235  0.39763  1.0000
  H   H802      1.0  0.17295  0.00528  0.37249  1.0000
  C   C460      1.0  0.22762  0.87125  0.53064  1.0000
  C   C461      1.0  0.22054  0.89049  0.53254  1.0000
  C   C462      1.0  0.21466  0.90298  0.51676  1.0000
  C   C463      1.0  0.21545  0.89614  0.49916  1.0000
  C   C464      1.0  0.22351  0.87718  0.49698  1.0000
  C   C465      1.0  0.22989  0.86478  0.51268  1.0000
  H   H803      1.0  0.21889  0.89564  0.54634  1.0000
  H   H804      1.0  0.20849  0.91762  0.51856  1.0000
  H   H805      1.0  0.22456  0.87193  0.48333  1.0000
  H   H806      1.0  0.23533  0.84987  0.51120  1.0000
  C   C466      1.0  0.15679  0.97696  0.42918  1.0000
  C   C467      1.0  0.15892  0.95693  0.42789  1.0000
  C   C468      1.0  0.14895  0.94984  0.41544  1.0000
  C   C469      1.0  0.13668  0.96278  0.40461  1.0000
  C   C470      1.0  0.13438  0.98259  0.40608  1.0000
  H   H807      1.0  0.16813  0.94694  0.43659  1.0000
  H   H808      1.0  0.12885  0.95744  0.39502  1.0000
  H   H809      1.0  0.16737  0.93792  0.60869  1.0000
  C   C471      1.0  0.17413  0.98535  0.60541  1.0000
  C   C472      1.0  0.18209  0.98813  0.58611  1.0000
  C   C473      1.0  0.18458  0.97283  0.57494  1.0000
  C   C474      1.0  0.17932  0.95463  0.58302  1.0000
  C   C475      1.0  0.17162  0.95182  0.60236  1.0000
  C   C476      1.0  0.16898  0.96714  0.61347  1.0000
  C   C477      1.0  0.16267  0.67809  0.38409  1.0000
  H   H810      1.0  0.19078  0.97507  0.56006  1.0000
  H   H811      1.0  0.18614  0.00209  0.57979  1.0000
  H   H812      1.0  0.16273  0.96495  0.62837  1.0000
  C   C478      1.0  0.06046  0.63394  0.37458  1.0000
  H   H813      1.0  0.01443  0.78224  0.58066  1.0000
  H   H814      1.0  0.07659  0.63757  0.65261  1.0000
  H   H815      1.0  0.03799  0.77902  0.43587  1.0000
  H   H816      1.0  0.02908  0.68432  0.57948  1.0000
  C   C479      1.0  0.00492  0.59954  0.37307  1.0000
  H   H817      1.0  0.16455  0.98237  0.43870  1.0000
  C   C480      1.0  0.03013  0.61847  0.37630  1.0000
  H   H818      1.0  0.02200  0.64550  0.48952  1.0000
  H   H819      1.0  0.01019  0.55409  0.40057  1.0000
  H   H820      1.0  0.20658  0.96404  0.63116  1.0000
  H   H821      1.0  0.05521  0.82207  0.45466  1.0000
  H   H822      1.0  0.14911  0.73669  0.54686  1.0000
  C   C481      1.0  0.04121  0.63568  0.36716  1.0000
  C   C482      1.0  0.14502  0.78968  0.43144  1.0000
  C   C483      1.0  0.14301  0.78819  0.45152  1.0000
  C   C484      1.0  0.14962  0.80206  0.46048  1.0000
  C   C485      1.0  0.15825  0.81761  0.44950  1.0000
  C   C486      1.0  0.15999  0.81920  0.42947  1.0000
  C   C487      1.0  0.15344  0.80532  0.42053  1.0000
  H   H823      1.0  0.13648  0.77631  0.46011  1.0000
  H   H824      1.0  0.14817  0.80072  0.47599  1.0000
  H   H825      1.0  0.16657  0.83104  0.42083  1.0000
  H   H826      1.0  0.15509  0.80663  0.40501  1.0000
  C   C488      1.0  0.10677  0.66803  0.39618  1.0000
  C   C489      1.0  0.11048  0.65877  0.37955  1.0000
  C   C490      1.0  0.10814  0.63916  0.38042  1.0000
  C   C491      1.0  0.10209  0.62857  0.39799  1.0000
  C   C492      1.0  0.09793  0.63796  0.41455  1.0000
  C   C493      1.0  0.10022  0.65759  0.41367  1.0000
  H   H827      1.0  0.11557  0.66671  0.36595  1.0000
  H   H828      1.0  0.11145  0.63212  0.36757  1.0000
  H   H829      1.0  0.09322  0.62988  0.42819  1.0000
  H   H830      1.0  0.09733  0.66455  0.42655  1.0000
  C   C494      1.0  0.03688  0.73474  0.44913  1.0000
  C   C495      1.0  0.04266  0.72531  0.43288  1.0000
  C   C496      1.0  0.02906  0.71876  0.42394  1.0000
  S   S120      1.0  0.21215  0.87334  0.64276  1.0000
  H   H831      1.0  0.04163  0.72355  0.62486  1.0000
  H   H832      1.0  0.03129  0.76018  0.66943  1.0000
  H   H833      1.0  0.05757  0.72321  0.42703  1.0000
  H   H834      1.0  0.03357  0.71163  0.41122  1.0000
  H   H835      1.0  0.12802  0.73689  0.50704  1.0000
  H   H836      1.0  0.13392  0.69802  0.65387  1.0000
  C   C497      1.0  0.14373  0.78685  0.58934  1.0000
  C   C498      1.0  0.16035  0.79596  0.58418  1.0000
  C   C499      1.0  0.16053  0.81508  0.58768  1.0000
  C   C500      1.0  0.14397  0.82541  0.59614  1.0000
  C   C501      1.0  0.12730  0.81638  0.60110  1.0000
  C   C502      1.0  0.12718  0.79716  0.59785  1.0000
  H   H837      1.0  0.17321  0.78812  0.57757  1.0000
  H   H838      1.0  0.17345  0.82186  0.58369  1.0000
  H   H839      1.0  0.11440  0.82426  0.60760  1.0000
  H   H840      1.0  0.11427  0.79038  0.60182  1.0000
  C   C503      1.0  0.11976  0.65405  0.63917  1.0000
  H   H841      1.0  0.22657  0.95750  0.36310  1.0000
  C   C504      1.0  0.22657  0.99441  0.63331  1.0000
  C   C505      1.0  0.04578  0.67958  0.65337  1.0000
  H   H842      1.0  0.23323  0.82232  0.60076  1.0000
  H   H843      1.0  0.14572  0.64037  0.64994  1.0000
  H   H844      1.0  0.12586  0.98438  0.46911  1.0000
  S   S121      1.0  0.14386  0.52037  0.66901  1.0000
  H   H845      1.0  0.04913  0.77466  0.58248  1.0000
  H   H846      1.0  0.07224  0.65134  0.53046  1.0000
  C   C506      1.0  0.03873  0.74225  0.64675  1.0000
  C   C507      1.0  0.03176  0.73131  0.63500  1.0000
  H   H847      1.0  0.22362  0.92217  0.37240  1.0000
  H   H848      1.0  0.04899  0.78272  0.61536  1.0000
  H   H849      1.0  0.03681  0.62758  0.65221  1.0000
  C   C508      1.0  0.02210  0.59494  0.66757  1.0000
  H   H850      1.0  0.06047  0.65798  0.43551  1.0000
  H   H851      1.0  0.06732  0.77360  0.41034  1.0000
  H   H852      1.0  0.00813  0.56037  0.66577  1.0000
  H   H853      1.0  0.22003  0.95986  0.65060  1.0000
  C   C509      1.0  0.09208  0.71100  0.53690  1.0000
  C   C510      1.0  0.08605  0.71421  0.51875  1.0000
  C   C511      1.0  0.09821  0.70788  0.50294  1.0000
  C   C512      1.0  0.11638  0.69820  0.50524  1.0000
  C   C513      1.0  0.12200  0.69394  0.52359  1.0000
  C   C514      1.0  0.10983  0.70036  0.53944  1.0000
  H   H854      1.0  0.07219  0.72208  0.51676  1.0000
  H   H855      1.0  0.09347  0.71067  0.48896  1.0000
  H   H856      1.0  0.13591  0.68612  0.52549  1.0000
  H   H857      1.0  0.11427  0.69721  0.55355  1.0000
  H   H858      1.0  0.10872  0.86485  0.48707  1.0000
  C   C515      1.0  0.10043  0.76166  0.52562  1.0000
  H   H859      1.0  0.13289  0.76122  0.50205  1.0000
  H   H860      1.0  0.14587  0.74183  0.47676  1.0000
  H   H861      1.0  0.10161  0.77607  0.51717  1.0000
  H   H862      1.0  0.09490  0.75247  0.51688  1.0000
  H   H863      1.0  0.09016  0.76334  0.53884  1.0000
  H   H864      1.0  0.18699  0.72366  0.46511  1.0000
  N   N27       1.0  0.15710  0.64092  0.43077  1.0000
  C   C516      1.0  0.16327  0.62239  0.42198  1.0000
  C   C517      1.0  0.17185  0.64457  0.44260  1.0000
  C   C518      1.0  0.13883  0.63837  0.44418  1.0000
  C   C519      1.0  0.15306  0.65798  0.41578  1.0000
  C   C520      1.0  0.16957  0.66242  0.39969  1.0000
  C   C521      1.0  0.14907  0.61647  0.41003  1.0000
  C   C522      1.0  0.13105  0.65483  0.45667  1.0000
  C   C523      1.0  0.19312  0.63800  0.43550  1.0000
  C   C524      1.0  0.20636  0.64592  0.44658  1.0000
  H   H865      1.0  0.24526  0.91317  0.64180  1.0000
  C   C525      1.0  0.15749  0.59842  0.40066  1.0000
  C   C526      1.0  0.11282  0.65032  0.46983  1.0000
  H   H866      1.0  0.16605  0.61018  0.43352  1.0000
  H   H867      1.0  0.17699  0.62293  0.41241  1.0000
  H   H868      1.0  0.17028  0.66020  0.44434  1.0000
  H   H869      1.0  0.16940  0.63684  0.45748  1.0000
  H   H870      1.0  0.14064  0.62462  0.45412  1.0000
  H   H871      1.0  0.12715  0.63705  0.43600  1.0000
  H   H872      1.0  0.14055  0.65633  0.40894  1.0000
  H   H873      1.0  0.14880  0.67146  0.42251  1.0000
  H   H874      1.0  0.17576  0.64955  0.39260  1.0000
  H   H875      1.0  0.18082  0.66801  0.40570  1.0000
  H   H876      1.0  0.13574  0.61300  0.41927  1.0000
  H   H877      1.0  0.14544  0.62809  0.39833  1.0000
  H   H878      1.0  0.12751  0.66868  0.44757  1.0000
  H   H879      1.0  0.14156  0.65689  0.46595  1.0000
  H   H880      1.0  0.19598  0.62198  0.43789  1.0000
  H   H881      1.0  0.19707  0.64270  0.42003  1.0000
  H   H882      1.0  0.20328  0.64111  0.46224  1.0000
  H   H883      1.0  0.22143  0.64054  0.44165  1.0000
  H   H884      1.0  0.20460  0.66196  0.44404  1.0000
  H   H885      1.0  0.17483  0.68146  0.37296  1.0000
  H   H886      1.0  0.15642  0.69154  0.39030  1.0000
  C   C527      1.0  0.20074  0.92459  0.65384  1.0000
  H   H887      1.0  0.05820  0.67774  0.46962  1.0000
  H   H888      1.0  0.24456  0.92314  0.60823  1.0000
  C   C528      1.0  0.02248  0.51311  0.38414  1.0000
  H   H889      1.0  0.10144  0.64894  0.46124  1.0000
  H   H890      1.0  0.11559  0.63676  0.47969  1.0000
  H   H891      1.0  0.10775  0.66227  0.47864  1.0000
  C   C529      1.0  0.03825  0.84439  0.43862  1.0000
  H   H892      1.0  0.00761  0.71456  0.58054  1.0000
  H   H893      1.0  0.03018  0.84658  0.42611  1.0000
  H   H894      1.0  0.13766  0.99360  0.56414  1.0000
  C   C530      1.0  0.02984  0.77471  0.40923  1.0000
  C   C531      1.0  0.22492  0.94481  0.59420  1.0000
  H   H895      1.0  0.19496  0.95371  0.45699  1.0000
  H   H896      1.0  0.09352  0.79028  0.48368  1.0000
  H   H897      1.0  0.13094  0.96135  0.46014  1.0000
  H   H898      1.0  0.09831  0.78252  0.41245  1.0000
  H   H899      1.0  0.16094  0.58607  0.41176  1.0000
  H   H900      1.0  0.02491  0.71594  0.55941  1.0000
  H   H901      1.0  0.24393  0.80328  0.61704  1.0000
  C   C532      1.0  0.08696  0.79337  0.45445  1.0000
  H   H902      1.0  0.23488  0.92845  0.65929  1.0000
  H   H903      1.0  0.21328  0.98609  0.48625  1.0000
  H   H904      1.0  0.05868  0.78717  0.45157  1.0000
  C   C533      1.0  0.23692  0.87193  0.64206  1.0000
  C   C534      1.0  0.17564  0.70993  0.55961  1.0000
  C   C535      1.0  0.08224  0.78693  0.47598  1.0000
  H   H905      1.0  0.03452  0.70077  0.51656  1.0000
  H   H906      1.0  0.08792  0.79814  0.38198  1.0000
  H   H907      1.0  0.02753  0.66162  0.45272  1.0000
  C   C536      1.0  0.02289  0.71556  0.57518  1.0000
  H   H908      1.0  0.06835  0.79465  0.48168  1.0000
  C   C537      1.0  0.23449  0.94908  0.37450  1.0000
  C   C538      1.0  0.23318  0.97563  0.62456  1.0000
  H   H909      1.0  0.03867  0.60567  0.37033  1.0000
  H   H910      1.0  0.22357  0.94377  0.43467  1.0000
  H   H911      1.0  0.04405  0.63582  0.35131  1.0000
  C   C539      1.0  0.06408  0.67142  0.50568  1.0000
  H   H912      1.0  0.20434  0.97596  0.45825  1.0000
  H   H913      1.0  0.21109  0.99890  0.63264  1.0000
  C   C540      1.0  0.00976  0.72080  0.43169  1.0000
  H   H914      1.0  0.06839  0.64597  0.36724  1.0000
  H   H915      1.0  0.19524  0.96281  0.42103  1.0000
  H   H916      1.0  0.05846  0.63465  0.39029  1.0000
  C   C541      1.0  0.05999  0.78839  0.41222  1.0000
  H   H917      1.0  0.21076  0.94373  0.39668  1.0000
  C   C542      1.0  0.20399  0.98212  0.38685  1.0000
  C   C543      1.0  0.22133  0.95938  0.63485  1.0000
  C   C544      1.0  0.00917  0.56417  0.38708  1.0000
  H   H918      1.0  0.03324  0.64978  0.37018  1.0000
  H   H919      1.0  0.22923  0.99260  0.64853  1.0000
  C   C545      1.0  0.04636  0.66863  0.47187  1.0000
  C   C546      1.0  0.21983  0.95934  0.43606  1.0000
  H   H920      1.0  0.17007  0.72031  0.57010  1.0000
  C   C547      1.0  0.20817  0.96064  0.45580  1.0000
  C   C548      1.0  0.24484  0.81829  0.60992  1.0000
  C   C549      1.0  0.13501  0.69065  0.66867  1.0000
  H   H921      1.0  0.21666  0.95309  0.46711  1.0000
  C   C550      1.0  0.01666  0.66086  0.49135  1.0000
  C   C551      1.0  0.23643  0.94798  0.57429  1.0000
  H   H922      1.0  0.11499  0.81576  0.36771  1.0000
  H   H923      1.0  0.21062  0.98424  0.37167  1.0000
  H   H924      1.0  0.06317  0.68722  0.50108  1.0000
  C   C552      1.0  0.10025  0.65311  0.63992  1.0000
  H   H925      1.0  0.01563  0.62380  0.34226  1.0000
  H   H926      1.0  0.16920  0.73326  0.44953  1.0000
  C   C553      1.0  0.23556  0.98186  0.39876  1.0000
  H   H927      1.0  0.23131  0.97866  0.60912  1.0000
  H   H928      1.0  0.01340  0.66440  0.63735  1.0000
  C   C554      1.0  0.01969  0.76734  0.58681  1.0000
  H   H929      1.0  0.25011  0.94689  0.60683  1.0000
  C   C555      1.0  0.06058  0.68952  0.66038  1.0000
  H   H930      1.0  0.03818  0.76027  0.40823  1.0000
  N   N28       1.0  0.13225  0.84940  0.53954  1.0000
  C   C556      1.0  0.13070  0.82804  0.54385  1.0000
  C   C557      1.0  0.15266  0.85239  0.54006  1.0000
  C   C558      1.0  0.11990  0.85907  0.55555  1.0000
  C   C559      1.0  0.12566  0.85851  0.52059  1.0000
  C   C560      1.0  0.12824  0.84548  0.50431  1.0000
  C   C561      1.0  0.11007  0.82265  0.54832  1.0000
  C   C562      1.0  0.12206  0.88051  0.55613  1.0000
  C   C563      1.0  0.16785  0.84365  0.52474  1.0000
  C   C564      1.0  0.18792  0.84568  0.52841  1.0000
  C   C565      1.0  0.10971  0.80130  0.54724  1.0000
  C   C566      1.0  0.10650  0.88958  0.57053  1.0000
  H   H931      1.0  0.13796  0.82164  0.55657  1.0000
  H   H932      1.0  0.13845  0.82011  0.53208  1.0000
  H   H933      1.0  0.15428  0.86798  0.53777  1.0000
  H   H934      1.0  0.15684  0.84676  0.55458  1.0000
  H   H935      1.0  0.12259  0.85101  0.56975  1.0000
  H   H936      1.0  0.10454  0.85853  0.55484  1.0000
  H   H937      1.0  0.11017  0.86403  0.52260  1.0000
  H   H938      1.0  0.13288  0.87156  0.51490  1.0000
  H   H939      1.0  0.11853  0.83419  0.50798  1.0000
  H   H940      1.0  0.14296  0.83807  0.50175  1.0000
  H   H941      1.0  0.10392  0.82541  0.56316  1.0000
  H   H942      1.0  0.10074  0.83131  0.53820  1.0000
  H   H943      1.0  0.12125  0.88907  0.54178  1.0000
  H   H944      1.0  0.13590  0.88162  0.56093  1.0000
  H   H945      1.0  0.16714  0.82814  0.52470  1.0000
  H   H946      1.0  0.16600  0.85152  0.51025  1.0000
  H   H947      1.0  0.19858  0.83950  0.51715  1.0000
  H   H948      1.0  0.18960  0.86116  0.52790  1.0000
  H   H949      1.0  0.19088  0.83787  0.54265  1.0000
  H   H950      1.0  0.09488  0.79769  0.55114  1.0000
  H   H951      1.0  0.11501  0.79803  0.53242  1.0000
  H   H952      1.0  0.11874  0.79219  0.55742  1.0000
  H   H953      1.0  0.10711  0.88146  0.58515  1.0000
  H   H954      1.0  0.10875  0.90472  0.57104  1.0000
  H   H955      1.0  0.09216  0.88960  0.56629  1.0000
  C   C567      1.0  0.03537  0.78247  0.60970  1.0000
  H   H956      1.0  0.24773  0.97138  0.40341  1.0000
  H   H957      1.0  0.00987  0.59497  0.65962  1.0000
  N   N29       1.0  0.21822  0.97162  0.39975  1.0000
  C   C568      1.0  0.03432  0.76014  0.55478  1.0000
  C   C569      1.0  0.03422  0.75083  0.53637  1.0000
  H   H958      1.0  0.23287  0.99252  0.40920  1.0000
  H   H959      1.0  0.11786  0.97965  0.57057  1.0000
  H   H960      1.0  0.02806  0.68709  0.45235  1.0000
  H   H961      1.0  0.08645  0.67088  0.52338  1.0000
  C   C570      1.0  0.04672  0.76048  0.51931  1.0000
  C   C571      1.0  0.23749  0.92798  0.37088  1.0000
  H   H962      1.0  0.20126  0.00727  0.49657  1.0000
  H   H963      1.0  0.06266  0.67552  0.53574  1.0000
  C   C572      1.0  0.19409  0.00207  0.39222  1.0000
  H   H964      1.0  0.04515  0.75465  0.60080  1.0000
  C   C573      1.0  0.02883  0.73362  0.58163  1.0000
  H   H965      1.0  0.17165  0.93085  0.64668  1.0000
  H   H966      1.0  0.01318  0.59346  0.36025  1.0000
  H   H967      1.0  0.03133  0.77607  0.55102  1.0000
  H   H968      1.0  0.04934  0.75760  0.55793  1.0000
  Fe  Fe61      1.0  0.07551  0.58591  0.34386  1.0000
  H   H969      1.0  0.04003  0.73537  0.53846  1.0000
  H   H970      1.0  0.04960  0.69674  0.57839  1.0000
  C   C574      1.0  0.03866  0.76888  0.59432  1.0000
  H   H971      1.0  0.24330  0.92754  0.46975  1.0000
  C   C575      1.0  0.02159  0.70139  0.50948  1.0000
  H   H972      1.0  0.17055  0.60112  0.39053  1.0000
  H   H973      1.0  0.01973  0.75242  0.53219  1.0000
  H   H974      1.0  0.00646  0.72192  0.62762  1.0000
  C   C576      1.0  0.23869  0.94564  0.50153  1.0000
  C   C577      1.0  0.01748  0.73757  0.45643  1.0000
  H   H975      1.0  0.04110  0.77593  0.51588  1.0000
  H   H976      1.0  0.06153  0.75935  0.52257  1.0000
  H   H977      1.0  0.04696  0.75312  0.50646  1.0000
  H   H978      1.0  0.18311  0.00005  0.40493  1.0000
  H   H979      1.0  0.06919  0.62010  0.37162  1.0000
  H   H980      1.0  0.03493  0.59418  0.65648  1.0000
  H   H981      1.0  0.24528  0.95985  0.57342  1.0000
  C   C578      1.0  0.02601  0.75181  0.66024  1.0000
  H   H982      1.0  0.17415  0.91558  0.66910  1.0000
  N   N30       1.0  0.16084  0.96801  0.51383  1.0000
  C   C579      1.0  0.14406  0.97184  0.50259  1.0000
  C   C580      1.0  0.15547  0.97584  0.53292  1.0000
  C   C581      1.0  0.17646  0.97882  0.50229  1.0000
  C   C582      1.0  0.16867  0.94690  0.51660  1.0000
  C   C583      1.0  0.15442  0.93278  0.52637  1.0000
  C   C584      1.0  0.14722  0.96397  0.48293  1.0000
  C   C585      1.0  0.19384  0.97996  0.51267  1.0000
  C   C586      1.0  0.13486  0.97462  0.54328  1.0000
  C   C587      1.0  0.13297  0.97931  0.56389  1.0000
  C   C588      1.0  0.16299  0.91190  0.52470  1.0000
  H   H983      1.0  0.09744  0.69639  0.66070  1.0000
  C   C589      1.0  0.20802  0.99216  0.49989  1.0000
  H   H984      1.0  0.13942  0.98770  0.50005  1.0000
  H   H985      1.0  0.13147  0.96561  0.51085  1.0000
  H   H986      1.0  0.16551  0.96869  0.54311  1.0000
  H   H987      1.0  0.15698  0.99154  0.53113  1.0000
  H   H988      1.0  0.17056  0.99388  0.49740  1.0000
  H   H989      1.0  0.18230  0.97227  0.48900  1.0000
  H   H990      1.0  0.17542  0.94207  0.50261  1.0000
  H   H991      1.0  0.18048  0.94448  0.52559  1.0000
  H   H992      1.0  0.14102  0.93526  0.51984  1.0000
  H   H993      1.0  0.15113  0.93419  0.54192  1.0000
  H   H994      1.0  0.02805  0.84733  0.45160  1.0000
  H   H995      1.0  0.15100  0.94805  0.48475  1.0000
  H   H996      1.0  0.20141  0.96536  0.51651  1.0000
  H   H997      1.0  0.18948  0.98681  0.52598  1.0000
  H   H998      1.0  0.12473  0.98537  0.53557  1.0000
  H   H999      1.0  0.13036  0.96020  0.54389  1.0000
  H   H1000     1.0  0.14173  0.96806  0.57262  1.0000
  H   H1001     1.0  0.04165  0.68777  0.63970  1.0000
  H   H1002     1.0  0.16657  0.90943  0.50940  1.0000
  H   H1003     1.0  0.17606  0.90837  0.53182  1.0000
  H   H1004     1.0  0.15258  0.90210  0.53192  1.0000
  C   C590      1.0  0.04449  0.66397  0.50678  1.0000
  H   H1005     1.0  0.02481  0.77742  0.62188  1.0000
  H   H1006     1.0  0.23448  0.00613  0.62524  1.0000
  H   H1007     1.0  0.22041  0.99235  0.50754  1.0000
  H   H1008     1.0  0.24575  0.93453  0.57104  1.0000
  C   C591      1.0  0.21129  0.92793  0.63307  1.0000
  H   H1009     1.0  0.02247  0.58584  0.39609  1.0000
  N   N31       1.0  0.03337  0.67205  0.49029  1.0000
  C   C592      1.0  0.17143  0.72614  0.46421  1.0000
  H   H1010     1.0  0.07458  0.82841  0.42390  1.0000
  C   C593      1.0  0.13403  0.74816  0.51296  1.0000
  C   C594      1.0  0.16111  0.73907  0.47899  1.0000
  C   C595      1.0  0.11979  0.75223  0.53111  1.0000
  H   H1011     1.0  0.16716  0.75297  0.47569  1.0000
  H   H1012     1.0  0.21554  0.91350  0.62803  1.0000
  H   H1013     1.0  0.06121  0.68368  0.43449  1.0000
  H   H1014     1.0  0.16642  0.69817  0.56192  1.0000
  H   H1015     1.0  0.14230  0.51743  0.36000  1.0000
  H   H1016     1.0  0.05654  0.82512  0.41064  1.0000
  H   H1017     1.0  0.08513  0.82183  0.38952  1.0000
  H   H1018     1.0  0.12264  0.79449  0.38342  1.0000
  C   C596      1.0  0.17589  0.78591  0.52767  1.0000
  H   H1019     1.0  0.11672  0.96316  0.48300  1.0000
  H   H1020     1.0  0.03277  0.67918  0.66411  1.0000
  H   H1021     1.0  0.12032  0.81809  0.39122  1.0000
  C   C597      1.0  0.12349  0.85726  0.48538  1.0000
  H   H1022     1.0  0.19025  0.70351  0.56236  1.0000
  H   H1023     1.0  0.11749  0.73848  0.54045  1.0000
  H   H1024     1.0  0.12488  0.76158  0.53988  1.0000
  C   C598      1.0  0.20814  0.97009  0.42010  1.0000
  H   H1025     1.0  0.04887  0.85484  0.43625  1.0000
  H   H1026     1.0  0.21558  0.95835  0.59691  1.0000
  C   C599      1.0  0.06311  0.81925  0.42392  1.0000
  C   C600      1.0  0.04816  0.82368  0.44153  1.0000
  H   H1027     1.0  0.16301  0.76871  0.50054  1.0000
  H   H1028     1.0  0.24259  0.88504  0.61272  1.0000
  S   S122      1.0  0.17021  0.00415  0.61997  1.0000
  C   C601      1.0  0.03905  0.78645  0.42094  1.0000
  C   C602      1.0  0.09326  0.80718  0.39103  1.0000
  C   C603      1.0  0.11408  0.80898  0.38291  1.0000
  C   C604      1.0  0.13059  0.63982  0.65051  1.0000
  C   C605      1.0  0.16334  0.72945  0.49986  1.0000
  H   H1029     1.0  0.15699  0.71562  0.50205  1.0000
  H   H1030     1.0  0.16575  0.71203  0.46653  1.0000
  H   H1031     1.0  0.13369  0.86798  0.48032  1.0000
  H   H1032     1.0  0.12472  0.84749  0.47422  1.0000
  H   H1033     1.0  0.09183  0.66376  0.63102  1.0000
  H   H1034     1.0  0.10063  0.80500  0.41961  1.0000
  H   H1035     1.0  0.03703  0.81388  0.44444  1.0000
  H   H1036     1.0  0.08702  0.80925  0.45222  1.0000
  C   C606      1.0  0.12905  0.96855  0.47329  1.0000
  N   N32       1.0  0.15469  0.74156  0.51564  1.0000
  H   H1037     1.0  0.02179  0.56032  0.37652  1.0000
  C   C607      1.0  0.05173  0.67235  0.43533  1.0000
  H   H1038     1.0  0.22510  0.94195  0.49817  1.0000
  C   C608      1.0  0.24253  0.99349  0.37926  1.0000
  H   H1039     1.0  0.20046  0.93553  0.62395  1.0000
  C   C609      1.0  0.09145  0.79774  0.41232  1.0000
  S   S123      1.0  0.23939  0.88041  0.39966  1.0000
  S   S124      1.0  0.07964  0.51904  0.37459  1.0000
  C   C610      1.0  0.16578  0.75857  0.51367  1.0000
  H   H1040     1.0  0.24110  0.96026  0.49415  1.0000
  N   N33       1.0  0.07146  0.79839  0.42308  1.0000
  H   H1041     1.0  0.05913  0.79615  0.39751  1.0000
  H   H1042     1.0  0.14748  0.71657  0.53545  1.0000
  H   H1043     1.0  0.17890  0.72531  0.50032  1.0000
  H   H1044     1.0  0.19075  0.77862  0.52774  1.0000
  H   H1045     1.0  0.04728  0.64792  0.50774  1.0000
  H   H1046     1.0  0.03795  0.70208  0.48151  1.0000
  H   H1047     1.0  0.19233  0.97314  0.38691  1.0000
  H   H1048     1.0  0.07466  0.66415  0.49506  1.0000
  C   C611      1.0  0.07284  0.78705  0.44269  1.0000
  C   C612      1.0  0.15588  0.72886  0.53462  1.0000
  H   H1049     1.0  0.14742  0.77920  0.53074  1.0000
  H   H1050     1.0  0.14687  0.59447  0.39246  1.0000
  C   C613      1.0  0.16186  0.77103  0.53037  1.0000
  C   C614      1.0  0.23803  0.93820  0.61009  1.0000
  C   C615      1.0  0.07174  0.66697  0.52504  1.0000
  H   H1051     1.0  0.23305  0.96591  0.43582  1.0000
  H   H1052     1.0  0.07750  0.77152  0.44129  1.0000
  H   H1053     1.0  0.03050  0.80088  0.42058  1.0000
  H   H1054     1.0  0.03464  0.51786  0.38951  1.0000
  H   H1055     1.0  0.08144  0.77114  0.47883  1.0000
  H   H1056     1.0  0.17258  0.79475  0.53973  1.0000
  H   H1057     1.0  0.04465  0.73206  0.58026  1.0000
  H   H1058     1.0  0.15873  0.97054  0.47301  1.0000
  H   H1059     1.0  0.03142  0.61598  0.39195  1.0000
  H   H1060     1.0  0.01558  0.52557  0.37505  1.0000
  C   C616      1.0  0.14440  0.98983  0.41830  1.0000
  N   N34       1.0  0.22831  0.93900  0.63043  1.0000
  H   H1061     1.0  0.23322  0.94270  0.40479  1.0000
  C   C617      1.0  0.17620  0.72022  0.53903  1.0000
  H   H1062     1.0  0.18258  0.70941  0.52927  1.0000
  H   H1063     1.0  0.17482  0.79559  0.51392  1.0000
  H   H1064     1.0  0.03612  0.66676  0.52078  1.0000
  H   H1065     1.0  0.16339  0.76221  0.54443  1.0000
  H   H1066     1.0  0.18568  0.73163  0.53749  1.0000
  H   H1067     1.0  0.20893  0.91264  0.66242  1.0000
  H   H1068     1.0  0.02353  0.73175  0.49937  1.0000
  H   H1069     1.0  0.05392  0.70434  0.66251  1.0000
  H   H1070     1.0  0.02408  0.73209  0.59733  1.0000
  C   C618      1.0  0.00641  0.75098  0.66170  1.0000
  H   H1071     1.0  0.05330  0.65336  0.47280  1.0000
  C   C619      1.0  0.24179  0.92862  0.64416  1.0000
  C   C620      1.0  0.14783  0.51688  0.34463  1.0000
  H   H1072     1.0  0.03210  0.69579  0.59970  1.0000
  H   H1073     1.0  0.02274  0.64354  0.66744  1.0000
  H   H1074     1.0  0.21568  0.93354  0.59386  1.0000
  H   H1075     1.0  0.22649  0.95197  0.56331  1.0000
  H   H1076     1.0  0.13037  0.61444  0.67179  1.0000
  H   H1077     1.0  0.20322  0.98470  0.42443  1.0000
  H   H1078     1.0  0.03376  0.55699  0.65916  1.0000
  H   H1079     1.0  0.04446  0.67510  0.42225  1.0000
  C   C621      1.0  0.03415  0.69700  0.58375  1.0000
  H   H1080     1.0  0.01289  0.74533  0.46868  1.0000
  H   H1081     1.0  0.23742  0.94582  0.51729  1.0000
  H   H1082     1.0  0.00904  0.76342  0.59951  1.0000
  S   S125      1.0  0.10114  0.60075  0.34412  1.0000
  H   H1083     1.0  0.19899  0.93773  0.66107  1.0000
  H   H1084     1.0  0.07275  0.69046  0.64881  1.0000
  C   C622      1.0  0.03684  0.67279  0.45320  1.0000
  H   H1085     1.0  0.01209  0.65010  0.39658  1.0000
  C   C623      1.0  0.24867  0.87885  0.62558  1.0000
  H   H1086     1.0  0.24861  0.97185  0.62540  1.0000
  H   H1087     1.0  0.01520  0.77257  0.41630  1.0000
  H   H1088     1.0  0.24900  0.00435  0.54961  1.0000
  H   H1089     1.0  0.01057  0.64563  0.35232  1.0000
  H   H1090     1.0  0.03562  0.53237  0.34032  1.0000
  H   H1091     1.0  0.18177  0.90583  0.64677  1.0000
  C   C624      1.0  0.01195  0.73042  0.63652  1.0000
  C   C625      1.0  0.18088  0.91888  0.65403  1.0000
  C   C626      1.0  0.12194  0.62508  0.66287  1.0000
  C   C627      1.0  0.10237  0.62437  0.66387  1.0000
  H   H1092     1.0  0.24410  0.98507  0.36706  1.0000
  H   H1093     1.0  0.10465  0.67257  0.67053  1.0000
  H   H1094     1.0  0.01204  0.50855  0.39664  1.0000
  N   N35       1.0  0.00941  0.61979  0.37320  1.0000
  C   C628      1.0  0.00181  0.66107  0.50963  1.0000
  H   H1095     1.0  0.00760  0.72707  0.52138  1.0000
  H   H1096     1.0  0.00843  0.65737  0.52303  1.0000
  H   H1097     1.0  0.01427  0.69759  0.48173  1.0000
  H   H1098     1.0  0.13884  0.67488  0.66818  1.0000
  H   H1099     1.0  0.23588  0.85899  0.67155  1.0000
  H   H1100     1.0  0.24889  0.95365  0.37320  1.0000
  H   H1101     1.0  0.05382  0.55835  0.34384  1.0000
  C   C629      1.0  0.00625  0.63098  0.35384  1.0000
  C   C630      1.0  0.00870  0.58491  0.39114  1.0000
  H   H1102     1.0  0.00512  0.62233  0.64097  1.0000
  H   H1103     1.0  0.24646  0.91908  0.38121  1.0000
  H   H1104     1.0  0.24487  0.92672  0.35611  1.0000
  H   H1105     1.0  0.00817  0.66657  0.47935  1.0000
  H   H1106     1.0  0.23226  0.00655  0.37606  1.0000
  C   C631      1.0  0.00395  0.73024  0.44798  1.0000
  H   H1107     1.0  0.24274  0.82805  0.62121  1.0000
  H   H1108     1.0  0.25160  0.84633  0.42513  1.0000
  C   C632      1.0  0.02210  0.55853  0.67131  1.0000
  Fe  Fe62      1.0  0.12920  0.55792  0.72536  1.0000
  S   S126      1.0  0.14903  0.55585  0.74758  1.0000
  H   H1109     1.0  0.18023  0.59342  0.87228  1.0000
  Fe  Fe63      1.0  0.10301  0.52999  0.88179  1.0000
  H   H1110     1.0  0.01197  0.53407  0.77394  1.0000
  H   H1111     1.0  0.10160  0.62787  0.72499  1.0000
  Fe  Fe64      1.0  0.14003  0.54306  0.89016  1.0000
  S   S127      1.0  0.15331  0.54442  0.85941  1.0000
  S   S128      1.0  0.15539  0.54948  0.91387  1.0000
  Fe  Fe65      1.0  0.12428  0.55787  0.85262  1.0000
  S   S129      1.0  0.11883  0.58239  0.82924  1.0000
  H   H1112     1.0  0.16851  0.60000  0.93672  1.0000
  C   C633      1.0  0.06927  0.58524  0.81447  1.0000
  S   S130      1.0  0.11153  0.55905  0.88346  1.0000
  H   H1113     1.0  0.16611  0.51118  0.73259  1.0000
  S   S131      1.0  0.11393  0.52999  0.85052  1.0000
  H   H1114     1.0  0.13509  0.61605  0.90027  1.0000
  N   N36       1.0  0.06563  0.53182  0.80659  1.0000
  H   H1115     1.0  0.06347  0.56090  0.79107  1.0000
  C   C634      1.0  0.17979  0.55287  0.91138  1.0000
  C   C635      1.0  0.18761  0.55558  0.92765  1.0000
  C   C636      1.0  0.20666  0.55932  0.92615  1.0000
  C   C637      1.0  0.21795  0.56078  0.90824  1.0000
  C   C638      1.0  0.21013  0.55813  0.89195  1.0000
  C   C639      1.0  0.19130  0.55375  0.89356  1.0000
  H   H1116     1.0  0.17886  0.55488  0.94152  1.0000
  H   H1117     1.0  0.21249  0.56138  0.93880  1.0000
  H   H1118     1.0  0.21874  0.55937  0.87805  1.0000
  H   H1119     1.0  0.18561  0.55129  0.88101  1.0000
  C   C640      1.0  0.01975  0.55088  0.87172  1.0000
  H   H1120     1.0  0.03522  0.59961  0.70072  1.0000
  C   C641      1.0  0.05412  0.54853  0.87224  1.0000
  C   C642      1.0  0.05362  0.53158  0.88517  1.0000
  H   H1121     1.0  0.00888  0.53070  0.79978  1.0000
  C   C643      1.0  0.01922  0.53393  0.88471  1.0000
  S   S132      1.0  0.24905  0.54171  0.00305  1.0000
  H   H1122     1.0  0.09578  0.60513  0.86056  1.0000
  C   C644      1.0  0.09955  0.62002  0.85951  1.0000
  C   C645      1.0  0.11538  0.62027  0.87171  1.0000
  C   C646      1.0  0.13948  0.56282  0.77020  1.0000
  C   C647      1.0  0.14711  0.55303  0.78654  1.0000
  C   C648      1.0  0.14038  0.55868  0.80472  1.0000
  C   C649      1.0  0.12652  0.57467  0.80657  1.0000
  C   C650      1.0  0.11887  0.58454  0.79025  1.0000
  C   C651      1.0  0.12508  0.57839  0.77212  1.0000
  H   H1123     1.0  0.15826  0.54099  0.78512  1.0000
  H   H1124     1.0  0.14633  0.55093  0.81720  1.0000
  H   H1125     1.0  0.10821  0.59697  0.79161  1.0000
  H   H1126     1.0  0.11930  0.58612  0.75952  1.0000
  C   C652      1.0  0.03194  0.53045  0.73388  1.0000
  C   C653      1.0  0.11625  0.69474  0.68173  1.0000
  C   C654      1.0  0.06183  0.55360  0.80616  1.0000
  H   H1127     1.0  0.05154  0.63850  0.71990  1.0000
  H   H1128     1.0  0.15288  0.63456  0.85273  1.0000
  H   H1129     1.0  0.11823  0.63543  0.87091  1.0000
  H   H1130     1.0  0.00348  0.60930  0.70499  1.0000
  H   H1131     1.0  0.08924  0.55948  0.81392  1.0000
  H   H1132     1.0  0.04673  0.55802  0.81216  1.0000
  H   H1133     1.0  0.03935  0.61744  0.72680  1.0000
  H   H1134     1.0  0.17520  0.65887  0.87545  1.0000
  C   C655      1.0  0.18207  0.65190  0.86266  1.0000
  C   C656      1.0  0.03929  0.62979  0.69687  1.0000
  H   H1135     1.0  0.07317  0.59077  0.79911  1.0000
  C   C657      1.0  0.14665  0.60501  0.89505  1.0000
  H   H1136     1.0  0.17091  0.60699  0.83687  1.0000
  H   H1137     1.0  0.06986  0.67483  0.71644  1.0000
  H   H1138     1.0  0.10741  0.65304  0.69764  1.0000
  C   C658      1.0  0.23013  0.51762  0.86317  1.0000
  H   H1139     1.0  0.15912  0.58580  0.84013  1.0000
  H   H1140     1.0  0.18546  0.62333  0.87795  1.0000
  H   H1141     1.0  0.02547  0.63867  0.70055  1.0000
  Fe  Fe66      1.0  0.12706  0.53976  0.68967  1.0000
  H   H1142     1.0  0.14106  0.59079  0.89928  1.0000
  C   C659      1.0  0.10134  0.52775  0.79159  1.0000
  C   C660      1.0  0.16292  0.60542  0.90706  1.0000
  C   C661      1.0  0.01419  0.54180  0.73336  1.0000
  H   H1143     1.0  0.10977  0.61503  0.88674  1.0000
  H   H1144     1.0  0.03646  0.52747  0.81728  1.0000
  H   H1145     1.0  0.18672  0.62428  0.85260  1.0000
  H   H1146     1.0  0.05388  0.58977  0.81892  1.0000
  C   C662      1.0  0.11436  0.52172  0.77383  1.0000
  C   C663      1.0  0.07375  0.56325  0.81773  1.0000
  H   H1147     1.0  0.05657  0.70863  0.69356  1.0000
  H   H1148     1.0  0.16702  0.62019  0.90531  1.0000
  H   H1149     1.0  0.08137  0.64304  0.73540  1.0000
  C   C664      1.0  0.03334  0.60958  0.77249  1.0000
  C   C665      1.0  0.24988  0.50948  0.90059  1.0000
  H   H1150     1.0  0.14924  0.63886  0.87696  1.0000
  H   H1151     1.0  0.04722  0.52926  0.77336  1.0000
  H   H1152     1.0  0.08477  0.52724  0.82816  1.0000
  H   H1153     1.0  0.13623  0.61057  0.84886  1.0000
  H   H1154     1.0  0.17560  0.59510  0.90301  1.0000
  H   H1155     1.0  0.13033  0.59198  0.86753  1.0000
  H   H1156     1.0  0.16231  0.57853  0.87362  1.0000
  H   H1157     1.0  0.07026  0.55868  0.83332  1.0000
  H   H1158     1.0  0.21315  0.52014  0.92155  1.0000
  C   C666      1.0  0.17057  0.59230  0.84492  1.0000
  C   C667      1.0  0.16655  0.59285  0.86698  1.0000
  C   C668      1.0  0.22362  0.53082  0.84564  1.0000
  C   C669      1.0  0.17881  0.63070  0.86530  1.0000
  H   H1159     1.0  0.22039  0.52205  0.87590  1.0000
  H   H1160     1.0  0.03578  0.54975  0.78484  1.0000
  H   H1161     1.0  0.07567  0.71756  0.67740  1.0000
  C   C670      1.0  0.07137  0.52243  0.82572  1.0000
  H   H1162     1.0  0.10345  0.54277  0.79245  1.0000
  H   H1163     1.0  0.05524  0.74074  0.70635  1.0000
  C   C671      1.0  0.18949  0.58007  0.83926  1.0000
  H   H1164     1.0  0.03308  0.51504  0.73374  1.0000
  H   H1165     1.0  0.02783  0.58560  0.73520  1.0000
  H   H1166     1.0  0.03807  0.57296  0.68657  1.0000
  H   H1167     1.0  0.07766  0.59174  0.82321  1.0000
  S   S133      1.0  0.24171  0.56623  0.90549  1.0000
  H   H1168     1.0  0.06748  0.55438  0.86767  1.0000
  S   S134      1.0  0.13619  0.56796  0.69377  1.0000
  H   H1169     1.0  0.06261  0.61562  0.71265  1.0000
  C   C672      1.0  0.15720  0.62866  0.86711  1.0000
  C   C673      1.0  0.08388  0.67504  0.70713  1.0000
  C   C674      1.0  0.07793  0.71644  0.70771  1.0000
  C   C675      1.0  0.07096  0.73807  0.70629  1.0000
  H   H1170     1.0  0.19166  0.57962  0.82350  1.0000
  N   N37       1.0  0.02038  0.61316  0.67683  1.0000
  H   H1171     1.0  0.01817  0.52158  0.84703  1.0000
  H   H1172     1.0  0.04032  0.60645  0.78576  1.0000
  H   H1173     1.0  0.07791  0.74582  0.69285  1.0000
  C   C676      1.0  0.01560  0.59924  0.77489  1.0000
  Fe  Fe67      1.0  0.10497  0.57939  0.69518  1.0000
  S   S135      1.0  0.07034  0.52507  0.73504  1.0000
  H   H1174     1.0  0.07694  0.53539  0.77633  1.0000
  C   C677      1.0  0.02897  0.57024  0.73482  1.0000
  C   C678      1.0  0.09538  0.64309  0.72620  1.0000
  H   H1175     1.0  0.02313  0.54510  0.68167  1.0000
  S   S136      1.0  0.09647  0.55185  0.68849  1.0000
  C   C679      1.0  0.02388  0.57573  0.68139  1.0000
  C   C680      1.0  0.09303  0.65375  0.70616  1.0000
  C   C681      1.0  0.08025  0.52632  0.78995  1.0000
  H   H1176     1.0  0.09350  0.71452  0.70807  1.0000
  C   C682      1.0  0.03725  0.55812  0.86553  1.0000
  H   H1177     1.0  0.10625  0.51818  0.80423  1.0000
  H   H1178     1.0  0.04374  0.60444  0.76047  1.0000
  S   S137      1.0  0.09869  0.57147  0.72738  1.0000
  N   N38       1.0  0.08119  0.68716  0.68807  1.0000
  C   C683      1.0  0.06730  0.67816  0.67912  1.0000
  H   H1179     1.0  0.02054  0.58348  0.77661  1.0000
  C   C684      1.0  0.04824  0.53913  0.73431  1.0000
  C   C685      1.0  0.04676  0.55902  0.73471  1.0000
  S   S138      1.0  0.07460  0.51920  0.89373  1.0000
  H   H1180     1.0  0.08662  0.62952  0.86475  1.0000
  C   C686      1.0  0.13373  0.60712  0.86479  1.0000
  H   H1181     1.0  0.05928  0.56572  0.73522  1.0000
  H   H1182     1.0  0.14450  0.61082  0.93370  1.0000
  H   H1183     1.0  0.12952  0.52144  0.77582  1.0000
  H   H1184     1.0  0.15172  0.58556  0.93138  1.0000
  H   H1185     1.0  0.00577  0.52841  0.88981  1.0000
  H   H1186     1.0  0.11860  0.68784  0.69637  1.0000
  S   S139      1.0  0.12285  0.52893  0.72084  1.0000
  H   H1187     1.0  0.05428  0.67594  0.68962  1.0000
  C   C687      1.0  0.25094  0.51966  0.86538  1.0000
  C   C688      1.0  0.15644  0.60014  0.92850  1.0000
  H   H1188     1.0  0.18938  0.56505  0.84658  1.0000
  Fe  Fe68      1.0  0.09300  0.54307  0.72030  1.0000
  H   H1189     1.0  0.20158  0.58632  0.84311  1.0000
  H   H1190     1.0  0.17621  0.65980  0.84965  1.0000
  H   H1191     1.0  0.09290  0.68145  0.71524  1.0000
  H   H1192     1.0  0.03774  0.57133  0.85566  1.0000
  H   H1193     1.0  0.23230  0.52657  0.83222  1.0000
  H   H1194     1.0  0.19762  0.65293  0.86088  1.0000
  C   C689      1.0  0.04883  0.62498  0.71516  1.0000
  H   H1195     1.0  0.11326  0.71063  0.68154  1.0000
  H   H1196     1.0  0.22488  0.54612  0.84667  1.0000
  H   H1197     1.0  0.10412  0.62527  0.84419  1.0000
  C   C690      1.0  0.07245  0.70759  0.69087  1.0000
  H   H1198     1.0  0.03559  0.51140  0.90167  1.0000
  N   N39       1.0  0.15144  0.60866  0.87345  1.0000
  H   H1199     1.0  0.07458  0.74404  0.71871  1.0000
  H   H1200     1.0  0.07110  0.70945  0.72161  1.0000
  H   H1201     1.0  0.06047  0.52725  0.83762  1.0000
  H   H1202     1.0  0.10517  0.64993  0.73310  1.0000
  H   H1203     1.0  0.08409  0.64558  0.69970  1.0000
  H   H1204     1.0  0.24826  0.58316  0.99999  1.0000
  C   C691      1.0  0.00594  0.51332  0.84793  1.0000
  C   C692      1.0  0.03612  0.52433  0.89141  1.0000
  S   S140      1.0  0.09036  0.60742  0.68050  1.0000
  Fe  Fe69      1.0  0.14168  0.51653  0.86030  1.0000
  H   H1205     1.0  0.20844  0.52958  0.84486  1.0000
  H   H1206     1.0  0.00937  0.59828  0.80517  1.0000
  H   H1207     1.0  0.25046  0.53487  0.86810  1.0000
  S   S141      1.0  0.13016  0.51397  0.89156  1.0000
  C   C693      1.0  0.03798  0.53376  0.78630  1.0000
  H   H1208     1.0  0.22327  0.51006  0.98712  1.0000
  C   C694      1.0  0.01276  0.56166  0.73399  1.0000
  H   H1209     1.0  0.02948  0.62543  0.76918  1.0000
  H   H1210     1.0  0.24457  0.52510  0.90069  1.0000
  C   C695      1.0  0.04716  0.52478  0.80454  1.0000
  C   C696      1.0  0.03677  0.61132  0.68845  1.0000
  H   H1211     1.0  0.01278  0.57618  0.69405  1.0000
  C   C697      1.0  0.01858  0.52691  0.78676  1.0000
  C   C698      1.0  0.00194  0.61658  0.69015  1.0000
  H   H1212     1.0  0.07809  0.51470  0.69317  1.0000
  H   H1213     1.0  0.04834  0.63877  0.68603  1.0000
  H   H1214     1.0  0.11142  0.53231  0.76110  1.0000
  H   H1215     1.0  0.05051  0.60674  0.67963  1.0000
  H   H1216     1.0  0.00902  0.60291  0.76147  1.0000
  H   H1217     1.0  0.07359  0.66368  0.67544  1.0000
  H   H1218     1.0  0.02020  0.51104  0.78660  1.0000
  H   H1219     1.0  0.07948  0.51128  0.78738  1.0000
  H   H1220     1.0  0.18823  0.50821  0.89867  1.0000
  H   H1221     1.0  0.04920  0.50891  0.80414  1.0000
  H   H1222     1.0  0.14666  0.69612  0.67418  1.0000
  C   C699      1.0  0.09964  0.68724  0.67455  1.0000
  Fe  Fe70      1.0  0.45019  0.14739  0.10495  1.0000
  S   S142      1.0  0.44371  0.11908  0.09837  1.0000
  Fe  Fe71      1.0  0.40938  0.16094  0.11984  1.0000
  S   S143      1.0  0.39911  0.13377  0.11484  1.0000
  S   S144      1.0  0.39000  0.18688  0.12946  1.0000
  Fe  Fe72      1.0  0.42527  0.11846  0.12735  1.0000
  S   S145      1.0  0.42440  0.09088  0.14857  1.0000
  Fe  Fe73      1.0  0.41823  0.13676  0.08654  1.0000
  S   S146      1.0  0.40699  0.13953  0.05798  1.0000
  S   S147      1.0  0.43396  0.14556  0.13456  1.0000
  S   S148      1.0  0.42649  0.16496  0.09093  1.0000
  Fe  Fe74      1.0  0.44565  0.32284  0.12198  1.0000
  S   S149      1.0  0.44438  0.30153  0.10191  1.0000
  S   S150      1.0  0.47293  0.33641  0.12046  1.0000
  Fe  Fe75      1.0  0.40251  0.32419  0.13654  1.0000
  S   S151      1.0  0.39849  0.30192  0.11849  1.0000
  S   S152      1.0  0.37704  0.33954  0.15384  1.0000
  Fe  Fe76      1.0  0.42638  0.28664  0.12692  1.0000
  S   S153      1.0  0.43619  0.25504  0.13482  1.0000
  Fe  Fe77      1.0  0.41674  0.31892  0.09559  1.0000
  S   S154      1.0  0.40771  0.32912  0.06661  1.0000
  S   S155      1.0  0.42893  0.30725  0.14747  1.0000
  S   S156      1.0  0.41948  0.34186  0.11315  1.0000
  Fe  Fe78      1.0  0.43262  0.06522  0.26129  1.0000
  S   S157      1.0  0.42747  0.07460  0.29086  1.0000
  S   S158      1.0  0.43173  0.09024  0.23693  1.0000
  S   S159      1.0  0.44122  0.02968  0.30768  1.0000
  Fe  Fe79      1.0  0.41395  0.04748  0.30076  1.0000
  H   H1223     1.0  0.47381  0.29479  0.05294  1.0000
  Fe  Fe80      1.0  0.45500  0.05609  0.29552  1.0000
  S   S160      1.0  0.41644  0.03940  0.27071  1.0000
  S   S161      1.0  0.46117  0.04841  0.26561  1.0000
  H   H1224     1.0  0.47249  0.27118  0.19270  1.0000
  Fe  Fe81      1.0  0.27845  0.38420  0.11482  1.0000
  H   H1225     1.0  0.46001  0.05406  0.17308  1.0000
  S   S162      1.0  0.30655  0.36596  0.10661  1.0000
  S   S163      1.0  0.26160  0.39208  0.14263  1.0000
  H   H1226     1.0  0.42667  0.35182  0.02375  1.0000
  H   H1227     1.0  0.48980  0.15740  0.03347  1.0000
  C   C700      1.0  0.47521  0.05455  0.16674  1.0000
  H   H1228     1.0  0.30046  0.42823  0.14086  1.0000
  C   C701      1.0  0.41499  0.13546  0.01977  1.0000
  S   S164      1.0  0.27621  0.41472  0.10018  1.0000
  H   H1229     1.0  0.47184  0.11417  0.23437  1.0000
  H   H1230     1.0  0.44440  0.34144  0.04717  1.0000
  C   C702      1.0  0.45543  0.32023  0.18272  1.0000
  H   H1231     1.0  0.49000  0.33298  0.17855  1.0000
  H   H1232     1.0  0.32011  0.40281  0.17340  1.0000
  H   H1233     1.0  0.45436  0.16185  0.03872  1.0000
  H   H1234     1.0  0.26862  0.44790  0.06523  1.0000
  H   H1235     1.0  0.34129  0.39799  0.10782  1.0000
  H   H1236     1.0  0.46187  0.08554  0.18284  1.0000
  C   C703      1.0  0.38431  0.15157  0.17613  1.0000
  C   C704      1.0  0.28899  0.49743  0.10963  1.0000
  C   C705      1.0  0.29029  0.48023  0.10162  1.0000
  C   C706      1.0  0.28034  0.46511  0.11125  1.0000
  C   C707      1.0  0.26939  0.46699  0.12909  1.0000
  C   C708      1.0  0.26807  0.48422  0.13704  1.0000
  C   C709      1.0  0.27757  0.49954  0.12718  1.0000
  H   H1237     1.0  0.29914  0.47860  0.08805  1.0000
  H   H1238     1.0  0.28148  0.45193  0.10503  1.0000
  H   H1239     1.0  0.36726  0.42134  0.15401  1.0000
  C   C710      1.0  0.47509  0.11410  0.24919  1.0000
  Fe  Fe82      1.0  0.44481  0.02334  0.27720  1.0000
  H   H1240     1.0  0.43169  0.15607  0.24645  1.0000
  H   H1241     1.0  0.34383  0.42014  0.07693  1.0000
  H   H1242     1.0  0.48552  0.02691  0.30820  1.0000
  C   C711      1.0  0.35732  0.34717  0.14089  1.0000
  C   C712      1.0  0.35913  0.34576  0.12125  1.0000
  C   C713      1.0  0.34343  0.35163  0.11107  1.0000
  C   C714      1.0  0.32576  0.35921  0.12030  1.0000
  C   C715      1.0  0.32391  0.36095  0.13992  1.0000
  C   C716      1.0  0.33964  0.35484  0.15020  1.0000
  H   H1243     1.0  0.37264  0.34003  0.11383  1.0000
  H   H1244     1.0  0.34502  0.35021  0.09592  1.0000
  H   H1245     1.0  0.31030  0.36654  0.14723  1.0000
  H   H1246     1.0  0.33805  0.35584  0.16542  1.0000
  C   C717      1.0  0.39977  0.31049  0.05744  1.0000
  C   C718      1.0  0.39054  0.31477  0.04104  1.0000
  H   H1247     1.0  0.40232  0.20608  0.16760  1.0000
  H   H1248     1.0  0.44610  0.27035  0.04144  1.0000
  C   C719      1.0  0.40000  0.27628  0.05627  1.0000
  C   C720      1.0  0.40385  0.29127  0.06549  1.0000
  H   H1249     1.0  0.38722  0.32964  0.03489  1.0000
  C   C721      1.0  0.30987  0.41503  0.16804  1.0000
  H   H1250     1.0  0.40447  0.26149  0.06176  1.0000
  H   H1251     1.0  0.41086  0.28792  0.07826  1.0000
  C   C722      1.0  0.42487  0.09093  0.17343  1.0000
  C   C723      1.0  0.42405  0.07365  0.18611  1.0000
  C   C724      1.0  0.42581  0.07311  0.20574  1.0000
  C   C725      1.0  0.42828  0.08994  0.21280  1.0000
  C   C726      1.0  0.42871  0.10722  0.20017  1.0000
  C   C727      1.0  0.42707  0.10772  0.18062  1.0000
  H   H1252     1.0  0.42225  0.06058  0.18069  1.0000
  H   H1253     1.0  0.42535  0.05970  0.21532  1.0000
  H   H1254     1.0  0.43072  0.12021  0.20549  1.0000
  H   H1255     1.0  0.42792  0.12094  0.17095  1.0000
  C   C728      1.0  0.42042  0.12937  0.03811  1.0000
  C   C729      1.0  0.48742  0.03123  0.20377  1.0000
  C   C730      1.0  0.35078  0.08573  0.31630  1.0000
  H   H1256     1.0  0.48303  0.30213  0.14738  1.0000
  H   H1257     1.0  0.26117  0.48144  0.03456  1.0000
  C   C731      1.0  0.43606  0.11516  0.04023  1.0000
  H   H1258     1.0  0.44144  0.34529  0.15242  1.0000
  C   C732      1.0  0.46283  0.15293  0.04949  1.0000
  H   H1259     1.0  0.43102  0.34536  0.21942  1.0000
  H   H1260     1.0  0.44009  0.11005  0.05436  1.0000
  C   C733      1.0  0.42307  0.23723  0.13072  1.0000
  C   C734      1.0  0.43275  0.21888  0.12810  1.0000
  C   C735      1.0  0.42264  0.20362  0.12692  1.0000
  C   C736      1.0  0.40272  0.20649  0.12887  1.0000
  C   C737      1.0  0.39299  0.22493  0.13113  1.0000
  C   C738      1.0  0.40318  0.24038  0.13179  1.0000
  H   H1261     1.0  0.44814  0.21639  0.12723  1.0000
  H   H1262     1.0  0.43027  0.18950  0.12499  1.0000
  H   H1263     1.0  0.37757  0.22718  0.13278  1.0000
  H   H1264     1.0  0.39563  0.25448  0.13399  1.0000
  C   C739      1.0  0.41234  0.19608  0.19565  1.0000
  H   H1265     1.0  0.31071  0.40392  0.14155  1.0000
  N   N40       1.0  0.42422  0.17812  0.18922  1.0000
  H   H1266     1.0  0.43537  0.13424  0.23508  1.0000
  H   H1267     1.0  0.46588  0.16254  0.18229  1.0000
  H   H1268     1.0  0.41346  0.14021  0.25027  1.0000
  H   H1269     1.0  0.27548  0.42892  0.01854  1.0000
  C   C740      1.0  0.49472  0.32542  0.12847  1.0000
  C   C741      1.0  0.49738  0.03229  0.31261  1.0000
  N   N41       1.0  0.38040  0.21470  0.06848  1.0000
  C   C742      1.0  0.36965  0.22021  0.05133  1.0000
  C   C743      1.0  0.37282  0.22805  0.08349  1.0000
  C   C744      1.0  0.40116  0.21708  0.06178  1.0000
  C   C745      1.0  0.37949  0.19384  0.07679  1.0000
  C   C746      1.0  0.35948  0.18801  0.08465  1.0000
  Fe  Fe83      1.0  0.25737  0.42215  0.12688  1.0000
  C   C747      1.0  0.41381  0.21733  0.07772  1.0000
  C   C748      1.0  0.35121  0.23580  0.08545  1.0000
  C   C749      1.0  0.34509  0.24550  0.10366  1.0000
  C   C750      1.0  0.36051  0.16635  0.09137  1.0000
  H   H1270     1.0  0.47866  0.34792  0.08008  1.0000
  C   C751      1.0  0.43484  0.21702  0.06940  1.0000
  C   C752      1.0  0.49566  0.30906  0.14224  1.0000
  H   H1271     1.0  0.35448  0.21791  0.05510  1.0000
  H   H1272     1.0  0.37645  0.22104  0.09783  1.0000
  H   H1273     1.0  0.37989  0.24145  0.08025  1.0000
  H   H1274     1.0  0.40237  0.23077  0.05193  1.0000
  H   H1275     1.0  0.40808  0.20531  0.05325  1.0000
  H   H1276     1.0  0.38645  0.18402  0.06615  1.0000
  H   H1277     1.0  0.38796  0.18995  0.08897  1.0000
  H   H1278     1.0  0.34967  0.19143  0.07361  1.0000
  H   H1279     1.0  0.35343  0.19534  0.09740  1.0000
  C   C753      1.0  0.32002  0.46072  0.13809  1.0000
  H   H1280     1.0  0.37829  0.19395  0.03706  1.0000
  H   H1281     1.0  0.41249  0.20478  0.08888  1.0000
  H   H1282     1.0  0.40974  0.23053  0.08493  1.0000
  H   H1283     1.0  0.34828  0.24685  0.07300  1.0000
  H   H1284     1.0  0.34203  0.22440  0.08586  1.0000
  H   H1285     1.0  0.32984  0.25171  0.10431  1.0000
  H   H1286     1.0  0.34680  0.23479  0.11663  1.0000
  H   H1287     1.0  0.35375  0.25736  0.10372  1.0000
  H   H1288     1.0  0.36743  0.15788  0.07961  1.0000
  H   H1289     1.0  0.36867  0.16255  0.10379  1.0000
  H   H1290     1.0  0.34591  0.16235  0.09605  1.0000
  H   H1291     1.0  0.33610  0.44131  0.15769  1.0000
  C   C754      1.0  0.43033  0.34175  0.01277  1.0000
  H   H1292     1.0  0.45368  0.35148  0.07731  1.0000
  H   H1293     1.0  0.44343  0.21742  0.08111  1.0000
  H   H1294     1.0  0.44006  0.20359  0.06278  1.0000
  H   H1295     1.0  0.43692  0.22979  0.05845  1.0000
  H   H1296     1.0  0.48361  0.30304  0.18487  1.0000
  H   H1297     1.0  0.46509  0.12137  0.18807  1.0000
  C   C755      1.0  0.48120  0.05327  0.20015  1.0000
  C   C756      1.0  0.26696  0.46779  0.02844  1.0000
  H   H1298     1.0  0.46137  0.11477  0.25896  1.0000
  H   H1299     1.0  0.28807  0.49881  0.01851  1.0000
  H   H1300     1.0  0.47296  0.37586  0.17168  1.0000
  H   H1301     1.0  0.31791  0.43812  0.11128  1.0000
  H   H1302     1.0  0.43734  0.19263  0.16251  1.0000
  C   C757      1.0  0.28486  0.45942  0.03848  1.0000
  H   H1303     1.0  0.46555  0.05594  0.20499  1.0000
  C   C758      1.0  0.33021  0.41455  0.08330  1.0000
  C   C759      1.0  0.32971  0.35850  0.01015  1.0000
  C   C760      1.0  0.47211  0.33526  0.05624  1.0000
  S   S165      1.0  0.25760  0.44794  0.14203  1.0000
  H   H1304     1.0  0.45761  0.09555  0.02586  1.0000
  C   C761      1.0  0.46614  0.29077  0.04204  1.0000
  C   C762      1.0  0.45447  0.27465  0.05174  1.0000
  H   H1305     1.0  0.32022  0.46505  0.12242  1.0000
  H   H1306     1.0  0.46349  0.28345  0.17120  1.0000
  C   C763      1.0  0.33502  0.44293  0.14212  1.0000
  H   H1307     1.0  0.44769  0.30263  0.02125  1.0000
  H   H1308     1.0  0.47754  0.09145  0.20857  1.0000
  H   H1309     1.0  0.35045  0.21243  0.02223  1.0000
  C   C764      1.0  0.44605  0.10705  0.02408  1.0000
  H   H1310     1.0  0.37974  0.30321  0.01903  1.0000
  H   H1311     1.0  0.47701  0.25051  0.13062  1.0000
  H   H1312     1.0  0.42227  0.38563  0.16068  1.0000
  H   H1313     1.0  0.45360  0.36617  0.15063  1.0000
  H   H1314     1.0  0.25992  0.48569  0.15097  1.0000
  C   C765      1.0  0.44152  0.35878  0.15858  1.0000
  C   C766      1.0  0.48060  0.11708  0.18849  1.0000
  H   H1315     1.0  0.42257  0.37493  0.13908  1.0000
  S   S166      1.0  0.25275  0.37744  0.10356  1.0000
  H   H1316     1.0  0.49513  0.13956  0.06549  1.0000
  H   H1317     1.0  0.34836  0.07312  0.30970  1.0000
  H   H1318     1.0  0.48076  0.09214  0.16520  1.0000
  H   H1319     1.0  0.46682  0.06232  0.11864  1.0000
  H   H1320     1.0  0.32027  0.38117  0.03928  1.0000
  H   H1321     1.0  0.35186  0.09827  0.30490  1.0000
  N   N42       1.0  0.45947  0.33978  0.18610  1.0000
  H   H1322     1.0  0.45087  0.34819  0.24469  1.0000
  S   S167      1.0  0.39124  0.26239  0.02504  1.0000
  H   H1323     1.0  0.48514  0.10015  0.03846  1.0000
  H   H1324     1.0  0.48521  0.12464  0.19930  1.0000
  H   H1325     1.0  0.46143  0.35515  0.03301  1.0000
  C   C767      1.0  0.49341  0.14460  0.11406  1.0000
  C   C768      1.0  0.33451  0.09061  0.33210  1.0000
  H   H1326     1.0  0.40274  0.14623  0.01807  1.0000
  H   H1327     1.0  0.45463  0.14108  0.05675  1.0000
  H   H1328     1.0  0.31582  0.40375  0.11050  1.0000
  C   C769      1.0  0.47111  0.17474  0.15283  1.0000
  H   H1329     1.0  0.46765  0.30155  0.20697  1.0000
  H   H1330     1.0  0.33869  0.48199  0.14019  1.0000
  H   H1331     1.0  0.45264  0.05083  0.13908  1.0000
  C   C770      1.0  0.48790  0.09565  0.25542  1.0000
  H   H1332     1.0  0.36930  0.23598  0.04661  1.0000
  H   H1333     1.0  0.27514  0.47173  0.06516  1.0000
  H   H1334     1.0  0.29280  0.45085  0.06712  1.0000
  C   C771      1.0  0.28337  0.33479  0.01412  1.0000
  H   H1335     1.0  0.44457  0.27949  0.06421  1.0000
  C   C772      1.0  0.46115  0.34026  0.20692  1.0000
  H   H1336     1.0  0.41050  0.36435  0.16139  1.0000
  H   H1337     1.0  0.48816  0.05962  0.21029  1.0000
  H   H1338     1.0  0.45119  0.15545  0.16678  1.0000
  H   H1339     1.0  0.36853  0.15289  0.17944  1.0000
  H   H1340     1.0  0.38815  0.15275  0.16028  1.0000
  H   H1341     1.0  0.37789  0.22091  0.19175  1.0000
  H   H1342     1.0  0.47034  0.36538  0.06115  1.0000
  H   H1343     1.0  0.39033  0.13709  0.18265  1.0000
  C   C773      1.0  0.45735  0.16781  0.17028  1.0000
  C   C774      1.0  0.39126  0.22743  0.18641  1.0000
  C   C775      1.0  0.31265  0.41797  0.14583  1.0000
  C   C776      1.0  0.41370  0.16710  0.17834  1.0000
  H   H1344     1.0  0.39209  0.21360  0.02755  1.0000
  H   H1345     1.0  0.44052  0.15243  0.20215  1.0000
  C   C777      1.0  0.27997  0.45735  0.06032  1.0000
  H   H1346     1.0  0.44009  0.17340  0.21345  1.0000
  H   H1347     1.0  0.41972  0.21968  0.17305  1.0000
  C   C778      1.0  0.39182  0.16750  0.18421  1.0000
  H   H1348     1.0  0.38761  0.16563  0.19993  1.0000
  N   N43       1.0  0.31208  0.35039  0.02085  1.0000
  H   H1349     1.0  0.48461  0.11987  0.06105  1.0000
  C   C779      1.0  0.31764  0.33233  0.03434  1.0000
  C   C780      1.0  0.47808  0.34393  0.17417  1.0000
  C   C781      1.0  0.29881  0.36501  0.03161  1.0000
  C   C782      1.0  0.30743  0.37443  0.04609  1.0000
  H   H1350     1.0  0.47198  0.27651  0.12643  1.0000
  C   C783      1.0  0.33627  0.33133  0.04352  1.0000
  C   C784      1.0  0.33833  0.31401  0.05911  1.0000
  C   C785      1.0  0.29300  0.39021  0.05449  1.0000
  C   C786      1.0  0.46839  0.35101  0.06945  1.0000
  H   H1351     1.0  0.30580  0.32978  0.04621  1.0000
  H   H1352     1.0  0.31988  0.31931  0.02668  1.0000
  H   H1353     1.0  0.47761  0.34252  0.15893  1.0000
  N   N44       1.0  0.46229  0.32656  0.02503  1.0000
  H   H1354     1.0  0.29219  0.37667  0.02141  1.0000
  H   H1355     1.0  0.28653  0.35825  0.04011  1.0000
  H   H1356     1.0  0.48172  0.02333  0.19397  1.0000
  H   H1357     1.0  0.31109  0.36351  0.05834  1.0000
  H   H1358     1.0  0.45997  0.32280  0.24516  1.0000
  C   C787      1.0  0.49865  0.08777  0.01310  1.0000
  C   C788      1.0  0.41572  0.15753  0.22224  1.0000
  H   H1359     1.0  0.34888  0.32966  0.03235  1.0000
  H   H1360     1.0  0.33688  0.34445  0.05007  1.0000
  H   H1361     1.0  0.33877  0.30031  0.05303  1.0000
  H   H1362     1.0  0.35185  0.31363  0.06518  1.0000
  H   H1363     1.0  0.32632  0.31517  0.07098  1.0000
  C   C789      1.0  0.42307  0.37176  0.15481  1.0000
  H   H1364     1.0  0.29945  0.39671  0.06486  1.0000
  H   H1365     1.0  0.28865  0.40178  0.04301  1.0000
  H   H1366     1.0  0.32933  0.40128  0.07696  1.0000
  H   H1367     1.0  0.34910  0.44688  0.13476  1.0000
  H   H1368     1.0  0.39557  0.23407  0.19806  1.0000
  H   H1369     1.0  0.34844  0.41162  0.17056  1.0000
  H   H1370     1.0  0.45611  0.09534  0.33484  1.0000
  S   S168      1.0  0.47825  0.15892  0.09910  1.0000
  C   C790      1.0  0.34779  0.40856  0.13989  1.0000
  C   C791      1.0  0.43114  0.16547  0.20653  1.0000
  C   C792      1.0  0.46852  0.30245  0.19116  1.0000
  C   C793      1.0  0.35834  0.40930  0.15732  1.0000
  C   C794      1.0  0.37157  0.39062  0.16165  1.0000
  H   H1371     1.0  0.32356  0.47503  0.16233  1.0000
  H   H1372     1.0  0.34294  0.39406  0.14136  1.0000
  H   H1373     1.0  0.35928  0.40878  0.12735  1.0000
  H   H1374     1.0  0.31803  0.42546  0.07964  1.0000
  N   N45       1.0  0.48564  0.06303  0.17983  1.0000
  H   H1375     1.0  0.48198  0.12705  0.24990  1.0000
  H   H1376     1.0  0.46441  0.02568  0.22718  1.0000
  H   H1377     1.0  0.28640  0.32217  0.02502  1.0000
  H   H1378     1.0  0.40508  0.16923  0.22756  1.0000
  H   H1379     1.0  0.38023  0.39215  0.17294  1.0000
  H   H1380     1.0  0.36308  0.37847  0.16700  1.0000
  H   H1381     1.0  0.38135  0.38711  0.14857  1.0000
  H   H1382     1.0  0.29105  0.44508  0.03445  1.0000
  H   H1383     1.0  0.47712  0.12052  0.11896  1.0000
  H   H1384     1.0  0.46305  0.35506  0.20926  1.0000
  H   H1385     1.0  0.43498  0.33007  0.25226  1.0000
  H   H1386     1.0  0.33864  0.36223  0.02021  1.0000
  H   H1387     1.0  0.42001  0.20262  0.20511  1.0000
  H   H1388     1.0  0.41468  0.18294  0.02215  1.0000
  H   H1389     1.0  0.48002  0.08337  0.25476  1.0000
  H   H1390     1.0  0.40837  0.14721  0.21657  1.0000
  C   C795      1.0  0.42469  0.14639  0.23952  1.0000
  C   C796      1.0  0.47764  0.08408  0.17969  1.0000
  C   C797      1.0  0.46736  0.05385  0.13308  1.0000
  H   H1391     1.0  0.46366  0.17861  0.13987  1.0000
  C   C798      1.0  0.48436  0.36390  0.17487  1.0000
  C   C799      1.0  0.47501  0.06547  0.14608  1.0000
  H   H1392     1.0  0.28773  0.39609  0.17141  1.0000
  H   H1393     1.0  0.39890  0.19266  0.20467  1.0000
  H   H1394     1.0  0.46413  0.26183  0.05702  1.0000
  H   H1395     1.0  0.28014  0.38403  0.06231  1.0000
  H   H1396     1.0  0.48100  0.03929  0.16545  1.0000
  H   H1397     1.0  0.36453  0.08243  0.32231  1.0000
  H   H1398     1.0  0.31160  0.42827  0.17390  1.0000
  S   S169      1.0  0.47649  0.06820  0.30892  1.0000
  H   H1399     1.0  0.42933  0.35003  0.18764  1.0000
  H   H1400     1.0  0.38839  0.23899  0.17438  1.0000
  H   H1401     1.0  0.42329  0.32867  0.01824  1.0000
  H   H1402     1.0  0.28821  0.40803  0.19200  1.0000
  H   H1403     1.0  0.48742  0.33421  0.05041  1.0000
  H   H1404     1.0  0.44035  0.31803  0.18819  1.0000
  H   H1405     1.0  0.48944  0.06870  0.13948  1.0000
  C   C800      1.0  0.44318  0.35464  0.18039  1.0000
  H   H1406     1.0  0.44012  0.32021  0.21989  1.0000
  C   C801      1.0  0.39181  0.28058  0.03919  1.0000
  H   H1407     1.0  0.38431  0.18153  0.17836  1.0000
  H   H1408     1.0  0.42017  0.15176  0.17923  1.0000
  H   H1409     1.0  0.34333  0.43448  0.10710  1.0000
  H   H1410     1.0  0.46551  0.07937  0.14634  1.0000
  C   C802      1.0  0.46270  0.28365  0.18691  1.0000
  H   H1411     1.0  0.48286  0.16297  0.14997  1.0000
  H   H1412     1.0  0.44050  0.31144  0.04352  1.0000
  C   C803      1.0  0.48222  0.14485  0.03956  1.0000
  H   H1413     1.0  0.44849  0.19439  0.18275  1.0000
  C   C804      1.0  0.33061  0.42773  0.11467  1.0000
  C   C805      1.0  0.44771  0.33390  0.24213  1.0000
  H   H1414     1.0  0.41548  0.17256  0.16270  1.0000
  C   C806      1.0  0.48351  0.26415  0.12676  1.0000
  C   C807      1.0  0.45940  0.34025  0.03997  1.0000
  H   H1415     1.0  0.30549  0.45769  0.14459  1.0000
  H   H1416     1.0  0.47739  0.18747  0.15542  1.0000
  C   C808      1.0  0.40710  0.21220  0.17924  1.0000
  C   C809      1.0  0.44161  0.18431  0.17610  1.0000
  H   H1417     1.0  0.46898  0.32159  0.06520  1.0000
  H   H1418     1.0  0.46469  0.16212  0.06031  1.0000
  H   H1419     1.0  0.47944  0.13722  0.02793  1.0000
  N   N46       1.0  0.33143  0.42427  0.13609  1.0000
  C   C810      1.0  0.48955  0.12601  0.12197  1.0000
  C   C811      1.0  0.38636  0.29982  0.03205  1.0000
  C   C812      1.0  0.37763  0.20986  0.03346  1.0000
  H   H1420     1.0  0.29617  0.46904  0.03481  1.0000
  H   H1421     1.0  0.31365  0.49076  0.14295  1.0000
  S   S170      1.0  0.38727  0.04453  0.32239  1.0000
  H   H1422     1.0  0.47427  0.33099  0.21104  1.0000
  H   H1423     1.0  0.47672  0.04001  0.13150  1.0000
  C   C813      1.0  0.45327  0.30830  0.03288  1.0000
  C   C814      1.0  0.32943  0.40961  0.10506  1.0000
  H   H1424     1.0  0.49233  0.26519  0.13808  1.0000
  C   C815      1.0  0.32433  0.47812  0.14645  1.0000
  C   C816      1.0  0.28991  0.40987  0.17606  1.0000
  H   H1425     1.0  0.44387  0.36864  0.18553  1.0000
  H   H1426     1.0  0.27882  0.42150  0.17116  1.0000
  C   C817      1.0  0.49645  0.05185  0.31442  1.0000
  H   H1427     1.0  0.48848  0.12173  0.17421  1.0000
  C   C818      1.0  0.48488  0.09522  0.19382  1.0000
  H   H1428     1.0  0.45686  0.31946  0.16704  1.0000
  H   H1429     1.0  0.32145  0.09593  0.32516  1.0000
  C   C819      1.0  0.44374  0.33458  0.22147  1.0000
  C   C820      1.0  0.36512  0.21621  0.01742  1.0000
  H   H1430     1.0  0.44792  0.28188  0.19377  1.0000
  H   H1431     1.0  0.47684  0.28470  0.03071  1.0000
  H   H1432     1.0  0.25588  0.45793  0.03361  1.0000
  H   H1433     1.0  0.48969  0.09569  0.27060  1.0000
  H   H1434     1.0  0.49114  0.31370  0.02911  1.0000
  C   C821      1.0  0.48023  0.02291  0.22429  1.0000
  C   C822      1.0  0.49572  0.26391  0.10718  1.0000
  H   H1435     1.0  0.27199  0.34516  0.02076  1.0000
  C   C823      1.0  0.48310  0.32162  0.01756  1.0000
  H   H1436     1.0  0.36450  0.23206  0.01302  1.0000
  C   C824      1.0  0.49377  0.13105  0.05390  1.0000
  H   H1437     1.0  0.49182  0.35051  0.01719  1.0000
  H   H1438     1.0  0.48825  0.36468  0.18927  1.0000
  H   H1439     1.0  0.48641  0.26264  0.09634  1.0000
  H   H1440     1.0  0.48657  0.02929  0.23484  1.0000
  H   H1441     1.0  0.49443  0.29373  0.09529  1.0000
  H   H1442     1.0  0.49008  0.07548  0.01595  1.0000
  C   C825      1.0  0.45228  0.33653  0.00826  1.0000
  H   H1443     1.0  0.50013  0.09933  0.13789  1.0000
  H   H1444     1.0  0.25553  0.50058  0.00728  1.0000
  H   H1445     1.0  0.49847  0.36753  0.14532  1.0000
  C   C826      1.0  0.49981  0.09525  0.03198  1.0000
  H   H1446     1.0  0.44463  0.19606  0.01198  1.0000
  H   H1447     1.0  0.50050  0.09173  0.19381  1.0000
  H   H1448     1.0  0.33818  0.10264  0.33860  1.0000
  C   C827      1.0  0.49399  0.33878  0.00799  1.0000
  H   H1449     1.0  0.32447  0.06317  0.33918  1.0000
  H   H1450     1.0  0.32261  0.48876  0.00730  1.0000
  N   N47       1.0  0.26975  0.47139  0.00669  1.0000
  H   H1451     1.0  0.48455  0.31148  0.00672  1.0000
  H   H1452     1.0  0.49316  0.22308  0.00808  1.0000
  C   C828      1.0  0.41911  0.18574  0.00641  1.0000
  Fe  Fe84      1.0  0.36825  0.05377  0.64064  1.0000
  H   H1453     1.0  0.30818  0.08985  0.56966  1.0000
  C   C829      1.0  0.27405  0.09916  0.47103  1.0000
  Fe  Fe85      1.0  0.36140  0.04561  0.60098  1.0000
  S   S171      1.0  0.33056  0.04311  0.61077  1.0000
  S   S172      1.0  0.36312  0.03368  0.46264  1.0000
  Fe  Fe86      1.0  0.33070  0.06908  0.62527  1.0000
  S   S173      1.0  0.30531  0.09138  0.62063  1.0000
  C   C830      1.0  0.46914  0.07924  0.35932  1.0000
  S   S174      1.0  0.36122  0.07303  0.61355  1.0000
  H   H1454     1.0  0.41204  0.01888  0.44238  1.0000
  Fe  Fe87      1.0  0.36121  0.04809  0.43228  1.0000
  S   S175      1.0  0.33876  0.03117  0.42705  1.0000
  S   S176      1.0  0.38713  0.05317  0.41027  1.0000
  Fe  Fe88      1.0  0.34000  0.05693  0.47178  1.0000
  S   S177      1.0  0.31586  0.04094  0.46925  1.0000
  S   S178      1.0  0.33510  0.07247  0.49802  1.0000
  C   C831      1.0  0.35940  0.04571  0.51833  1.0000
  Fe  Fe89      1.0  0.31807  0.05498  0.43880  1.0000
  S   S179      1.0  0.29200  0.06922  0.42585  1.0000
  H   H1455     1.0  0.27172  0.09564  0.66709  1.0000
  S   S180      1.0  0.34044  0.07299  0.44191  1.0000
  C   C832      1.0  0.28866  0.09778  0.38030  1.0000
  H   H1456     1.0  0.44867  0.05176  0.43397  1.0000
  C   C833      1.0  0.27901  0.03396  0.43483  1.0000
  C   C834      1.0  0.27449  0.05369  0.42900  1.0000
  H   H1457     1.0  0.36347  0.03906  0.50531  1.0000
  H   H1458     1.0  0.43564  0.07556  0.43060  1.0000
  H   H1459     1.0  0.30136  0.09097  0.45423  1.0000
  H   H1460     1.0  0.29344  0.02816  0.43720  1.0000
  H   H1461     1.0  0.26697  0.03827  0.60790  1.0000
  H   H1462     1.0  0.35844  0.11226  0.38991  1.0000
  C   C835      1.0  0.28426  0.08046  0.62574  1.0000
  C   C836      1.0  0.26928  0.08681  0.61474  1.0000
  C   C837      1.0  0.25579  0.06115  0.42597  1.0000
  C   C838      1.0  0.28223  0.06556  0.64092  1.0000
  H   H1463     1.0  0.27087  0.09836  0.60302  1.0000
  N   N48       1.0  0.28160  0.03067  0.58054  1.0000
  H   H1464     1.0  0.48292  0.07493  0.35058  1.0000
  H   H1465     1.0  0.43245  0.05733  0.40463  1.0000
  C   C839      1.0  0.34914  0.06303  0.55214  1.0000
  C   C840      1.0  0.34064  0.07064  0.53557  1.0000
  C   C841      1.0  0.34574  0.06205  0.51862  1.0000
  H   H1466     1.0  0.41158  0.11223  0.65240  1.0000
  H   H1467     1.0  0.40863  0.06928  0.37581  1.0000
  H   H1468     1.0  0.34532  0.06992  0.56507  1.0000
  H   H1469     1.0  0.33039  0.08349  0.53573  1.0000
  S   S181      1.0  0.37514  0.03805  0.57175  1.0000
  H   H1470     1.0  0.29748  0.08296  0.55066  1.0000
  C   C842      1.0  0.37470  0.03937  0.38044  1.0000
  C   C843      1.0  0.38684  0.05080  0.38588  1.0000
  C   C844      1.0  0.39953  0.06009  0.37169  1.0000
  C   C845      1.0  0.40025  0.05785  0.35221  1.0000
  H   H1471     1.0  0.36510  0.03190  0.39126  1.0000
  C   C846      1.0  0.36828  0.03840  0.53476  1.0000
  H   H1472     1.0  0.43287  0.03893  0.38250  1.0000
  C   C847      1.0  0.29740  0.06217  0.57667  1.0000
  H   H1473     1.0  0.45616  0.05913  0.34737  1.0000
  C   C848      1.0  0.27439  0.11545  0.37518  1.0000
  H   H1474     1.0  0.26321  0.05042  0.50802  1.0000
  C   C849      1.0  0.30844  0.05838  0.37312  1.0000
  H   H1475     1.0  0.28186  0.12836  0.36993  1.0000
  H   H1476     1.0  0.35963  0.08687  0.39852  1.0000
  H   H1477     1.0  0.26686  0.10348  0.45797  1.0000
  H   H1478     1.0  0.36550  0.02882  0.35675  1.0000
  C   C850      1.0  0.27996  0.02898  0.60220  1.0000
  H   H1479     1.0  0.31148  0.05457  0.57144  1.0000
  H   H1480     1.0  0.28023  0.08570  0.38613  1.0000
  C   C851      1.0  0.25789  0.12225  0.65261  1.0000
  H   H1481     1.0  0.29375  0.06054  0.64943  1.0000
  C   C852      1.0  0.44502  0.02307  0.35919  1.0000
  H   H1482     1.0  0.27335  0.08691  0.51533  1.0000
  H   H1483     1.0  0.33862  0.10317  0.40573  1.0000
  N   N49       1.0  0.46204  0.04512  0.37548  1.0000
  H   H1484     1.0  0.29752  0.05728  0.36378  1.0000
  H   H1485     1.0  0.25229  0.07642  0.42142  1.0000
  H   H1486     1.0  0.33176  0.03829  0.38491  1.0000
  H   H1487     1.0  0.26612  0.11281  0.36398  1.0000
  C   C853      1.0  0.29524  0.10083  0.46499  1.0000
  C   C854      1.0  0.46334  0.05008  0.39517  1.0000
  H   H1488     1.0  0.37924  0.02612  0.53433  1.0000
  C   C855      1.0  0.36320  0.04706  0.55169  1.0000
  H   H1489     1.0  0.26812  0.03192  0.54417  1.0000
  H   H1490     1.0  0.25232  0.02414  0.58698  1.0000
  H   H1491     1.0  0.26717  0.05987  0.57912  1.0000
  H   H1492     1.0  0.29865  0.02169  0.37277  1.0000
  C   C856      1.0  0.45621  0.06290  0.36202  1.0000
  H   H1493     1.0  0.35311  0.09453  0.36450  1.0000
  Fe  Fe90      1.0  0.34011  0.02644  0.63770  1.0000
  H   H1494     1.0  0.27453  0.06970  0.46718  1.0000
  H   H1495     1.0  0.28190  0.07231  0.48908  1.0000
  H   H1496     1.0  0.28065  0.05432  0.55715  1.0000
  H   H1497     1.0  0.26233  0.01692  0.63943  1.0000
  H   H1498     1.0  0.28265  0.09136  0.57153  1.0000
  C   C857      1.0  0.28080  0.05189  0.57291  1.0000
  C   C858      1.0  0.43006  0.00903  0.36341  1.0000
  C   C859      1.0  0.33087  0.07263  0.34705  1.0000
  H   H1499     1.0  0.26423  0.11847  0.38817  1.0000
  H   H1500     1.0  0.34494  0.06457  0.34997  1.0000
  C   C860      1.0  0.44812  0.06589  0.42466  1.0000
  H   H1501     1.0  0.30055  0.05953  0.38772  1.0000
  H   H1502     1.0  0.30319  0.09721  0.47761  1.0000
  C   C861      1.0  0.44717  0.03151  0.37759  1.0000
  H   H1503     1.0  0.44977  0.01929  0.38910  1.0000
  H   H1504     1.0  0.26313  0.04684  0.65808  1.0000
  H   H1505     1.0  0.48142  0.03386  0.35201  1.0000
  Fe  Fe91      1.0  0.33879  0.01882  0.45812  1.0000
  H   H1506     1.0  0.46971  0.10895  0.34610  1.0000
  C   C862      1.0  0.26492  0.05778  0.64577  1.0000
  H   H1507     1.0  0.30704  0.03716  0.54539  1.0000
  S   S182      1.0  0.39324  0.05529  0.65654  1.0000
  S   S183      1.0  0.33763  0.05220  0.65341  1.0000
  C   C863      1.0  0.37509  0.03746  0.36094  1.0000
  H   H1508     1.0  0.33178  0.11023  0.37220  1.0000
  H   H1509     1.0  0.26645  0.12005  0.63849  1.0000
  C   C864      1.0  0.44601  0.06336  0.40411  1.0000
  H   H1510     1.0  0.29716  0.11583  0.45844  1.0000
  C   C865      1.0  0.30023  0.01931  0.57339  1.0000
  C   C866      1.0  0.48135  0.03590  0.36725  1.0000
  H   H1511     1.0  0.30916  0.10638  0.35645  1.0000
  H   H1512     1.0  0.29637  0.01571  0.54413  1.0000
  H   H1513     1.0  0.44471  0.07795  0.39571  1.0000
  C   C867      1.0  0.27085  0.07820  0.47950  1.0000
  H   H1514     1.0  0.46126  0.07248  0.42494  1.0000
  H   H1515     1.0  0.41853  0.01292  0.64781  1.0000
  C   C868      1.0  0.29627  0.08284  0.56646  1.0000
  C   C869      1.0  0.32134  0.03865  0.37479  1.0000
  H   H1516     1.0  0.46501  0.03667  0.40554  1.0000
  H   H1517     1.0  0.29687  0.06297  0.59217  1.0000
  H   H1518     1.0  0.41935  0.02621  0.41713  1.0000
  C   C870      1.0  0.38789  0.04662  0.34675  1.0000
  H   H1519     1.0  0.34134  0.06640  0.38296  1.0000
  H   H1520     1.0  0.32925  0.03560  0.36066  1.0000
  H   H1521     1.0  0.26880  0.10956  0.48143  1.0000
  H   H1522     1.0  0.26961  0.03947  0.47567  1.0000
  H   H1523     1.0  0.29615  0.10110  0.39177  1.0000
  H   H1524     1.0  0.47226  0.08265  0.37315  1.0000
  N   N50       1.0  0.31837  0.07608  0.36577  1.0000
  H   H1525     1.0  0.32144  0.07935  0.39499  1.0000
  S   S184      1.0  0.37103  0.02662  0.62689  1.0000
  H   H1526     1.0  0.26614  0.01501  0.50440  1.0000
  C   C871      1.0  0.33026  0.07896  0.38072  1.0000
  C   C872      1.0  0.34119  0.09681  0.37626  1.0000
  C   C873      1.0  0.30635  0.02181  0.55138  1.0000
  H   H1527     1.0  0.26060  0.00947  0.39160  1.0000
  C   C874      1.0  0.30300  0.09290  0.36245  1.0000
  C   C875      1.0  0.26481  0.02168  0.43766  1.0000
  C   C876      1.0  0.34998  0.09990  0.39371  1.0000
  H   H1528     1.0  0.47645  0.05692  0.39509  1.0000
  H   H1529     1.0  0.44126  0.06898  0.36654  1.0000
  H   H1530     1.0  0.29220  0.03436  0.60674  1.0000
  H   H1531     1.0  0.41605  0.01637  0.36930  1.0000
  H   H1532     1.0  0.41000  0.06519  0.34135  1.0000
  C   C877      1.0  0.30938  0.02216  0.38242  1.0000
  H   H1533     1.0  0.29459  0.09015  0.35134  1.0000
  C   C878      1.0  0.26482  0.02229  0.57563  1.0000
  H   H1534     1.0  0.44021  0.03478  0.34810  1.0000
  C   C879      1.0  0.45973  0.09787  0.34886  1.0000
  H   H1535     1.0  0.31207  0.02271  0.58039  1.0000
  H   H1536     1.0  0.30195  0.02397  0.39710  1.0000
  H   H1537     1.0  0.49092  0.01830  0.39315  1.0000
  C   C880      1.0  0.27921  0.00828  0.61312  1.0000
  C   C881      1.0  0.25849  0.08483  0.52160  1.0000
  C   C882      1.0  0.26956  0.11139  0.66810  1.0000
  H   H1538     1.0  0.49231  0.04575  0.36671  1.0000
  H   H1539     1.0  0.28380  0.11650  0.66604  1.0000
  H   H1540     1.0  0.28790  0.01509  0.63926  1.0000
  H   H1541     1.0  0.39476  0.01375  0.66059  1.0000
  H   H1542     1.0  0.38692  0.01006  0.49290  1.0000
  H   H1543     1.0  0.45861  0.01512  0.35316  1.0000
  H   H1544     1.0  0.25846  0.07023  0.52990  1.0000
  H   H1545     1.0  0.31875  0.00816  0.38319  1.0000
  H   H1546     1.0  0.25602  0.13789  0.65395  1.0000
  H   H1547     1.0  0.33687  0.01631  0.55335  1.0000
  H   H1548     1.0  0.44651  0.10352  0.35773  1.0000
  C   C883      1.0  0.40663  0.10859  0.66794  1.0000
  H   H1549     1.0  0.33043  0.01314  0.53055  1.0000
  C   C884      1.0  0.48894  0.01637  0.37839  1.0000
  C   C885      1.0  0.25536  0.03914  0.48431  1.0000
  H   H1550     1.0  0.25692  0.00823  0.48440  1.0000
  H   H1551     1.0  0.26622  0.00909  0.36601  1.0000
  H   H1552     1.0  0.43678  0.01469  0.43231  1.0000
  H   H1553     1.0  0.26107  0.09676  0.54741  1.0000
  C   C886      1.0  0.25681  0.03101  0.55663  1.0000
  C   C887      1.0  0.32615  0.01092  0.54636  1.0000
  C   C888      1.0  0.27626  0.00855  0.63485  1.0000
  C   C889      1.0  0.42189  0.01499  0.42946  1.0000
  C   C890      1.0  0.25471  0.01875  0.49497  1.0000
  H   H1554     1.0  0.25259  0.11439  0.52855  1.0000
  C   C891      1.0  0.25230  0.07827  0.61894  1.0000
  H   H1555     1.0  0.40800  0.09263  0.67127  1.0000
  H   H1556     1.0  0.39137  0.11455  0.67085  1.0000
  C   C892      1.0  0.25180  0.09943  0.53587  1.0000
  Fe  Fe92      1.0  0.45238  0.04627  0.76783  1.0000
  S   S185      1.0  0.43526  0.07555  0.76625  1.0000
  S   S186      1.0  0.48223  0.03826  0.75347  1.0000
  Fe  Fe93      1.0  0.42081  0.02704  0.79276  1.0000
  S   S187      1.0  0.40098  0.05478  0.79397  1.0000
  H   H1557     1.0  0.44961  0.14116  0.72580  1.0000
  Fe  Fe94      1.0  0.41075  0.06043  0.76225  1.0000
  S   S188      1.0  0.38750  0.07073  0.74313  1.0000
  Fe  Fe95      1.0  0.42676  0.06777  0.79803  1.0000
  S   S189      1.0  0.42669  0.09242  0.81524  1.0000
  S   S190      1.0  0.42870  0.03198  0.76082  1.0000
  S   S191      1.0  0.44579  0.03942  0.79979  1.0000
  Fe  Fe96      1.0  0.40434  0.27386  0.99571  1.0000
  S   S192      1.0  0.41545  0.30226  0.99254  1.0000
  H   H1558     1.0  0.49585  0.11757  0.86393  1.0000
  Fe  Fe97      1.0  0.41773  0.26902  0.95414  1.0000
  S   S193      1.0  0.42960  0.29745  0.94776  1.0000
  S   S194      1.0  0.42191  0.25016  0.93067  1.0000
  Fe  Fe98      1.0  0.44146  0.28812  0.97578  1.0000
  S   S195      1.0  0.46972  0.28792  0.98659  1.0000
  Fe  Fe99      1.0  0.40214  0.30856  0.96530  1.0000
  S   S196      1.0  0.38396  0.33738  0.95854  1.0000
  S   S197      1.0  0.43110  0.25912  0.98096  1.0000
  S   S198      1.0  0.38961  0.28067  0.96948  1.0000
  Fe  Fe100     1.0  0.42866  0.10895  0.92088  1.0000
  S   S199      1.0  0.42682  0.14028  0.90865  1.0000
  S   S200      1.0  0.42000  0.08569  0.90632  1.0000
  Fe  Fe101     1.0  0.44397  0.11574  0.95710  1.0000
  S   S201      1.0  0.44392  0.14734  0.94731  1.0000
  S   S202      1.0  0.45386  0.10326  0.98563  1.0000
  Fe  Fe102     1.0  0.41540  0.14599  0.93879  1.0000
  S   S203      1.0  0.39182  0.16871  0.94807  1.0000
  Fe  Fe103     1.0  0.45544  0.13860  0.91842  1.0000
  S   S204      1.0  0.47823  0.15392  0.89987  1.0000
  S   S205      1.0  0.41454  0.11479  0.95043  1.0000
  S   S206      1.0  0.45827  0.10687  0.92871  1.0000
  Fe  Fe104     1.0  0.27220  0.36080  0.94751  1.0000
  C   C893      1.0  0.26661  0.44969  0.88947  1.0000
  S   S207      1.0  0.29761  0.33723  0.94701  1.0000
  H   H1559     1.0  0.27040  0.47285  0.90453  1.0000
  H   H1560     1.0  0.31125  0.33494  0.99688  1.0000
  C   C894      1.0  0.27859  0.41975  0.99072  1.0000
  H   H1561     1.0  0.28758  0.46941  0.88379  1.0000
  C   C895      1.0  0.43492  0.14855  0.72487  1.0000
  C   C896      1.0  0.46512  0.07563  0.71262  1.0000
  S   S208      1.0  0.26545  0.38228  0.96877  1.0000
  H   H1562     1.0  0.32019  0.37345  0.98304  1.0000
  C   C897      1.0  0.26312  0.44966  0.94208  1.0000
  C   C898      1.0  0.28292  0.44504  0.93816  1.0000
  C   C899      1.0  0.29498  0.45927  0.93794  1.0000
  C   C900      1.0  0.28725  0.47804  0.94165  1.0000
  C   C901      1.0  0.26756  0.48213  0.94628  1.0000
  H   H1563     1.0  0.39888  0.12356  0.77166  1.0000
  H   H1564     1.0  0.28886  0.43083  0.93456  1.0000
  H   H1565     1.0  0.31025  0.45587  0.93442  1.0000
  S   S209      1.0  0.26035  0.38140  0.92343  1.0000
  C   C902      1.0  0.47670  0.20255  0.98604  1.0000
  C   C903      1.0  0.35928  0.33802  0.95733  1.0000
  C   C904      1.0  0.34886  0.35502  0.94941  1.0000
  C   C905      1.0  0.32954  0.35542  0.94711  1.0000
  C   C906      1.0  0.32061  0.33870  0.95250  1.0000
  C   C907      1.0  0.33086  0.32195  0.96099  1.0000
  C   C908      1.0  0.34997  0.32169  0.96366  1.0000
  H   H1566     1.0  0.35592  0.36777  0.94451  1.0000
  H   H1567     1.0  0.32184  0.36838  0.94038  1.0000
  H   H1568     1.0  0.32398  0.30903  0.96539  1.0000
  H   H1569     1.0  0.35756  0.30877  0.97038  1.0000
  C   C909      1.0  0.41409  0.22731  0.93652  1.0000
  C   C910      1.0  0.40143  0.22285  0.95313  1.0000
  C   C911      1.0  0.39433  0.20491  0.95659  1.0000
  C   C912      1.0  0.40059  0.19114  0.94390  1.0000
  C   C913      1.0  0.41382  0.19538  0.92775  1.0000
  C   C914      1.0  0.42022  0.21357  0.92386  1.0000
  H   H1570     1.0  0.39687  0.23331  0.96310  1.0000
  H   H1571     1.0  0.38424  0.20156  0.96920  1.0000
  H   H1572     1.0  0.41882  0.18478  0.91797  1.0000
  H   H1573     1.0  0.42996  0.21699  0.91097  1.0000
  C   C915      1.0  0.42570  0.08980  0.84052  1.0000
  C   C916      1.0  0.42754  0.10590  0.84927  1.0000
  C   C917      1.0  0.42618  0.10470  0.86938  1.0000
  C   C918      1.0  0.42290  0.08737  0.88095  1.0000
  C   C919      1.0  0.42106  0.07123  0.87223  1.0000
  C   C920      1.0  0.42257  0.07239  0.85207  1.0000
  H   H1574     1.0  0.42996  0.11941  0.84044  1.0000
  H   H1575     1.0  0.42753  0.11725  0.87588  1.0000
  H   H1576     1.0  0.41837  0.05781  0.88109  1.0000
  H   H1577     1.0  0.42101  0.05993  0.84549  1.0000
  C   C921      1.0  0.38900  0.06468  0.71966  1.0000
  C   C922      1.0  0.37263  0.06841  0.71031  1.0000
  C   C923      1.0  0.37353  0.06487  0.69118  1.0000
  H   H1578     1.0  0.49439  0.03154  0.83628  1.0000
  C   C924      1.0  0.40726  0.05395  0.69059  1.0000
  C   C925      1.0  0.40626  0.05709  0.70985  1.0000
  H   H1579     1.0  0.35923  0.07432  0.71781  1.0000
  H   H1580     1.0  0.50154  0.24817  0.90812  1.0000
  C   C926      1.0  0.39496  0.12442  0.74158  1.0000
  H   H1581     1.0  0.41889  0.05389  0.71699  1.0000
  H   H1582     1.0  0.43351  0.19653  0.97199  1.0000
  H   H1583     1.0  0.25245  0.44996  0.00240  1.0000
  H   H1584     1.0  0.38123  0.09165  0.96178  1.0000
  H   H1585     1.0  0.41292  0.09794  0.73804  1.0000
  C   C927      1.0  0.47240  0.10199  0.87521  1.0000
  H   H1586     1.0  0.31879  0.49876  0.98292  1.0000
  H   H1587     1.0  0.42537  0.34251  0.98299  1.0000
  H   H1588     1.0  0.42674  0.14719  0.73948  1.0000
  H   H1589     1.0  0.42183  0.17820  0.71790  1.0000
  H   H1590     1.0  0.47877  0.07371  0.77039  1.0000
  H   H1591     1.0  0.46550  0.05989  0.71226  1.0000
  N   N51       1.0  0.36376  0.12589  0.91150  1.0000
  C   C928      1.0  0.37342  0.11901  0.89287  1.0000
  C   C929      1.0  0.37094  0.14444  0.91372  1.0000
  C   C930      1.0  0.36989  0.11087  0.92766  1.0000
  C   C931      1.0  0.34221  0.12851  0.91304  1.0000
  C   C932      1.0  0.33331  0.13458  0.89405  1.0000
  C   C933      1.0  0.37000  0.09844  0.88999  1.0000
  C   C934      1.0  0.36321  0.11606  0.94834  1.0000
  C   C935      1.0  0.36735  0.16180  0.89802  1.0000
  C   C936      1.0  0.37689  0.17894  0.90106  1.0000
  C   C937      1.0  0.31178  0.14037  0.89808  1.0000
  C   C938      1.0  0.37308  0.09567  0.86875  1.0000
  C   C939      1.0  0.36612  0.09835  0.96337  1.0000
  H   H1592     1.0  0.38917  0.11892  0.89176  1.0000
  H   H1593     1.0  0.36925  0.12914  0.88029  1.0000
  H   H1594     1.0  0.36431  0.14972  0.92750  1.0000
  H   H1595     1.0  0.38652  0.14172  0.91459  1.0000
  H   H1596     1.0  0.38575  0.10759  0.92602  1.0000
  H   H1597     1.0  0.36460  0.09695  0.92702  1.0000
  H   H1598     1.0  0.33642  0.11488  0.91973  1.0000
  H   H1599     1.0  0.33602  0.13923  0.92305  1.0000
  H   H1600     1.0  0.33563  0.12238  0.88541  1.0000
  H   H1601     1.0  0.33955  0.14682  0.88496  1.0000
  H   H1602     1.0  0.38016  0.08750  0.89746  1.0000
  H   H1603     1.0  0.35539  0.09532  0.89610  1.0000
  H   H1604     1.0  0.34789  0.12193  0.95026  1.0000
  H   H1605     1.0  0.37162  0.12702  0.95146  1.0000
  H   H1606     1.0  0.37312  0.15817  0.88345  1.0000
  H   H1607     1.0  0.35185  0.16681  0.89874  1.0000
  H   H1608     1.0  0.39252  0.17485  0.90082  1.0000
  H   H1609     1.0  0.37442  0.19100  0.88941  1.0000
  H   H1610     1.0  0.37082  0.18411  0.91501  1.0000
  H   H1611     1.0  0.30571  0.14411  0.88429  1.0000
  H   H1612     1.0  0.30476  0.12825  0.90670  1.0000
  H   H1613     1.0  0.30861  0.15319  0.90596  1.0000
  H   H1614     1.0  0.37265  0.08028  0.86731  1.0000
  H   H1615     1.0  0.36177  0.10470  0.86113  1.0000
  H   H1616     1.0  0.38716  0.09969  0.86178  1.0000
  H   H1617     1.0  0.35685  0.08746  0.96189  1.0000
  H   H1618     1.0  0.45553  0.22611  0.94745  1.0000
  H   H1619     1.0  0.35606  0.02594  0.79134  1.0000
  C   C940      1.0  0.34517  0.38474  0.98737  1.0000
  H   H1620     1.0  0.47896  0.13638  0.97074  1.0000
  C   C941      1.0  0.43628  0.17003  0.71855  1.0000
  H   H1621     1.0  0.29538  0.43708  0.00191  1.0000
  C   C942      1.0  0.38516  0.01170  0.75020  1.0000
  C   C943      1.0  0.43368  0.20024  0.00209  1.0000
  H   H1622     1.0  0.46760  0.10288  0.86090  1.0000
  C   C944      1.0  0.42518  0.13993  0.71055  1.0000
  H   H1623     1.0  0.41805  0.13266  0.67498  1.0000
  H   H1624     1.0  0.26343  0.41808  0.99044  1.0000
  H   H1625     1.0  0.48429  0.24699  0.99788  1.0000
  C   C945      1.0  0.39093  0.05795  0.68115  1.0000
  C   C946      1.0  0.47172  0.22417  0.98890  1.0000
  C   C947      1.0  0.28016  0.43494  0.00348  1.0000
  C   C948      1.0  0.48459  0.16119  0.98295  1.0000
  C   C949      1.0  0.41877  0.11691  0.67987  1.0000
  H   H1626     1.0  0.34264  0.39706  0.97596  1.0000
  H   H1627     1.0  0.36090  0.06811  0.68400  1.0000
  H   H1628     1.0  0.47441  0.13415  0.99661  1.0000
  H   H1629     1.0  0.45208  0.11371  0.69901  1.0000
  H   H1630     1.0  0.42461  0.11513  0.74569  1.0000
  H   H1631     1.0  0.46770  0.23344  0.97583  1.0000
  H   H1632     1.0  0.26846  0.44589  0.87462  1.0000
  C   C950      1.0  0.49960  0.03870  0.82192  1.0000
  H   H1633     1.0  0.46428  0.11407  0.88259  1.0000
  H   H1634     1.0  0.34745  0.23647  0.96946  1.0000
  H   H1635     1.0  0.28599  0.40559  0.99630  1.0000
  C   C951      1.0  0.26019  0.48540  0.87693  1.0000
  C   C952      1.0  0.26711  0.45383  0.99805  1.0000
  H   H1636     1.0  0.48359  0.01436  0.79978  1.0000
  C   C953      1.0  0.46921  0.21687  0.94431  1.0000
  H   H1637     1.0  0.27163  0.33993  0.98699  1.0000
  C   C954      1.0  0.41134  0.11325  0.70163  1.0000
  H   H1638     1.0  0.45866  0.18911  0.94803  1.0000
  H   H1639     1.0  0.45568  0.16558  0.97501  1.0000
  H   H1640     1.0  0.26001  0.50633  0.91147  1.0000
  C   C955      1.0  0.44354  0.10767  0.71241  1.0000
  H   H1641     1.0  0.40631  0.19154  0.99924  1.0000
  H   H1642     1.0  0.38808  0.10350  0.76674  1.0000
  C   C956      1.0  0.46861  0.19603  0.95476  1.0000
  H   H1643     1.0  0.42077  0.04859  0.68289  1.0000
  C   C957      1.0  0.38875  0.11928  0.76310  1.0000
  H   H1644     1.0  0.43567  0.07869  0.72444  1.0000
  H   H1645     1.0  0.27575  0.43880  0.89818  1.0000
  H   H1646     1.0  0.48293  0.18825  0.95067  1.0000
  C   C958      1.0  0.25558  0.46811  0.94647  1.0000
  N   N52       1.0  0.36330  0.27372  0.91870  1.0000
  C   C959      1.0  0.37001  0.29202  0.92229  1.0000
  C   C960      1.0  0.36259  0.25974  0.93702  1.0000
  C   C961      1.0  0.37824  0.26478  0.90399  1.0000
  C   C962      1.0  0.34424  0.27729  0.91112  1.0000
  C   C963      1.0  0.32984  0.29445  0.91804  1.0000
  C   C964      1.0  0.37479  0.30653  0.90408  1.0000
  C   C965      1.0  0.37614  0.24408  0.90038  1.0000
  C   C966      1.0  0.34806  0.26571  0.95424  1.0000
  C   C967      1.0  0.35006  0.25092  0.97214  1.0000
  C   C968      1.0  0.31011  0.29415  0.91239  1.0000
  C   C969      1.0  0.37546  0.32666  0.90919  1.0000
  C   C970      1.0  0.38995  0.23814  0.88301  1.0000
  H   H1647     1.0  0.38323  0.28850  0.92934  1.0000
  H   H1648     1.0  0.35954  0.29969  0.93264  1.0000
  H   H1649     1.0  0.35873  0.24569  0.93462  1.0000
  H   H1650     1.0  0.37702  0.25661  0.94173  1.0000
  H   H1651     1.0  0.39274  0.26424  0.90812  1.0000
  H   H1652     1.0  0.37846  0.27397  0.88981  1.0000
  H   H1653     1.0  0.34620  0.28019  0.89513  1.0000
  H   H1654     1.0  0.33706  0.26397  0.91454  1.0000
  H   H1655     1.0  0.33467  0.30847  0.91143  1.0000
  H   H1656     1.0  0.32815  0.29441  0.93376  1.0000
  H   H1657     1.0  0.38906  0.30161  0.89652  1.0000
  H   H1658     1.0  0.36425  0.30768  0.89387  1.0000
  H   H1659     1.0  0.36139  0.24309  0.89785  1.0000
  H   H1660     1.0  0.37976  0.23339  0.91286  1.0000
  H   H1661     1.0  0.35004  0.27991  0.95791  1.0000
  H   H1662     1.0  0.33330  0.26618  0.95096  1.0000
  H   H1663     1.0  0.43822  0.01386  0.70639  1.0000
  C   C971      1.0  0.44470  0.08558  0.71202  1.0000
  H   H1664     1.0  0.36452  0.24973  0.97643  1.0000
  H   H1665     1.0  0.31086  0.29497  0.89656  1.0000
  H   H1666     1.0  0.30407  0.28084  0.91946  1.0000
  H   H1667     1.0  0.30035  0.30682  0.91715  1.0000
  H   H1668     1.0  0.37954  0.33652  0.89597  1.0000
  H   H1669     1.0  0.36125  0.33263  0.91606  1.0000
  H   H1670     1.0  0.38618  0.32612  0.91914  1.0000
  H   H1671     1.0  0.38670  0.24771  0.86971  1.0000
  H   H1672     1.0  0.40490  0.23881  0.88522  1.0000
  H   H1673     1.0  0.38866  0.22305  0.88116  1.0000
  H   H1674     1.0  0.44069  0.21817  0.97544  1.0000
  H   H1675     1.0  0.34264  0.03166  0.69871  1.0000
  H   H1676     1.0  0.46912  0.08804  0.88369  1.0000
  H   H1677     1.0  0.42099  0.13259  0.98951  1.0000
  C   C972      1.0  0.46425  0.17250  0.98325  1.0000
  H   H1678     1.0  0.50076  0.23173  0.98312  1.0000
  C   C973      1.0  0.50113  0.10178  0.89235  1.0000
  H   H1679     1.0  0.42607  0.21442  0.00569  1.0000
  N   N53       1.0  0.42370  0.11860  0.71496  1.0000
  H   H1680     1.0  0.49235  0.13136  0.93332  1.0000
  H   H1681     1.0  0.39495  0.14028  0.73872  1.0000
  C   C974      1.0  0.44258  0.20253  0.98058  1.0000
  N   N54       1.0  0.46314  0.19390  0.97635  1.0000
  H   H1682     1.0  0.45773  0.16961  0.99842  1.0000
  H   H1683     1.0  0.28582  0.31671  0.99120  1.0000
  C   C975      1.0  0.49324  0.29335  0.95198  1.0000
  H   H1684     1.0  0.49663  0.08826  0.90066  1.0000
  C   C976      1.0  0.41485  0.11342  0.73541  1.0000
  H   H1685     1.0  0.48041  0.29664  0.94513  1.0000
  H   H1686     1.0  0.38404  0.12035  0.73388  1.0000
  C   C977      1.0  0.49377  0.10346  0.87262  1.0000
  H   H1687     1.0  0.47036  0.07752  0.72611  1.0000
  H   H1688     1.0  0.26228  0.11395  0.68263  1.0000
  H   H1689     1.0  0.45147  0.10955  0.72422  1.0000
  H   H1690     1.0  0.49140  0.20038  0.97810  1.0000
  H   H1691     1.0  0.48093  0.22337  0.94853  1.0000
  H   H1692     1.0  0.28527  0.42395  0.97580  1.0000
  C   C978      1.0  0.47313  0.21711  0.92252  1.0000
  C   C979      1.0  0.49192  0.28832  0.97189  1.0000
  C   C980      1.0  0.29276  0.49715  0.00316  1.0000
  H   H1693     1.0  0.44322  0.17585  0.72907  1.0000
  H   H1694     1.0  0.36238  0.10271  0.97801  1.0000
  H   H1695     1.0  0.29094  0.47837  0.98239  1.0000
  C   C981      1.0  0.36649  0.01023  0.72439  1.0000
  H   H1696     1.0  0.35394  0.01788  0.75929  1.0000
  H   H1697     1.0  0.33893  0.34724  0.00226  1.0000
  S   S210      1.0  0.30220  0.49626  0.94010  1.0000
  H   H1698     1.0  0.38165  0.02112  0.78734  1.0000
  H   H1699     1.0  0.37126  0.20879  0.00473  1.0000
  H   H1700     1.0  0.42514  0.17179  0.00120  1.0000
  H   H1701     1.0  0.46341  0.20862  0.91743  1.0000
  H   H1702     1.0  0.37435  0.12697  0.76721  1.0000
  H   H1703     1.0  0.26138  0.49615  0.94949  1.0000
  H   H1704     1.0  0.33949  0.25552  0.98428  1.0000
  H   H1705     1.0  0.41085  0.14832  0.70949  1.0000
  C   C982      1.0  0.27218  0.46976  0.88948  1.0000
  H   H1706     1.0  0.28746  0.50050  0.89136  1.0000
  C   C983      1.0  0.42528  0.12770  0.00358  1.0000
  H   H1707     1.0  0.39689  0.12161  0.70346  1.0000
  H   H1708     1.0  0.50106  0.09169  0.86438  1.0000
  H   H1709     1.0  0.45507  0.32738  0.99635  1.0000
  H   H1710     1.0  0.43349  0.14317  0.69613  1.0000
  H   H1711     1.0  0.48913  0.34473  0.99391  1.0000
  C   C984      1.0  0.27531  0.32768  0.99808  1.0000
  C   C985      1.0  0.48406  0.13955  0.98382  1.0000
  H   H1712     1.0  0.47080  0.23222  0.91540  1.0000
  H   H1713     1.0  0.38802  0.02682  0.74486  1.0000
  H   H1714     1.0  0.40261  0.01912  0.71455  1.0000
  H   H1715     1.0  0.40879  0.09789  0.70544  1.0000
  H   H1716     1.0  0.28879  0.50487  0.86584  1.0000
  H   H1717     1.0  0.36359  0.02595  0.72591  1.0000
  H   H1718     1.0  0.48704  0.04341  0.81404  1.0000
  N   N55       1.0  0.25996  0.50588  0.88087  1.0000
  H   H1719     1.0  0.43991  0.08256  0.69873  1.0000
  C   C986      1.0  0.25491  0.48766  0.00024  1.0000
  C   C987      1.0  0.42174  0.35164  0.99481  1.0000
  H   H1720     1.0  0.34825  0.01571  0.68049  1.0000
  H   H1721     1.0  0.31676  0.38841  0.00213  1.0000
  H   H1722     1.0  0.42708  0.36579  0.98985  1.0000
  C   C988      1.0  0.49926  0.05101  0.75963  1.0000
  H   H1723     1.0  0.36934  0.04101  0.77295  1.0000
  H   H1724     1.0  0.44496  0.17227  0.70423  1.0000
  H   H1725     1.0  0.48811  0.21110  0.91819  1.0000
  C   C989      1.0  0.28905  0.47737  0.99838  1.0000
  H   H1726     1.0  0.47782  0.19477  0.00075  1.0000
  C   C990      1.0  0.32637  0.37679  0.99540  1.0000
  H   H1727     1.0  0.40595  0.35412  0.99814  1.0000
  C   C991      1.0  0.49370  0.06808  0.76787  1.0000
  H   H1728     1.0  0.47480  0.08154  0.70008  1.0000
  H   H1729     1.0  0.45796  0.35033  0.00223  1.0000
  H   H1730     1.0  0.45953  0.22599  0.00046  1.0000
  H   H1731     1.0  0.49289  0.11354  0.90016  1.0000
  H   H1732     1.0  0.26598  0.48402  0.86164  1.0000
  H   H1733     1.0  0.35571  0.37346  0.98100  1.0000
  H   H1734     1.0  0.49440  0.16583  0.97016  1.0000
  H   H1735     1.0  0.25799  0.49238  0.98453  1.0000
  H   H1736     1.0  0.49638  0.06640  0.83267  1.0000
  H   H1737     1.0  0.29654  0.35755  0.99612  1.0000
  H   H1738     1.0  0.35127  0.38990  0.99889  1.0000
  C   C992      1.0  0.48857  0.23187  0.99487  1.0000
  H   H1739     1.0  0.30075  0.46627  0.00279  1.0000
  H   H1740     1.0  0.26879  0.45710  0.98210  1.0000
  H   H1741     1.0  0.50081  0.09517  0.93077  1.0000
  H   H1742     1.0  0.37703  0.01916  0.69413  1.0000
  H   H1743     1.0  0.48178  0.00899  0.82504  1.0000
  C   C993      1.0  0.36872  0.02600  0.78017  1.0000
  H   H1744     1.0  0.43372  0.11028  0.67656  1.0000
  C   C994      1.0  0.31385  0.49984  0.99839  1.0000
  H   H1745     1.0  0.26211  0.32112  0.00404  1.0000
  C   C995      1.0  0.49519  0.15758  0.91385  1.0000
  C   C996      1.0  0.44079  0.11337  0.00570  1.0000
  C   C997      1.0  0.36691  0.00953  0.70257  1.0000
  H   H1746     1.0  0.49860  0.13170  0.98459  1.0000
  H   H1747     1.0  0.49159  0.09924  0.00311  1.0000
  C   C998      1.0  0.49951  0.14416  0.92966  1.0000
  C   C999      1.0  0.36725  0.01253  0.76567  1.0000
  C   C1000     1.0  0.34736  0.01645  0.69612  1.0000
  H   H1748     1.0  0.49095  0.16355  0.99559  1.0000
  C   C1001     1.0  0.30149  0.34471  0.00607  1.0000
  H   H1749     1.0  0.50131  0.18430  0.89674  1.0000
  Fe  Fe105     1.0  0.42093  0.66180  0.10060  1.0000
  S   S211      1.0  0.42271  0.64845  0.13112  1.0000
  S   S212      1.0  0.39906  0.68621  0.09093  1.0000
  Fe  Fe106     1.0  0.44676  0.62809  0.08481  1.0000
  S   S213      1.0  0.45070  0.61207  0.11377  1.0000
  S   S214      1.0  0.45703  0.61420  0.05842  1.0000
  Fe  Fe107     1.0  0.41912  0.62056  0.12097  1.0000
  S   S215      1.0  0.39994  0.59786  0.13468  1.0000
  Fe  Fe108     1.0  0.45414  0.64127  0.12072  1.0000
  S   S216      1.0  0.47743  0.64706  0.13666  1.0000
  S   S217      1.0  0.41529  0.63445  0.09133  1.0000
  S   S218      1.0  0.45241  0.65683  0.09081  1.0000
  Fe  Fe109     1.0  0.41932  0.78731  0.09515  1.0000
  S   S219      1.0  0.41811  0.81919  0.08500  1.0000
  S   S220      1.0  0.39273  0.77337  0.10531  1.0000
  Fe  Fe110     1.0  0.46180  0.77996  0.08730  1.0000
  S   S221      1.0  0.46443  0.81098  0.07637  1.0000
  H   H1750     1.0  0.48351  0.55659  0.01674  1.0000
  Fe  Fe111     1.0  0.44285  0.81749  0.10171  1.0000
  S   S222      1.0  0.44814  0.84170  0.11723  1.0000
  Fe  Fe112     1.0  0.43978  0.80994  0.06059  1.0000
  S   S223      1.0  0.44215  0.82373  0.02949  1.0000
  S   S224      1.0  0.44208  0.78637  0.11390  1.0000
  S   S225      1.0  0.43897  0.77821  0.06945  1.0000
  C   C1002     1.0  0.39573  0.93166  0.30052  1.0000
  Fe  Fe113     1.0  0.46019  0.87040  0.24545  1.0000
  S   S226      1.0  0.45107  0.88484  0.21732  1.0000
  C   C1003     1.0  0.43144  0.63360  0.01146  1.0000
  Fe  Fe114     1.0  0.41971  0.87307  0.26681  1.0000
  S   S227      1.0  0.40750  0.88716  0.24008  1.0000
  Fe  Fe115     1.0  0.42781  0.86570  0.22422  1.0000
  S   S228      1.0  0.41882  0.84639  0.20516  1.0000
  Fe  Fe116     1.0  0.43172  0.90508  0.23570  1.0000
  S   S229      1.0  0.42415  0.93737  0.22838  1.0000
  S   S230      1.0  0.43805  0.85002  0.25137  1.0000
  S   S231      1.0  0.44281  0.89216  0.26334  1.0000
  H   H1751     1.0  0.32485  0.81883  0.12680  1.0000
  H   H1752     1.0  0.42448  0.99854  0.25333  1.0000
  Fe  Fe117     1.0  0.29552  0.58389  0.11610  1.0000
  S   S232      1.0  0.29667  0.57130  0.08869  1.0000
  S   S233      1.0  0.31504  0.60689  0.11506  1.0000
  Fe  Fe118     1.0  0.28910  0.54437  0.10734  1.0000
  H   H1753     1.0  0.38875  0.71306  0.03017  1.0000
  H   H1754     1.0  0.48813  0.71498  0.13326  1.0000
  S   S234      1.0  0.29068  0.55585  0.13489  1.0000
  H   H1755     1.0  0.44277  0.74361  0.02894  1.0000
  Fe  Fe119     1.0  0.25922  0.56572  0.13399  1.0000
  C   C1004     1.0  0.33744  0.67220  0.11687  1.0000
  H   H1756     1.0  0.37193  0.57691  0.05796  1.0000
  H   H1757     1.0  0.38771  0.90864  0.27478  1.0000
  H   H1758     1.0  0.41455  0.92789  0.27338  1.0000
  H   H1759     1.0  0.42639  0.70848  0.01707  1.0000
  C   C1005     1.0  0.38412  0.87201  0.33063  1.0000
  C   C1006     1.0  0.43369  0.95282  0.24076  1.0000
  C   C1007     1.0  0.42443  0.97161  0.24225  1.0000
  C   C1008     1.0  0.43173  0.98412  0.25221  1.0000
  C   C1009     1.0  0.44852  0.97797  0.26043  1.0000
  C   C1010     1.0  0.45785  0.95926  0.25877  1.0000
  C   C1011     1.0  0.45040  0.94667  0.24909  1.0000
  H   H1760     1.0  0.41154  0.97646  0.23574  1.0000
  H   H1761     1.0  0.41685  0.87161  0.10082  1.0000
  H   H1762     1.0  0.47094  0.95447  0.26498  1.0000
  H   H1763     1.0  0.45779  0.93234  0.24771  1.0000
  C   C1012     1.0  0.43038  0.84410  0.18166  1.0000
  C   C1013     1.0  0.43798  0.85962  0.16993  1.0000
  C   C1014     1.0  0.44431  0.85832  0.15035  1.0000
  C   C1015     1.0  0.44320  0.84149  0.14241  1.0000
  C   C1016     1.0  0.43678  0.82554  0.15443  1.0000
  C   C1017     1.0  0.43028  0.82691  0.17396  1.0000
  H   H1764     1.0  0.43811  0.87294  0.17571  1.0000
  H   H1765     1.0  0.44941  0.87067  0.14116  1.0000
  H   H1766     1.0  0.43628  0.81239  0.14854  1.0000
  H   H1767     1.0  0.42463  0.81478  0.18304  1.0000
  H   H1768     1.0  0.29336  0.57937  0.04403  1.0000
  C   C1018     1.0  0.30066  0.66094  0.17211  1.0000
  H   H1769     1.0  0.48244  0.88831  0.26959  1.0000
  H   H1770     1.0  0.40101  0.00360  0.29987  1.0000
  H   H1771     1.0  0.46307  0.86164  0.01613  1.0000
  H   H1772     1.0  0.36498  0.64137  0.05362  1.0000
  H   H1773     1.0  0.41302  0.74422  0.05118  1.0000
  C   C1019     1.0  0.43201  0.81303  0.01323  1.0000
  H   H1774     1.0  0.38927  0.92644  0.25380  1.0000
  H   H1775     1.0  0.39535  0.77538  0.02110  1.0000
  H   H1776     1.0  0.38555  0.99793  0.32212  1.0000
  H   H1777     1.0  0.41650  0.67969  0.04748  1.0000
  S   S235      1.0  0.30236  0.51579  0.09810  1.0000
  C   C1020     1.0  0.49054  0.59512  0.01656  1.0000
  C   C1021     1.0  0.40421  0.68566  0.03958  1.0000
  N   N56       1.0  0.41590  0.73819  0.02164  1.0000
  H   H1778     1.0  0.32239  0.61438  0.07245  1.0000
  C   C1022     1.0  0.37651  0.59996  0.12882  1.0000
  C   C1023     1.0  0.36940  0.61574  0.11646  1.0000
  C   C1024     1.0  0.35065  0.61735  0.11219  1.0000
  C   C1025     1.0  0.33879  0.60323  0.12017  1.0000
  C   C1026     1.0  0.34593  0.58723  0.13234  1.0000
  C   C1027     1.0  0.36476  0.58564  0.13667  1.0000
  H   H1779     1.0  0.37826  0.62685  0.11042  1.0000
  H   H1780     1.0  0.34528  0.62958  0.10261  1.0000
  H   H1781     1.0  0.33687  0.57630  0.13866  1.0000
  H   H1782     1.0  0.37017  0.57338  0.14628  1.0000
  C   C1028     1.0  0.44800  0.62944  0.03931  1.0000
  C   C1029     1.0  0.45086  0.64892  0.03579  1.0000
  C   C1030     1.0  0.44490  0.66046  0.01937  1.0000
  H   H1783     1.0  0.33261  0.82015  0.31012  1.0000
  C   C1031     1.0  0.43834  0.62182  0.02713  1.0000
  H   H1784     1.0  0.45829  0.65485  0.04529  1.0000
  H   H1785     1.0  0.35987  0.86879  0.15005  1.0000
  C   C1032     1.0  0.30482  0.61429  0.04984  1.0000
  H   H1786     1.0  0.48449  0.81263  0.16903  1.0000
  C   C1033     1.0  0.39851  0.71031  0.09486  1.0000
  C   C1034     1.0  0.38193  0.72294  0.09183  1.0000
  C   C1035     1.0  0.38035  0.74218  0.09514  1.0000
  C   C1036     1.0  0.39556  0.74917  0.10096  1.0000
  C   C1037     1.0  0.41251  0.73678  0.10340  1.0000
  C   C1038     1.0  0.41389  0.71721  0.10061  1.0000
  H   H1787     1.0  0.37012  0.71782  0.08708  1.0000
  H   H1788     1.0  0.36734  0.75173  0.09307  1.0000
  H   H1789     1.0  0.42434  0.74216  0.10786  1.0000
  H   H1790     1.0  0.42679  0.70755  0.10284  1.0000
  N   N57       1.0  0.39902  0.57882  0.06749  1.0000
  C   C1039     1.0  0.38090  0.56971  0.06901  1.0000
  C   C1040     1.0  0.41120  0.57492  0.04880  1.0000
  C   C1041     1.0  0.40980  0.56876  0.08372  1.0000
  C   C1042     1.0  0.39540  0.60023  0.06902  1.0000
  C   C1043     1.0  0.37738  0.61179  0.06108  1.0000
  C   C1044     1.0  0.36826  0.56928  0.08881  1.0000
  C   C1045     1.0  0.42971  0.57496  0.08413  1.0000
  C   C1046     1.0  0.37790  0.63354  0.05948  1.0000
  C   C1047     1.0  0.34785  0.56609  0.08741  1.0000
  C   C1048     1.0  0.43804  0.56557  0.10238  1.0000
  H   H1791     1.0  0.47125  0.79316  0.03040  1.0000
  H   H1792     1.0  0.35893  0.85523  0.12218  1.0000
  H   H1793     1.0  0.42513  0.58039  0.04768  1.0000
  H   H1794     1.0  0.42566  0.97730  0.31035  1.0000
  H   H1795     1.0  0.41173  0.55281  0.08363  1.0000
  H   H1796     1.0  0.40145  0.57142  0.09788  1.0000
  H   H1797     1.0  0.39391  0.60279  0.08432  1.0000
  H   H1798     1.0  0.40810  0.60729  0.06194  1.0000
  H   H1799     1.0  0.37362  0.81778  0.16349  1.0000
  H   H1800     1.0  0.37421  0.55731  0.09911  1.0000
  H   H1801     1.0  0.36778  0.58292  0.09485  1.0000
  H   H1802     1.0  0.42876  0.59084  0.08368  1.0000
  H   H1803     1.0  0.44010  0.57038  0.07189  1.0000
  H   H1804     1.0  0.37814  0.63787  0.07384  1.0000
  H   H1805     1.0  0.39068  0.63784  0.04969  1.0000
  H   H1806     1.0  0.34768  0.55266  0.08107  1.0000
  C   C1049     1.0  0.37761  0.63537  0.16441  1.0000
  H   H1807     1.0  0.38575  0.79487  0.04773  1.0000
  H   H1808     1.0  0.42881  0.57023  0.11533  1.0000
  H   H1809     1.0  0.43954  0.54958  0.10339  1.0000
  H   H1810     1.0  0.45236  0.57002  0.10212  1.0000
  C   C1050     1.0  0.32110  0.60383  0.03652  1.0000
  H   H1811     1.0  0.28973  0.54305  0.05096  1.0000
  H   H1812     1.0  0.35996  0.69355  0.16147  1.0000
  C   C1051     1.0  0.37942  0.86136  0.17149  1.0000
  H   H1813     1.0  0.37111  0.93063  0.27372  1.0000
  H   H1814     1.0  0.45418  0.71153  0.13392  1.0000
  H   H1815     1.0  0.38398  0.88296  0.13196  1.0000
  H   H1816     1.0  0.42929  0.71416  0.03970  1.0000
  H   H1817     1.0  0.36431  0.60839  0.07085  1.0000
  H   H1818     1.0  0.34003  0.71008  0.15423  1.0000
  N   N58       1.0  0.31499  0.59187  0.02305  1.0000
  S   S236      1.0  0.49084  0.85727  0.24585  1.0000
  H   H1819     1.0  0.37577  0.60847  0.04673  1.0000
  H   H1820     1.0  0.41653  0.56134  0.01294  1.0000
  H   H1821     1.0  0.38616  0.84848  0.18011  1.0000
  C   C1052     1.0  0.47761  0.85552  0.01020  1.0000
  H   H1822     1.0  0.30112  0.63147  0.07339  1.0000
  H   H1823     1.0  0.40677  0.68110  0.02501  1.0000
  C   C1053     1.0  0.36533  0.84080  0.12847  1.0000
  H   H1824     1.0  0.27660  0.51276  0.13350  1.0000
  H   H1825     1.0  0.48413  0.85998  0.30395  1.0000
  H   H1826     1.0  0.35289  0.64355  0.13962  1.0000
  H   H1827     1.0  0.46183  0.79874  0.20943  1.0000
  H   H1828     1.0  0.35475  0.58055  0.02848  1.0000
  H   H1829     1.0  0.48831  0.62763  0.03302  1.0000
  C   C1054     1.0  0.35431  0.69279  0.13167  1.0000
  C   C1055     1.0  0.31693  0.65800  0.15576  1.0000
  H   H1830     1.0  0.41519  0.77686  0.03369  1.0000
  H   H1831     1.0  0.35602  0.65832  0.17127  1.0000
  C   C1056     1.0  0.41062  0.97671  0.31706  1.0000
  H   H1832     1.0  0.49765  0.82625  0.08827  1.0000
  H   H1833     1.0  0.46733  0.80429  0.23199  1.0000
  H   H1834     1.0  0.37784  0.66587  0.15775  1.0000
  H   H1835     1.0  0.49170  0.84547  0.17223  1.0000
  H   H1836     1.0  0.31452  0.83596  0.29834  1.0000
  H   H1837     1.0  0.45746  0.82502  0.28773  1.0000
  H   H1838     1.0  0.40807  0.00630  0.32251  1.0000
  C   C1057     1.0  0.40169  0.77055  0.03458  1.0000
  H   H1839     1.0  0.49381  0.61595  0.11386  1.0000
  H   H1840     1.0  0.29575  0.60398  0.05868  1.0000
  C   C1058     1.0  0.41223  0.81546  0.01336  1.0000
  H   H1841     1.0  0.43026  0.87442  0.31117  1.0000
  H   H1842     1.0  0.36033  0.88734  0.17785  1.0000
  H   H1843     1.0  0.48385  0.83903  0.14050  1.0000
  H   H1844     1.0  0.38220  0.71377  0.13885  1.0000
  C   C1059     1.0  0.41547  0.57727  0.01232  1.0000
  H   H1845     1.0  0.40409  0.96874  0.29117  1.0000
  H   H1846     1.0  0.46235  0.86123  0.31930  1.0000
  H   H1847     1.0  0.30410  0.90378  0.33675  1.0000
  C   C1060     1.0  0.48198  0.78021  0.03009  1.0000
  H   H1848     1.0  0.34699  0.70384  0.12136  1.0000
  H   H1849     1.0  0.38512  0.96687  0.31014  1.0000
  N   N59       1.0  0.34488  0.67445  0.13517  1.0000
  H   H1850     1.0  0.43620  0.60684  0.02981  1.0000
  C   C1061     1.0  0.36697  0.87379  0.18561  1.0000
  H   H1851     1.0  0.31049  0.65520  0.14333  1.0000
  H   H1852     1.0  0.37059  0.86991  0.32673  1.0000
  H   H1853     1.0  0.46964  0.83083  0.19339  1.0000
  C   C1062     1.0  0.48416  0.70706  0.12238  1.0000
  H   H1854     1.0  0.48474  0.82455  0.30413  1.0000
  H   H1855     1.0  0.37405  0.77334  0.05260  1.0000
  C   C1063     1.0  0.31297  0.62472  0.06355  1.0000
  C   C1064     1.0  0.38806  0.77887  0.05088  1.0000
  S   S237      1.0  0.39794  0.86773  0.29330  1.0000
  C   C1065     1.0  0.32788  0.67595  0.15061  1.0000
  H   H1856     1.0  0.36756  0.72673  0.15693  1.0000
  S   S238      1.0  0.26416  0.59474  0.11755  1.0000
  C   C1066     1.0  0.49853  0.78278  0.04041  1.0000
  H   H1857     1.0  0.37595  0.87765  0.19561  1.0000
  H   H1858     1.0  0.38174  0.87338  0.11036  1.0000
  C   C1067     1.0  0.41777  0.87452  0.32184  1.0000
  H   H1859     1.0  0.29392  0.52995  0.03050  1.0000
  H   H1860     1.0  0.49436  0.68241  0.10735  1.0000
  C   C1068     1.0  0.40103  0.70765  0.03819  1.0000
  H   H1861     1.0  0.39083  0.86986  0.16388  1.0000
  C   C1069     1.0  0.39103  0.87296  0.12163  1.0000
  C   C1070     1.0  0.40302  0.58416  0.03008  1.0000
  H   H1862     1.0  0.41456  0.55903  0.04841  1.0000
  H   H1863     1.0  0.40307  0.82275  0.02437  1.0000
  H   H1864     1.0  0.39813  0.94975  0.27217  1.0000
  C   C1071     1.0  0.43705  0.91717  0.30628  1.0000
  H   H1865     1.0  0.32955  0.61514  0.02819  1.0000
  H   H1866     1.0  0.33850  0.83675  0.14753  1.0000
  H   H1867     1.0  0.50141  0.67988  0.13038  1.0000
  H   H1868     1.0  0.41911  0.88119  0.12252  1.0000
  C   C1072     1.0  0.35466  0.70338  0.14926  1.0000
  H   H1869     1.0  0.44790  0.67526  0.01604  1.0000
  H   H1870     1.0  0.29549  0.62524  0.04144  1.0000
  H   H1871     1.0  0.34071  0.57859  0.07859  1.0000
  H   H1872     1.0  0.35325  0.81447  0.14330  1.0000
  C   C1073     1.0  0.38534  0.82368  0.15315  1.0000
  C   C1074     1.0  0.39531  0.85208  0.13181  1.0000
  C   C1075     1.0  0.39475  0.80792  0.14040  1.0000
  C   C1076     1.0  0.40939  0.88079  0.11180  1.0000
  C   C1077     1.0  0.40023  0.78883  0.15277  1.0000
  H   H1873     1.0  0.43282  0.76175  0.01176  1.0000
  H   H1874     1.0  0.39616  0.82538  0.16223  1.0000
  H   H1875     1.0  0.40608  0.85213  0.14150  1.0000
  H   H1876     1.0  0.40276  0.84327  0.12049  1.0000
  H   H1877     1.0  0.40791  0.81232  0.13150  1.0000
  H   H1878     1.0  0.38502  0.80507  0.13069  1.0000
  C   C1078     1.0  0.43490  0.74589  0.01619  1.0000
  H   H1879     1.0  0.36378  0.66111  0.09918  1.0000
  H   H1880     1.0  0.32121  0.63620  0.05542  1.0000
  H   H1881     1.0  0.41058  0.79062  0.16237  1.0000
  H   H1882     1.0  0.38739  0.78349  0.16156  1.0000
  H   H1883     1.0  0.40696  0.77778  0.14337  1.0000
  H   H1884     1.0  0.46370  0.82429  0.32158  1.0000
  H   H1885     1.0  0.38353  0.63470  0.17811  1.0000
  C   C1079     1.0  0.40030  0.87183  0.31670  1.0000
  H   H1886     1.0  0.32517  0.68351  0.11424  1.0000
  C   C1080     1.0  0.38611  0.92437  0.26971  1.0000
  H   H1887     1.0  0.46052  0.69135  0.12035  1.0000
  C   C1081     1.0  0.46231  0.81052  0.21806  1.0000
  C   C1082     1.0  0.33701  0.82698  0.12064  1.0000
  H   H1888     1.0  0.46633  0.92297  0.30577  1.0000
  H   H1889     1.0  0.33128  0.84134  0.11362  1.0000
  H   H1890     1.0  0.36773  0.62425  0.16618  1.0000
  H   H1891     1.0  0.40601  0.89570  0.10456  1.0000
  C   C1083     1.0  0.45816  0.91509  0.29805  1.0000
  C   C1084     1.0  0.32517  0.83514  0.30840  1.0000
  H   H1892     1.0  0.47435  0.83692  0.21575  1.0000
  H   H1893     1.0  0.46700  0.68949  0.14429  1.0000
  C   C1085     1.0  0.36732  0.71958  0.14407  1.0000
  N   N60       1.0  0.37834  0.84299  0.14266  1.0000
  H   H1894     1.0  0.44762  0.81795  0.22109  1.0000
  C   C1086     1.0  0.36725  0.65552  0.15913  1.0000
  H   H1895     1.0  0.39699  0.71138  0.05304  1.0000
  N   N61       1.0  0.40712  0.94225  0.31086  1.0000
  H   H1896     1.0  0.36928  0.68987  0.12463  1.0000
  C   C1087     1.0  0.49625  0.81506  0.20361  1.0000
  C   C1088     1.0  0.39985  0.93432  0.27827  1.0000
  C   C1089     1.0  0.40089  0.96364  0.30678  1.0000
  C   C1090     1.0  0.43540  0.65264  0.00707  1.0000
  H   H1897     1.0  0.28883  0.56372  0.01815  1.0000
  H   H1898     1.0  0.31748  0.68866  0.14630  1.0000
  H   H1899     1.0  0.28574  0.60474  0.02119  1.0000
  H   H1900     1.0  0.31366  0.53322  0.04232  1.0000
  H   H1901     1.0  0.29031  0.67365  0.16794  1.0000
  H   H1902     1.0  0.39100  0.74333  0.04274  1.0000
  C   C1091     1.0  0.34837  0.82922  0.13660  1.0000
  H   H1903     1.0  0.49903  0.81238  0.02815  1.0000
  H   H1904     1.0  0.46004  0.92082  0.28257  1.0000
  H   H1905     1.0  0.34619  0.81883  0.10968  1.0000
  H   H1906     1.0  0.33195  0.67887  0.16425  1.0000
  H   H1907     1.0  0.35599  0.84778  0.16624  1.0000
  H   H1908     1.0  0.35823  0.68694  0.09556  1.0000
  C   C1092     1.0  0.35913  0.65704  0.13987  1.0000
  H   H1909     1.0  0.37174  0.65659  0.12856  1.0000
  H   H1910     1.0  0.44465  0.84521  0.29888  1.0000
  H   H1911     1.0  0.39431  0.77505  0.06450  1.0000
  H   H1912     1.0  0.38022  0.93621  0.30420  1.0000
  C   C1093     1.0  0.47613  0.85188  0.31648  1.0000
  H   H1913     1.0  0.33185  0.65809  0.11817  1.0000
  S   S239      1.0  0.45832  0.99303  0.27301  1.0000
  C   C1094     1.0  0.40532  0.74820  0.03831  1.0000
  H   H1914     1.0  0.34397  0.55943  0.02670  1.0000
  H   H1915     1.0  0.47669  0.76767  0.12548  1.0000
  C   C1095     1.0  0.42817  0.93856  0.30404  1.0000
  C   C1096     1.0  0.49203  0.76608  0.12257  1.0000
  H   H1916     1.0  0.36171  0.73062  0.13277  1.0000
  C   C1097     1.0  0.49418  0.82567  0.14074  1.0000
  C   C1098     1.0  0.47535  0.82492  0.20702  1.0000
  H   H1917     1.0  0.38856  0.58048  0.02989  1.0000
  H   H1918     1.0  0.35323  0.67291  0.06762  1.0000
  H   H1919     1.0  0.33099  0.68433  0.07874  1.0000
  H   H1920     1.0  0.48144  0.71746  0.10947  1.0000
  H   H1921     1.0  0.33065  0.59470  0.04620  1.0000
  C   C1099     1.0  0.45908  0.83837  0.29355  1.0000
  Fe  Fe120     1.0  0.26524  0.58033  0.09125  1.0000
  C   C1100     1.0  0.35201  0.67318  0.09826  1.0000
  H   H1922     1.0  0.29302  0.64796  0.17538  1.0000
  H   H1923     1.0  0.49236  0.78621  0.05481  1.0000
  H   H1924     1.0  0.39771  0.91583  0.30543  1.0000
  H   H1925     1.0  0.40261  0.60009  0.02845  1.0000
  H   H1926     1.0  0.38431  0.55445  0.06595  1.0000
  H   H1927     1.0  0.32650  0.64491  0.16055  1.0000
  H   H1928     1.0  0.43639  0.94606  0.31211  1.0000
  H   H1929     1.0  0.38959  0.63197  0.15309  1.0000
  H   H1930     1.0  0.35565  0.86575  0.19426  1.0000
  C   C1101     1.0  0.41922  0.71687  0.02874  1.0000
  H   H1931     1.0  0.33573  0.84519  0.30198  1.0000
  H   H1932     1.0  0.42969  0.90848  0.29869  1.0000
  H   H1933     1.0  0.33956  0.56472  0.10200  1.0000
  H   H1934     1.0  0.47713  0.59996  0.02562  1.0000
  C   C1102     1.0  0.34247  0.67206  0.08065  1.0000
  H   H1935     1.0  0.30630  0.66303  0.18531  1.0000
  C   C1103     1.0  0.30694  0.57468  0.03510  1.0000
  H   H1936     1.0  0.43134  0.94485  0.28876  1.0000
  H   H1937     1.0  0.37363  0.83409  0.11600  1.0000
  C   C1104     1.0  0.46534  0.69932  0.13073  1.0000
  H   H1938     1.0  0.33630  0.65828  0.08206  1.0000
  C   C1105     1.0  0.36745  0.85542  0.15726  1.0000
  H   H1939     1.0  0.47502  0.76758  0.03757  1.0000
  H   H1940     1.0  0.46407  0.89960  0.29946  1.0000
  H   H1941     1.0  0.31663  0.56774  0.04574  1.0000
  H   H1942     1.0  0.34219  0.84607  0.33497  1.0000
  H   H1943     1.0  0.42997  0.58159  0.01097  1.0000
  C   C1106     1.0  0.29976  0.54015  0.03787  1.0000
  H   H1944     1.0  0.48692  0.77795  0.01493  1.0000
  C   C1107     1.0  0.49783  0.81783  0.16126  1.0000
  H   H1945     1.0  0.46575  0.84833  0.28169  1.0000
  C   C1108     1.0  0.40061  0.99736  0.31522  1.0000
  C   C1109     1.0  0.47148  0.83335  0.30975  1.0000
  C   C1110     1.0  0.34891  0.57288  0.01861  1.0000
  H   H1946     1.0  0.25360  0.55491  0.06753  1.0000
  H   H1947     1.0  0.46710  0.88688  0.33172  1.0000
  H   H1948     1.0  0.49623  0.80110  0.19807  1.0000
  C   C1111     1.0  0.50059  0.63430  0.13287  1.0000
  C   C1112     1.0  0.50125  0.76106  0.10488  1.0000
  H   H1949     1.0  0.39134  0.67963  0.04757  1.0000
  S   S240      1.0  0.48808  0.75825  0.08679  1.0000
  H   H1950     1.0  0.48813  0.81474  0.13451  1.0000
  H   H1951     1.0  0.43605  0.91110  0.32167  1.0000
  N   N62       1.0  0.48673  0.84884  0.33376  1.0000
  H   H1952     1.0  0.31365  0.55502  0.01247  1.0000
  C   C1113     1.0  0.30235  0.55880  0.02424  1.0000
  H   H1953     1.0  0.49765  0.85359  0.20171  1.0000
  S   S241      1.0  0.25758  0.55226  0.10770  1.0000
  H   H1954     1.0  0.38872  0.74483  0.01037  1.0000
  H   H1955     1.0  0.49842  0.58349  0.02579  1.0000
  H   H1956     1.0  0.37194  0.93987  0.33448  1.0000
  H   H1957     1.0  0.41060  0.97153  0.33256  1.0000
  C   C1114     1.0  0.49999  0.69040  0.11722  1.0000
  C   C1115     1.0  0.47392  0.56815  0.00929  1.0000
  C   C1116     1.0  0.40352  0.93513  0.33207  1.0000
  H   H1958     1.0  0.47945  0.83972  0.01483  1.0000
  H   H1959     1.0  0.49550  0.77254  0.15047  1.0000
  H   H1960     1.0  0.48818  0.86212  0.01626  1.0000
  H   H1961     1.0  0.33146  0.87805  0.33107  1.0000
  H   H1962     1.0  0.40537  0.91904  0.33443  1.0000
  H   H1963     1.0  0.30770  0.85555  0.32506  1.0000
  C   C1117     1.0  0.31512  0.84069  0.32776  1.0000
  H   H1964     1.0  0.49687  0.62577  0.06657  1.0000
  C   C1118     1.0  0.49702  0.88195  0.27023  1.0000
  C   C1119     1.0  0.49381  0.86756  0.33549  1.0000
  H   H1965     1.0  0.49892  0.81910  0.33188  1.0000
  H   H1966     1.0  0.30313  0.61976  0.00963  1.0000
  C   C1120     1.0  0.30000  0.60449  0.01228  1.0000
  H   H1967     1.0  0.46148  0.57275  0.01971  1.0000
  H   H1968     1.0  0.37686  0.55750  0.01027  1.0000
  H   H1969     1.0  0.49386  0.90731  0.32570  1.0000
  H   H1970     1.0  0.50073  0.81100  0.21814  1.0000
  H   H1971     1.0  0.32682  0.91254  0.33529  1.0000
  H   H1972     1.0  0.30446  0.83054  0.33315  1.0000
  C   C1121     1.0  0.33245  0.58595  0.00933  1.0000
  C   C1122     1.0  0.25217  0.56117  0.05293  1.0000
  S   S242      1.0  0.25387  0.59618  0.06460  1.0000
  H   H1973     1.0  0.48441  0.00703  0.22639  1.0000
  H   H1974     1.0  0.47504  0.74035  0.00958  1.0000
  H   H1975     1.0  0.26825  0.00638  0.57558  1.0000
  C   C1123     1.0  0.27417  0.92341  0.65596  1.0000
  S   S243      1.0  0.33826  0.98774  0.47021  1.0000
  Fe  Fe121     1.0  0.36447  0.88886  0.44272  1.0000
  S   S244      1.0  0.33370  0.89361  0.43848  1.0000
  S   S245      1.0  0.37388  0.89681  0.46932  1.0000
  Fe  Fe122     1.0  0.37771  0.88321  0.40009  1.0000
  S   S246      1.0  0.34770  0.88812  0.39274  1.0000
  S   S247      1.0  0.40468  0.88069  0.37853  1.0000
  Fe  Fe123     1.0  0.34309  0.91190  0.41117  1.0000
  S   S248      1.0  0.32830  0.94172  0.40390  1.0000
  Fe  Fe124     1.0  0.34100  0.86932  0.42078  1.0000
  S   S249      1.0  0.31989  0.84779  0.42544  1.0000
  S   S250      1.0  0.37342  0.90874  0.41623  1.0000
  S   S251      1.0  0.37147  0.86260  0.42714  1.0000
  Fe  Fe125     1.0  0.32016  0.88267  0.61995  1.0000
  S   S252      1.0  0.34745  0.86543  0.60911  1.0000
  C   C1124     1.0  0.40515  0.94202  0.40805  1.0000
  Fe  Fe126     1.0  0.33042  0.91918  0.59539  1.0000
  S   S253      1.0  0.35863  0.90503  0.58245  1.0000
  S   S254      1.0  0.32113  0.95030  0.58564  1.0000
  Fe  Fe127     1.0  0.34203  0.88103  0.57999  1.0000
  S   S255      1.0  0.34149  0.86497  0.55473  1.0000
  S   S256      1.0  0.31358  0.89635  0.59085  1.0000
  C   C1125     1.0  0.29697  0.85797  0.42029  1.0000
  C   C1126     1.0  0.29415  0.87625  0.40966  1.0000
  C   C1127     1.0  0.27624  0.88332  0.40384  1.0000
  C   C1128     1.0  0.31819  0.96807  0.63770  1.0000
  H   H1976     1.0  0.26520  0.80999  0.58627  1.0000
  C   C1129     1.0  0.28151  0.84735  0.42611  1.0000
  H   H1977     1.0  0.30594  0.88462  0.40527  1.0000
  C   C1130     1.0  0.27377  0.82606  0.38109  1.0000
  H   H1978     1.0  0.28360  0.83323  0.43441  1.0000
  C   C1131     1.0  0.36349  0.88860  0.49277  1.0000
  C   C1132     1.0  0.35286  0.87300  0.49643  1.0000
  C   C1133     1.0  0.34594  0.86607  0.51547  1.0000
  C   C1134     1.0  0.34931  0.87487  0.53094  1.0000
  C   C1135     1.0  0.35930  0.89094  0.52720  1.0000
  C   C1136     1.0  0.36649  0.89766  0.50819  1.0000
  H   H1979     1.0  0.35048  0.86592  0.48465  1.0000
  H   H1980     1.0  0.33826  0.85362  0.51824  1.0000
  H   H1981     1.0  0.36191  0.89778  0.53902  1.0000
  H   H1982     1.0  0.37461  0.90978  0.50536  1.0000
  H   H1983     1.0  0.26358  0.94768  0.43527  1.0000
  C   C1137     1.0  0.26837  0.87821  0.62596  1.0000
  H   H1984     1.0  0.27737  0.88396  0.61346  1.0000
  C   C1138     1.0  0.33276  0.97469  0.45312  1.0000
  C   C1139     1.0  0.33896  0.95493  0.45431  1.0000
  C   C1140     1.0  0.33731  0.94481  0.43929  1.0000
  C   C1141     1.0  0.32897  0.95424  0.42327  1.0000
  C   C1142     1.0  0.32180  0.97381  0.42255  1.0000
  C   C1143     1.0  0.32376  0.98406  0.43747  1.0000
  H   H1985     1.0  0.34593  0.94760  0.46637  1.0000
  H   H1986     1.0  0.34305  0.92982  0.44002  1.0000
  H   H1987     1.0  0.31505  0.98108  0.41035  1.0000
  H   H1988     1.0  0.29148  0.92497  0.40685  1.0000
  C   C1144     1.0  0.32660  0.98517  0.63301  1.0000
  H   H1989     1.0  0.37724  0.98519  0.66340  1.0000
  C   C1145     1.0  0.31615  0.95736  0.62314  1.0000
  C   C1146     1.0  0.32219  0.96398  0.60393  1.0000
  C   C1147     1.0  0.33009  0.98127  0.59926  1.0000
  C   C1148     1.0  0.33275  0.99159  0.61380  1.0000
  H   H1990     1.0  0.36833  0.96529  0.41058  1.0000
  C   C1149     1.0  0.27245  0.91680  0.44406  1.0000
  H   H1991     1.0  0.33481  0.98632  0.58443  1.0000
  C   C1150     1.0  0.38792  0.88852  0.65146  1.0000
  C   C1151     1.0  0.26083  0.87258  0.40940  1.0000
  H   H1992     1.0  0.31521  0.83698  0.57482  1.0000
  H   H1993     1.0  0.36539  0.85666  0.65177  1.0000
  C   C1152     1.0  0.40282  0.87730  0.35478  1.0000
  C   C1153     1.0  0.38537  0.87486  0.34954  1.0000
  H   H1994     1.0  0.30913  0.87324  0.37213  1.0000
  N   N63       1.0  0.38886  0.95553  0.66066  1.0000
  H   H1995     1.0  0.43257  0.87910  0.34485  1.0000
  H   H1996     1.0  0.37290  0.87502  0.36015  1.0000
  H   H1997     1.0  0.39440  0.96228  0.62978  1.0000
  H   H1998     1.0  0.30014  0.86744  0.56265  1.0000
  C   C1154     1.0  0.31383  0.86794  0.35796  1.0000
  Fe  Fe128     1.0  0.36130  0.89100  0.61288  1.0000
  H   H1999     1.0  0.25796  0.95093  0.64948  1.0000
  C   C1155     1.0  0.41898  0.99530  0.42474  1.0000
  H   H2000     1.0  0.48709  0.85317  0.37290  1.0000
  H   H2001     1.0  0.40310  0.93303  0.42227  1.0000
  H   H2002     1.0  0.25283  0.89408  0.47267  1.0000
  H   H2003     1.0  0.31435  0.83463  0.54459  1.0000
  H   H2004     1.0  0.37657  0.95689  0.47953  1.0000
  H   H2005     1.0  0.27066  0.85681  0.67188  1.0000
  C   C1156     1.0  0.27011  0.87706  0.56014  1.0000
  C   C1157     1.0  0.37989  0.93088  0.36258  1.0000
  H   H2006     1.0  0.29276  0.99899  0.60956  1.0000
  C   C1158     1.0  0.39487  0.99735  0.50069  1.0000
  H   H2007     1.0  0.40382  0.98877  0.48996  1.0000
  C   C1159     1.0  0.28604  0.86481  0.57091  1.0000
  H   H2008     1.0  0.25607  0.87685  0.56925  1.0000
  H   H2009     1.0  0.27532  0.81359  0.60699  1.0000
  H   H2010     1.0  0.40256  0.98959  0.63664  1.0000
  H   H2011     1.0  0.28552  0.87107  0.58442  1.0000
  H   H2012     1.0  0.37104  0.81116  0.39525  1.0000
  S   S257      1.0  0.30083  0.86796  0.64369  1.0000
  H   H2013     1.0  0.35342  0.00115  0.38272  1.0000
  H   H2014     1.0  0.26382  0.85590  0.48098  1.0000
  C   C1160     1.0  0.37106  0.84486  0.66239  1.0000
  C   C1161     1.0  0.38284  0.95730  0.64093  1.0000
  H   H2015     1.0  0.28757  0.89921  0.54572  1.0000
  H   H2016     1.0  0.36637  0.93732  0.37043  1.0000
  H   H2017     1.0  0.32162  0.83104  0.62700  1.0000
  H   H2018     1.0  0.37235  0.97459  0.44585  1.0000
  H   H2019     1.0  0.41478  0.96989  0.39642  1.0000
  H   H2020     1.0  0.47548  0.91460  0.34451  1.0000
  H   H2021     1.0  0.26720  0.92069  0.67103  1.0000
  C   C1162     1.0  0.27632  0.87002  0.64260  1.0000
  C   C1163     1.0  0.28624  0.84117  0.37048  1.0000
  C   C1164     1.0  0.28408  0.83476  0.55725  1.0000
  H   H2022     1.0  0.41813  0.87990  0.65138  1.0000
  H   H2023     1.0  0.27007  0.83920  0.55185  1.0000
  H   H2024     1.0  0.36962  0.92788  0.61097  1.0000
  H   H2025     1.0  0.33372  0.82697  0.60348  1.0000
  H   H2026     1.0  0.34821  0.95750  0.66243  1.0000
  C   C1165     1.0  0.27381  0.89813  0.55524  1.0000
  H   H2027     1.0  0.49765  0.90103  0.35058  1.0000
  H   H2028     1.0  0.28107  0.85488  0.37659  1.0000
  C   C1166     1.0  0.33878  0.84565  0.37214  1.0000
  H   H2029     1.0  0.25859  0.91320  0.44101  1.0000
  C   C1167     1.0  0.29219  0.91883  0.46913  1.0000
  C   C1168     1.0  0.29986  0.90806  0.48772  1.0000
  H   H2030     1.0  0.26216  0.90654  0.54765  1.0000
  H   H2031     1.0  0.40420  0.00271  0.50938  1.0000
  N   N64       1.0  0.28462  0.84348  0.57530  1.0000
  H   H2032     1.0  0.45966  0.85263  0.35208  1.0000
  C   C1169     1.0  0.31756  0.91614  0.49123  1.0000
  C   C1170     1.0  0.29993  0.83936  0.54032  1.0000
  H   H2033     1.0  0.45886  0.82336  0.38649  1.0000
  C   C1171     1.0  0.36250  0.98855  0.37706  1.0000
  H   H2034     1.0  0.39052  0.92721  0.63530  1.0000
  H   H2035     1.0  0.36580  0.93296  0.64486  1.0000
  H   H2036     1.0  0.28516  0.81876  0.56041  1.0000
  H   H2037     1.0  0.38502  0.82771  0.63986  1.0000
  C   C1172     1.0  0.34808  0.82503  0.37918  1.0000
  H   H2038     1.0  0.30328  0.91500  0.45714  1.0000
  H   H2039     1.0  0.29243  0.93461  0.46899  1.0000
  H   H2040     1.0  0.30403  0.89249  0.48643  1.0000
  H   H2041     1.0  0.28919  0.90910  0.50065  1.0000
  H   H2042     1.0  0.31828  0.99916  0.43689  1.0000
  H   H2043     1.0  0.29071  0.83825  0.61452  1.0000
  H   H2044     1.0  0.28886  0.94173  0.43585  1.0000
  H   H2045     1.0  0.39173  0.93131  0.37088  1.0000
  H   H2046     1.0  0.38867  0.99659  0.38305  1.0000
  C   C1173     1.0  0.28018  0.87816  0.46481  1.0000
  H   H2047     1.0  0.38950  0.97175  0.37979  1.0000
  H   H2048     1.0  0.35051  0.85298  0.36337  1.0000
  H   H2049     1.0  0.35966  0.95228  0.61395  1.0000
  H   H2050     1.0  0.31420  0.93171  0.49290  1.0000
  H   H2051     1.0  0.32274  0.90827  0.50457  1.0000
  H   H2052     1.0  0.32916  0.91430  0.47907  1.0000
  C   C1174     1.0  0.31702  0.90273  0.34398  1.0000
  C   C1175     1.0  0.29833  0.82901  0.52331  1.0000
  H   H2053     1.0  0.42834  0.00373  0.34988  1.0000
  C   C1176     1.0  0.26458  0.86306  0.65896  1.0000
  H   H2054     1.0  0.25384  0.84588  0.58107  1.0000
  H   H2055     1.0  0.28399  0.83306  0.51859  1.0000
  N   N65       1.0  0.37960  0.95577  0.54041  1.0000
  C   C1177     1.0  0.37117  0.96805  0.55609  1.0000
  C   C1178     1.0  0.36414  0.94731  0.53320  1.0000
  C   C1179     1.0  0.39279  0.93918  0.54924  1.0000
  C   C1180     1.0  0.39127  0.96683  0.52409  1.0000
  C   C1181     1.0  0.38076  0.98523  0.51366  1.0000
  C   C1182     1.0  0.38559  0.97821  0.56414  1.0000
  C   C1183     1.0  0.40086  0.92288  0.53662  1.0000
  C   C1184     1.0  0.34469  0.96006  0.53169  1.0000
  C   C1185     1.0  0.33234  0.95127  0.52034  1.0000
  C   C1186     1.0  0.25528  0.93071  0.49528  1.0000
  C   C1187     1.0  0.37586  0.98935  0.58050  1.0000
  C   C1188     1.0  0.41297  0.90657  0.54766  1.0000
  H   H2056     1.0  0.36345  0.95913  0.56830  1.0000
  H   H2057     1.0  0.36014  0.97967  0.55120  1.0000
  H   H2058     1.0  0.36947  0.94252  0.51887  1.0000
  H   H2059     1.0  0.36044  0.93406  0.54293  1.0000
  H   H2060     1.0  0.38540  0.93230  0.56297  1.0000
  H   H2061     1.0  0.40548  0.94440  0.55309  1.0000
  H   H2062     1.0  0.40405  0.97077  0.52908  1.0000
  H   H2063     1.0  0.39716  0.95752  0.51277  1.0000
  H   H2064     1.0  0.37216  0.99460  0.52383  1.0000
  H   H2065     1.0  0.37132  0.98111  0.50429  1.0000
  H   H2066     1.0  0.39708  0.96776  0.56995  1.0000
  H   H2067     1.0  0.39210  0.98878  0.55278  1.0000
  H   H2068     1.0  0.41002  0.92843  0.52352  1.0000
  H   H2069     1.0  0.38932  0.91636  0.53217  1.0000
  H   H2070     1.0  0.33682  0.96104  0.54630  1.0000
  H   H2071     1.0  0.34615  0.97492  0.52472  1.0000
  H   H2072     1.0  0.37006  0.97946  0.59285  1.0000
  H   H2073     1.0  0.31827  0.96030  0.52003  1.0000
  H   H2074     1.0  0.33925  0.95077  0.50527  1.0000
  C   C1189     1.0  0.36434  0.82599  0.39062  1.0000
  H   H2075     1.0  0.30926  0.83315  0.51109  1.0000
  H   H2076     1.0  0.39551  0.82240  0.66210  1.0000
  H   H2077     1.0  0.38638  0.99699  0.58546  1.0000
  H   H2078     1.0  0.28111  0.94977  0.40268  1.0000
  H   H2079     1.0  0.30796  0.83521  0.38866  1.0000
  H   H2080     1.0  0.42525  0.91201  0.55209  1.0000
  H   H2081     1.0  0.40423  0.90000  0.56064  1.0000
  H   H2082     1.0  0.41856  0.89512  0.53835  1.0000
  H   H2083     1.0  0.42404  0.93968  0.38108  1.0000
  C   C1190     1.0  0.26174  0.00035  0.37987  1.0000
  C   C1191     1.0  0.37075  0.89361  0.66289  1.0000
  H   H2084     1.0  0.28734  0.93004  0.65597  1.0000
  H   H2085     1.0  0.32998  0.93643  0.52713  1.0000
  H   H2086     1.0  0.30720  0.85441  0.60249  1.0000
  H   H2087     1.0  0.31336  0.96307  0.65255  1.0000
  H   H2088     1.0  0.37041  0.96868  0.63932  1.0000
  H   H2089     1.0  0.27734  0.81240  0.37459  1.0000
  H   H2090     1.0  0.36617  0.99211  0.36128  1.0000
  C   C1192     1.0  0.38073  0.98388  0.38653  1.0000
  C   C1193     1.0  0.30191  0.83367  0.58432  1.0000
  C   C1194     1.0  0.38877  0.83402  0.65201  1.0000
  H   H2091     1.0  0.38458  0.94679  0.60424  1.0000
  H   H2092     1.0  0.26834  0.00641  0.44219  1.0000
  H   H2093     1.0  0.35773  0.89745  0.65649  1.0000
  H   H2094     1.0  0.41846  0.91697  0.39444  1.0000
  H   H2095     1.0  0.29541  0.88043  0.46129  1.0000
  C   C1195     1.0  0.35556  0.83137  0.67028  1.0000
  C   C1196     1.0  0.37599  0.97829  0.40856  1.0000
  H   H2096     1.0  0.29884  0.85505  0.53515  1.0000
  C   C1197     1.0  0.37801  0.93847  0.63510  1.0000
  H   H2097     1.0  0.39218  0.94278  0.40108  1.0000
  H   H2098     1.0  0.28754  0.84717  0.47055  1.0000
  C   C1198     1.0  0.40474  0.88379  0.66011  1.0000
  H   H2099     1.0  0.43505  0.92996  0.40247  1.0000
  C   C1199     1.0  0.38968  0.94857  0.47287  1.0000
  H   H2100     1.0  0.40519  0.92720  0.66033  1.0000
  H   H2101     1.0  0.25985  0.94471  0.46657  1.0000
  C   C1200     1.0  0.39870  0.96049  0.45492  1.0000
  H   H2102     1.0  0.38591  0.93497  0.46920  1.0000
  N   N66       1.0  0.27281  0.91508  0.46551  1.0000
  C   C1201     1.0  0.27877  0.93541  0.41077  1.0000
  C   C1202     1.0  0.47319  0.84253  0.35127  1.0000
  H   H2103     1.0  0.27440  0.89696  0.39472  1.0000
  H   H2104     1.0  0.26861  0.93900  0.62884  1.0000
  H   H2105     1.0  0.41223  0.95198  0.44958  1.0000
  H   H2106     1.0  0.30075  0.81311  0.52729  1.0000
  C   C1203     1.0  0.42175  0.93161  0.39574  1.0000
  N   N67       1.0  0.39262  0.97493  0.42009  1.0000
  H   H2107     1.0  0.40172  0.97401  0.45940  1.0000
  C   C1204     1.0  0.38495  0.96526  0.43957  1.0000
  H   H2108     1.0  0.36499  0.98974  0.41424  1.0000
  C   C1205     1.0  0.40650  0.98585  0.65140  1.0000
  S   S258      1.0  0.33426  0.90714  0.62579  1.0000
  C   C1206     1.0  0.40921  0.96236  0.41061  1.0000
  C   C1207     1.0  0.30387  0.83934  0.60417  1.0000
  C   C1208     1.0  0.40875  0.00465  0.65854  1.0000
  H   H2109     1.0  0.39999  0.94467  0.48343  1.0000
  H   H2110     1.0  0.35429  0.97596  0.37986  1.0000
  H   H2111     1.0  0.33491  0.82348  0.34496  1.0000
  H   H2112     1.0  0.46878  0.82832  0.35015  1.0000
  C   C1209     1.0  0.37266  0.94168  0.61478  1.0000
  H   H2113     1.0  0.31685  0.81108  0.61610  1.0000
  H   H2114     1.0  0.37932  0.95167  0.43822  1.0000
  H   H2115     1.0  0.43459  0.99644  0.37379  1.0000
  C   C1210     1.0  0.27596  0.93665  0.43235  1.0000
  S   S259      1.0  0.38870  0.88772  0.62648  1.0000
  H   H2116     1.0  0.37544  0.83418  0.38172  1.0000
  H   H2117     1.0  0.30247  0.81769  0.58565  1.0000
  H   H2118     1.0  0.33763  0.81655  0.38871  1.0000
  C   C1211     1.0  0.48099  0.84018  0.37084  1.0000
  H   H2119     1.0  0.31218  0.89572  0.66742  1.0000
  C   C1212     1.0  0.32004  0.82625  0.61318  1.0000
  C   C1213     1.0  0.26421  0.81946  0.59761  1.0000
  H   H2120     1.0  0.42148  0.95987  0.41891  1.0000
  H   H2121     1.0  0.30974  0.94412  0.62676  1.0000
  H   H2122     1.0  0.35422  0.81706  0.36689  1.0000
  C   C1214     1.0  0.39793  0.99454  0.42205  1.0000
  C   C1215     1.0  0.27885  0.85903  0.47784  1.0000
  C   C1216     1.0  0.30756  0.83496  0.37305  1.0000
  H   H2123     1.0  0.28368  0.90610  0.43762  1.0000
  C   C1217     1.0  0.26338  0.85479  0.42096  1.0000
  H   H2124     1.0  0.29975  0.00357  0.57778  1.0000
  H   H2125     1.0  0.35881  0.83307  0.40367  1.0000
  H   H2126     1.0  0.34008  0.88218  0.35249  1.0000
  C   C1218     1.0  0.47825  0.88414  0.34136  1.0000
  H   H2127     1.0  0.26912  0.87166  0.54649  1.0000
  N   N68       1.0  0.32212  0.84693  0.36101  1.0000
  H   H2128     1.0  0.44601  0.93201  0.66503  1.0000
  H   H2129     1.0  0.33994  0.00427  0.61009  1.0000
  H   H2130     1.0  0.28442  0.85953  0.49150  1.0000
  H   H2131     1.0  0.31122  0.81949  0.37081  1.0000
  H   H2132     1.0  0.27423  0.90449  0.56855  1.0000
  H   H2133     1.0  0.26830  0.93521  0.49911  1.0000
  C   C1219     1.0  0.40748  0.94233  0.66108  1.0000
  H   H2134     1.0  0.33433  0.85328  0.38505  1.0000
  H   H2135     1.0  0.27287  0.98781  0.38224  1.0000
  C   C1220     1.0  0.26645  0.84058  0.58869  1.0000
  H   H2136     1.0  0.41775  0.94612  0.64810  1.0000
  S   S260      1.0  0.32945  0.99848  0.65111  1.0000
  H   H2137     1.0  0.47106  0.83470  0.40137  1.0000
  H   H2138     1.0  0.30074  0.86993  0.35092  1.0000
  H   H2139     1.0  0.31757  0.83490  0.66597  1.0000
  C   C1221     1.0  0.41904  0.87714  0.34087  1.0000
  H   H2140     1.0  0.28387  0.84354  0.35524  1.0000
  H   H2141     1.0  0.27573  0.82311  0.39652  1.0000
  H   H2142     1.0  0.27482  0.87678  0.45126  1.0000
  H   H2143     1.0  0.31285  0.90757  0.35840  1.0000
  H   H2144     1.0  0.38221  0.95756  0.34401  1.0000
  C   C1222     1.0  0.26793  0.89523  0.47408  1.0000
  H   H2145     1.0  0.37858  0.91557  0.36163  1.0000
  H   H2146     1.0  0.26469  0.84956  0.60060  1.0000
  H   H2147     1.0  0.35098  0.82762  0.65709  1.0000
  H   H2148     1.0  0.41480  0.00168  0.67232  1.0000
  H   H2149     1.0  0.26855  0.89262  0.48977  1.0000
  H   H2150     1.0  0.42851  0.99269  0.41124  1.0000
  H   H2151     1.0  0.41439  0.93919  0.33991  1.0000
  H   H2152     1.0  0.45369  0.84910  0.38752  1.0000
  H   H2153     1.0  0.42380  0.98428  0.43637  1.0000
  H   H2154     1.0  0.26607  0.93068  0.40647  1.0000
  C   C1223     1.0  0.46514  0.83661  0.38752  1.0000
  C   C1224     1.0  0.32711  0.88203  0.34579  1.0000
  H   H2155     1.0  0.42060  0.97688  0.65063  1.0000
  H   H2156     1.0  0.27642  0.99356  0.64231  1.0000
  H   H2157     1.0  0.39931  0.84423  0.64612  1.0000
  C   C1225     1.0  0.39083  0.97543  0.66477  1.0000
  H   H2158     1.0  0.36414  0.00021  0.57562  1.0000
  C   C1226     1.0  0.32954  0.83910  0.34229  1.0000
  H   H2159     1.0  0.49227  0.82762  0.37189  1.0000
  C   C1227     1.0  0.26080  0.93694  0.64356  1.0000
  H   H2160     1.0  0.38837  0.00094  0.43405  1.0000
  H   H2161     1.0  0.25259  0.91660  0.50368  1.0000
  H   H2162     1.0  0.25851  0.83153  0.38013  1.0000
  H   H2163     1.0  0.33232  0.86392  0.66251  1.0000
  H   H2164     1.0  0.27833  0.90943  0.65013  1.0000
  C   C1228     1.0  0.25736  0.92991  0.47337  1.0000
  H   H2165     1.0  0.47123  0.88060  0.35626  1.0000
  C   C1229     1.0  0.38348  0.94199  0.34247  1.0000
  H   H2166     1.0  0.32601  0.99524  0.55113  1.0000
  H   H2167     1.0  0.26748  0.00139  0.60948  1.0000
  H   H2168     1.0  0.30502  0.80490  0.66278  1.0000
  C   C1230     1.0  0.48688  0.90289  0.34047  1.0000
  H   H2169     1.0  0.39524  0.00525  0.40929  1.0000
  H   H2170     1.0  0.47906  0.00544  0.37930  1.0000
  Fe  Fe129     1.0  0.44912  0.86821  0.74432  1.0000
  S   S261      1.0  0.44596  0.88394  0.76994  1.0000
  S   S262      1.0  0.47821  0.85140  0.73877  1.0000
  Fe  Fe130     1.0  0.40895  0.88339  0.73506  1.0000
  S   S263      1.0  0.40266  0.90007  0.76049  1.0000
  S   S264      1.0  0.38476  0.88669  0.71686  1.0000
  Fe  Fe131     1.0  0.43195  0.90859  0.75121  1.0000
  S   S265      1.0  0.44127  0.93817  0.74662  1.0000
  Fe  Fe132     1.0  0.41724  0.87375  0.77709  1.0000
  S   S266      1.0  0.40468  0.86177  0.80715  1.0000
  S   S267      1.0  0.43739  0.89369  0.72478  1.0000
  S   S268      1.0  0.42107  0.85618  0.75246  1.0000
  Fe  Fe133     1.0  0.43490  0.64205  0.92202  1.0000
  S   S269      1.0  0.44310  0.60992  0.92561  1.0000
  S   S270      1.0  0.43099  0.65765  0.89274  1.0000
  Fe  Fe134     1.0  0.43313  0.64480  0.96390  1.0000
  S   S271      1.0  0.44086  0.61278  0.97099  1.0000
  S   S272      1.0  0.40562  0.79249  0.96614  1.0000
  Fe  Fe135     1.0  0.46304  0.61569  0.94519  1.0000
  H   H2171     1.0  0.49560  0.99311  0.84948  1.0000
  Fe  Fe136     1.0  0.42006  0.60997  0.95103  1.0000
  S   S273      1.0  0.40094  0.58590  0.95780  1.0000
  S   S274      1.0  0.45666  0.64786  0.93935  1.0000
  S   S275      1.0  0.41062  0.64189  0.94605  1.0000
  Fe  Fe137     1.0  0.46334  0.76931  0.92253  1.0000
  S   S276      1.0  0.45224  0.79948  0.92856  1.0000
  H   H2172     1.0  0.42347  0.00101  0.73895  1.0000
  Fe  Fe138     1.0  0.42857  0.76528  0.90424  1.0000
  S   S277      1.0  0.41440  0.79499  0.90933  1.0000
  S   S278      1.0  0.41589  0.74879  0.88558  1.0000
  Fe  Fe139     1.0  0.44330  0.80433  0.89898  1.0000
  S   S279      1.0  0.45151  0.82984  0.87730  1.0000
  C   C1231     1.0  0.43630  0.98329  0.77631  1.0000
  S   S280      1.0  0.45686  0.77503  0.89222  1.0000
  S   S281      1.0  0.43627  0.75665  0.93406  1.0000
  Fe  Fe140     1.0  0.29472  0.56875  0.94618  1.0000
  H   H2173     1.0  0.48173  0.89388  0.78650  1.0000
  S   S282      1.0  0.31422  0.59229  0.94320  1.0000
  Fe  Fe141     1.0  0.28844  0.52672  0.94459  1.0000
  H   H2174     1.0  0.44314  0.92742  0.69089  1.0000
  C   C1232     1.0  0.31560  0.87076  0.68937  1.0000
  C   C1233     1.0  0.49318  0.92781  0.79352  1.0000
  C   C1234     1.0  0.28393  0.53051  0.88002  1.0000
  H   H2175     1.0  0.30943  0.52309  0.89440  1.0000
  S   S283      1.0  0.29110  0.55266  0.92219  1.0000
  S   S284      1.0  0.29513  0.54214  0.96786  1.0000
  C   C1235     1.0  0.48157  0.67141  0.88669  1.0000
  C   C1236     1.0  0.49849  0.67694  0.89515  1.0000
  H   H2176     1.0  0.45420  0.99591  0.80664  1.0000
  N   N69       1.0  0.46748  0.85367  0.95780  1.0000
  H   H2177     1.0  0.39724  0.00496  0.75815  1.0000
  C   C1237     1.0  0.48750  0.84559  0.94988  1.0000
  C   C1238     1.0  0.43581  0.79759  0.98412  1.0000
  H   H2178     1.0  0.50053  0.63731  0.92988  1.0000
  C   C1239     1.0  0.32402  0.80744  0.68339  1.0000
  H   H2179     1.0  0.39973  0.96141  0.80259  1.0000
  H   H2180     1.0  0.46529  0.69211  0.91649  1.0000
  C   C1240     1.0  0.46967  0.73311  0.86858  1.0000
  H   H2181     1.0  0.47446  0.78038  0.95654  1.0000
  N   N70       1.0  0.49493  0.69481  0.90522  1.0000
  C   C1241     1.0  0.49125  0.94839  0.76123  1.0000
  H   H2182     1.0  0.49555  0.65320  0.96206  1.0000
  C   C1242     1.0  0.37674  0.58792  0.95393  1.0000
  C   C1243     1.0  0.36876  0.57112  0.95276  1.0000
  C   C1244     1.0  0.34948  0.57208  0.95006  1.0000
  C   C1245     1.0  0.33806  0.58993  0.94826  1.0000
  C   C1246     1.0  0.34596  0.60669  0.94973  1.0000
  C   C1247     1.0  0.36515  0.60568  0.95272  1.0000
  H   H2183     1.0  0.37756  0.55727  0.95392  1.0000
  H   H2184     1.0  0.34358  0.55907  0.94895  1.0000
  H   H2185     1.0  0.33718  0.62054  0.94853  1.0000
  H   H2186     1.0  0.37090  0.61861  0.95431  1.0000
  C   C1248     1.0  0.42640  0.68290  0.89172  1.0000
  C   C1249     1.0  0.42717  0.69230  0.90761  1.0000
  C   C1250     1.0  0.42401  0.71263  0.90599  1.0000
  C   C1251     1.0  0.41975  0.72343  0.88862  1.0000
  C   C1252     1.0  0.41852  0.71392  0.87300  1.0000
  C   C1253     1.0  0.42207  0.69377  0.87446  1.0000
  H   H2187     1.0  0.43022  0.68394  0.92109  1.0000
  H   H2188     1.0  0.42458  0.71996  0.91818  1.0000
  H   H2189     1.0  0.41492  0.72220  0.85967  1.0000
  H   H2190     1.0  0.42133  0.68658  0.86221  1.0000
  H   H2191     1.0  0.45130  0.88188  0.96037  1.0000
  C   C1254     1.0  0.41603  0.80014  0.98421  1.0000
  H   H2192     1.0  0.40376  0.79401  0.81920  1.0000
  C   C1255     1.0  0.41795  0.85370  0.82662  1.0000
  C   C1256     1.0  0.43764  0.85417  0.82479  1.0000
  C   C1257     1.0  0.44768  0.84706  0.84054  1.0000
  C   C1258     1.0  0.43827  0.83887  0.85801  1.0000
  C   C1259     1.0  0.41862  0.83827  0.85980  1.0000
  C   C1260     1.0  0.40848  0.84603  0.84429  1.0000
  H   H2193     1.0  0.44509  0.85989  0.81122  1.0000
  H   H2194     1.0  0.46287  0.84746  0.83913  1.0000
  H   H2195     1.0  0.41114  0.83224  0.87326  1.0000
  H   H2196     1.0  0.39320  0.84603  0.84594  1.0000
  C   C1261     1.0  0.38691  0.88807  0.69155  1.0000
  C   C1262     1.0  0.40426  0.88354  0.68010  1.0000
  H   H2197     1.0  0.44952  0.87451  0.92592  1.0000
  H   H2198     1.0  0.45324  0.78433  0.79860  1.0000
  H   H2199     1.0  0.47884  0.87566  0.98459  1.0000
  C   C1263     1.0  0.37029  0.89332  0.68280  1.0000
  H   H2200     1.0  0.41719  0.87942  0.68670  1.0000
  H   H2201     1.0  0.46160  0.75395  0.81774  1.0000
  C   C1264     1.0  0.42104  0.99457  0.72640  1.0000
  H   H2202     1.0  0.35692  0.89701  0.69159  1.0000
  C   C1265     1.0  0.41813  0.95032  0.77853  1.0000
  C   C1266     1.0  0.43336  0.95369  0.76409  1.0000
  C   C1267     1.0  0.44242  0.97014  0.76310  1.0000
  H   H2203     1.0  0.41109  0.93759  0.77938  1.0000
  H   H2204     1.0  0.45416  0.97286  0.75195  1.0000
  C   C1268     1.0  0.40665  0.72725  0.99093  1.0000
  H   H2205     1.0  0.48720  0.84350  0.80944  1.0000
  H   H2206     1.0  0.44381  0.99561  0.77564  1.0000
  H   H2207     1.0  0.39425  0.97451  0.75041  1.0000
  H   H2208     1.0  0.44132  0.78636  0.85288  1.0000
  H   H2209     1.0  0.47745  0.89265  0.73384  1.0000
  H   H2210     1.0  0.49537  0.72557  0.89634  1.0000
  H   H2211     1.0  0.48271  0.84687  0.91945  1.0000
  H   H2212     1.0  0.28019  0.53998  0.86684  1.0000
  C   C1269     1.0  0.40426  0.74261  0.00503  1.0000
  H   H2213     1.0  0.49338  0.83351  0.96015  1.0000
  H   H2214     1.0  0.40840  0.93638  0.69241  1.0000
  H   H2215     1.0  0.36938  0.84600  0.73643  1.0000
  H   H2216     1.0  0.45135  0.81899  0.80706  1.0000
  C   C1270     1.0  0.45123  0.81824  0.77722  1.0000
  H   H2217     1.0  0.49136  0.96213  0.76701  1.0000
  S   S285      1.0  0.26300  0.57796  0.95302  1.0000
  C   C1271     1.0  0.30497  0.53160  0.88098  1.0000
  C   C1272     1.0  0.49766  0.79164  0.96547  1.0000
  H   H2218     1.0  0.30865  0.78392  0.68032  1.0000
  C   C1273     1.0  0.48912  0.85699  0.79951  1.0000
  H   H2219     1.0  0.50017  0.71128  0.87725  1.0000
  C   C1274     1.0  0.44688  0.75154  0.81668  1.0000
  H   H2220     1.0  0.37416  0.93150  0.67475  1.0000
  H   H2221     1.0  0.28369  0.62821  0.98227  1.0000
  H   H2222     1.0  0.48407  0.82319  0.93275  1.0000
  C   C1275     1.0  0.43948  0.79257  0.80369  1.0000
  H   H2223     1.0  0.47274  0.78659  0.81791  1.0000
  H   H2224     1.0  0.32890  0.57817  0.99812  1.0000
  C   C1276     1.0  0.43130  0.91501  0.81718  1.0000
  H   H2225     1.0  0.45293  0.83382  0.77375  1.0000
  C   C1277     1.0  0.40185  0.00351  0.71932  1.0000
  H   H2226     1.0  0.48709  0.98031  0.79555  1.0000
  H   H2227     1.0  0.47355  0.72246  0.92756  1.0000
  H   H2228     1.0  0.48913  0.67412  0.97458  1.0000
  H   H2229     1.0  0.45767  0.97020  0.81349  1.0000
  H   H2230     1.0  0.49178  0.94104  0.80060  1.0000
  C   C1278     1.0  0.29787  0.59972  0.99215  1.0000
  H   H2231     1.0  0.46598  0.76140  0.99415  1.0000
  H   H2232     1.0  0.47727  0.86008  0.79061  1.0000
  N   N71       1.0  0.38409  0.00105  0.73348  1.0000
  H   H2233     1.0  0.40907  0.58401  0.99922  1.0000
  H   H2234     1.0  0.44215  0.90781  0.93455  1.0000
  C   C1279     1.0  0.46693  0.91484  0.81699  1.0000
  H   H2235     1.0  0.40143  0.99718  0.70607  1.0000
  C   C1280     1.0  0.43185  0.76484  0.82848  1.0000
  H   H2236     1.0  0.44473  0.70709  0.94268  1.0000
  H   H2237     1.0  0.46188  0.72653  0.89902  1.0000
  H   H2238     1.0  0.47588  0.72555  0.85600  1.0000
  H   H2239     1.0  0.47025  0.76975  0.83955  1.0000
  C   C1281     1.0  0.38516  0.94519  0.73581  1.0000
  C   C1282     1.0  0.34003  0.94651  0.69173  1.0000
  H   H2240     1.0  0.31647  0.86839  0.70503  1.0000
  C   C1283     1.0  0.48752  0.65862  0.97525  1.0000
  H   H2241     1.0  0.42917  0.78912  0.79476  1.0000
  H   H2242     1.0  0.42300  0.62794  0.00275  1.0000
  H   H2243     1.0  0.45363  0.84376  0.93648  1.0000
  H   H2244     1.0  0.36586  0.99799  0.77379  1.0000
  C   C1284     1.0  0.47916  0.79678  0.84255  1.0000
  H   H2245     1.0  0.39883  0.72393  0.96333  1.0000
  H   H2246     1.0  0.37825  0.94708  0.69047  1.0000
  H   H2247     1.0  0.35498  0.85979  0.70753  1.0000
  H   H2248     1.0  0.42962  0.90756  0.83215  1.0000
  N   N72       1.0  0.48739  0.91087  0.80776  1.0000
  H   H2249     1.0  0.49721  0.57973  0.99081  1.0000
  H   H2250     1.0  0.47863  0.68164  0.87372  1.0000
  C   C1285     1.0  0.46736  0.78512  0.83341  1.0000
  H   H2251     1.0  0.39889  0.94147  0.74184  1.0000
  H   H2252     1.0  0.37416  0.79462  0.84301  1.0000
  C   C1286     1.0  0.35733  0.84386  0.71069  1.0000
  H   H2253     1.0  0.36976  0.96891  0.71991  1.0000
  C   C1287     1.0  0.48054  0.85974  0.98830  1.0000
  H   H2254     1.0  0.46274  0.70683  0.88574  1.0000
  H   H2255     1.0  0.42801  0.82341  0.79938  1.0000
  H   H2256     1.0  0.30256  0.86536  0.68672  1.0000
  H   H2257     1.0  0.42039  0.91082  0.80951  1.0000
  C   C1288     1.0  0.49479  0.86611  0.74252  1.0000
  C   C1289     1.0  0.42069  0.98043  0.79034  1.0000
  C   C1290     1.0  0.44572  0.79202  0.83760  1.0000
  H   H2258     1.0  0.33677  0.80137  0.67420  1.0000
  C   C1291     1.0  0.35782  0.83909  0.73234  1.0000
  H   H2259     1.0  0.30721  0.54686  0.88085  1.0000
  C   C1292     1.0  0.45757  0.70531  0.95012  1.0000
  C   C1293     1.0  0.41759  0.94149  0.67914  1.0000
  N   N73       1.0  0.33841  0.83925  0.68350  1.0000
  H   H2260     1.0  0.41041  0.79658  0.86081  1.0000
  C   C1294     1.0  0.31304  0.89257  0.68308  1.0000
  H   H2261     1.0  0.31591  0.51435  0.00137  1.0000
  C   C1295     1.0  0.41321  0.79668  0.82943  1.0000
  C   C1296     1.0  0.38327  0.96615  0.72633  1.0000
  H   H2262     1.0  0.46731  0.94112  0.78166  1.0000
  H   H2263     1.0  0.32808  0.83760  0.71390  1.0000
  H   H2264     1.0  0.31093  0.60240  0.98205  1.0000
  H   H2265     1.0  0.37134  0.99481  0.69878  1.0000
  H   H2266     1.0  0.37322  0.94280  0.74752  1.0000
  H   H2267     1.0  0.46502  0.90713  0.83191  1.0000
  C   C1297     1.0  0.47547  0.70783  0.93563  1.0000
  H   H2268     1.0  0.38127  0.81638  0.84884  1.0000
  C   C1298     1.0  0.38275  0.98015  0.74128  1.0000
  N   N74       1.0  0.43308  0.78637  0.82471  1.0000
  C   C1299     1.0  0.48342  0.98403  0.81043  1.0000
  Fe  Fe142     1.0  0.42459  0.78723  0.93841  1.0000
  H   H2269     1.0  0.43300  0.91261  0.67751  1.0000
  C   C1300     1.0  0.40428  0.80900  0.99891  1.0000
  H   H2270     1.0  0.32535  0.95430  0.69192  1.0000
  H   H2271     1.0  0.47617  0.62590  0.99882  1.0000
  C   C1301     1.0  0.39682  0.73511  0.97319  1.0000
  C   C1302     1.0  0.34160  0.83425  0.70428  1.0000
  C   C1303     1.0  0.44379  0.80408  0.99855  1.0000
  H   H2272     1.0  0.44365  0.80793  0.83747  1.0000
  H   H2273     1.0  0.45578  0.72105  0.81471  1.0000
  H   H2274     1.0  0.48845  0.80183  0.97375  1.0000
  H   H2275     1.0  0.37585  0.79705  0.86760  1.0000
  H   H2276     1.0  0.46724  0.91084  0.92925  1.0000
  C   C1304     1.0  0.46114  0.88127  0.92998  1.0000
  C   C1305     1.0  0.40317  0.79136  0.85015  1.0000
  H   H2277     1.0  0.47781  0.74529  0.86890  1.0000
  H   H2278     1.0  0.30874  0.83424  0.69086  1.0000
  H   H2279     1.0  0.34564  0.81843  0.70770  1.0000
  H   H2280     1.0  0.37156  0.83835  0.70358  1.0000
  H   H2281     1.0  0.33979  0.93162  0.68852  1.0000
  H   H2282     1.0  0.49618  0.89592  0.83449  1.0000
  C   C1306     1.0  0.32150  0.82987  0.68067  1.0000
  H   H2283     1.0  0.46325  0.93047  0.81854  1.0000
  S   S286      1.0  0.49192  0.75410  0.92950  1.0000
  H   H2284     1.0  0.41777  0.76174  0.82554  1.0000
  Fe  Fe143     1.0  0.25943  0.55995  0.93036  1.0000
  C   C1307     1.0  0.48159  0.93392  0.77645  1.0000
  H   H2285     1.0  0.36068  0.82325  0.73651  1.0000
  H   H2286     1.0  0.45471  0.73908  0.86691  1.0000
  H   H2287     1.0  0.36267  0.81763  0.67739  1.0000
  H   H2288     1.0  0.47635  0.87464  0.82161  1.0000
  H   H2289     1.0  0.44489  0.79070  0.97287  1.0000
  N   N75       1.0  0.38418  0.61664  0.88886  1.0000
  C   C1308     1.0  0.38959  0.61661  0.86745  1.0000
  C   C1309     1.0  0.36503  0.60934  0.89544  1.0000
  C   C1310     1.0  0.38235  0.63740  0.89266  1.0000
  C   C1311     1.0  0.39931  0.60505  0.90007  1.0000
  C   C1312     1.0  0.40425  0.58350  0.89716  1.0000
  C   C1313     1.0  0.40892  0.62395  0.85872  1.0000
  C   C1314     1.0  0.37410  0.64147  0.91336  1.0000
  C   C1315     1.0  0.35994  0.59340  0.88486  1.0000
  C   C1316     1.0  0.34210  0.58493  0.89531  1.0000
  C   C1317     1.0  0.42229  0.57436  0.90580  1.0000
  C   C1318     1.0  0.41316  0.62233  0.83722  1.0000
  C   C1319     1.0  0.37319  0.66288  0.91529  1.0000
  H   H2290     1.0  0.37823  0.62560  0.85973  1.0000
  H   H2291     1.0  0.39027  0.60200  0.86327  1.0000
  H   H2292     1.0  0.36363  0.60403  0.91111  1.0000
  H   H2293     1.0  0.35317  0.62135  0.89371  1.0000
  H   H2294     1.0  0.37322  0.64689  0.88273  1.0000
  H   H2295     1.0  0.39649  0.64277  0.88975  1.0000
  H   H2296     1.0  0.41264  0.61202  0.89717  1.0000
  H   H2297     1.0  0.39487  0.60503  0.91577  1.0000
  H   H2298     1.0  0.40683  0.58144  0.88180  1.0000
  H   H2299     1.0  0.39245  0.57539  0.90459  1.0000
  H   H2300     1.0  0.40876  0.63937  0.86034  1.0000
  H   H2301     1.0  0.42089  0.61534  0.86563  1.0000
  H   H2302     1.0  0.38327  0.63330  0.92376  1.0000
  H   H2303     1.0  0.35946  0.63745  0.91747  1.0000
  H   H2304     1.0  0.35692  0.59969  0.87016  1.0000
  H   H2305     1.0  0.37159  0.58133  0.88351  1.0000
  H   H2306     1.0  0.33801  0.57458  0.88678  1.0000
  H   H2307     1.0  0.34491  0.57702  0.90953  1.0000
  H   H2308     1.0  0.32994  0.59649  0.89744  1.0000
  H   H2309     1.0  0.43479  0.58148  0.89848  1.0000
  H   H2310     1.0  0.42056  0.57554  0.92139  1.0000
  H   H2311     1.0  0.42512  0.55880  0.90399  1.0000
  H   H2312     1.0  0.41427  0.60703  0.83466  1.0000
  H   H2313     1.0  0.40180  0.63110  0.82945  1.0000
  H   H2314     1.0  0.42696  0.62780  0.83133  1.0000
  C   C1320     1.0  0.47906  0.69235  0.92171  1.0000
  C   C1321     1.0  0.48940  0.87358  0.81102  1.0000
  H   H2315     1.0  0.36366  0.67184  0.90550  1.0000
  H   H2316     1.0  0.43680  0.99108  0.69805  1.0000
  C   C1322     1.0  0.45287  0.84279  0.95230  1.0000
  H   H2317     1.0  0.45615  0.82706  0.95725  1.0000
  C   C1323     1.0  0.46591  0.85063  0.97948  1.0000
  C   C1324     1.0  0.43176  0.84893  0.96038  1.0000
  H   H2318     1.0  0.46847  0.67116  0.89717  1.0000
  H   H2319     1.0  0.44724  0.72642  0.83875  1.0000
  C   C1325     1.0  0.41799  0.84219  0.94903  1.0000
  H   H2320     1.0  0.38129  0.73907  0.97737  1.0000
  H   H2321     1.0  0.45750  0.98627  0.83107  1.0000
  H   H2322     1.0  0.45558  0.71640  0.96007  1.0000
  H   H2323     1.0  0.46742  0.83488  0.98483  1.0000
  H   H2324     1.0  0.45151  0.85658  0.98606  1.0000
  C   C1326     1.0  0.41175  0.96377  0.79164  1.0000
  H   H2325     1.0  0.42887  0.84238  0.97559  1.0000
  H   H2326     1.0  0.42828  0.86478  0.95982  1.0000
  S   S287      1.0  0.25680  0.53330  0.95126  1.0000
  H   H2327     1.0  0.35366  0.00381  0.73208  1.0000
  H   H2328     1.0  0.44469  0.75423  0.80129  1.0000
  H   H2329     1.0  0.36038  0.55892  0.99317  1.0000
  H   H2330     1.0  0.47450  0.79626  0.85821  1.0000
  H   H2331     1.0  0.40316  0.84477  0.95637  1.0000
  H   H2332     1.0  0.41873  0.85018  0.93428  1.0000
  H   H2333     1.0  0.42153  0.82655  0.94797  1.0000
  H   H2334     1.0  0.49749  0.85659  0.94852  1.0000
  H   H2335     1.0  0.45427  0.90722  0.91044  1.0000
  H   H2336     1.0  0.46562  0.80987  0.77502  1.0000
  C   C1327     1.0  0.44496  0.73022  0.82347  1.0000
  H   H2337     1.0  0.25982  0.51839  0.85119  1.0000
  H   H2338     1.0  0.32538  0.80164  0.69859  1.0000
  H   H2339     1.0  0.32505  0.89926  0.68641  1.0000
  H   H2340     1.0  0.42871  0.93088  0.81739  1.0000
  H   H2341     1.0  0.47505  0.59547  0.99180  1.0000
  H   H2342     1.0  0.40011  0.71422  0.99796  1.0000
  H   H2343     1.0  0.41331  0.81256  0.82751  1.0000
  C   C1328     1.0  0.44201  0.81426  0.79803  1.0000
  H   H2344     1.0  0.36924  0.97870  0.75114  1.0000
  H   H2345     1.0  0.38498  0.93531  0.72505  1.0000
  H   H2346     1.0  0.42141  0.97873  0.73028  1.0000
  H   H2347     1.0  0.29349  0.80516  0.68727  1.0000
  H   H2348     1.0  0.39553  0.96745  0.71485  1.0000
  C   C1329     1.0  0.44835  0.73786  0.99920  1.0000
  H   H2349     1.0  0.49037  0.97247  0.82035  1.0000
  H   H2350     1.0  0.40302  0.74806  0.96536  1.0000
  H   H2351     1.0  0.45269  0.89323  0.80709  1.0000
  C   C1330     1.0  0.38235  0.80046  0.85245  1.0000
  H   H2352     1.0  0.37135  0.57996  0.99530  1.0000
  Fe  Fe144     1.0  0.26342  0.55015  0.97318  1.0000
  H   H2353     1.0  0.40726  0.75666  0.99642  1.0000
  H   H2354     1.0  0.34409  0.84478  0.74038  1.0000
  H   H2355     1.0  0.44218  0.81456  0.76721  1.0000
  C   C1331     1.0  0.30671  0.79996  0.67811  1.0000
  H   H2356     1.0  0.48756  0.70673  0.94404  1.0000
  H   H2357     1.0  0.27523  0.53629  0.89270  1.0000
  H   H2358     1.0  0.34451  0.94582  0.70616  1.0000
  H   H2359     1.0  0.46872  0.56217  0.99770  1.0000
  H   H2360     1.0  0.43241  0.75947  0.84400  1.0000
  H   H2361     1.0  0.37563  0.85146  0.67383  1.0000
  H   H2362     1.0  0.45886  0.69080  0.95869  1.0000
  H   H2363     1.0  0.40310  0.77557  0.85383  1.0000
  H   H2364     1.0  0.31409  0.52596  0.86841  1.0000
  C   C1332     1.0  0.45119  0.90908  0.80689  1.0000
  H   H2365     1.0  0.45172  0.91577  0.79176  1.0000
  H   H2366     1.0  0.28026  0.60921  0.96932  1.0000
  H   H2367     1.0  0.36751  0.66536  0.93029  1.0000
  C   C1333     1.0  0.28052  0.50945  0.87939  1.0000
  H   H2368     1.0  0.47217  0.65730  0.97573  1.0000
  H   H2369     1.0  0.38765  0.66756  0.91188  1.0000
  H   H2370     1.0  0.48592  0.93285  0.83769  1.0000
  C   C1334     1.0  0.49053  0.88619  0.73934  1.0000
  C   C1335     1.0  0.48951  0.00403  0.81156  1.0000
  S   S288      1.0  0.41212  0.99793  0.80582  1.0000
  C   C1336     1.0  0.46191  0.98413  0.81577  1.0000
  H   H2371     1.0  0.43056  0.72699  0.82188  1.0000
  H   H2372     1.0  0.48856  0.64019  0.89308  1.0000
  S   S289      1.0  0.42986  0.66592  0.98539  1.0000
  H   H2373     1.0  0.47976  0.92157  0.76929  1.0000
  H   H2374     1.0  0.44218  0.74294  0.98562  1.0000
  C   C1337     1.0  0.49513  0.64721  0.99312  1.0000
  H   H2375     1.0  0.26762  0.61084  0.99302  1.0000
  C   C1338     1.0  0.49195  0.62567  0.99523  1.0000
  C   C1339     1.0  0.47021  0.71906  0.88714  1.0000
  H   H2376     1.0  0.48332  0.95145  0.74860  1.0000
  C   C1340     1.0  0.48971  0.77962  0.95562  1.0000
  C   C1341     1.0  0.43783  0.99812  0.71077  1.0000
  C   C1342     1.0  0.46387  0.87511  0.95134  1.0000
  H   H2377     1.0  0.49926  0.65042  0.86968  1.0000
  H   H2378     1.0  0.33827  0.59905  0.00113  1.0000
  C   C1343     1.0  0.49004  0.83716  0.93051  1.0000
  C   C1344     1.0  0.37428  0.94698  0.67595  1.0000
  H   H2379     1.0  0.47460  0.87748  0.92060  1.0000
  H   H2380     1.0  0.45910  0.80240  0.99818  1.0000
  C   C1345     1.0  0.28132  0.61282  0.98378  1.0000
  S   S290      1.0  0.49234  0.59933  0.94885  1.0000
  H   H2381     1.0  0.29550  0.58454  0.99243  1.0000
  C   C1346     1.0  0.49115  0.89298  0.79774  1.0000
  H   H2382     1.0  0.47767  0.81211  0.83591  1.0000
  H   H2383     1.0  0.48202  0.67810  0.93055  1.0000
  H   H2384     1.0  0.47690  0.73993  0.98400  1.0000
  C   C1347     1.0  0.45589  0.90314  0.92589  1.0000
  H   H2385     1.0  0.29960  0.89923  0.69083  1.0000
  H   H2386     1.0  0.42176  0.72241  0.98595  1.0000
  C   C1348     1.0  0.48465  0.58526  0.00056  1.0000
  C   C1349     1.0  0.48629  0.65124  0.88047  1.0000
  H   H2387     1.0  0.47417  0.64787  0.87396  1.0000
  C   C1350     1.0  0.35352  0.95714  0.67635  1.0000
  C   C1351     1.0  0.49106  0.71281  0.89125  1.0000
  H   H2388     1.0  0.49541  0.85393  0.98314  1.0000
  H   H2389     1.0  0.49563  0.62062  0.98084  1.0000
  H   H2390     1.0  0.49445  0.79081  0.84029  1.0000
  H   H2391     1.0  0.47595  0.88240  0.95372  1.0000
  H   H2392     1.0  0.45138  0.99187  0.71642  1.0000
  H   H2393     1.0  0.34562  0.86842  0.67974  1.0000
  H   H2394     1.0  0.45092  0.72187  0.00130  1.0000
  C   C1352     1.0  0.33375  0.86074  0.67808  1.0000
  H   H2395     1.0  0.38897  0.81112  0.99899  1.0000
  C   C1353     1.0  0.36534  0.56700  0.00336  1.0000
  H   H2396     1.0  0.42141  0.95582  0.68062  1.0000
  C   C1354     1.0  0.46774  0.74536  0.99666  1.0000
  H   H2397     1.0  0.35251  0.97214  0.67969  1.0000
  C   C1355     1.0  0.43605  0.92752  0.67798  1.0000
  H   H2398     1.0  0.39335  0.97499  0.67989  1.0000
  C   C1356     1.0  0.50032  0.90787  0.82322  1.0000
  H   H2399     1.0  0.49976  0.91357  0.74054  1.0000
  C   C1357     1.0  0.50152  0.76682  0.94438  1.0000
  H   H2400     1.0  0.33661  0.00715  0.70382  1.0000
  C   C1358     1.0  0.50054  0.92555  0.83384  1.0000
  H   H2401     1.0  0.28463  0.50900  0.99448  1.0000
  H   H2402     1.0  0.48736  0.65386  0.00578  1.0000
  H   H2403     1.0  0.50110  0.90947  0.86253  1.0000
  S   S291      1.0  0.72739  0.33672  0.12855  1.0000
  H   H2404     1.0  0.68560  0.48066  0.01767  1.0000
  Fe  Fe145     1.0  0.56348  0.11656  0.14356  1.0000
  S   S292      1.0  0.58958  0.09585  0.13639  1.0000
  S   S293      1.0  0.53495  0.10552  0.14972  1.0000
  Fe  Fe146     1.0  0.58624  0.14932  0.14535  1.0000
  S   S294      1.0  0.61427  0.13100  0.13895  1.0000
  S   S295      1.0  0.58128  0.17939  0.15395  1.0000
  Fe  Fe147     1.0  0.60008  0.12106  0.11641  1.0000
  S   S296      1.0  0.61530  0.12096  0.08592  1.0000
  Fe  Fe148     1.0  0.60099  0.10752  0.15957  1.0000
  S   S297      1.0  0.61508  0.08617  0.18207  1.0000
  S   S298      1.0  0.57289  0.14095  0.12167  1.0000
  S   S299      1.0  0.57422  0.12670  0.16770  1.0000
  Fe  Fe149     1.0  0.57939  0.30436  0.13333  1.0000
  S   S300      1.0  0.58281  0.28823  0.10802  1.0000
  S   S301      1.0  0.55103  0.30152  0.15240  1.0000
  Fe  Fe150     1.0  0.61905  0.31871  0.12119  1.0000
  S   S302      1.0  0.62465  0.30341  0.09492  1.0000
  S   S303      1.0  0.63830  0.34113  0.12423  1.0000
  Fe  Fe151     1.0  0.59425  0.31433  0.09140  1.0000
  S   S304      1.0  0.58334  0.32580  0.06352  1.0000
  Fe  Fe152     1.0  0.61265  0.27850  0.11423  1.0000
  S   S305      1.0  0.62557  0.24797  0.10962  1.0000
  S   S306      1.0  0.58895  0.33140  0.11613  1.0000
  S   S307      1.0  0.60895  0.29288  0.14111  1.0000
  C   C1359     1.0  0.58573  0.10863  0.07198  1.0000
  Fe  Fe153     1.0  0.59632  0.05625  0.29181  1.0000
  S   S308      1.0  0.58497  0.05104  0.32351  1.0000
  S   S309      1.0  0.58834  0.08382  0.27204  1.0000
  Fe  Fe154     1.0  0.57761  0.02342  0.31602  1.0000
  C   C1360     1.0  0.58931  0.01589  0.23536  1.0000
  Fe  Fe155     1.0  0.61393  0.03419  0.32736  1.0000
  C   C1361     1.0  0.72299  0.30656  0.01408  1.0000
  S   S310      1.0  0.62584  0.04214  0.29633  1.0000
  N   N76       1.0  0.61806  0.01071  0.20855  1.0000
  H   H2405     1.0  0.68987  0.31794  0.18985  1.0000
  C   C1362     1.0  0.73490  0.45561  0.07231  1.0000
  H   H2406     1.0  0.64854  0.17859  0.05650  1.0000
  H   H2407     1.0  0.51467  0.31462  0.06150  1.0000
  C   C1363     1.0  0.73971  0.46685  0.13608  1.0000
  H   H2408     1.0  0.62886  0.17998  0.03260  1.0000
  C   C1364     1.0  0.52955  0.02658  0.32138  1.0000
  H   H2409     1.0  0.51437  0.26080  0.07142  1.0000
  H   H2410     1.0  0.65531  0.28617  0.01832  1.0000
  C   C1365     1.0  0.52845  0.04609  0.32351  1.0000
  H   H2411     1.0  0.51351  0.12296  0.08600  1.0000
  H   H2412     1.0  0.53565  0.33807  0.08289  1.0000
  C   C1366     1.0  0.58366  0.30598  0.05135  1.0000
  C   C1367     1.0  0.57386  0.30791  0.03545  1.0000
  C   C1368     1.0  0.51352  0.06002  0.25771  1.0000
  H   H2413     1.0  0.55175  0.23426  0.12205  1.0000
  C   C1369     1.0  0.59491  0.27259  0.04702  1.0000
  C   C1370     1.0  0.59402  0.28825  0.05726  1.0000
  H   H2414     1.0  0.73373  0.30399  0.08187  1.0000
  C   C1371     1.0  0.53488  0.27615  0.05182  1.0000
  H   H2415     1.0  0.60353  0.25916  0.05121  1.0000
  H   H2416     1.0  0.60199  0.28674  0.06928  1.0000
  C   C1372     1.0  0.52963  0.31049  0.14258  1.0000
  C   C1373     1.0  0.51299  0.30179  0.14946  1.0000
  H   H2417     1.0  0.62440  0.03394  0.18597  1.0000
  H   H2418     1.0  0.51538  0.08176  0.28685  1.0000
  H   H2419     1.0  0.60533  0.12336  0.01844  1.0000
  C   C1374     1.0  0.52874  0.32660  0.12851  1.0000
  H   H2420     1.0  0.72994  0.42588  0.07204  1.0000
  H   H2421     1.0  0.54040  0.05146  0.32776  1.0000
  H   H2422     1.0  0.62735  0.20300  0.04039  1.0000
  H   H2423     1.0  0.54140  0.33353  0.12322  1.0000
  C   C1375     1.0  0.60734  0.08598  0.20700  1.0000
  C   C1376     1.0  0.61611  0.07172  0.21994  1.0000
  C   C1377     1.0  0.61012  0.07061  0.23984  1.0000
  C   C1378     1.0  0.59567  0.08427  0.24706  1.0000
  C   C1379     1.0  0.58714  0.09885  0.23416  1.0000
  C   C1380     1.0  0.59279  0.09956  0.21419  1.0000
  H   H2424     1.0  0.62773  0.06159  0.21451  1.0000
  H   H2425     1.0  0.61698  0.05949  0.24966  1.0000
  H   H2426     1.0  0.57607  0.10956  0.23964  1.0000
  H   H2427     1.0  0.58593  0.11063  0.20442  1.0000
  C   C1381     1.0  0.54170  0.08860  0.21454  1.0000
  C   C1382     1.0  0.60264  0.11703  0.06755  1.0000
  C   C1383     1.0  0.63766  0.35076  0.07153  1.0000
  H   H2428     1.0  0.58023  0.10438  0.08683  1.0000
  H   H2429     1.0  0.53301  0.09714  0.05507  1.0000
  C   C1384     1.0  0.59360  0.19819  0.14107  1.0000
  C   C1385     1.0  0.60775  0.19510  0.12553  1.0000
  C   C1386     1.0  0.61757  0.21046  0.11601  1.0000
  C   C1387     1.0  0.61308  0.22897  0.12177  1.0000
  C   C1388     1.0  0.59891  0.23200  0.13725  1.0000
  C   C1389     1.0  0.58927  0.21663  0.14691  1.0000
  H   H2430     1.0  0.61128  0.18089  0.12103  1.0000
  H   H2431     1.0  0.62870  0.20804  0.10419  1.0000
  H   H2432     1.0  0.59545  0.24618  0.14186  1.0000
  H   H2433     1.0  0.57838  0.21910  0.15894  1.0000
  C   C1390     1.0  0.51857  0.12098  0.13679  1.0000
  C   C1391     1.0  0.52200  0.13985  0.12951  1.0000
  Fe  Fe156     1.0  0.74554  0.36146  0.12498  1.0000
  C   C1392     1.0  0.52026  0.10639  0.06129  1.0000
  H   H2434     1.0  0.54664  0.07214  0.26389  1.0000
  H   H2435     1.0  0.61146  0.36662  0.01885  1.0000
  H   H2436     1.0  0.53408  0.14551  0.13297  1.0000
  H   H2437     1.0  0.54297  0.05681  0.15282  1.0000
  C   C1393     1.0  0.57629  0.10501  0.05714  1.0000
  H   H2438     1.0  0.51297  0.10789  0.23962  1.0000
  C   C1394     1.0  0.70295  0.33810  0.12570  1.0000
  C   C1395     1.0  0.69433  0.32102  0.12867  1.0000
  C   C1396     1.0  0.67468  0.32156  0.12769  1.0000
  C   C1397     1.0  0.66344  0.33925  0.12371  1.0000
  C   C1398     1.0  0.67222  0.35627  0.12014  1.0000
  C   C1399     1.0  0.69189  0.35571  0.12099  1.0000
  H   H2439     1.0  0.70278  0.30730  0.13227  1.0000
  H   H2440     1.0  0.66813  0.30836  0.13058  1.0000
  H   H2441     1.0  0.66366  0.37000  0.11693  1.0000
  H   H2442     1.0  0.69842  0.36891  0.11837  1.0000
  C   C1400     1.0  0.63493  0.30965  0.02902  1.0000
  H   H2443     1.0  0.71467  0.39280  0.07384  1.0000
  H   H2444     1.0  0.53786  0.12221  0.07516  1.0000
  H   H2445     1.0  0.53587  0.17408  0.02712  1.0000
  C   C1401     1.0  0.50694  0.06172  0.17357  1.0000
  S   S311      1.0  0.74954  0.37625  0.14975  1.0000
  H   H2446     1.0  0.51249  0.16602  0.11186  1.0000
  C   C1402     1.0  0.65013  0.02280  0.21169  1.0000
  H   H2447     1.0  0.54192  0.12932  0.04297  1.0000
  H   H2448     1.0  0.53831  0.29111  0.04730  1.0000
  C   C1403     1.0  0.60684  0.20024  0.02151  1.0000
  H   H2449     1.0  0.70548  0.32657  0.16898  1.0000
  H   H2450     1.0  0.71100  0.33344  0.02423  1.0000
  H   H2451     1.0  0.70043  0.31266  0.03654  1.0000
  H   H2452     1.0  0.62295  0.02937  0.22858  1.0000
  N   N77       1.0  0.72076  0.32731  0.06277  1.0000
  C   C1404     1.0  0.72193  0.34842  0.05581  1.0000
  C   C1405     1.0  0.66131  0.02785  0.22661  1.0000
  C   C1406     1.0  0.70039  0.32472  0.07084  1.0000
  H   H2453     1.0  0.62445  0.22292  0.00898  1.0000
  C   C1407     1.0  0.52978  0.14680  0.01991  1.0000
  C   C1408     1.0  0.71636  0.36232  0.07133  1.0000
  C   C1409     1.0  0.69649  0.30354  0.07764  1.0000
  C   C1410     1.0  0.61181  0.02825  0.19497  1.0000
  H   H2454     1.0  0.57791  0.34904  0.01492  1.0000
  C   C1411     1.0  0.72015  0.38286  0.06297  1.0000
  C   C1412     1.0  0.67511  0.30208  0.08156  1.0000
  H   H2455     1.0  0.71241  0.35368  0.04462  1.0000
  H   H2456     1.0  0.52590  0.25402  0.03794  1.0000
  H   H2457     1.0  0.67522  0.03225  0.21947  1.0000
  H   H2458     1.0  0.70695  0.44958  0.01936  1.0000
  H   H2459     1.0  0.69052  0.33164  0.06037  1.0000
  H   H2460     1.0  0.69580  0.33239  0.08370  1.0000
  H   H2461     1.0  0.72682  0.32562  0.09201  1.0000
  C   C1413     1.0  0.75159  0.49929  0.06696  1.0000
  H   H2462     1.0  0.59445  0.21073  0.02586  1.0000
  N   N78       1.0  0.52250  0.07760  0.24777  1.0000
  H   H2463     1.0  0.70092  0.36291  0.07678  1.0000
  H   H2464     1.0  0.52707  0.10573  0.02289  1.0000
  H   H2465     1.0  0.70262  0.29813  0.09121  1.0000
  H   H2466     1.0  0.70282  0.29373  0.06690  1.0000
  C   C1414     1.0  0.72774  0.31611  0.04595  1.0000
  H   H2467     1.0  0.71287  0.38792  0.05003  1.0000
  C   C1415     1.0  0.50190  0.36723  0.16013  1.0000
  C   C1416     1.0  0.59847  0.02542  0.18068  1.0000
  H   H2468     1.0  0.51064  0.34705  0.11135  1.0000
  H   H2469     1.0  0.67194  0.03404  0.32143  1.0000
  C   C1417     1.0  0.69326  0.45098  0.01334  1.0000
  H   H2470     1.0  0.67271  0.28700  0.08738  1.0000
  H   H2471     1.0  0.66797  0.31164  0.09229  1.0000
  H   H2472     1.0  0.66851  0.30613  0.06810  1.0000
  N   N79       1.0  0.60757  0.18449  0.05737  1.0000
  C   C1418     1.0  0.59039  0.17581  0.05406  1.0000
  C   C1419     1.0  0.62045  0.16857  0.06745  1.0000
  C   C1420     1.0  0.60222  0.20018  0.07018  1.0000
  H   H2473     1.0  0.50821  0.28812  0.11427  1.0000
  C   C1421     1.0  0.57785  0.16736  0.07229  1.0000
  C   C1422     1.0  0.64018  0.17360  0.07035  1.0000
  H   H2474     1.0  0.65325  0.03997  0.23397  1.0000
  C   C1423     1.0  0.56060  0.15977  0.06702  1.0000
  C   C1424     1.0  0.65195  0.15591  0.07987  1.0000
  C   C1425     1.0  0.52729  0.13641  0.04087  1.0000
  H   H2475     1.0  0.54124  0.04081  0.25602  1.0000
  H   H2476     1.0  0.62315  0.15582  0.05946  1.0000
  H   H2477     1.0  0.61349  0.16354  0.08208  1.0000
  H   H2478     1.0  0.59660  0.19409  0.08500  1.0000
  H   H2479     1.0  0.73899  0.49406  0.06314  1.0000
  C   C1426     1.0  0.53948  0.09426  0.29178  1.0000
  H   H2480     1.0  0.58597  0.15504  0.08029  1.0000
  H   H2481     1.0  0.57241  0.17847  0.08198  1.0000
  H   H2482     1.0  0.63854  0.18499  0.07988  1.0000
  C   C1427     1.0  0.61554  0.35102  0.01732  1.0000
  C   C1428     1.0  0.52741  0.04247  0.26524  1.0000
  C   C1429     1.0  0.72288  0.43896  0.07848  1.0000
  H   H2483     1.0  0.50730  0.12236  0.01665  1.0000
  H   H2484     1.0  0.56533  0.14838  0.05746  1.0000
  H   H2485     1.0  0.64847  0.03564  0.20075  1.0000
  H   H2486     1.0  0.65446  0.14403  0.07076  1.0000
  H   H2487     1.0  0.66598  0.15975  0.08191  1.0000
  H   H2488     1.0  0.64444  0.15069  0.09416  1.0000
  H   H2489     1.0  0.51242  0.04538  0.14876  1.0000
  H   H2490     1.0  0.52960  0.09762  0.20817  1.0000
  C   C1430     1.0  0.58799  0.21744  0.06323  1.0000
  H   H2491     1.0  0.56494  0.01487  0.25766  1.0000
  H   H2492     1.0  0.56838  0.07238  0.20342  1.0000
  H   H2493     1.0  0.62695  0.34933  0.08457  1.0000
  H   H2494     1.0  0.65020  0.33985  0.07385  1.0000
  N   N80       1.0  0.52350  0.28081  0.08735  1.0000
  C   C1431     1.0  0.53831  0.26530  0.09514  1.0000
  C   C1432     1.0  0.51868  0.27561  0.06897  1.0000
  C   C1433     1.0  0.53173  0.29974  0.08410  1.0000
  C   C1434     1.0  0.57480  0.29226  0.02520  1.0000
  H   H2495     1.0  0.57402  0.22329  0.09161  1.0000
  C   C1435     1.0  0.54046  0.26471  0.11668  1.0000
  C   C1436     1.0  0.51910  0.31744  0.07499  1.0000
  C   C1437     1.0  0.50722  0.09375  0.24198  1.0000
  H   H2496     1.0  0.69773  0.40861  0.11596  1.0000
  H   H2497     1.0  0.59795  0.01823  0.24634  1.0000
  C   C1438     1.0  0.55587  0.24866  0.12291  1.0000
  H   H2498     1.0  0.52135  0.32674  0.01778  1.0000
  H   H2499     1.0  0.64207  0.36545  0.06967  1.0000
  H   H2500     1.0  0.53567  0.25067  0.09296  1.0000
  C   C1439     1.0  0.63968  0.28970  0.02228  1.0000
  C   C1440     1.0  0.58552  0.27470  0.03082  1.0000
  H   H2501     1.0  0.50593  0.28514  0.06433  1.0000
  H   H2502     1.0  0.53473  0.30346  0.09793  1.0000
  H   H2503     1.0  0.73116  0.30043  0.05093  1.0000
  H   H2504     1.0  0.72594  0.29098  0.01953  1.0000
  C   C1441     1.0  0.51891  0.02354  0.26678  1.0000
  H   H2505     1.0  0.51093  0.07365  0.32226  1.0000
  H   H2506     1.0  0.54420  0.27864  0.11945  1.0000
  H   H2507     1.0  0.52714  0.26183  0.12620  1.0000
  H   H2508     1.0  0.54799  0.26683  0.05569  1.0000
  H   H2509     1.0  0.62308  0.12818  0.04452  1.0000
  C   C1442     1.0  0.59979  0.11929  0.03331  1.0000
  H   H2510     1.0  0.50479  0.05531  0.24791  1.0000
  H   H2511     1.0  0.53730  0.10218  0.10558  1.0000
  H   H2512     1.0  0.51055  0.07468  0.16339  1.0000
  H   H2513     1.0  0.54937  0.10459  0.28434  1.0000
  H   H2514     1.0  0.70864  0.44307  0.07357  1.0000
  H   H2515     1.0  0.51450  0.06205  0.18610  1.0000
  H   H2516     1.0  0.57490  0.21282  0.05975  1.0000
  H   H2517     1.0  0.56972  0.25027  0.11379  1.0000
  H   H2518     1.0  0.55771  0.24939  0.13803  1.0000
  H   H2519     1.0  0.53182  0.09997  0.30497  1.0000
  H   H2520     1.0  0.61507  0.20658  0.07194  1.0000
  S   S312      1.0  0.57015  0.10604  0.01985  1.0000
  H   H2521     1.0  0.58065  0.18649  0.04592  1.0000
  H   H2522     1.0  0.56382  0.09764  0.06066  1.0000
  C   C1443     1.0  0.73315  0.31995  0.07838  1.0000
  H   H2523     1.0  0.54251  0.08610  0.08763  1.0000
  H   H2524     1.0  0.51688  0.10609  0.27521  1.0000
  H   H2525     1.0  0.50323  0.06330  0.27051  1.0000
  H   H2526     1.0  0.65675  0.34109  0.03806  1.0000
  C   C1444     1.0  0.63046  0.01691  0.22139  1.0000
  C   C1445     1.0  0.55529  0.08049  0.19806  1.0000
  H   H2527     1.0  0.73650  0.31186  0.00684  1.0000
  C   C1446     1.0  0.64303  0.35010  0.03537  1.0000
  H   H2528     1.0  0.58517  0.02000  0.18824  1.0000
  H   H2529     1.0  0.50616  0.32124  0.08513  1.0000
  C   C1447     1.0  0.60976  0.12214  0.04815  1.0000
  H   H2530     1.0  0.67311  0.41832  0.11490  1.0000
  H   H2531     1.0  0.56687  0.29369  0.01318  1.0000
  H   H2532     1.0  0.63474  0.27858  0.03403  1.0000
  H   H2533     1.0  0.64115  0.30894  0.04255  1.0000
  H   H2534     1.0  0.73651  0.35064  0.04841  1.0000
  S   S313      1.0  0.58702  0.02967  0.28441  1.0000
  H   H2535     1.0  0.68779  0.43005  0.12695  1.0000
  H   H2536     1.0  0.59510  0.16403  0.04486  1.0000
  H   H2537     1.0  0.61924  0.31261  0.03198  1.0000
  H   H2538     1.0  0.65901  0.01092  0.20464  1.0000
  H   H2539     1.0  0.62414  0.33306  0.05695  1.0000
  H   H2540     1.0  0.52398  0.14756  0.05089  1.0000
  H   H2541     1.0  0.51387  0.35561  0.16268  1.0000
  H   H2542     1.0  0.51830  0.01982  0.25225  1.0000
  C   C1448     1.0  0.71413  0.31815  0.03047  1.0000
  C   C1449     1.0  0.52902  0.26920  0.03444  1.0000
  H   H2543     1.0  0.60564  0.05025  0.15989  1.0000
  H   H2544     1.0  0.60761  0.34316  0.02999  1.0000
  H   H2545     1.0  0.50661  0.38130  0.16123  1.0000
  C   C1450     1.0  0.52980  0.33513  0.07013  1.0000
  H   H2546     1.0  0.60138  0.18834  0.01617  1.0000
  H   H2547     1.0  0.51625  0.27854  0.02969  1.0000
  H   H2548     1.0  0.55263  0.26712  0.08695  1.0000
  C   C1451     1.0  0.58192  0.23083  0.07865  1.0000
  C   C1452     1.0  0.50235  0.11410  0.13301  1.0000
  H   H2549     1.0  0.50932  0.09651  0.06694  1.0000
  H   H2550     1.0  0.51875  0.08949  0.10072  1.0000
  H   H2551     1.0  0.54595  0.29849  0.07511  1.0000
  N   N81       1.0  0.61493  0.16101  0.20200  1.0000
  C   C1453     1.0  0.61818  0.17584  0.18457  1.0000
  C   C1454     1.0  0.59576  0.15432  0.20226  1.0000
  C   C1455     1.0  0.61566  0.17009  0.21975  1.0000
  C   C1456     1.0  0.63006  0.14373  0.20135  1.0000
  C   C1457     1.0  0.63320  0.13400  0.18275  1.0000
  C   C1458     1.0  0.63805  0.18310  0.18061  1.0000
  C   C1459     1.0  0.61111  0.15721  0.23919  1.0000
  C   C1460     1.0  0.57803  0.16923  0.20696  1.0000
  C   C1461     1.0  0.55959  0.16110  0.20590  1.0000
  C   C1462     1.0  0.64909  0.11701  0.18364  1.0000
  C   C1463     1.0  0.63997  0.19689  0.16186  1.0000
  C   C1464     1.0  0.61011  0.16858  0.25611  1.0000
  H   H2552     1.0  0.60750  0.18890  0.18573  1.0000
  H   H2553     1.0  0.61569  0.17030  0.17141  1.0000
  H   H2554     1.0  0.59465  0.15007  0.18803  1.0000
  H   H2555     1.0  0.59423  0.14100  0.21261  1.0000
  H   H2556     1.0  0.60602  0.18400  0.21975  1.0000
  H   H2557     1.0  0.63015  0.17407  0.21975  1.0000
  H   H2558     1.0  0.64400  0.14751  0.20381  1.0000
  H   H2559     1.0  0.62641  0.13220  0.21331  1.0000
  H   H2560     1.0  0.63736  0.14420  0.16986  1.0000
  H   H2561     1.0  0.62001  0.12838  0.18084  1.0000
  H   H2562     1.0  0.64016  0.19109  0.19229  1.0000
  H   H2563     1.0  0.64973  0.17100  0.17929  1.0000
  H   H2564     1.0  0.62244  0.14478  0.24091  1.0000
  H   H2565     1.0  0.59730  0.15145  0.24036  1.0000
  H   H2566     1.0  0.57718  0.17305  0.22168  1.0000
  H   H2567     1.0  0.57839  0.18268  0.19670  1.0000
  H   H2568     1.0  0.55885  0.15873  0.19093  1.0000
  H   H2569     1.0  0.55868  0.14726  0.21556  1.0000
  H   H2570     1.0  0.54713  0.17160  0.21033  1.0000
  H   H2571     1.0  0.65074  0.11002  0.17036  1.0000
  H   H2572     1.0  0.66286  0.12201  0.18478  1.0000
  H   H2573     1.0  0.64553  0.10604  0.19613  1.0000
  H   H2574     1.0  0.62869  0.20950  0.16238  1.0000
  H   H2575     1.0  0.65408  0.20230  0.15949  1.0000
  H   H2576     1.0  0.63885  0.18934  0.14949  1.0000
  H   H2577     1.0  0.62387  0.17417  0.25601  1.0000
  H   H2578     1.0  0.59847  0.18085  0.25551  1.0000
  H   H2579     1.0  0.60715  0.15896  0.26981  1.0000
  H   H2580     1.0  0.55957  0.09246  0.18703  1.0000
  H   H2581     1.0  0.52723  0.06320  0.22215  1.0000
  H   H2582     1.0  0.51996  0.34799  0.06525  1.0000
  H   H2583     1.0  0.54934  0.09816  0.22087  1.0000
  C   C1465     1.0  0.59280  0.04448  0.16833  1.0000
  H   H2584     1.0  0.68542  0.05428  0.31611  1.0000
  H   H2585     1.0  0.54086  0.26984  0.02235  1.0000
  H   H2586     1.0  0.63868  0.41733  0.18934  1.0000
  H   H2587     1.0  0.54308  0.09582  0.25200  1.0000
  C   C1466     1.0  0.53486  0.07189  0.22969  1.0000
  S   S314      1.0  0.74001  0.38908  0.10555  1.0000
  H   H2588     1.0  0.69743  0.02998  0.32126  1.0000
  H   H2589     1.0  0.53045  0.04440  0.27969  1.0000
  H   H2590     1.0  0.55679  0.15683  0.02176  1.0000
  H   H2591     1.0  0.59496  0.22600  0.05043  1.0000
  H   H2592     1.0  0.55126  0.17167  0.05972  1.0000
  H   H2593     1.0  0.51270  0.03025  0.17120  1.0000
  C   C1467     1.0  0.58305  0.11054  0.03779  1.0000
  H   H2594     1.0  0.60484  0.04030  0.20309  1.0000
  H   H2595     1.0  0.59452  0.23600  0.08278  1.0000
  H   H2596     1.0  0.67363  0.35840  0.01225  1.0000
  H   H2597     1.0  0.58325  0.04219  0.15815  1.0000
  C   C1468     1.0  0.62881  0.34759  0.05414  1.0000
  H   H2598     1.0  0.58395  0.03008  0.22779  1.0000
  H   H2599     1.0  0.51359  0.28927  0.16029  1.0000
  C   C1469     1.0  0.61853  0.19187  0.03833  1.0000
  S   S315      1.0  0.55010  0.01060  0.32569  1.0000
  H   H2600     1.0  0.68221  0.44584  0.02496  1.0000
  N   N82       1.0  0.51317  0.12175  0.04587  1.0000
  C   C1470     1.0  0.51130  0.33420  0.12176  1.0000
  C   C1471     1.0  0.52565  0.11370  0.07911  1.0000
  H   H2601     1.0  0.72453  0.35780  0.08368  1.0000
  H   H2602     1.0  0.58521  0.05543  0.17743  1.0000
  H   H2603     1.0  0.57254  0.24354  0.07282  1.0000
  H   H2604     1.0  0.61594  0.35844  0.05322  1.0000
  S   S316      1.0  0.72871  0.43149  0.13515  1.0000
  Fe  Fe157     1.0  0.61561  0.01505  0.29117  1.0000
  N   N83       1.0  0.69142  0.38573  0.17423  1.0000
  C   C1472     1.0  0.69488  0.39937  0.15587  1.0000
  C   C1473     1.0  0.70745  0.38449  0.18632  1.0000
  C   C1474     1.0  0.69138  0.36589  0.16858  1.0000
  C   C1475     1.0  0.67238  0.39137  0.18562  1.0000
  C   C1476     1.0  0.66912  0.41186  0.19175  1.0000
  C   C1477     1.0  0.67880  0.40324  0.14281  1.0000
  C   C1478     1.0  0.68982  0.34906  0.18534  1.0000
  C   C1479     1.0  0.71732  0.40287  0.18549  1.0000
  C   C1480     1.0  0.51238  0.11188  0.02859  1.0000
  C   C1481     1.0  0.64837  0.41705  0.20026  1.0000
  C   C1482     1.0  0.68478  0.41583  0.12402  1.0000
  C   C1483     1.0  0.69136  0.32970  0.17768  1.0000
  H   H2605     1.0  0.70842  0.39400  0.14719  1.0000
  H   H2606     1.0  0.69702  0.41383  0.15880  1.0000
  H   H2607     1.0  0.70244  0.37964  0.20168  1.0000
  H   H2608     1.0  0.71928  0.37319  0.18203  1.0000
  H   H2609     1.0  0.70460  0.36201  0.15864  1.0000
  H   H2610     1.0  0.67927  0.36562  0.16054  1.0000
  H   H2611     1.0  0.66058  0.38974  0.17761  1.0000
  H   H2612     1.0  0.67030  0.38136  0.19919  1.0000
  H   H2613     1.0  0.67248  0.42309  0.17952  1.0000
  H   H2614     1.0  0.67809  0.41241  0.20307  1.0000
  H   H2615     1.0  0.67514  0.38977  0.13896  1.0000
  H   H2616     1.0  0.66569  0.41096  0.15010  1.0000
  H   H2617     1.0  0.67584  0.35098  0.19449  1.0000
  H   H2618     1.0  0.70130  0.34799  0.19450  1.0000
  H   H2619     1.0  0.72566  0.40598  0.17114  1.0000
  H   H2620     1.0  0.70700  0.41579  0.18809  1.0000
  H   H2621     1.0  0.54174  0.33284  0.05842  1.0000
  H   H2622     1.0  0.67991  0.32980  0.16867  1.0000
  H   H2623     1.0  0.71434  0.49448  0.01680  1.0000
  H   H2624     1.0  0.64432  0.40647  0.21292  1.0000
  H   H2625     1.0  0.64652  0.43161  0.20497  1.0000
  C   C1484     1.0  0.53137  0.09678  0.09411  1.0000
  H   H2626     1.0  0.56549  0.32142  0.03109  1.0000
  H   H2627     1.0  0.64591  0.36540  0.03389  1.0000
  H   H2628     1.0  0.54829  0.07088  0.19107  1.0000
  C   C1485     1.0  0.52513  0.09173  0.27872  1.0000
  S   S317      1.0  0.58803  0.25578  0.01698  1.0000
  H   H2629     1.0  0.72083  0.43548  0.09438  1.0000
  H   H2630     1.0  0.54810  0.06253  0.23326  1.0000
  H   H2631     1.0  0.73572  0.38343  0.05905  1.0000
  C   C1486     1.0  0.53523  0.08404  0.26008  1.0000
  H   H2632     1.0  0.54789  0.08017  0.29613  1.0000
  C   C1487     1.0  0.51177  0.05860  0.32044  1.0000
  H   H2633     1.0  0.55219  0.15336  0.08028  1.0000
  C   C1488     1.0  0.50963  0.15154  0.11779  1.0000
  C   C1489     1.0  0.51386  0.01963  0.31628  1.0000
  H   H2634     1.0  0.54356  0.04073  0.17519  1.0000
  H   H2635     1.0  0.72675  0.47293  0.13012  1.0000
  H   H2636     1.0  0.50301  0.09181  0.22802  1.0000
  H   H2637     1.0  0.50428  0.02463  0.27477  1.0000
  H   H2638     1.0  0.72703  0.46832  0.07881  1.0000
  C   C1490     1.0  0.68436  0.04002  0.32496  1.0000
  C   C1491     1.0  0.64327  0.32524  0.01373  1.0000
  C   C1492     1.0  0.54243  0.16286  0.01785  1.0000
  H   H2639     1.0  0.52797  0.01167  0.27451  1.0000
  H   H2640     1.0  0.50596  0.08284  0.04163  1.0000
  H   H2641     1.0  0.66409  0.01514  0.23757  1.0000
  C   C1493     1.0  0.53836  0.04317  0.16095  1.0000
  N   N84       1.0  0.63687  0.34591  0.01703  1.0000
  H   H2642     1.0  0.54498  0.03104  0.15285  1.0000
  H   H2643     1.0  0.51608  0.15321  0.01499  1.0000
  C   C1494     1.0  0.51663  0.04414  0.16334  1.0000
  C   C1495     1.0  0.50543  0.28261  0.10128  1.0000
  C   C1496     1.0  0.73137  0.40008  0.20020  1.0000
  H   H2644     1.0  0.60595  0.01530  0.17066  1.0000
  H   H2645     1.0  0.74251  0.38768  0.19758  1.0000
  H   H2646     1.0  0.50610  0.25066  0.10808  1.0000
  H   H2647     1.0  0.65902  0.32190  0.01301  1.0000
  H   H2648     1.0  0.53681  0.13639  0.00991  1.0000
  Fe  Fe158     1.0  0.74645  0.40355  0.12932  1.0000
  C   C1497     1.0  0.74378  0.44682  0.14054  1.0000
  H   H2649     1.0  0.73855  0.41326  0.19883  1.0000
  H   H2650     1.0  0.73606  0.45868  0.05646  1.0000
  H   H2651     1.0  0.72382  0.39756  0.21503  1.0000
  H   H2652     1.0  0.74958  0.49442  0.13517  1.0000
  H   H2653     1.0  0.74153  0.32060  0.03833  1.0000
  H   H2654     1.0  0.63228  0.28917  0.00972  1.0000
  H   H2655     1.0  0.50320  0.02822  0.20207  1.0000
  H   H2656     1.0  0.75173  0.44956  0.09536  1.0000
  Fe  Fe159     1.0  0.66106  0.04271  0.44901  1.0000
  C   C1498     1.0  0.74886  0.06685  0.50862  1.0000
  S   S318      1.0  0.63624  0.05435  0.43198  1.0000
  Fe  Fe160     1.0  0.68316  0.04798  0.48152  1.0000
  H   H2657     1.0  0.65915  0.01958  0.53847  1.0000
  S   S319      1.0  0.68810  0.06482  0.50473  1.0000
  Fe  Fe161     1.0  0.70441  0.03279  0.44527  1.0000
  S   S320      1.0  0.72888  0.02945  0.42160  1.0000
  H   H2658     1.0  0.72698  0.09032  0.51557  1.0000
  H   H2659     1.0  0.73831  0.08363  0.38714  1.0000
  S   S321      1.0  0.68494  0.06007  0.45007  1.0000
  S   S322      1.0  0.65742  0.03325  0.48108  1.0000
  Fe  Fe162     1.0  0.67429  0.05310  0.61509  1.0000
  S   S323      1.0  0.70232  0.03462  0.61115  1.0000
  S   S324      1.0  0.65400  0.05777  0.59268  1.0000
  Fe  Fe163     1.0  0.68043  0.06194  0.65479  1.0000
  S   S325      1.0  0.70936  0.04420  0.65364  1.0000
  H   H2660     1.0  0.69876  0.06512  0.34311  1.0000
  Fe  Fe164     1.0  0.71402  0.05769  0.62277  1.0000
  C   C1499     1.0  0.69535  0.03356  0.38528  1.0000
  H   H2661     1.0  0.74729  0.06016  0.64472  1.0000
  H   H2662     1.0  0.61610  0.02727  0.53573  1.0000
  S   S326      1.0  0.68622  0.07726  0.62464  1.0000
  S   S327      1.0  0.66595  0.03956  0.64541  1.0000
  H   H2663     1.0  0.75046  0.07464  0.36533  1.0000
  H   H2664     1.0  0.67984  0.02762  0.35438  1.0000
  C   C1500     1.0  0.64453  0.02404  0.38612  1.0000
  N   N85       1.0  0.74267  0.08300  0.53996  1.0000
  H   H2665     1.0  0.72963  0.07093  0.48682  1.0000
  C   C1501     1.0  0.67726  0.05941  0.52860  1.0000
  C   C1502     1.0  0.65941  0.06920  0.53462  1.0000
  C   C1503     1.0  0.65233  0.06824  0.55426  1.0000
  C   C1504     1.0  0.66318  0.05778  0.56812  1.0000
  C   C1505     1.0  0.68077  0.04737  0.56213  1.0000
  C   C1506     1.0  0.68780  0.04821  0.54240  1.0000
  H   H2666     1.0  0.65137  0.07822  0.52414  1.0000
  H   H2667     1.0  0.63868  0.07620  0.55875  1.0000
  H   H2668     1.0  0.68914  0.03905  0.57267  1.0000
  H   H2669     1.0  0.70174  0.04083  0.53788  1.0000
  H   H2670     1.0  0.64121  0.03125  0.55514  1.0000
  C   C1507     1.0  0.62184  0.05695  0.39757  1.0000
  H   H2671     1.0  0.69951  0.09467  0.58486  1.0000
  H   H2672     1.0  0.67496  0.05963  0.40976  1.0000
  H   H2673     1.0  0.72552  0.10964  0.54724  1.0000
  H   H2674     1.0  0.66793  0.05170  0.34928  1.0000
  C   C1508     1.0  0.74930  0.04045  0.42165  1.0000
  H   H2675     1.0  0.70800  0.09068  0.37268  1.0000
  C   C1509     1.0  0.63434  0.04622  0.40991  1.0000
  H   H2676     1.0  0.64900  0.08535  0.39896  1.0000
  H   H2677     1.0  0.65468  0.02083  0.41369  1.0000
  H   H2678     1.0  0.66066  0.09152  0.41754  1.0000
  H   H2679     1.0  0.71724  0.05769  0.39150  1.0000
  H   H2680     1.0  0.69619  0.03488  0.40054  1.0000
  H   H2681     1.0  0.51868  0.01872  0.36623  1.0000
  H   H2682     1.0  0.66638  0.10231  0.39304  1.0000
  C   C1510     1.0  0.68064  0.06696  0.37849  1.0000
  C   C1511     1.0  0.66269  0.08890  0.40228  1.0000
  Fe  Fe165     1.0  0.69517  0.02281  0.64205  1.0000
  H   H2683     1.0  0.72313  0.06782  0.52889  1.0000
  H   H2684     1.0  0.63440  0.01599  0.51881  1.0000
  H   H2685     1.0  0.72842  0.04924  0.36994  1.0000
  C   C1512     1.0  0.72733  0.09396  0.55285  1.0000
  H   H2686     1.0  0.68056  0.08048  0.36818  1.0000
  H   H2687     1.0  0.72470  0.01872  0.38099  1.0000
  H   H2688     1.0  0.62496  0.08406  0.66499  1.0000
  H   H2689     1.0  0.70944  0.01322  0.36508  1.0000
  C   C1513     1.0  0.69380  0.09836  0.57090  1.0000
  C   C1514     1.0  0.73440  0.07729  0.52356  1.0000
  C   C1515     1.0  0.73833  0.08466  0.37135  1.0000
  H   H2690     1.0  0.72972  0.04799  0.50213  1.0000
  C   C1516     1.0  0.71602  0.05902  0.37591  1.0000
  C   C1517     1.0  0.63259  0.03510  0.37349  1.0000
  H   H2691     1.0  0.69240  0.11425  0.56679  1.0000
  H   H2692     1.0  0.70692  0.07249  0.55965  1.0000
  H   H2693     1.0  0.71194  0.04198  0.34660  1.0000
  S   S328      1.0  0.74058  0.06764  0.60476  1.0000
  C   C1518     1.0  0.64414  0.01997  0.54541  1.0000
  S   S329      1.0  0.63442  0.02880  0.34994  1.0000
  H   H2694     1.0  0.67940  0.09363  0.57270  1.0000
  C   C1519     1.0  0.73873  0.05906  0.49449  1.0000
  H   H2695     1.0  0.72963  0.05298  0.57058  1.0000
  S   S330      1.0  0.70471  0.02212  0.47648  1.0000
  C   C1520     1.0  0.69842  0.05071  0.35187  1.0000
  H   H2696     1.0  0.73168  0.09315  0.56742  1.0000
  H   H2697     1.0  0.73529  0.04346  0.54780  1.0000
  H   H2698     1.0  0.74045  0.09964  0.36487  1.0000
  C   C1521     1.0  0.71001  0.01610  0.37990  1.0000
  H   H2699     1.0  0.66712  0.06129  0.37752  1.0000
  H   H2700     1.0  0.61312  0.06983  0.40189  1.0000
  H   H2701     1.0  0.68094  0.02958  0.38538  1.0000
  H   H2702     1.0  0.74723  0.03913  0.45238  1.0000
  H   H2703     1.0  0.61172  0.06013  0.36982  1.0000
  H   H2704     1.0  0.74511  0.01985  0.57483  1.0000
  C   C1522     1.0  0.62095  0.05144  0.37941  1.0000
  H   H2705     1.0  0.63437  0.04077  0.52220  1.0000
  C   C1523     1.0  0.64535  0.02949  0.40423  1.0000
  C   C1524     1.0  0.63140  0.02629  0.52960  1.0000
  H   H2706     1.0  0.74947  0.05224  0.48369  1.0000
  C   C1525     1.0  0.71941  0.07984  0.36690  1.0000
  C   C1526     1.0  0.70691  0.08812  0.55544  1.0000
  H   H2707     1.0  0.61605  0.10938  0.66120  1.0000
  H   H2708     1.0  0.70054  0.09215  0.54182  1.0000
  C   C1527     1.0  0.74128  0.04870  0.55928  1.0000
  H   H2709     1.0  0.69182  0.07674  0.40251  1.0000
  C   C1528     1.0  0.68149  0.04212  0.34635  1.0000
  C   C1529     1.0  0.67860  0.07224  0.39921  1.0000
  N   N86       1.0  0.69760  0.05257  0.37288  1.0000
  H   H2710     1.0  0.65397  0.01937  0.58129  1.0000
  H   H2711     1.0  0.64709  0.02251  0.61982  1.0000
  H   H2712     1.0  0.75059  0.10866  0.52149  1.0000
  S   S331      1.0  0.68081  0.01639  0.44211  1.0000
  H   H2713     1.0  0.71996  0.08152  0.35106  1.0000
  H   H2714     1.0  0.65351  0.01132  0.38173  1.0000
  H   H2715     1.0  0.73429  0.01158  0.63491  1.0000
  C   C1530     1.0  0.74832  0.01011  0.62577  1.0000
  C   C1531     1.0  0.61832  0.09674  0.67231  1.0000
  H   H2716     1.0  0.74616  0.00828  0.61103  1.0000
  Fe  Fe166     1.0  0.67918  0.00831  0.47391  1.0000
  H   H2717     1.0  0.63369  0.00875  0.59194  1.0000
  C   C1532     1.0  0.50824  0.00809  0.36848  1.0000
  Fe  Fe167     1.0  0.58159  0.02833  0.81390  1.0000
  S   S332      1.0  0.58167  0.03627  0.78218  1.0000
  C   C1533     1.0  0.59379  0.09391  0.73384  1.0000
  Fe  Fe168     1.0  0.59498  0.06594  0.81933  1.0000
  S   S333      1.0  0.59669  0.07678  0.78757  1.0000
  S   S334      1.0  0.60134  0.08664  0.83874  1.0000
  Fe  Fe169     1.0  0.56861  0.06543  0.78951  1.0000
  S   S335      1.0  0.54391  0.08328  0.77636  1.0000
  Fe  Fe170     1.0  0.60983  0.04672  0.78262  1.0000
  S   S336      1.0  0.63349  0.03565  0.76017  1.0000
  S   S337      1.0  0.56589  0.05675  0.82139  1.0000
  S   S338      1.0  0.61070  0.03661  0.81425  1.0000
  S   S339      1.0  0.71700  0.31718  0.96115  1.0000
  H   H2718     1.0  0.62828  0.10003  0.68161  1.0000
  Fe  Fe171     1.0  0.57957  0.10776  0.94675  1.0000
  S   S340      1.0  0.58223  0.13837  0.93385  1.0000
  S   S341      1.0  0.57921  0.08300  0.92950  1.0000
  Fe  Fe172     1.0  0.57700  0.11752  0.98829  1.0000
  S   S342      1.0  0.57957  0.14885  0.97842  1.0000
  H   H2719     1.0  0.70248  0.22671  0.87638  1.0000
  Fe  Fe173     1.0  0.55951  0.14630  0.95779  1.0000
  S   S343      1.0  0.53590  0.17018  0.95240  1.0000
  Fe  Fe174     1.0  0.60205  0.13802  0.95560  1.0000
  S   S344      1.0  0.63031  0.14910  0.94614  1.0000
  S   S345      1.0  0.55499  0.11583  0.96918  1.0000
  S   S346      1.0  0.60127  0.10664  0.96697  1.0000
  Fe  Fe175     1.0  0.61282  0.30001  0.95953  1.0000
  S   S347      1.0  0.62398  0.27047  0.97270  1.0000
  S   S348      1.0  0.62809  0.32662  0.95674  1.0000
  Fe  Fe176     1.0  0.57674  0.28587  0.95033  1.0000
  S   S349      1.0  0.58527  0.25532  0.96277  1.0000
  S   S350      1.0  0.55023  0.29283  0.93558  1.0000
  Fe  Fe177     1.0  0.59372  0.26880  0.98627  1.0000
  H   H2720     1.0  0.70403  0.49741  0.94043  1.0000
  Fe  Fe178     1.0  0.61450  0.25975  0.94791  1.0000
  S   S351      1.0  0.63402  0.23918  0.93012  1.0000
  S   S352      1.0  0.58300  0.29930  0.97504  1.0000
  S   S353      1.0  0.60555  0.28948  0.93351  1.0000
  H   H2721     1.0  0.59994  0.08223  0.74419  1.0000
  C   C1534     1.0  0.50866  0.28422  0.98064  1.0000
  C   C1535     1.0  0.52663  0.28534  0.96963  1.0000
  C   C1536     1.0  0.52794  0.29078  0.94977  1.0000
  C   C1537     1.0  0.51122  0.29471  0.94099  1.0000
  C   C1538     1.0  0.74062  0.42785  0.96781  1.0000
  C   C1539     1.0  0.53506  0.05925  0.70295  1.0000
  H   H2722     1.0  0.53944  0.28226  0.97651  1.0000
  H   H2723     1.0  0.51217  0.29908  0.92565  1.0000
  H   H2724     1.0  0.57419  0.10699  0.75640  1.0000
  C   C1540     1.0  0.63031  0.17429  0.94194  1.0000
  C   C1541     1.0  0.61607  0.18699  0.95108  1.0000
  C   C1542     1.0  0.61720  0.20702  0.94788  1.0000
  C   C1543     1.0  0.63216  0.21432  0.93510  1.0000
  C   C1544     1.0  0.64614  0.20160  0.92582  1.0000
  C   C1545     1.0  0.64536  0.18168  0.92942  1.0000
  H   H2725     1.0  0.60454  0.18135  0.96098  1.0000
  H   H2726     1.0  0.60666  0.21678  0.95537  1.0000
  H   H2727     1.0  0.65774  0.20716  0.91594  1.0000
  H   H2728     1.0  0.65641  0.17194  0.92238  1.0000
  C   C1546     1.0  0.52166  0.16433  0.93664  1.0000
  H   H2729     1.0  0.66801  0.09634  0.91695  1.0000
  C   C1547     1.0  0.58986  0.05237  0.72669  1.0000
  H   H2730     1.0  0.59716  0.11557  0.75135  1.0000
  H   H2731     1.0  0.62271  0.12702  0.91507  1.0000
  C   C1548     1.0  0.51737  0.17765  0.92079  1.0000
  C   C1549     1.0  0.61914  0.21042  0.00459  1.0000
  H   H2732     1.0  0.57963  0.34978  0.98922  1.0000
  H   H2733     1.0  0.59398  0.10568  0.69182  1.0000
  H   H2734     1.0  0.52388  0.19079  0.91761  1.0000
  H   H2735     1.0  0.67913  0.49281  0.96297  1.0000
  H   H2736     1.0  0.56695  0.08281  0.73685  1.0000
  H   H2737     1.0  0.55668  0.05378  0.87086  1.0000
  H   H2738     1.0  0.66578  0.03818  0.69397  1.0000
  C   C1550     1.0  0.58567  0.11103  0.74474  1.0000
  C   C1551     1.0  0.69203  0.32101  0.96140  1.0000
  C   C1552     1.0  0.68287  0.33791  0.95215  1.0000
  C   C1553     1.0  0.66317  0.33961  0.95103  1.0000
  C   C1554     1.0  0.65258  0.32443  0.95908  1.0000
  C   C1555     1.0  0.66165  0.30785  0.96892  1.0000
  C   C1556     1.0  0.68131  0.30609  0.96997  1.0000
  H   H2739     1.0  0.69105  0.34943  0.94539  1.0000
  H   H2740     1.0  0.65621  0.35257  0.94352  1.0000
  H   H2741     1.0  0.65347  0.29637  0.97570  1.0000
  H   H2742     1.0  0.68830  0.29301  0.97723  1.0000
  H   H2743     1.0  0.68012  0.23519  0.99136  1.0000
  C   C1557     1.0  0.64860  0.07761  0.71655  1.0000
  C   C1558     1.0  0.59427  0.08539  0.86386  1.0000
  C   C1559     1.0  0.59006  0.06822  0.87524  1.0000
  C   C1560     1.0  0.58530  0.06772  0.89531  1.0000
  C   C1561     1.0  0.58478  0.08434  0.90419  1.0000
  C   C1562     1.0  0.58893  0.10151  0.89281  1.0000
  C   C1563     1.0  0.59379  0.10197  0.87277  1.0000
  H   H2744     1.0  0.59080  0.05525  0.86859  1.0000
  H   H2745     1.0  0.58216  0.05433  0.90401  1.0000
  H   H2746     1.0  0.58851  0.11442  0.89944  1.0000
  H   H2747     1.0  0.59710  0.11531  0.86408  1.0000
  C   C1564     1.0  0.64231  0.04821  0.73781  1.0000
  C   C1565     1.0  0.69189  0.24632  0.89751  1.0000
  C   C1566     1.0  0.64090  0.06837  0.73446  1.0000
  H   H2748     1.0  0.64043  0.37413  0.00126  1.0000
  H   H2749     1.0  0.63439  0.07680  0.74581  1.0000
  C   C1567     1.0  0.68998  0.24676  0.91952  1.0000
  H   H2750     1.0  0.71029  0.26718  0.93608  1.0000
  H   H2751     1.0  0.67304  0.47275  0.00071  1.0000
  S   S354      1.0  0.72537  0.41052  0.97779  1.0000
  C   C1568     1.0  0.52689  0.07056  0.77011  1.0000
  C   C1569     1.0  0.53241  0.05331  0.76217  1.0000
  H   H2752     1.0  0.62770  0.16027  0.90226  1.0000
  H   H2753     1.0  0.54729  0.04750  0.76010  1.0000
  S   S355      1.0  0.73842  0.36918  0.94196  1.0000
  H   H2754     1.0  0.70210  0.47002  0.97725  1.0000
  C   C1570     1.0  0.74154  0.44354  0.97748  1.0000
  H   H2755     1.0  0.65098  0.06394  0.89265  1.0000
  H   H2756     1.0  0.64666  0.11793  0.87700  1.0000
  H   H2757     1.0  0.69181  0.37125  0.98150  1.0000
  H   H2758     1.0  0.51975  0.05281  0.83335  1.0000
  C   C1571     1.0  0.68720  0.47202  0.00558  1.0000
  Fe  Fe179     1.0  0.73888  0.38169  0.96923  1.0000
  C   C1572     1.0  0.63802  0.11299  0.89069  1.0000
  H   H2759     1.0  0.53069  0.07340  0.69462  1.0000
  H   H2760     1.0  0.63687  0.09833  0.92913  1.0000
  N   N87       1.0  0.58454  0.07025  0.71309  1.0000
  H   H2761     1.0  0.51514  0.07338  0.92435  1.0000
  H   H2762     1.0  0.61923  0.09107  0.91763  1.0000
  H   H2763     1.0  0.70601  0.08667  0.88789  1.0000
  H   H2764     1.0  0.73324  0.44456  0.99139  1.0000
  C   C1573     1.0  0.51865  0.04386  0.75641  1.0000
  H   H2765     1.0  0.63142  0.20026  0.99909  1.0000
  H   H2766     1.0  0.69611  0.25585  0.96460  1.0000
  H   H2767     1.0  0.69369  0.21496  0.89967  1.0000
  C   C1574     1.0  0.69948  0.27672  0.92813  1.0000
  H   H2768     1.0  0.52611  0.11469  0.91721  1.0000
  H   H2769     1.0  0.66762  0.50217  0.98402  1.0000
  H   H2770     1.0  0.66761  0.08203  0.86374  1.0000
  C   C1575     1.0  0.52387  0.08546  0.94715  1.0000
  H   H2771     1.0  0.65473  0.06336  0.92877  1.0000
  H   H2772     1.0  0.65701  0.26937  0.91395  1.0000
  H   H2773     1.0  0.64775  0.12926  0.91092  1.0000
  C   C1576     1.0  0.71721  0.49485  0.94737  1.0000
  H   H2774     1.0  0.61396  0.06860  0.95034  1.0000
  H   H2775     1.0  0.52289  0.34463  0.99685  1.0000
  H   H2776     1.0  0.53905  0.03761  0.87929  1.0000
  C   C1577     1.0  0.67939  0.10624  0.88819  1.0000
  H   H2777     1.0  0.65331  0.06882  0.83945  1.0000
  H   H2778     1.0  0.67831  0.10530  0.87301  1.0000
  C   C1578     1.0  0.64400  0.07841  0.88712  1.0000
  H   H2779     1.0  0.64498  0.09552  0.85840  1.0000
  H   H2780     1.0  0.58390  0.37053  0.99927  1.0000
  C   C1579     1.0  0.70178  0.22680  0.89210  1.0000
  C   C1580     1.0  0.68417  0.24871  0.96174  1.0000
  H   H2781     1.0  0.58438  0.01491  0.74334  1.0000
  C   C1581     1.0  0.59770  0.01592  0.73315  1.0000
  H   H2782     1.0  0.61444  0.07388  0.70584  1.0000
  C   C1582     1.0  0.65879  0.04667  0.70514  1.0000
  H   H2783     1.0  0.52296  0.03082  0.74978  1.0000
  S   S356      1.0  0.66666  0.07882  0.67933  1.0000
  C   C1583     1.0  0.65749  0.06679  0.70178  1.0000
  H   H2784     1.0  0.72860  0.50098  0.97175  1.0000
  C   C1584     1.0  0.54116  0.05277  0.87355  1.0000
  C   C1585     1.0  0.51174  0.25904  0.90512  1.0000
  H   H2785     1.0  0.53855  0.07761  0.94570  1.0000
  C   C1586     1.0  0.73311  0.50224  0.93247  1.0000
  H   H2786     1.0  0.54423  0.01519  0.78389  1.0000
  C   C1587     1.0  0.63916  0.06755  0.92883  1.0000
  H   H2787     1.0  0.57987  0.12345  0.73485  1.0000
  H   H2788     1.0  0.62856  0.07693  0.88787  1.0000
  H   H2789     1.0  0.67749  0.24848  0.89283  1.0000
  C   C1588     1.0  0.65144  0.03747  0.72312  1.0000
  C   C1589     1.0  0.64638  0.35872  0.00042  1.0000
  H   H2790     1.0  0.61753  0.14957  0.88529  1.0000
  C   C1590     1.0  0.56848  0.06780  0.70246  1.0000
  H   H2791     1.0  0.53522  0.05654  0.85973  1.0000
  H   H2792     1.0  0.69007  0.23465  0.95668  1.0000
  N   N88       1.0  0.52224  0.10248  0.89186  1.0000
  H   H2793     1.0  0.65953  0.25528  0.94639  1.0000
  C   C1591     1.0  0.52749  0.10033  0.91207  1.0000
  C   C1592     1.0  0.52636  0.12219  0.88190  1.0000
  C   C1593     1.0  0.53422  0.08748  0.88063  1.0000
  C   C1594     1.0  0.53113  0.06625  0.88795  1.0000
  H   H2794     1.0  0.51729  0.26075  0.88956  1.0000
  C   C1595     1.0  0.54705  0.12676  0.88114  1.0000
  C   C1596     1.0  0.63501  0.12923  0.90374  1.0000
  C   C1597     1.0  0.50765  0.05679  0.82484  1.0000
  H   H2795     1.0  0.62390  0.11214  0.88649  1.0000
  S   S357      1.0  0.73265  0.35462  0.98859  1.0000
  C   C1598     1.0  0.54860  0.14810  0.87420  1.0000
  H   H2796     1.0  0.50391  0.27309  0.90873  1.0000
  H   H2797     1.0  0.67518  0.34329  0.99371  1.0000
  H   H2798     1.0  0.54280  0.09446  0.91222  1.0000
  H   H2799     1.0  0.70887  0.11180  0.88098  1.0000
  H   H2800     1.0  0.51655  0.13362  0.88887  1.0000
  H   H2801     1.0  0.52364  0.12421  0.86669  1.0000
  H   H2802     1.0  0.53228  0.09064  0.86516  1.0000
  H   H2803     1.0  0.54965  0.08818  0.88074  1.0000
  C   C1599     1.0  0.59934  0.09288  0.68432  1.0000
  H   H2804     1.0  0.56365  0.08173  0.69396  1.0000
  H   H2805     1.0  0.54420  0.07162  0.72521  1.0000
  H   H2806     1.0  0.63509  0.07472  0.95816  1.0000
  H   H2807     1.0  0.55674  0.11826  0.87086  1.0000
  H   H2808     1.0  0.55216  0.12344  0.89539  1.0000
  H   H2809     1.0  0.54034  0.04839  0.69293  1.0000
  H   H2810     1.0  0.61044  0.21594  0.99276  1.0000
  H   H2811     1.0  0.52230  0.05451  0.71248  1.0000
  C   C1600     1.0  0.52811  0.25300  0.91720  1.0000
  H   H2812     1.0  0.60574  0.06208  0.68954  1.0000
  H   H2813     1.0  0.67114  0.38769  0.98872  1.0000
  C   C1601     1.0  0.65201  0.08186  0.86557  1.0000
  H   H2814     1.0  0.70234  0.10300  0.90593  1.0000
  H   H2815     1.0  0.60545  0.09871  0.72281  1.0000
  H   H2816     1.0  0.58390  0.03068  0.70950  1.0000
  C   C1602     1.0  0.67597  0.37339  0.98370  1.0000
  H   H2817     1.0  0.54376  0.15227  0.85983  1.0000
  H   H2818     1.0  0.53984  0.15726  0.88455  1.0000
  H   H2819     1.0  0.56370  0.15071  0.87305  1.0000
  H   H2820     1.0  0.64269  0.15252  0.88132  1.0000
  C   C1603     1.0  0.63047  0.14909  0.89235  1.0000
  H   H2821     1.0  0.72102  0.47903  0.95085  1.0000
  H   H2822     1.0  0.63318  0.06376  0.85704  1.0000
  C   C1604     1.0  0.66887  0.27783  0.91455  1.0000
  H   H2823     1.0  0.60877  0.03353  0.70786  1.0000
  H   H2824     1.0  0.51830  0.32071  0.99459  1.0000
  C   C1605     1.0  0.71054  0.28498  0.90896  1.0000
  C   C1606     1.0  0.65957  0.29746  0.92107  1.0000
  C   C1607     1.0  0.72476  0.29786  0.91254  1.0000
  C   C1608     1.0  0.64850  0.30967  0.90575  1.0000
  H   H2825     1.0  0.70006  0.25770  0.88927  1.0000
  H   H2826     1.0  0.67539  0.28088  0.89942  1.0000
  H   H2827     1.0  0.54415  0.16971  0.00267  1.0000
  H   H2828     1.0  0.64003  0.32292  0.99950  1.0000
  C   C1609     1.0  0.64857  0.06550  0.85509  1.0000
  H   H2829     1.0  0.65669  0.05164  0.86052  1.0000
  H   H2830     1.0  0.70096  0.29397  0.89933  1.0000
  C   C1610     1.0  0.67261  0.26189  0.94687  1.0000
  H   H2831     1.0  0.64925  0.29500  0.93425  1.0000
  H   H2832     1.0  0.67035  0.30607  0.92396  1.0000
  C   C1611     1.0  0.57808  0.08685  0.72473  1.0000
  Fe  Fe180     1.0  0.73493  0.34122  0.96144  1.0000
  N   N89       1.0  0.69838  0.50033  0.98078  1.0000
  H   H2833     1.0  0.71711  0.31068  0.91905  1.0000
  H   H2834     1.0  0.64107  0.32305  0.91138  1.0000
  H   H2835     1.0  0.65835  0.31384  0.89261  1.0000
  H   H2836     1.0  0.63763  0.30161  0.90201  1.0000
  H   H2837     1.0  0.51585  0.06422  0.89026  1.0000
  N   N90       1.0  0.55559  0.22543  0.92391  1.0000
  C   C1612     1.0  0.53913  0.23321  0.91272  1.0000
  C   C1613     1.0  0.56498  0.20610  0.91815  1.0000
  C   C1614     1.0  0.54742  0.22237  0.94493  1.0000
  C   C1615     1.0  0.57002  0.23950  0.92163  1.0000
  C   C1616     1.0  0.57916  0.24577  0.90088  1.0000
  H   H2838     1.0  0.74674  0.49987  0.93864  1.0000
  C   C1617     1.0  0.56111  0.21103  0.95893  1.0000
  C   C1618     1.0  0.56577  0.20287  0.89686  1.0000
  C   C1619     1.0  0.57792  0.18383  0.89290  1.0000
  C   C1620     1.0  0.59066  0.26253  0.90017  1.0000
  C   C1621     1.0  0.62970  0.06516  0.94967  1.0000
  C   C1622     1.0  0.55130  0.20957  0.97968  1.0000
  H   H2839     1.0  0.52860  0.22264  0.91521  1.0000
  H   H2840     1.0  0.54380  0.23485  0.89702  1.0000
  H   H2841     1.0  0.57974  0.20293  0.92211  1.0000
  H   H2842     1.0  0.55725  0.19429  0.92635  1.0000
  H   H2843     1.0  0.53468  0.21449  0.94682  1.0000
  H   H2844     1.0  0.54238  0.23648  0.95039  1.0000
  H   H2845     1.0  0.56366  0.25269  0.92827  1.0000
  H   H2846     1.0  0.58215  0.23328  0.92967  1.0000
  H   H2847     1.0  0.56835  0.25062  0.89097  1.0000
  H   H2848     1.0  0.58926  0.23363  0.89558  1.0000
  H   H2849     1.0  0.73480  0.28980  0.92233  1.0000
  H   H2850     1.0  0.53767  0.26444  0.91384  1.0000
  H   H2851     1.0  0.57387  0.21831  0.95829  1.0000
  H   H2852     1.0  0.56590  0.19609  0.95556  1.0000
  H   H2853     1.0  0.55119  0.20202  0.89366  1.0000
  H   H2854     1.0  0.57167  0.21461  0.88666  1.0000
  H   H2855     1.0  0.57837  0.18189  0.87760  1.0000
  H   H2856     1.0  0.59276  0.18379  0.89585  1.0000
  H   H2857     1.0  0.57168  0.17149  0.90202  1.0000
  H   H2858     1.0  0.58126  0.27537  0.90497  1.0000
  H   H2859     1.0  0.60212  0.25832  0.90949  1.0000
  H   H2860     1.0  0.59739  0.26652  0.88523  1.0000
  C   C1623     1.0  0.60172  0.07402  0.69856  1.0000
  C   C1624     1.0  0.59512  0.03325  0.71767  1.0000
  C   C1625     1.0  0.51467  0.02531  0.81013  1.0000
  H   H2861     1.0  0.54704  0.22419  0.98416  1.0000
  H   H2862     1.0  0.53848  0.20198  0.98120  1.0000
  H   H2863     1.0  0.56132  0.20127  0.98934  1.0000
  C   C1626     1.0  0.51331  0.14720  0.94063  1.0000
  H   H2864     1.0  0.67996  0.23599  0.92578  1.0000
  H   H2865     1.0  0.57092  0.09947  0.71601  1.0000
  H   H2866     1.0  0.65302  0.02192  0.72569  1.0000
  H   H2867     1.0  0.70393  0.24061  0.92444  1.0000
  C   C1627     1.0  0.63476  0.08854  0.91888  1.0000
  C   C1628     1.0  0.60696  0.34667  0.99983  1.0000
  C   C1629     1.0  0.51543  0.33225  0.00412  1.0000
  H   H2868     1.0  0.66758  0.27544  0.95311  1.0000
  H   H2869     1.0  0.71883  0.27303  0.90158  1.0000
  H   H2870     1.0  0.60243  0.05407  0.73351  1.0000
  H   H2871     1.0  0.71656  0.22413  0.89585  1.0000
  H   H2872     1.0  0.51677  0.13678  0.95276  1.0000
  H   H2873     1.0  0.64771  0.09319  0.71412  1.0000
  C   C1630     1.0  0.51565  0.08793  0.92815  1.0000
  H   H2874     1.0  0.67436  0.07762  0.90236  1.0000
  H   H2875     1.0  0.51480  0.07702  0.95847  1.0000
  H   H2876     1.0  0.53724  0.06159  0.90163  1.0000
  H   H2877     1.0  0.64334  0.35541  0.98644  1.0000
  C   C1631     1.0  0.70043  0.10158  0.89098  1.0000
  H   H2878     1.0  0.73508  0.49424  0.91983  1.0000
  H   H2879     1.0  0.67091  0.37335  0.96967  1.0000
  H   H2880     1.0  0.67486  0.12150  0.89062  1.0000
  H   H2881     1.0  0.61398  0.35342  0.98601  1.0000
  C   C1632     1.0  0.55043  0.06106  0.71515  1.0000
  H   H2882     1.0  0.63295  0.04998  0.95626  1.0000
  N   N91       1.0  0.64634  0.09338  0.89950  1.0000
  H   H2883     1.0  0.73315  0.30301  0.89873  1.0000
  H   H2884     1.0  0.66569  0.25815  0.98691  1.0000
  H   H2885     1.0  0.57348  0.05766  0.69162  1.0000
  H   H2886     1.0  0.69463  0.28877  0.93688  1.0000
  C   C1633     1.0  0.50756  0.07809  0.77263  1.0000
  C   C1634     1.0  0.66851  0.35727  0.99854  1.0000
  H   H2887     1.0  0.50772  0.28027  0.99603  1.0000
  H   H2888     1.0  0.52174  0.25245  0.93248  1.0000
  N   N92       1.0  0.68300  0.26600  0.92683  1.0000
  H   H2889     1.0  0.65958  0.23684  0.97899  1.0000
  C   C1635     1.0  0.58579  0.35450  0.00095  1.0000
  C   C1636     1.0  0.66700  0.09265  0.90243  1.0000
  H   H2890     1.0  0.63350  0.05730  0.92133  1.0000
  H   H2891     1.0  0.51569  0.03314  0.79532  1.0000
  C   C1637     1.0  0.67156  0.24451  0.98090  1.0000
  H   H2892     1.0  0.71641  0.47585  0.99323  1.0000
  C   C1638     1.0  0.70194  0.47929  0.98868  1.0000
  H   H2893     1.0  0.57829  0.05039  0.73893  1.0000
  H   H2894     1.0  0.52417  0.09975  0.95177  1.0000
  H   H2895     1.0  0.60823  0.33083  0.99956  1.0000
  H   H2896     1.0  0.55377  0.04672  0.72355  1.0000
  H   H2897     1.0  0.52892  0.02534  0.81472  1.0000
  H   H2898     1.0  0.58922  0.09168  0.67426  1.0000
  C   C1639     1.0  0.50454  0.17402  0.90908  1.0000
  C   C1640     1.0  0.67981  0.50390  0.97240  1.0000
  H   H2899     1.0  0.75157  0.41377  0.94278  1.0000
  H   H2900     1.0  0.51271  0.06490  0.81085  1.0000
  C   C1641     1.0  0.71490  0.50501  0.96570  1.0000
  H   H2901     1.0  0.51359  0.00873  0.84975  1.0000
  H   H2902     1.0  0.69502  0.44158  0.00177  1.0000
  H   H2903     1.0  0.71293  0.30816  0.00331  1.0000
  H   H2904     1.0  0.50323  0.09147  0.77875  1.0000
  H   H2905     1.0  0.60947  0.01721  0.74124  1.0000
  H   H2906     1.0  0.51312  0.08271  0.00609  1.0000
  H   H2907     1.0  0.65841  0.62579  0.19705  1.0000
  S   S358      1.0  0.60546  0.00617  0.32206  1.0000
  S   S359      1.0  0.72173  0.56635  0.16014  1.0000
  H   H2908     1.0  0.56882  0.78876  0.03633  1.0000
  Fe  Fe181     1.0  0.60481  0.65094  0.09290  1.0000
  S   S360      1.0  0.60794  0.61884  0.09605  1.0000
  S   S361      1.0  0.60280  0.66737  0.06343  1.0000
  Fe  Fe182     1.0  0.60573  0.65045  0.13519  1.0000
  S   S362      1.0  0.60839  0.61794  0.14166  1.0000
  S   S363      1.0  0.60428  0.66993  0.15771  1.0000
  Fe  Fe183     1.0  0.63007  0.61899  0.11510  1.0000
  S   S364      1.0  0.65841  0.60152  0.10623  1.0000
  Fe  Fe184     1.0  0.58592  0.62102  0.12185  1.0000
  S   S365      1.0  0.56171  0.60349  0.12217  1.0000
  S   S366      1.0  0.62864  0.65126  0.10997  1.0000
  S   S367      1.0  0.58161  0.65339  0.11763  1.0000
  C   C1642     1.0  0.62727  0.60963  0.18818  1.0000
  Fe  Fe185     1.0  0.56285  0.78264  0.13865  1.0000
  S   S368      1.0  0.56168  0.81453  0.13070  1.0000
  S   S369      1.0  0.53566  0.77045  0.15095  1.0000
  Fe  Fe186     1.0  0.60548  0.77623  0.12960  1.0000
  S   S370      1.0  0.60812  0.80800  0.12122  1.0000
  S   S371      1.0  0.62989  0.75225  0.12653  1.0000
  Fe  Fe187     1.0  0.58639  0.81214  0.14744  1.0000
  S   S372      1.0  0.58197  0.83554  0.16720  1.0000
  Fe  Fe188     1.0  0.58321  0.80781  0.10533  1.0000
  S   S373      1.0  0.57845  0.82489  0.07635  1.0000
  S   S374      1.0  0.58606  0.78042  0.15710  1.0000
  S   S375      1.0  0.58211  0.77590  0.11187  1.0000
  C   C1643     1.0  0.71332  0.50931  0.00893  1.0000
  H   H2909     1.0  0.55689  0.76725  0.07631  1.0000
  H   H2910     1.0  0.54500  0.72842  0.04833  1.0000
  H   H2911     1.0  0.56653  0.75561  0.05521  1.0000
  Fe  Fe189     1.0  0.60261  0.86129  0.26294  1.0000
  S   S376      1.0  0.58000  0.88541  0.25502  1.0000
  S   S377      1.0  0.61207  0.83509  0.24709  1.0000
  Fe  Fe190     1.0  0.61256  0.88124  0.29553  1.0000
  S   S378      1.0  0.59044  0.90676  0.29002  1.0000
  Fe  Fe191     1.0  0.57176  0.88466  0.28686  1.0000
  S   S379      1.0  0.54052  0.88775  0.29857  1.0000
  Fe  Fe192     1.0  0.60058  0.90519  0.25883  1.0000
  S   S380      1.0  0.60776  0.93054  0.23707  1.0000
  S   S381      1.0  0.59307  0.85899  0.29486  1.0000
  S   S382      1.0  0.62397  0.88122  0.26423  1.0000
  C   C1644     1.0  0.52647  0.70828  0.12099  1.0000
  H   H2912     1.0  0.64810  0.87446  0.22521  1.0000
  H   H2913     1.0  0.61389  0.96994  0.20550  1.0000
  C   C1645     1.0  0.52715  0.88045  0.28273  1.0000
  C   C1646     1.0  0.53508  0.86586  0.27149  1.0000
  C   C1647     1.0  0.52388  0.85905  0.25997  1.0000
  H   H2914     1.0  0.55091  0.64566  0.03609  1.0000
  H   H2915     1.0  0.51191  0.65016  0.15134  1.0000
  H   H2916     1.0  0.54969  0.85940  0.27211  1.0000
  H   H2917     1.0  0.52997  0.84748  0.25162  1.0000
  C   C1648     1.0  0.62839  0.97700  0.26432  1.0000
  C   C1649     1.0  0.61047  0.97110  0.27127  1.0000
  C   C1650     1.0  0.60429  0.95627  0.26343  1.0000
  C   C1651     1.0  0.61579  0.94782  0.24830  1.0000
  C   C1652     1.0  0.63364  0.95377  0.24141  1.0000
  C   C1653     1.0  0.64008  0.96802  0.24967  1.0000
  C   C1654     1.0  0.66133  0.83364  0.25634  1.0000
  H   H2918     1.0  0.59044  0.95171  0.26877  1.0000
  H   H2919     1.0  0.64260  0.94720  0.22983  1.0000
  H   H2920     1.0  0.65399  0.97246  0.24437  1.0000
  H   H2921     1.0  0.54783  0.68243  0.10150  1.0000
  C   C1655     1.0  0.58778  0.62181  0.04349  1.0000
  H   H2922     1.0  0.65554  0.69702  0.19142  1.0000
  H   H2923     1.0  0.64139  0.84582  0.29214  1.0000
  C   C1656     1.0  0.58920  0.83314  0.19030  1.0000
  C   C1657     1.0  0.60470  0.82000  0.19568  1.0000
  C   C1658     1.0  0.61136  0.82040  0.21334  1.0000
  C   C1659     1.0  0.60257  0.83390  0.22569  1.0000
  C   C1660     1.0  0.58667  0.84652  0.22054  1.0000
  C   C1661     1.0  0.58008  0.84613  0.20295  1.0000
  H   H2924     1.0  0.61188  0.80994  0.18602  1.0000
  H   H2925     1.0  0.62359  0.81048  0.21724  1.0000
  H   H2926     1.0  0.57950  0.85670  0.23002  1.0000
  H   H2927     1.0  0.56805  0.85624  0.19897  1.0000
  C   C1662     1.0  0.52857  0.66549  0.09176  1.0000
  H   H2928     1.0  0.54961  0.71653  0.14621  1.0000
  C   C1663     1.0  0.58448  0.82580  0.03722  1.0000
  C   C1664     1.0  0.59014  0.81666  0.05478  1.0000
  C   C1665     1.0  0.60425  0.80072  0.05482  1.0000
  C   C1666     1.0  0.61249  0.79389  0.03741  1.0000
  H   H2929     1.0  0.60141  0.97796  0.28263  1.0000
  H   H2930     1.0  0.57378  0.83833  0.03711  1.0000
  H   H2931     1.0  0.60874  0.79370  0.06829  1.0000
  H   H2932     1.0  0.62366  0.78183  0.03746  1.0000
  C   C1667     1.0  0.52262  0.76668  0.13317  1.0000
  C   C1668     1.0  0.53189  0.76140  0.11556  1.0000
  H   H2933     1.0  0.54727  0.75939  0.11293  1.0000
  C   C1669     1.0  0.61111  0.69275  0.14837  1.0000
  C   C1670     1.0  0.62809  0.69446  0.13589  1.0000
  C   C1671     1.0  0.63410  0.71271  0.12970  1.0000
  C   C1672     1.0  0.62270  0.72939  0.13523  1.0000
  C   C1673     1.0  0.60544  0.72768  0.14720  1.0000
  C   C1674     1.0  0.59986  0.70938  0.15409  1.0000
  H   H2934     1.0  0.63690  0.68169  0.13154  1.0000
  H   H2935     1.0  0.64752  0.71392  0.12056  1.0000
  H   H2936     1.0  0.59648  0.74042  0.15145  1.0000
  H   H2937     1.0  0.58671  0.70815  0.16373  1.0000
  C   C1675     1.0  0.50490  0.61982  0.12082  1.0000
  N   N93       1.0  0.51911  0.69642  0.10835  1.0000
  C   C1676     1.0  0.53393  0.62992  0.13849  1.0000
  C   C1677     1.0  0.53820  0.61529  0.12663  1.0000
  C   C1678     1.0  0.52359  0.61018  0.11793  1.0000
  H   H2938     1.0  0.61076  0.86287  0.17562  1.0000
  H   H2939     1.0  0.54505  0.63387  0.14536  1.0000
  H   H2940     1.0  0.52680  0.59887  0.10876  1.0000
  H   H2941     1.0  0.54084  0.71199  0.11462  1.0000
  C   C1679     1.0  0.60859  0.65264  0.02920  1.0000
  C   C1680     1.0  0.59968  0.65100  0.04820  1.0000
  C   C1681     1.0  0.58906  0.63571  0.05523  1.0000
  H   H2942     1.0  0.61726  0.66410  0.02390  1.0000
  H   H2943     1.0  0.58197  0.63439  0.06980  1.0000
  C   C1682     1.0  0.70406  0.57557  0.14506  1.0000
  C   C1683     1.0  0.68525  0.58109  0.15328  1.0000
  C   C1684     1.0  0.67107  0.58917  0.14160  1.0000
  C   C1685     1.0  0.67562  0.59164  0.12161  1.0000
  C   C1686     1.0  0.69432  0.58579  0.11341  1.0000
  C   C1687     1.0  0.70851  0.57787  0.12507  1.0000
  H   H2944     1.0  0.68168  0.57911  0.16874  1.0000
  H   H2945     1.0  0.65662  0.59327  0.14802  1.0000
  H   H2946     1.0  0.69792  0.58754  0.09794  1.0000
  H   H2947     1.0  0.72293  0.57364  0.11858  1.0000
  H   H2948     1.0  0.65001  0.89595  0.16002  1.0000
  H   H2949     1.0  0.55547  0.69756  0.02460  1.0000
  C   C1688     1.0  0.53818  0.81532  0.02260  1.0000
  H   H2950     1.0  0.50891  0.72286  0.09170  1.0000
  C   C1689     1.0  0.51192  0.60888  0.04424  1.0000
  C   C1690     1.0  0.71979  0.62025  0.17346  1.0000
  H   H2951     1.0  0.64657  0.92373  0.31347  1.0000
  H   H2952     1.0  0.63726  0.97501  0.16542  1.0000
  C   C1691     1.0  0.55330  0.67057  0.01438  1.0000
  C   C1692     1.0  0.50293  0.62158  0.02730  1.0000
  H   H2953     1.0  0.53381  0.66916  0.11979  1.0000
  H   H2954     1.0  0.52831  0.75430  0.08796  1.0000
  H   H2955     1.0  0.65524  0.53765  0.01776  1.0000
  H   H2956     1.0  0.64445  0.95905  0.18629  1.0000
  H   H2957     1.0  0.65234  0.88796  0.19073  1.0000
  C   C1693     1.0  0.60610  0.80240  0.01997  1.0000
  C   C1694     1.0  0.57217  0.00637  0.24612  1.0000
  H   H2958     1.0  0.64182  0.66426  0.17283  1.0000
  H   H2959     1.0  0.59581  0.75764  0.02210  1.0000
  C   C1695     1.0  0.62981  0.99506  0.19778  1.0000
  H   H2960     1.0  0.67280  0.76319  0.30410  1.0000
  H   H2961     1.0  0.52696  0.60321  0.03959  1.0000
  S   S383      1.0  0.63638  0.99627  0.27259  1.0000
  C   C1696     1.0  0.51688  0.70861  0.08928  1.0000
  N   N94       1.0  0.65169  0.82151  0.31193  1.0000
  H   H2962     1.0  0.66737  0.66368  0.11176  1.0000
  H   H2963     1.0  0.63743  0.93837  0.14505  1.0000
  C   C1697     1.0  0.63644  0.93723  0.31212  1.0000
  N   N95       1.0  0.63099  0.72066  0.06946  1.0000
  C   C1698     1.0  0.63508  0.73852  0.07670  1.0000
  C   C1699     1.0  0.61542  0.71145  0.08308  1.0000
  C   C1700     1.0  0.64901  0.70645  0.06924  1.0000
  C   C1701     1.0  0.62602  0.72481  0.04922  1.0000
  C   C1702     1.0  0.60884  0.74022  0.04573  1.0000
  C   C1703     1.0  0.65070  0.74968  0.06419  1.0000
  C   C1704     1.0  0.64724  0.68584  0.06497  1.0000
  C   C1705     1.0  0.59894  0.72506  0.09284  1.0000
  C   C1706     1.0  0.58325  0.71375  0.10410  1.0000
  H   H2964     1.0  0.70158  0.82652  0.33375  1.0000
  C   C1707     1.0  0.65322  0.76745  0.07308  1.0000
  C   C1708     1.0  0.66657  0.67327  0.06382  1.0000
  H   H2965     1.0  0.63933  0.73460  0.09136  1.0000
  H   H2966     1.0  0.62215  0.74920  0.07857  1.0000
  H   H2967     1.0  0.60893  0.70176  0.07565  1.0000
  H   H2968     1.0  0.62156  0.70199  0.09526  1.0000
  H   H2969     1.0  0.65456  0.70476  0.08335  1.0000
  H   H2970     1.0  0.66047  0.71189  0.05826  1.0000
  H   H2971     1.0  0.63864  0.72888  0.03898  1.0000
  H   H2972     1.0  0.62246  0.71159  0.04453  1.0000
  H   H2973     1.0  0.60921  0.75322  0.05252  1.0000
  H   H2974     1.0  0.59545  0.73392  0.05141  1.0000
  H   H2975     1.0  0.66473  0.74060  0.06300  1.0000
  H   H2976     1.0  0.64683  0.75473  0.04956  1.0000
  H   H2977     1.0  0.64179  0.68612  0.05113  1.0000
  H   H2978     1.0  0.63746  0.67858  0.07647  1.0000
  H   H2979     1.0  0.60435  0.73251  0.10323  1.0000
  H   H2980     1.0  0.59238  0.73628  0.08241  1.0000
  H   H2981     1.0  0.57209  0.72379  0.11149  1.0000
  H   H2982     1.0  0.57669  0.70657  0.09432  1.0000
  H   H2983     1.0  0.58913  0.70262  0.11520  1.0000
  H   H2984     1.0  0.68692  0.66425  0.13753  1.0000
  H   H2985     1.0  0.68661  0.64271  0.19079  1.0000
  H   H2986     1.0  0.72732  0.60543  0.17248  1.0000
  H   H2987     1.0  0.66431  0.77535  0.06384  1.0000
  H   H2988     1.0  0.63969  0.77741  0.07440  1.0000
  H   H2989     1.0  0.65772  0.76311  0.08758  1.0000
  H   H2990     1.0  0.67627  0.67880  0.05109  1.0000
  H   H2991     1.0  0.67326  0.67308  0.07695  1.0000
  H   H2992     1.0  0.66461  0.65823  0.06246  1.0000
  H   H2993     1.0  0.60647  0.98578  0.18513  1.0000
  C   C1709     1.0  0.51859  0.83732  0.31374  1.0000
  C   C1710     1.0  0.52931  0.81451  0.18806  1.0000
  C   C1711     1.0  0.50813  0.88855  0.28202  1.0000
  C   C1712     1.0  0.53564  0.71271  0.07604  1.0000
  C   C1713     1.0  0.51118  0.81692  0.09077  1.0000
  H   H2994     1.0  0.62147  0.75353  0.01800  1.0000
  C   C1714     1.0  0.60845  0.74678  0.02430  1.0000
  C   C1715     1.0  0.54015  0.80968  0.20592  1.0000
  C   C1716     1.0  0.55781  0.79501  0.20233  1.0000
  H   H2995     1.0  0.63765  0.82345  0.28642  1.0000
  H   H2996     1.0  0.61972  0.79929  0.32601  1.0000
  C   C1717     1.0  0.56546  0.91664  0.20676  1.0000
  C   C1718     1.0  0.69845  0.62016  0.17334  1.0000
  H   H2997     1.0  0.51510  0.83995  0.21505  1.0000
  H   H2998     1.0  0.52754  0.80050  0.18353  1.0000
  H   H2999     1.0  0.53912  0.82125  0.17603  1.0000
  C   C1719     1.0  0.64800  0.92625  0.15013  1.0000
  C   C1720     1.0  0.65682  0.62703  0.18151  1.0000
  N   N96       1.0  0.66710  0.64322  0.17014  1.0000
  H   H3000     1.0  0.55809  0.66612  0.04428  1.0000
  H   H3001     1.0  0.50206  0.90004  0.29047  1.0000
  C   C1721     1.0  0.66513  0.68070  0.16714  1.0000
  H   H3002     1.0  0.62498  0.87299  0.12759  1.0000
  H   H3003     1.0  0.55237  0.85015  0.00766  1.0000
  H   H3004     1.0  0.58637  0.71474  0.01111  1.0000
  H   H3005     1.0  0.72575  0.62999  0.16093  1.0000
  H   H3006     1.0  0.54502  0.82283  0.20940  1.0000
  H   H3007     1.0  0.53109  0.80346  0.21873  1.0000
  H   H3008     1.0  0.55376  0.78120  0.19948  1.0000
  H   H3009     1.0  0.56763  0.80075  0.18988  1.0000
  H   H3010     1.0  0.56551  0.79215  0.21513  1.0000
  H   H3011     1.0  0.73510  0.51237  0.09130  1.0000
  H   H3012     1.0  0.52054  0.84339  0.02563  1.0000
  H   H3013     1.0  0.55069  0.81912  0.02807  1.0000
  H   H3014     1.0  0.62560  0.91750  0.18276  1.0000
  C   C1722     1.0  0.54976  0.69288  0.01251  1.0000
  H   H3015     1.0  0.60081  0.87269  0.12323  1.0000
  H   H3016     1.0  0.64080  0.63437  0.05073  1.0000
  N   N97       1.0  0.63542  0.57499  0.05884  1.0000
  C   C1723     1.0  0.63468  0.59622  0.05147  1.0000
  C   C1724     1.0  0.61572  0.56916  0.05992  1.0000
  C   C1725     1.0  0.64220  0.57154  0.07832  1.0000
  C   C1726     1.0  0.64909  0.56308  0.04552  1.0000
  C   C1727     1.0  0.64619  0.56719  0.02397  1.0000
  C   C1728     1.0  0.65389  0.60474  0.04869  1.0000
  H   H3017     1.0  0.54433  0.69917  0.07211  1.0000
  C   C1729     1.0  0.60038  0.57705  0.07575  1.0000
  C   C1730     1.0  0.58121  0.56997  0.07553  1.0000
  H   H3018     1.0  0.62709  0.63989  0.18861  1.0000
  C   C1731     1.0  0.68706  0.64039  0.17552  1.0000
  H   H3019     1.0  0.62472  0.60486  0.06140  1.0000
  H   H3020     1.0  0.62862  0.59947  0.03766  1.0000
  H   H3021     1.0  0.60993  0.57418  0.04608  1.0000
  H   H3022     1.0  0.61629  0.55316  0.06188  1.0000
  H   H3023     1.0  0.63384  0.58186  0.08781  1.0000
  H   H3024     1.0  0.65720  0.57459  0.07709  1.0000
  H   H3025     1.0  0.66413  0.56483  0.04652  1.0000
  H   H3026     1.0  0.64805  0.54745  0.05011  1.0000
  H   H3027     1.0  0.69568  0.65138  0.16713  1.0000
  H   H3028     1.0  0.63123  0.56649  0.02200  1.0000
  H   H3029     1.0  0.65952  0.60368  0.06258  1.0000
  H   H3030     1.0  0.66476  0.59722  0.03855  1.0000
  C   C1732     1.0  0.65670  0.66197  0.17634  1.0000
  H   H3031     1.0  0.60446  0.57249  0.09035  1.0000
  H   H3032     1.0  0.59803  0.59298  0.07341  1.0000
  H   H3033     1.0  0.58246  0.55399  0.07875  1.0000
  H   H3034     1.0  0.57046  0.57626  0.08669  1.0000
  H   H3035     1.0  0.57612  0.57456  0.06133  1.0000
  H   H3036     1.0  0.55753  0.72824  0.00883  1.0000
  H   H3037     1.0  0.64055  0.98655  0.20665  1.0000
  C   C1733     1.0  0.54858  0.66166  0.03519  1.0000
  H   H3038     1.0  0.65322  0.65103  0.14451  1.0000
  H   H3039     1.0  0.69649  0.61510  0.15983  1.0000
  H   H3040     1.0  0.68025  0.68012  0.16927  1.0000
  C   C1734     1.0  0.56597  0.76875  0.06221  1.0000
  H   H3041     1.0  0.52119  0.86518  0.17556  1.0000
  C   C1735     1.0  0.59212  0.81847  0.01991  1.0000
  H   H3042     1.0  0.69232  0.65655  0.10413  1.0000
  H   H3043     1.0  0.65379  0.92992  0.16261  1.0000
  C   C1736     1.0  0.65883  0.80017  0.31312  1.0000
  C   C1737     1.0  0.64205  0.55076  0.08909  1.0000
  C   C1738     1.0  0.53384  0.81994  0.31163  1.0000
  H   H3044     1.0  0.64037  0.94563  0.29789  1.0000
  C   C1739     1.0  0.63350  0.82517  0.32546  1.0000
  H   H3045     1.0  0.62760  0.96286  0.32535  1.0000
  H   H3046     1.0  0.55773  0.65935  0.07829  1.0000
  H   H3047     1.0  0.67472  0.79777  0.31045  1.0000
  H   H3048     1.0  0.51682  0.65709  0.09869  1.0000
  C   C1740     1.0  0.59738  0.62297  0.02481  1.0000
  H   H3049     1.0  0.65549  0.66130  0.19227  1.0000
  H   H3050     1.0  0.63408  0.59796  0.17955  1.0000
  H   H3051     1.0  0.62973  0.60533  0.20339  1.0000
  C   C1741     1.0  0.53545  0.71258  0.15315  1.0000
  C   C1742     1.0  0.51176  0.62055  0.06079  1.0000
  H   H3052     1.0  0.64641  0.62821  0.02643  1.0000
  H   H3053     1.0  0.51855  0.61129  0.07261  1.0000
  C   C1743     1.0  0.51515  0.63916  0.14182  1.0000
  C   C1744     1.0  0.67960  0.65232  0.11402  1.0000
  H   H3054     1.0  0.54444  0.82337  0.29885  1.0000
  H   H3055     1.0  0.69347  0.60941  0.18547  1.0000
  C   C1745     1.0  0.51729  0.80344  0.07541  1.0000
  H   H3056     1.0  0.61143  0.85402  0.13995  1.0000
  C   C1746     1.0  0.68367  0.65016  0.13476  1.0000
  H   H3057     1.0  0.62398  0.95530  0.17593  1.0000
  C   C1747     1.0  0.67070  0.82645  0.33900  1.0000
  H   H3058     1.0  0.66336  0.61293  0.17676  1.0000
  H   H3059     1.0  0.54183  0.77604  0.03121  1.0000
  H   H3060     1.0  0.51980  0.63310  0.05595  1.0000
  H   H3061     1.0  0.65251  0.75902  0.29370  1.0000
  C   C1748     1.0  0.65406  0.69823  0.17593  1.0000
  C   C1749     1.0  0.65194  0.78860  0.29902  1.0000
  H   H3062     1.0  0.63418  0.90409  0.14248  1.0000
  H   H3063     1.0  0.53807  0.88348  0.19309  1.0000
  H   H3064     1.0  0.66512  0.63202  0.03936  1.0000
  C   C1750     1.0  0.61901  0.97944  0.19235  1.0000
  C   C1751     1.0  0.60746  0.63862  0.01748  1.0000
  H   H3065     1.0  0.52280  0.73912  0.06032  1.0000
  H   H3066     1.0  0.65236  0.54042  0.08119  1.0000
  H   H3067     1.0  0.50686  0.82462  0.05292  1.0000
  H   H3068     1.0  0.56225  0.92634  0.21812  1.0000
  H   H3069     1.0  0.66624  0.62785  0.14597  1.0000
  H   H3070     1.0  0.62775  0.54592  0.09087  1.0000
  H   H3071     1.0  0.57965  0.60994  0.04904  1.0000
  H   H3072     1.0  0.61488  0.87082  0.20632  1.0000
  H   H3073     1.0  0.55732  0.79923  0.05735  1.0000
  H   H3074     1.0  0.66391  0.68333  0.15158  1.0000
  H   H3075     1.0  0.64782  0.53470  0.11663  1.0000
  S   S384      1.0  0.63601  0.88253  0.31353  1.0000
  H   H3076     1.0  0.69686  0.52172  0.03367  1.0000
  H   H3077     1.0  0.65479  0.82103  0.25387  1.0000
  H   H3078     1.0  0.64741  0.86537  0.18439  1.0000
  H   H3079     1.0  0.63771  0.55950  0.11783  1.0000
  C   C1752     1.0  0.66671  0.64280  0.14896  1.0000
  H   H3080     1.0  0.72241  0.52038  0.03254  1.0000
  H   H3081     1.0  0.55809  0.90363  0.21191  1.0000
  H   H3082     1.0  0.66241  0.84778  0.31558  1.0000
  C   C1753     1.0  0.64786  0.54966  0.10913  1.0000
  H   H3083     1.0  0.52599  0.84974  0.31506  1.0000
  H   H3084     1.0  0.59158  0.90389  0.21672  1.0000
  H   H3085     1.0  0.54438  0.72047  0.08320  1.0000
  C   C1754     1.0  0.66653  0.83186  0.31789  1.0000
  C   C1755     1.0  0.65132  0.62615  0.04078  1.0000
  H   H3086     1.0  0.53347  0.66620  0.04078  1.0000
  C   C1756     1.0  0.53309  0.67855  0.10585  1.0000
  H   H3087     1.0  0.63868  0.69956  0.17431  1.0000
  C   C1757     1.0  0.55831  0.78665  0.04944  1.0000
  H   H3088     1.0  0.72246  0.62495  0.18696  1.0000
  H   H3089     1.0  0.58046  0.77037  0.06500  1.0000
  H   H3090     1.0  0.58800  0.68908  0.01751  1.0000
  H   H3091     1.0  0.58546  0.88364  0.19329  1.0000
  H   H3092     1.0  0.64332  0.85192  0.21871  1.0000
  H   H3093     1.0  0.67444  0.83494  0.24588  1.0000
  H   H3094     1.0  0.63236  0.63239  0.16502  1.0000
  H   H3095     1.0  0.51544  0.84013  0.16131  1.0000
  H   H3096     1.0  0.52785  0.59173  0.01154  1.0000
  C   C1758     1.0  0.59216  0.89691  0.18746  1.0000
  C   C1759     1.0  0.58701  0.91092  0.20288  1.0000
  H   H3097     1.0  0.55985  0.92438  0.19358  1.0000
  H   H3098     1.0  0.69678  0.63975  0.13585  1.0000
  H   H3099     1.0  0.62179  0.93346  0.31264  1.0000
  H   H3100     1.0  0.58804  0.87927  0.15574  1.0000
  C   C1760     1.0  0.65081  0.86487  0.21376  1.0000
  C   C1761     1.0  0.62247  0.88300  0.19853  1.0000
  H   H3101     1.0  0.62121  0.89367  0.20886  1.0000
  H   H3102     1.0  0.58460  0.90377  0.17510  1.0000
  H   H3103     1.0  0.65970  0.71162  0.16844  1.0000
  H   H3104     1.0  0.51464  0.00449  0.31476  1.0000
  H   H3105     1.0  0.53061  0.79460  0.07922  1.0000
  H   H3106     1.0  0.54046  0.84998  0.18584  1.0000
  C   C1762     1.0  0.60135  0.00268  0.22127  1.0000
  C   C1763     1.0  0.52119  0.75838  0.10152  1.0000
  H   H3107     1.0  0.65115  0.84690  0.25379  1.0000
  C   C1764     1.0  0.61505  0.87666  0.16751  1.0000
  C   C1765     1.0  0.53878  0.78460  0.04353  1.0000
  C   C1766     1.0  0.52827  0.69884  0.14191  1.0000
  H   H3108     1.0  0.50772  0.76872  0.04161  1.0000
  C   C1767     1.0  0.63518  0.62861  0.18012  1.0000
  C   C1768     1.0  0.59872  0.82129  0.33650  1.0000
  N   N98       1.0  0.61319  0.89176  0.18093  1.0000
  C   C1769     1.0  0.60303  0.88193  0.15056  1.0000
  H   H3109     1.0  0.59390  0.92428  0.19836  1.0000
  H   H3110     1.0  0.66636  0.86004  0.21122  1.0000
  H   H3111     1.0  0.61987  0.69866  0.01069  1.0000
  C   C1770     1.0  0.63207  0.96646  0.17915  1.0000
  C   C1771     1.0  0.50964  0.79924  0.02961  1.0000
  H   H3112     1.0  0.50894  0.80807  0.10503  1.0000
  H   H3113     1.0  0.53354  0.86718  0.21488  1.0000
  H   H3114     1.0  0.61166  0.61147  0.18756  1.0000
  C   C1772     1.0  0.62149  0.90994  0.17158  1.0000
  H   H3115     1.0  0.65882  0.79250  0.28413  1.0000
  C   C1773     1.0  0.64401  0.87558  0.19522  1.0000
  C   C1774     1.0  0.61059  0.86964  0.13437  1.0000
  N   N99       1.0  0.52655  0.80333  0.03821  1.0000
  H   H3116     1.0  0.59136  0.99831  0.21269  1.0000
  C   C1775     1.0  0.52031  0.81486  0.05500  1.0000
  C   C1776     1.0  0.66630  0.83114  0.27680  1.0000
  N   N100      1.0  0.51025  0.82694  0.19077  1.0000
  H   H3117     1.0  0.63009  0.87280  0.16144  1.0000
  H   H3118     1.0  0.67631  0.63843  0.11049  1.0000
  H   H3119     1.0  0.59474  0.83719  0.33423  1.0000
  H   H3120     1.0  0.51432  0.79551  0.01475  1.0000
  H   H3121     1.0  0.61050  0.92045  0.16473  1.0000
  H   H3122     1.0  0.53102  0.82467  0.05575  1.0000
  H   H3123     1.0  0.60289  0.89737  0.14451  1.0000
  H   H3124     1.0  0.65996  0.92431  0.13834  1.0000
  H   H3125     1.0  0.53104  0.77546  0.05540  1.0000
  H   H3126     1.0  0.66540  0.88640  0.33497  1.0000
  C   C1777     1.0  0.63883  0.90761  0.15564  1.0000
  H   H3127     1.0  0.60661  0.98920  0.23027  1.0000
  H   H3128     1.0  0.52248  0.82613  0.09102  1.0000
  H   H3129     1.0  0.70997  0.53849  0.01671  1.0000
  H   H3130     1.0  0.73650  0.52812  0.06878  1.0000
  H   H3131     1.0  0.55110  0.64244  0.09890  1.0000
  H   H3132     1.0  0.54242  0.64151  0.07668  1.0000
  C   C1778     1.0  0.52799  0.87370  0.20126  1.0000
  H   H3133     1.0  0.56838  0.66521  0.00956  1.0000
  H   H3134     1.0  0.53861  0.68549  0.14219  1.0000
  H   H3135     1.0  0.51195  0.84055  0.30031  1.0000
  C   C1779     1.0  0.52739  0.83464  0.01412  1.0000
  C   C1780     1.0  0.54601  0.65134  0.08606  1.0000
  H   H3136     1.0  0.50181  0.87317  0.32156  1.0000
  C   C1781     1.0  0.52611  0.85795  0.18925  1.0000
  H   H3137     1.0  0.66243  0.55381  0.10815  1.0000
  H   H3138     1.0  0.64983  0.76197  0.31878  1.0000
  Fe  Fe193     1.0  0.75119  0.55435  0.14675  1.0000
  H   H3139     1.0  0.53695  0.70547  0.16798  1.0000
  H   H3140     1.0  0.51738  0.72240  0.12172  1.0000
  C   C1782     1.0  0.65713  0.76688  0.30429  1.0000
  C   C1783     1.0  0.63733  0.94929  0.32810  1.0000
  H   H3141     1.0  0.63635  0.79144  0.29876  1.0000
  H   H3142     1.0  0.61272  0.81883  0.30786  1.0000
  H   H3143     1.0  0.52421  0.67378  0.07831  1.0000
  C   C1784     1.0  0.64819  0.83057  0.29192  1.0000
  H   H3144     1.0  0.54142  0.81645  0.32450  1.0000
  H   H3145     1.0  0.64990  0.58174  0.01761  1.0000
  H   H3146     1.0  0.51392  0.88234  0.20475  1.0000
  C   C1785     1.0  0.61642  0.81518  0.32269  1.0000
  H   H3147     1.0  0.67653  0.81784  0.27885  1.0000
  C   C1786     1.0  0.51168  0.84439  0.20012  1.0000
  S   S385      1.0  0.59809  0.60393  0.01144  1.0000
  H   H3148     1.0  0.57680  0.99160  0.25304  1.0000
  C   C1787     1.0  0.53141  0.72524  0.05729  1.0000
  H   H3149     1.0  0.65514  0.79299  0.32803  1.0000
  H   H3150     1.0  0.50378  0.59661  0.05014  1.0000
  C   C1788     1.0  0.65887  0.55244  0.01241  1.0000
  H   H3151     1.0  0.50773  0.82890  0.13171  1.0000
  C   C1789     1.0  0.50479  0.86696  0.25946  1.0000
  C   C1790     1.0  0.71035  0.52336  0.02387  1.0000
  C   C1791     1.0  0.50367  0.83348  0.33170  1.0000
  H   H3152     1.0  0.53407  0.69664  0.01555  1.0000
  H   H3153     1.0  0.54419  0.80686  0.01049  1.0000
  H   H3154     1.0  0.67367  0.84360  0.27820  1.0000
  H   H3155     1.0  0.52956  0.75241  0.01727  1.0000
  H   H3156     1.0  0.51086  0.63425  0.02347  1.0000
  H   H3157     1.0  0.63818  0.00162  0.18450  1.0000
  H   H3158     1.0  0.58653  0.81429  0.33398  1.0000
  C   C1792     1.0  0.74459  0.51663  0.07790  1.0000
  H   H3159     1.0  0.62875  0.84097  0.32446  1.0000
  H   H3160     1.0  0.65213  0.95280  0.32672  1.0000
  H   H3161     1.0  0.68042  0.82914  0.30865  1.0000
  H   H3162     1.0  0.52345  0.71763  0.04909  1.0000
  C   C1793     1.0  0.50270  0.76867  0.13678  1.0000
  H   H3163     1.0  0.67414  0.55295  0.01339  1.0000
  C   C1794     1.0  0.50383  0.83363  0.17132  1.0000
  H   H3164     1.0  0.60782  0.73443  0.01658  1.0000
  H   H3165     1.0  0.51431  0.69522  0.14965  1.0000
  H   H3166     1.0  0.58736  0.82536  0.00651  1.0000
  H   H3167     1.0  0.50626  0.79381  0.07657  1.0000
  C   C1795     1.0  0.63818  0.87577  0.33821  1.0000
  H   H3168     1.0  0.50777  0.70233  0.08104  1.0000
  H   H3169     1.0  0.52520  0.72596  0.15408  1.0000
  H   H3170     1.0  0.52733  0.80717  0.30953  1.0000
  H   H3171     1.0  0.50906  0.80528  0.16050  1.0000
  H   H3172     1.0  0.56182  0.00551  0.23617  1.0000
  H   H3173     1.0  0.63330  0.00512  0.23314  1.0000
  N   N101      1.0  0.50207  0.61180  0.00996  1.0000
  H   H3174     1.0  0.68810  0.84976  0.33744  1.0000
  H   H3175     1.0  0.60810  0.98701  0.49808  1.0000
  Fe  Fe194     1.0  0.66697  0.88077  0.58620  1.0000
  S   S386      1.0  0.69780  0.88482  0.58344  1.0000
  S   S387      1.0  0.65141  0.87562  0.56213  1.0000
  Fe  Fe195     1.0  0.65888  0.89034  0.62807  1.0000
  S   S388      1.0  0.68928  0.89489  0.62856  1.0000
  Fe  Fe196     1.0  0.68767  0.91068  0.59886  1.0000
  S   S389      1.0  0.69886  0.93892  0.58745  1.0000
  Fe  Fe197     1.0  0.69687  0.86867  0.61326  1.0000
  S   S390      1.0  0.71993  0.84446  0.62053  1.0000
  S   S391      1.0  0.65690  0.90811  0.59922  1.0000
  S   S392      1.0  0.66645  0.86255  0.61511  1.0000
  Fe  Fe198     1.0  0.68749  0.86547  0.45160  1.0000
  S   S393      1.0  0.70440  0.88953  0.43790  1.0000
  S   S394      1.0  0.69426  0.85305  0.48165  1.0000
  Fe  Fe199     1.0  0.67142  0.86410  0.41382  1.0000
  S   S395      1.0  0.68771  0.88764  0.39779  1.0000
  S   S396      1.0  0.65015  0.85177  0.39966  1.0000
  Fe  Fe200     1.0  0.71216  0.87263  0.41304  1.0000
  H   H3176     1.0  0.67164  0.98608  0.53393  1.0000
  Fe  Fe201     1.0  0.67830  0.90209  0.42422  1.0000
  S   S397      1.0  0.66556  0.93328  0.42046  1.0000
  S   S398      1.0  0.69679  0.84764  0.42714  1.0000
  S   S399      1.0  0.66057  0.87943  0.43978  1.0000
  C   C1796     1.0  0.70594  0.99774  0.39341  1.0000
  N   N102      1.0  0.65252  0.99187  0.57195  1.0000
  H   H3177     1.0  0.63563  0.00095  0.62730  1.0000
  C   C1797     1.0  0.67384  0.96527  0.46916  1.0000
  C   C1798     1.0  0.66189  0.97407  0.45562  1.0000
  C   C1799     1.0  0.65946  0.96427  0.44054  1.0000
  C   C1800     1.0  0.66873  0.94555  0.43922  1.0000
  C   C1801     1.0  0.68031  0.93668  0.45303  1.0000
  C   C1802     1.0  0.68300  0.94659  0.46787  1.0000
  H   H3178     1.0  0.69838  0.90693  0.53840  1.0000
  H   H3179     1.0  0.65034  0.97116  0.42997  1.0000
  H   H3180     1.0  0.68723  0.92222  0.45224  1.0000
  H   H3181     1.0  0.69233  0.93990  0.47821  1.0000
  C   C1803     1.0  0.69852  0.95339  0.60557  1.0000
  C   C1804     1.0  0.70759  0.97010  0.60141  1.0000
  C   C1805     1.0  0.71084  0.89749  0.48938  1.0000
  H   H3182     1.0  0.60776  0.90015  0.56713  1.0000
  H   H3183     1.0  0.62083  0.92578  0.49557  1.0000
  H   H3184     1.0  0.68217  0.98305  0.57505  1.0000
  H   H3185     1.0  0.71485  0.97393  0.58714  1.0000
  H   H3186     1.0  0.65419  0.95821  0.37881  1.0000
  H   H3187     1.0  0.63281  0.93885  0.39606  1.0000
  H   H3188     1.0  0.65238  0.95767  0.51230  1.0000
  C   C1806     1.0  0.66358  0.86974  0.53969  1.0000
  C   C1807     1.0  0.65306  0.86924  0.52461  1.0000
  C   C1808     1.0  0.66231  0.86507  0.50645  1.0000
  C   C1809     1.0  0.68214  0.86048  0.50349  1.0000
  C   C1810     1.0  0.69261  0.86055  0.51872  1.0000
  C   C1811     1.0  0.68345  0.86576  0.53653  1.0000
  H   H3189     1.0  0.63766  0.87190  0.52703  1.0000
  H   H3190     1.0  0.65406  0.86457  0.49499  1.0000
  H   H3191     1.0  0.70792  0.85674  0.51664  1.0000
  H   H3192     1.0  0.69171  0.86634  0.54790  1.0000
  H   H3193     1.0  0.68924  0.94714  0.37761  1.0000
  C   C1812     1.0  0.64526  0.86201  0.37630  1.0000
  C   C1813     1.0  0.62831  0.85915  0.36993  1.0000
  H   H3194     1.0  0.69126  0.99451  0.39297  1.0000
  H   H3195     1.0  0.62712  0.97962  0.60540  1.0000
  H   H3196     1.0  0.61947  0.84996  0.65058  1.0000
  C   C1814     1.0  0.65837  0.87223  0.36368  1.0000
  H   H3197     1.0  0.61804  0.85132  0.37964  1.0000
  C   C1815     1.0  0.62465  0.86620  0.35101  1.0000
  C   C1816     1.0  0.60455  0.91613  0.56632  1.0000
  H   H3198     1.0  0.67159  0.87427  0.36824  1.0000
  H   H3199     1.0  0.65762  0.96269  0.35349  1.0000
  C   C1817     1.0  0.64044  0.91026  0.47562  1.0000
  H   H3200     1.0  0.73825  0.90561  0.64512  1.0000
  H   H3201     1.0  0.72337  0.91504  0.62664  1.0000
  C   C1818     1.0  0.66112  0.92498  0.53501  1.0000
  H   H3202     1.0  0.62879  0.90138  0.50464  1.0000
  H   H3203     1.0  0.73300  0.85391  0.57998  1.0000
  H   H3204     1.0  0.65448  0.86413  0.67080  1.0000
  H   H3205     1.0  0.64308  0.92372  0.46592  1.0000
  H   H3206     1.0  0.59206  0.92115  0.55846  1.0000
  H   H3207     1.0  0.71675  0.98450  0.44443  1.0000
  H   H3208     1.0  0.66896  0.92607  0.35320  1.0000
  C   C1819     1.0  0.62593  0.93584  0.38390  1.0000
  H   H3209     1.0  0.72033  0.94921  0.44951  1.0000
  H   H3210     1.0  0.60983  0.95377  0.51500  1.0000
  H   H3211     1.0  0.67443  0.00272  0.60180  1.0000
  C   C1820     1.0  0.63997  0.00012  0.55667  1.0000
  H   H3212     1.0  0.73901  0.98489  0.45323  1.0000
  H   H3213     1.0  0.62397  0.88778  0.40443  1.0000
  C   C1821     1.0  0.69669  0.92298  0.53614  1.0000
  H   H3214     1.0  0.65890  0.83313  0.34891  1.0000
  H   H3215     1.0  0.68413  0.92542  0.51028  1.0000
  H   H3216     1.0  0.61087  0.95063  0.61080  1.0000
  H   H3217     1.0  0.66476  0.92729  0.66542  1.0000
  H   H3218     1.0  0.59660  0.85279  0.64209  1.0000
  C   C1822     1.0  0.62514  0.95069  0.60206  1.0000
  H   H3219     1.0  0.67999  0.94683  0.52176  1.0000
  H   H3220     1.0  0.61829  0.94152  0.55634  1.0000
  C   C1823     1.0  0.64967  0.92123  0.50507  1.0000
  H   H3221     1.0  0.69384  0.92837  0.55034  1.0000
  H   H3222     1.0  0.61544  0.98616  0.52143  1.0000
  H   H3223     1.0  0.74483  0.97408  0.62412  1.0000
  H   H3224     1.0  0.72500  0.91775  0.45628  1.0000
  C   C1824     1.0  0.72668  0.97665  0.45441  1.0000
  H   H3225     1.0  0.63277  0.98788  0.49994  1.0000
  H   H3226     1.0  0.71667  0.88286  0.48566  1.0000
  H   H3227     1.0  0.51164  0.83184  0.34426  1.0000
  H   H3228     1.0  0.63710  0.95758  0.53410  1.0000
  C   C1825     1.0  0.62807  0.97127  0.59320  1.0000
  H   H3229     1.0  0.65380  0.89999  0.47518  1.0000
  H   H3230     1.0  0.66025  0.90802  0.50680  1.0000
  H   H3231     1.0  0.66176  0.98220  0.60869  1.0000
  H   H3232     1.0  0.69949  0.90369  0.48037  1.0000
  H   H3233     1.0  0.65695  0.93159  0.49410  1.0000
  H   H3234     1.0  0.66342  0.90920  0.53981  1.0000
  C   C1826     1.0  0.61973  0.98147  0.50697  1.0000
  H   H3235     1.0  0.62597  0.94126  0.59075  1.0000
  C   C1827     1.0  0.65485  0.87903  0.34476  1.0000
  H   H3236     1.0  0.69931  0.92675  0.36525  1.0000
  H   H3237     1.0  0.75159  0.91855  0.39445  1.0000
  H   H3238     1.0  0.65443  0.98841  0.45679  1.0000
  C   C1828     1.0  0.70736  0.98186  0.61574  1.0000
  H   H3239     1.0  0.75173  0.91114  0.59042  1.0000
  C   C1829     1.0  0.74353  0.93399  0.62986  1.0000
  C   C1830     1.0  0.74969  0.91960  0.42507  1.0000
  H   H3240     1.0  0.73849  0.86143  0.44018  1.0000
  C   C1831     1.0  0.63349  0.91475  0.49608  1.0000
  H   H3241     1.0  0.67813  0.00491  0.55990  1.0000
  S   S400      1.0  0.69842  0.99096  0.65260  1.0000
  H   H3242     1.0  0.71491  0.82517  0.58772  1.0000
  H   H3243     1.0  0.67569  0.96404  0.55006  1.0000
  H   H3244     1.0  0.63328  0.90613  0.41406  1.0000
  H   H3245     1.0  0.70440  0.89606  0.50464  1.0000
  C   C1832     1.0  0.67910  0.97907  0.54625  1.0000
  C   C1833     1.0  0.61949  0.97887  0.38107  1.0000
  H   H3246     1.0  0.74129  0.89701  0.46187  1.0000
  C   C1834     1.0  0.68043  0.93092  0.52432  1.0000
  H   H3247     1.0  0.60837  0.90897  0.41063  1.0000
  C   C1835     1.0  0.62192  0.92570  0.55637  1.0000
  C   C1836     1.0  0.62815  0.91357  0.38423  1.0000
  H   H3248     1.0  0.64711  0.96328  0.56829  1.0000
  S   S401      1.0  0.67800  0.97776  0.48729  1.0000
  H   H3249     1.0  0.72063  0.92455  0.49071  1.0000
  C   C1837     1.0  0.62775  0.92044  0.53569  1.0000
  C   C1838     1.0  0.62332  0.95945  0.50846  1.0000
  H   H3250     1.0  0.56648  0.86111  0.66560  1.0000
  C   C1839     1.0  0.71281  0.82919  0.57239  1.0000
  H   H3251     1.0  0.63977  0.92370  0.34862  1.0000
  H   H3252     1.0  0.70416  0.97031  0.52669  1.0000
  H   H3253     1.0  0.65840  0.93211  0.54828  1.0000
  C   C1840     1.0  0.66871  0.93389  0.36569  1.0000
  H   H3254     1.0  0.63609  0.94480  0.61169  1.0000
  C   C1841     1.0  0.68945  0.95998  0.63852  1.0000
  C   C1842     1.0  0.64922  0.00514  0.58724  1.0000
  C   C1843     1.0  0.68927  0.94845  0.62409  1.0000
  H   H3255     1.0  0.62580  0.97683  0.35105  1.0000
  C   C1844     1.0  0.62310  0.90357  0.40461  1.0000
  H   H3256     1.0  0.68243  0.95608  0.65287  1.0000
  H   H3257     1.0  0.61475  0.92379  0.52845  1.0000
  H   H3258     1.0  0.71026  0.92778  0.52849  1.0000
  H   H3259     1.0  0.58915  0.98960  0.38301  1.0000
  H   H3260     1.0  0.62943  0.90366  0.47023  1.0000
  S   S402      1.0  0.63455  0.89896  0.65102  1.0000
  H   H3261     1.0  0.63357  0.92037  0.56524  1.0000
  H   H3262     1.0  0.61612  0.97718  0.58485  1.0000
  C   C1845     1.0  0.65996  0.99806  0.60494  1.0000
  H   H3263     1.0  0.74009  0.94606  0.47800  1.0000
  H   H3264     1.0  0.63292  0.98533  0.38017  1.0000
  H   H3265     1.0  0.64282  0.90758  0.37889  1.0000
  H   H3266     1.0  0.69065  0.83118  0.35751  1.0000
  H   H3267     1.0  0.60346  0.00439  0.39207  1.0000
  C   C1846     1.0  0.62063  0.96708  0.36398  1.0000
  H   H3268     1.0  0.50448  0.86524  0.34578  1.0000
  H   H3269     1.0  0.70748  0.99938  0.40840  1.0000
  C   C1847     1.0  0.68857  0.93982  0.36494  1.0000
  C   C1848     1.0  0.70050  0.97815  0.53948  1.0000
  H   H3270     1.0  0.73702  0.87989  0.62003  1.0000
  C   C1849     1.0  0.73158  0.83368  0.56023  1.0000
  H   H3271     1.0  0.60136  0.81687  0.35165  1.0000
  H   H3272     1.0  0.65833  0.00230  0.63473  1.0000
  S   S403      1.0  0.74270  0.86955  0.39879  1.0000
  H   H3273     1.0  0.70774  0.81685  0.56747  1.0000
  C   C1850     1.0  0.74057  0.84921  0.62888  1.0000
  C   C1851     1.0  0.72680  0.91022  0.48649  1.0000
  H   H3274     1.0  0.74067  0.97448  0.64910  1.0000
  C   C1852     1.0  0.60439  0.84711  0.65457  1.0000
  H   H3275     1.0  0.71890  0.92476  0.64919  1.0000
  C   C1853     1.0  0.64957  0.00653  0.62277  1.0000
  H   H3276     1.0  0.68191  0.93582  0.62732  1.0000
  H   H3277     1.0  0.70161  0.84178  0.57125  1.0000
  C   C1854     1.0  0.63131  0.93821  0.34819  1.0000
  H   H3278     1.0  0.63586  0.82030  0.34062  1.0000
  H   H3279     1.0  0.73701  0.90323  0.49650  1.0000
  C   C1855     1.0  0.74598  0.86780  0.62658  1.0000
  H   H3280     1.0  0.61624  0.93558  0.34864  1.0000
  H   H3281     1.0  0.60433  0.00473  0.36657  1.0000
  H   H3282     1.0  0.71622  0.98532  0.38899  1.0000
  C   C1856     1.0  0.69837  0.97676  0.63434  1.0000
  H   H3283     1.0  0.60420  0.83124  0.65781  1.0000
  H   H3284     1.0  0.65890  0.96349  0.58813  1.0000
  H   H3285     1.0  0.73460  0.94685  0.62375  1.0000
  H   H3286     1.0  0.62717  0.95585  0.49355  1.0000
  C   C1857     1.0  0.67334  0.99034  0.56382  1.0000
  H   H3287     1.0  0.66616  0.92398  0.37917  1.0000
  H   H3288     1.0  0.61161  0.86384  0.34622  1.0000
  H   H3289     1.0  0.72913  0.86478  0.55650  1.0000
  H   H3290     1.0  0.60085  0.91985  0.58121  1.0000
  C   C1858     1.0  0.73024  0.91889  0.63832  1.0000
  H   H3291     1.0  0.61836  0.90964  0.37508  1.0000
  C   C1859     1.0  0.64752  0.97191  0.58008  1.0000
  H   H3292     1.0  0.64062  0.98981  0.54609  1.0000
  C   C1860     1.0  0.63979  0.95133  0.52034  1.0000
  H   H3293     1.0  0.63119  0.90446  0.53701  1.0000
  H   H3294     1.0  0.74077  0.95793  0.43427  1.0000
  N   N103      1.0  0.64423  0.92966  0.52385  1.0000
  C   C1861     1.0  0.73323  0.95627  0.44916  1.0000
  H   H3295     1.0  0.61034  0.94000  0.38796  1.0000
  H   H3296     1.0  0.70874  0.97035  0.55098  1.0000
  H   H3297     1.0  0.74038  0.88158  0.58495  1.0000
  H   H3298     1.0  0.71456  0.99458  0.61250  1.0000
  H   H3299     1.0  0.73664  0.93013  0.42535  1.0000
  H   H3300     1.0  0.72947  0.83508  0.54487  1.0000
  H   H3301     1.0  0.62477  0.00208  0.56319  1.0000
  H   H3302     1.0  0.70463  0.99294  0.53536  1.0000
  C   C1862     1.0  0.65329  0.95167  0.36568  1.0000
  C   C1863     1.0  0.73781  0.85271  0.56450  1.0000
  C   C1864     1.0  0.73644  0.91199  0.46531  1.0000
  H   H3303     1.0  0.60586  0.96498  0.36220  1.0000
  C   C1865     1.0  0.74679  0.94466  0.46300  1.0000
  H   H3304     1.0  0.61730  0.96992  0.39524  1.0000
  N   N104      1.0  0.63313  0.94784  0.36538  1.0000
  H   H3305     1.0  0.71899  0.97608  0.46926  1.0000
  C   C1866     1.0  0.60308  0.99537  0.38060  1.0000
  H   H3306     1.0  0.74841  0.99783  0.40109  1.0000
  H   H3307     1.0  0.74498  0.90503  0.42777  1.0000
  H   H3308     1.0  0.74235  0.82099  0.56297  1.0000
  H   H3309     1.0  0.74452  0.94082  0.65852  1.0000
  H   H3310     1.0  0.59703  0.87264  0.66806  1.0000
  H   H3311     1.0  0.74598  0.91344  0.56631  1.0000
  H   H3312     1.0  0.74803  0.81927  0.63941  1.0000
  H   H3313     1.0  0.51407  0.99494  0.37745  1.0000
  H   H3314     1.0  0.50663  0.00395  0.35440  1.0000
  H   H3315     1.0  0.67235  0.81059  0.34325  1.0000
  H   H3316     1.0  0.69220  0.94964  0.35155  1.0000
  C   C1867     1.0  0.68890  0.83395  0.34202  1.0000
  H   H3317     1.0  0.74910  0.81378  0.40004  1.0000
  H   H3318     1.0  0.74990  0.82790  0.41892  1.0000
  H   H3319     1.0  0.68821  0.91697  0.67092  1.0000
  C   C1868     1.0  0.59553  0.85709  0.67207  1.0000
  Fe  Fe202     1.0  0.59532  0.90517  0.78322  1.0000
  S   S404      1.0  0.58852  0.90249  0.75410  1.0000
  S   S405      1.0  0.61128  0.93010  0.78447  1.0000
  Fe  Fe203     1.0  0.58036  0.86763  0.80139  1.0000
  S   S406      1.0  0.57303  0.86145  0.77329  1.0000
  S   S407      1.0  0.57022  0.84818  0.82837  1.0000
  Fe  Fe204     1.0  0.60097  0.87167  0.75992  1.0000
  S   S408      1.0  0.62125  0.85726  0.73693  1.0000
  Fe  Fe205     1.0  0.56125  0.89271  0.76947  1.0000
  S   S409      1.0  0.53415  0.90557  0.75755  1.0000
  S   S410      1.0  0.60969  0.87469  0.78845  1.0000
  S   S411      1.0  0.56664  0.89854  0.79825  1.0000
  H   H3320     1.0  0.54974  0.99159  0.79655  1.0000
  S   S412      1.0  0.73198  0.55366  0.97803  1.0000
  H   H3321     1.0  0.51537  0.68376  0.92503  1.0000
  Fe  Fe206     1.0  0.63562  0.60391  0.94563  1.0000
  S   S413      1.0  0.63897  0.61802  0.97091  1.0000
  S   S414      1.0  0.66055  0.58360  0.93307  1.0000
  Fe  Fe207     1.0  0.59562  0.62649  0.94187  1.0000
  S   S415      1.0  0.59666  0.64236  0.96677  1.0000
  S   S416      1.0  0.56974  0.63684  0.92626  1.0000
  Fe  Fe208     1.0  0.62688  0.64530  0.95426  1.0000
  S   S417      1.0  0.64076  0.67206  0.95351  1.0000
  Fe  Fe209     1.0  0.60855  0.61355  0.98074  1.0000
  C   C1869     1.0  0.54086  0.84677  0.00026  1.0000
  S   S418      1.0  0.62528  0.63176  0.92809  1.0000
  S   S419      1.0  0.60566  0.59713  0.95681  1.0000
  Fe  Fe210     1.0  0.59284  0.81640  0.93321  1.0000
  S   S420      1.0  0.56878  0.80000  0.93189  1.0000
  S   S421      1.0  0.60469  0.83646  0.90740  1.0000
  Fe  Fe211     1.0  0.59866  0.79693  0.97366  1.0000
  S   S422      1.0  0.57549  0.77826  0.97536  1.0000
  Fe  Fe212     1.0  0.58671  0.77409  0.94491  1.0000
  S   S423      1.0  0.58326  0.74668  0.93375  1.0000
  Fe  Fe213     1.0  0.55896  0.80504  0.96239  1.0000
  S   S424      1.0  0.52759  0.80825  0.97322  1.0000
  S   S425      1.0  0.61187  0.78997  0.94418  1.0000
  S   S426      1.0  0.58126  0.82444  0.96281  1.0000
  H   H3322     1.0  0.66370  0.95283  0.72110  1.0000
  C   C1870     1.0  0.64090  0.96310  0.74198  1.0000
  C   C1871     1.0  0.75120  0.59513  0.93345  1.0000
  C   C1872     1.0  0.57420  0.85409  0.67785  1.0000
  H   H3323     1.0  0.50284  0.85459  0.79001  1.0000
  H   H3324     1.0  0.63706  0.89808  0.84478  1.0000
  C   C1873     1.0  0.54831  0.62634  0.93307  1.0000
  C   C1874     1.0  0.53105  0.63703  0.92850  1.0000
  H   H3325     1.0  0.64782  0.93825  0.80656  1.0000
  C   C1875     1.0  0.57888  0.69899  0.98913  1.0000
  C   C1876     1.0  0.51953  0.99143  0.82590  1.0000
  C   C1877     1.0  0.54818  0.60749  0.94242  1.0000
  H   H3326     1.0  0.53121  0.65149  0.92104  1.0000
  H   H3327     1.0  0.57829  0.96370  0.71487  1.0000
  H   H3328     1.0  0.56146  0.59897  0.94552  1.0000
  C   C1878     1.0  0.62534  0.69298  0.94708  1.0000
  C   C1879     1.0  0.60845  0.69161  0.93998  1.0000
  C   C1880     1.0  0.59584  0.70830  0.93558  1.0000
  C   C1881     1.0  0.59989  0.72635  0.93857  1.0000
  C   C1882     1.0  0.61683  0.72781  0.94554  1.0000
  C   C1883     1.0  0.62968  0.71113  0.94955  1.0000
  H   H3329     1.0  0.60513  0.67769  0.93779  1.0000
  H   H3330     1.0  0.58278  0.70717  0.93011  1.0000
  H   H3331     1.0  0.62003  0.74175  0.94783  1.0000
  H   H3332     1.0  0.64275  0.71224  0.95501  1.0000
  C   C1884     1.0  0.71243  0.56156  0.96506  1.0000
  C   C1885     1.0  0.71316  0.55923  0.94573  1.0000
  C   C1886     1.0  0.69712  0.56594  0.93610  1.0000
  C   C1887     1.0  0.68033  0.57508  0.94567  1.0000
  C   C1888     1.0  0.67967  0.57735  0.96499  1.0000
  C   C1889     1.0  0.69565  0.57068  0.97460  1.0000
  H   H3333     1.0  0.72606  0.55235  0.93820  1.0000
  H   H3334     1.0  0.69775  0.56411  0.92114  1.0000
  H   H3335     1.0  0.66682  0.58416  0.97258  1.0000
  H   H3336     1.0  0.69507  0.57272  0.98948  1.0000
  C   C1890     1.0  0.58000  0.84550  0.85017  1.0000
  C   C1891     1.0  0.56898  0.83879  0.86730  1.0000
  C   C1892     1.0  0.57646  0.83571  0.88488  1.0000
  C   C1893     1.0  0.59513  0.83912  0.88544  1.0000
  C   C1894     1.0  0.60628  0.84549  0.86824  1.0000
  C   C1895     1.0  0.59870  0.84886  0.85067  1.0000
  H   H3337     1.0  0.55452  0.83608  0.86699  1.0000
  H   H3338     1.0  0.56767  0.83098  0.89803  1.0000
  H   H3339     1.0  0.62092  0.84758  0.86849  1.0000
  H   H3340     1.0  0.60745  0.85361  0.83749  1.0000
  C   C1896     1.0  0.62540  0.86927  0.71322  1.0000
  C   C1897     1.0  0.64000  0.86136  0.69999  1.0000
  H   H3341     1.0  0.50998  0.67831  0.88278  1.0000
  H   H3342     1.0  0.58426  0.95533  0.73875  1.0000
  C   C1898     1.0  0.61727  0.89532  0.68818  1.0000
  C   C1899     1.0  0.61409  0.88633  0.70721  1.0000
  H   H3343     1.0  0.64881  0.84813  0.70448  1.0000
  C   C1900     1.0  0.53214  0.73415  0.99472  1.0000
  H   H3344     1.0  0.60833  0.90842  0.68362  1.0000
  H   H3345     1.0  0.60259  0.89237  0.71707  1.0000
  H   H3346     1.0  0.56015  0.91176  0.84494  1.0000
  C   C1901     1.0  0.65605  0.52637  0.95356  1.0000
  H   H3347     1.0  0.53724  0.86351  0.75967  1.0000
  C   C1902     1.0  0.59859  0.98261  0.80261  1.0000
  C   C1903     1.0  0.60847  0.80071  0.82384  1.0000
  C   C1904     1.0  0.58232  0.94804  0.80854  1.0000
  C   C1905     1.0  0.59923  0.94969  0.79592  1.0000
  C   C1906     1.0  0.60735  0.96697  0.79305  1.0000
  H   H3348     1.0  0.57608  0.93470  0.81093  1.0000
  H   H3349     1.0  0.62050  0.96828  0.78345  1.0000
  C   C1907     1.0  0.53154  0.69653  0.89905  1.0000
  C   C1908     1.0  0.54823  0.70080  0.90826  1.0000
  H   H3350     1.0  0.64437  0.52474  0.96569  1.0000
  H   H3351     1.0  0.62520  0.96419  0.74578  1.0000
  H   H3352     1.0  0.53596  0.68234  0.89369  1.0000
  H   H3353     1.0  0.53933  0.84248  0.67678  1.0000
  C   C1909     1.0  0.54920  0.99185  0.76672  1.0000
  H   H3354     1.0  0.56064  0.70282  0.89702  1.0000
  H   H3355     1.0  0.54446  0.71416  0.91527  1.0000
  H   H3356     1.0  0.55268  0.68843  0.91892  1.0000
  H   H3357     1.0  0.59608  0.71245  0.86885  1.0000
  H   H3358     1.0  0.67475  0.94011  0.69336  1.0000
  H   H3359     1.0  0.69657  0.52855  0.98981  1.0000
  S   S427      1.0  0.57114  0.00029  0.82790  1.0000
  H   H3360     1.0  0.64117  0.91573  0.70132  1.0000
  C   C1910     1.0  0.59614  0.77592  0.85112  1.0000
  C   C1911     1.0  0.71139  0.64931  0.93428  1.0000
  C   C1912     1.0  0.50959  0.91952  0.85233  1.0000
  H   H3361     1.0  0.54924  0.76317  0.89328  1.0000
  C   C1913     1.0  0.62011  0.93535  0.72733  1.0000
  H   H3362     1.0  0.72054  0.68274  0.94624  1.0000
  H   H3363     1.0  0.56652  0.61743  0.98402  1.0000
  C   C1914     1.0  0.51107  0.83327  0.92234  1.0000
  C   C1915     1.0  0.55535  0.68139  0.96773  1.0000
  N   N105      1.0  0.58756  0.77214  0.87190  1.0000
  H   H3364     1.0  0.52855  0.79376  0.88320  1.0000
  C   C1916     1.0  0.58669  0.75072  0.87728  1.0000
  C   C1917     1.0  0.56729  0.78214  0.87348  1.0000
  C   C1918     1.0  0.59826  0.77978  0.88543  1.0000
  C   C1919     1.0  0.62016  0.77966  0.87966  1.0000
  N   N106      1.0  0.56442  0.86160  0.69619  1.0000
  C   C1920     1.0  0.55448  0.77734  0.89281  1.0000
  C   C1921     1.0  0.60598  0.73753  0.87707  1.0000
  C   C1922     1.0  0.60297  0.71622  0.88057  1.0000
  C   C1923     1.0  0.62982  0.78312  0.89636  1.0000
  H   H3365     1.0  0.57350  0.83844  0.67840  1.0000
  H   H3366     1.0  0.60663  0.81625  0.81788  1.0000
  H   H3367     1.0  0.65077  0.88966  0.76738  1.0000
  C   C1924     1.0  0.53806  0.84057  0.69273  1.0000
  H   H3368     1.0  0.57942  0.74761  0.89219  1.0000
  H   H3369     1.0  0.67676  0.91589  0.70586  1.0000
  H   H3370     1.0  0.66123  0.92762  0.82593  1.0000
  H   H3371     1.0  0.52435  0.91231  0.84907  1.0000
  H   H3372     1.0  0.59256  0.79502  0.88736  1.0000
  H   H3373     1.0  0.59578  0.77172  0.90010  1.0000
  H   H3374     1.0  0.62317  0.79132  0.86772  1.0000
  H   H3375     1.0  0.62723  0.76590  0.87485  1.0000
  H   H3376     1.0  0.58333  0.82955  0.74656  1.0000
  H   H3377     1.0  0.56114  0.82597  0.72340  1.0000
  H   H3378     1.0  0.56245  0.77646  0.90516  1.0000
  H   H3379     1.0  0.65526  0.87042  0.75259  1.0000
  H   H3380     1.0  0.61522  0.73991  0.86316  1.0000
  H   H3381     1.0  0.61350  0.74011  0.88888  1.0000
  H   H3382     1.0  0.61696  0.70707  0.88107  1.0000
  H   H3383     1.0  0.59396  0.71294  0.89452  1.0000
  H   H3384     1.0  0.66461  0.63827  0.92897  1.0000
  H   H3385     1.0  0.64531  0.78348  0.89168  1.0000
  H   H3386     1.0  0.62368  0.79718  0.90132  1.0000
  H   H3387     1.0  0.62801  0.77130  0.90846  1.0000
  C   C1925     1.0  0.66886  0.92612  0.69553  1.0000
  H   H3388     1.0  0.58889  0.76856  0.84195  1.0000
  C   C1926     1.0  0.58832  0.82251  0.73340  1.0000
  H   H3389     1.0  0.51894  0.96460  0.85903  1.0000
  H   H3390     1.0  0.61557  0.92167  0.72477  1.0000
  H   H3391     1.0  0.52054  0.59661  0.98853  1.0000
  H   H3392     1.0  0.60536  0.89173  0.84423  1.0000
  H   H3393     1.0  0.55227  0.89109  0.86083  1.0000
  H   H3394     1.0  0.71414  0.52083  0.96126  1.0000
  H   H3395     1.0  0.63941  0.99290  0.72845  1.0000
  H   H3396     1.0  0.66200  0.98338  0.73697  1.0000
  C   C1927     1.0  0.65739  0.88561  0.75310  1.0000
  H   H3397     1.0  0.72679  0.61602  0.95563  1.0000
  H   H3398     1.0  0.61559  0.93616  0.74292  1.0000
  C   C1928     1.0  0.52440  0.86990  0.75377  1.0000
  C   C1929     1.0  0.53092  0.59940  0.94714  1.0000
  C   C1930     1.0  0.54776  0.69989  0.97735  1.0000
  H   H3399     1.0  0.55978  0.77878  0.86194  1.0000
  C   C1931     1.0  0.60796  0.95176  0.71577  1.0000
  H   H3400     1.0  0.57795  0.74558  0.86779  1.0000
  S   S428      1.0  0.61586  0.79255  0.99859  1.0000
  H   H3401     1.0  0.67475  0.53571  0.97015  1.0000
  H   H3402     1.0  0.62119  0.87956  0.87277  1.0000
  H   H3403     1.0  0.58322  0.88264  0.87204  1.0000
  H   H3404     1.0  0.59827  0.80656  0.85273  1.0000
  C   C1932     1.0  0.56476  0.89700  0.85189  1.0000
  H   H3405     1.0  0.64455  0.88114  0.91688  1.0000
  H   H3406     1.0  0.54445  0.77543  0.95362  1.0000
  H   H3407     1.0  0.52957  0.70782  0.88663  1.0000
  C   C1933     1.0  0.59859  0.90395  0.85227  1.0000
  C   C1934     1.0  0.58015  0.89747  0.86448  1.0000
  H   H3408     1.0  0.61512  0.63950  0.00310  1.0000
  H   H3409     1.0  0.60531  0.79216  0.81303  1.0000
  H   H3410     1.0  0.56476  0.99273  0.76355  1.0000
  H   H3411     1.0  0.57024  0.88751  0.84061  1.0000
  C   C1935     1.0  0.51985  0.89000  0.75096  1.0000
  C   C1936     1.0  0.61693  0.89333  0.87904  1.0000
  H   H3412     1.0  0.59425  0.91569  0.84098  1.0000
  H   H3413     1.0  0.60386  0.89117  0.88943  1.0000
  C   C1937     1.0  0.53978  0.67511  0.95843  1.0000
  C   C1938     1.0  0.63118  0.91209  0.85021  1.0000
  C   C1939     1.0  0.64880  0.92640  0.81871  1.0000
  C   C1940     1.0  0.63302  0.87963  0.90854  1.0000
  H   H3414     1.0  0.64694  0.89373  0.88263  1.0000
  H   H3415     1.0  0.61865  0.92700  0.82453  1.0000
  H   H3416     1.0  0.54894  0.92361  0.71717  1.0000
  C   C1941     1.0  0.64326  0.87041  0.68091  1.0000
  N   N107      1.0  0.61275  0.90981  0.86341  1.0000
  C   C1942     1.0  0.63262  0.89538  0.89125  1.0000
  H   H3417     1.0  0.57433  0.90715  0.87550  1.0000
  H   H3418     1.0  0.61923  0.88078  0.91818  1.0000
  H   H3419     1.0  0.63577  0.86507  0.90374  1.0000
  C   C1943     1.0  0.52094  0.97941  0.86110  1.0000
  H   H3420     1.0  0.53309  0.68748  0.94915  1.0000
  C   C1944     1.0  0.63034  0.92799  0.83271  1.0000
  H   H3421     1.0  0.64217  0.91576  0.85811  1.0000
  H   H3422     1.0  0.51132  0.70947  0.92055  1.0000
  H   H3423     1.0  0.65100  0.91244  0.81272  1.0000
  H   H3424     1.0  0.58868  0.85674  0.71208  1.0000
  H   H3425     1.0  0.51950  0.97606  0.82409  1.0000
  H   H3426     1.0  0.71214  0.60029  0.95018  1.0000
  C   C1945     1.0  0.53706  0.79254  0.89529  1.0000
  H   H3427     1.0  0.71584  0.65199  0.91848  1.0000
  H   H3428     1.0  0.63021  0.90961  0.89668  1.0000
  H   H3429     1.0  0.62352  0.79658  0.82654  1.0000
  C   C1946     1.0  0.51195  0.85795  0.74937  1.0000
  C   C1947     1.0  0.60535  0.92794  0.87259  1.0000
  H   H3430     1.0  0.59732  0.92432  0.88711  1.0000
  H   H3431     1.0  0.57779  0.93834  0.86186  1.0000
  H   H3432     1.0  0.62851  0.94247  0.83754  1.0000
  H   H3433     1.0  0.69014  0.61113  0.92616  1.0000
  C   C1948     1.0  0.58193  0.98088  0.81551  1.0000
  C   C1949     1.0  0.59176  0.94350  0.86166  1.0000
  H   H3434     1.0  0.61752  0.93501  0.87518  1.0000
  H   H3435     1.0  0.59761  0.94721  0.84648  1.0000
  C   C1950     1.0  0.57378  0.96358  0.81847  1.0000
  H   H3436     1.0  0.68278  0.63850  0.88685  1.0000
  C   C1951     1.0  0.52920  0.77688  0.95409  1.0000
  H   H3437     1.0  0.67391  0.61684  0.99464  1.0000
  C   C1952     1.0  0.52158  0.60359  0.00130  1.0000
  H   H3438     1.0  0.64753  0.95437  0.75415  1.0000
  H   H3439     1.0  0.50857  0.92486  0.78770  1.0000
  H   H3440     1.0  0.58019  0.80290  0.83917  1.0000
  C   C1953     1.0  0.59489  0.79755  0.84249  1.0000
  H   H3441     1.0  0.51221  0.82734  0.90853  1.0000
  H   H3442     1.0  0.56088  0.96220  0.82844  1.0000
  H   H3443     1.0  0.58182  0.93817  0.72302  1.0000
  C   C1954     1.0  0.51749  0.79093  0.96393  1.0000
  H   H3444     1.0  0.53219  0.69986  0.98222  1.0000
  H   H3445     1.0  0.56072  0.66894  0.97762  1.0000
  C   C1955     1.0  0.68829  0.63082  0.95684  1.0000
  C   C1956     1.0  0.67799  0.63170  0.99248  1.0000
  C   C1957     1.0  0.58679  0.95222  0.72361  1.0000
  H   H3446     1.0  0.72959  0.51788  0.92760  1.0000
  H   H3447     1.0  0.58811  0.80670  0.73720  1.0000
  C   C1958     1.0  0.67114  0.63632  0.89892  1.0000
  C   C1959     1.0  0.51365  0.61012  0.94269  1.0000
  H   H3448     1.0  0.66535  0.64229  0.98939  1.0000
  H   H3449     1.0  0.58420  0.70842  0.97597  1.0000
  C   C1960     1.0  0.58792  0.96212  0.87094  1.0000
  H   H3450     1.0  0.70653  0.62310  0.98016  1.0000
  H   H3451     1.0  0.56649  0.85803  0.72667  1.0000
  H   H3452     1.0  0.60128  0.96876  0.86982  1.0000
  H   H3453     1.0  0.54893  0.71196  0.96528  1.0000
  H   H3454     1.0  0.51391  0.76078  0.99925  1.0000
  H   H3455     1.0  0.53101  0.58467  0.95408  1.0000
  H   H3456     1.0  0.61193  0.96618  0.71658  1.0000
  H   H3457     1.0  0.66844  0.90318  0.67814  1.0000
  C   C1961     1.0  0.64628  0.98349  0.74012  1.0000
  C   C1962     1.0  0.51375  0.62904  0.93344  1.0000
  H   H3458     1.0  0.67295  0.88651  0.75129  1.0000
  H   H3459     1.0  0.54159  0.80680  0.89596  1.0000
  C   C1963     1.0  0.69692  0.51318  0.99629  1.0000
  H   H3460     1.0  0.74186  0.64320  0.93767  1.0000
  H   H3461     1.0  0.67678  0.64288  0.95405  1.0000
  H   H3462     1.0  0.56727  0.79809  0.87109  1.0000
  C   C1964     1.0  0.73282  0.67319  0.93975  1.0000
  H   H3463     1.0  0.72718  0.59985  0.91783  1.0000
  H   H3464     1.0  0.65832  0.64647  0.89558  1.0000
  H   H3465     1.0  0.70516  0.62584  0.90991  1.0000
  C   C1965     1.0  0.56557  0.88305  0.69361  1.0000
  C   C1966     1.0  0.73368  0.60804  0.92684  1.0000
  H   H3466     1.0  0.54730  0.83891  0.98797  1.0000
  H   H3467     1.0  0.60497  0.99591  0.80024  1.0000
  H   H3468     1.0  0.64355  0.96455  0.71071  1.0000
  H   H3469     1.0  0.56190  0.73355  0.98343  1.0000
  H   H3470     1.0  0.60327  0.82515  0.72808  1.0000
  H   H3471     1.0  0.51476  0.98189  0.87599  1.0000
  C   C1967     1.0  0.67701  0.64012  0.91772  1.0000
  H   H3472     1.0  0.52864  0.66951  0.96960  1.0000
  H   H3473     1.0  0.52870  0.73613  0.97974  1.0000
  N   N108      1.0  0.64148  0.93468  0.72256  1.0000
  C   C1968     1.0  0.61183  0.69907  0.99840  1.0000
  H   H3474     1.0  0.54212  0.00018  0.75465  1.0000
  H   H3475     1.0  0.55665  0.59645  0.98022  1.0000
  C   C1969     1.0  0.57551  0.83021  0.71786  1.0000
  H   H3476     1.0  0.53785  0.85870  0.71502  1.0000
  H   H3477     1.0  0.56121  0.88953  0.72353  1.0000
  H   H3478     1.0  0.53482  0.87112  0.69193  1.0000
  H   H3479     1.0  0.61665  0.68567  0.99162  1.0000
  H   H3480     1.0  0.65599  0.51549  0.94377  1.0000
  H   H3481     1.0  0.54600  0.66346  0.94963  1.0000
  C   C1970     1.0  0.64715  0.92908  0.70260  1.0000
  C   C1971     1.0  0.64784  0.95402  0.72309  1.0000
  H   H3482     1.0  0.52783  0.78842  0.90888  1.0000
  H   H3483     1.0  0.64077  0.94030  0.69186  1.0000
  H   H3484     1.0  0.57751  0.97262  0.86337  1.0000
  C   C1972     1.0  0.57414  0.85246  0.71337  1.0000
  H   H3485     1.0  0.53949  0.89235  0.71281  1.0000
  H   H3486     1.0  0.58058  0.88588  0.69219  1.0000
  C   C1973     1.0  0.55482  0.89430  0.71004  1.0000
  H   H3487     1.0  0.53049  0.75460  0.93607  1.0000
  C   C1974     1.0  0.54139  0.99996  0.78555  1.0000
  H   H3488     1.0  0.63278  0.89688  0.73935  1.0000
  C   C1975     1.0  0.54352  0.85873  0.69952  1.0000
  H   H3489     1.0  0.69815  0.64863  0.97513  1.0000
  H   H3490     1.0  0.56016  0.89001  0.67997  1.0000
  C   C1976     1.0  0.51746  0.83747  0.70056  1.0000
  H   H3491     1.0  0.68625  0.52677  0.94832  1.0000
  C   C1977     1.0  0.55606  0.91593  0.70493  1.0000
  H   H3492     1.0  0.57120  0.91869  0.70192  1.0000
  H   H3493     1.0  0.54880  0.92180  0.69215  1.0000
  H   H3494     1.0  0.65330  0.54098  0.94540  1.0000
  H   H3495     1.0  0.58185  0.95927  0.88629  1.0000
  H   H3496     1.0  0.73843  0.62108  0.91770  1.0000
  H   H3497     1.0  0.52197  0.72506  0.00377  1.0000
  C   C1978     1.0  0.51107  0.99441  0.84675  1.0000
  C   C1979     1.0  0.55327  0.72507  0.99530  1.0000
  H   H3498     1.0  0.64480  0.92355  0.75209  1.0000
  H   H3499     1.0  0.72696  0.64799  0.95941  1.0000
  H   H3500     1.0  0.54733  0.82725  0.69730  1.0000
  N   N109      1.0  0.70367  0.63012  0.93975  1.0000
  H   H3501     1.0  0.51223  0.00653  0.77919  1.0000
  H   H3502     1.0  0.61514  0.71179  0.98785  1.0000
  C   C1980     1.0  0.64810  0.89877  0.73708  1.0000
  C   C1981     1.0  0.71888  0.61349  0.94416  1.0000
  H   H3503     1.0  0.61127  0.76952  0.84889  1.0000
  H   H3504     1.0  0.58156  0.82296  0.70510  1.0000
  C   C1982     1.0  0.52847  0.75394  0.00170  1.0000
  H   H3505     1.0  0.58315  0.68410  0.98548  1.0000
  C   C1983     1.0  0.69462  0.62588  0.92315  1.0000
  C   C1984     1.0  0.52125  0.76481  0.94436  1.0000
  H   H3506     1.0  0.56746  0.68442  0.95640  1.0000
  H   H3507     1.0  0.51348  0.82523  0.69448  1.0000
  H   H3508     1.0  0.66756  0.62132  0.90027  1.0000
  C   C1985     1.0  0.69438  0.63378  0.97609  1.0000
  H   H3509     1.0  0.50915  0.93615  0.82461  1.0000
  C   C1986     1.0  0.51291  0.69609  0.91356  1.0000
  H   H3510     1.0  0.65471  0.89367  0.72326  1.0000
  H   H3511     1.0  0.51535  0.90323  0.81713  1.0000
  H   H3512     1.0  0.50611  0.94240  0.75622  1.0000
  C   C1987     1.0  0.65068  0.92016  0.73735  1.0000
  H   H3513     1.0  0.69985  0.66132  0.93737  1.0000
  H   H3514     1.0  0.64126  0.98972  0.75376  1.0000
  H   H3515     1.0  0.66622  0.92116  0.73614  1.0000
  N   N110      1.0  0.55751  0.70367  0.99362  1.0000
  H   H3516     1.0  0.68138  0.61733  0.95928  1.0000
  H   H3517     1.0  0.67991  0.65534  0.91602  1.0000
  C   C1988     1.0  0.72888  0.65215  0.94367  1.0000
  H   H3518     1.0  0.60410  0.85115  0.68387  1.0000
  C   C1989     1.0  0.50315  0.89806  0.74326  1.0000
  H   H3519     1.0  0.51892  0.82256  0.93239  1.0000
  H   H3520     1.0  0.53647  0.98062  0.85934  1.0000
  H   H3521     1.0  0.53286  0.62667  0.98056  1.0000
  H   H3522     1.0  0.74566  0.67472  0.94620  1.0000
  H   H3523     1.0  0.53277  0.86055  0.99459  1.0000
  H   H3524     1.0  0.50746  0.85059  0.69666  1.0000
  H   H3525     1.0  0.51780  0.84681  0.91962  1.0000
  C   C1990     1.0  0.59046  0.70076  0.00544  1.0000
  H   H3526     1.0  0.73546  0.67790  0.92404  1.0000
  H   H3527     1.0  0.65657  0.55577  0.99708  1.0000
  H   H3528     1.0  0.72712  0.51128  0.99997  1.0000
  H   H3529     1.0  0.53881  0.76353  0.99370  1.0000
  H   H3530     1.0  0.51009  0.93243  0.85935  1.0000
  C   C1991     1.0  0.53632  0.61795  0.99425  1.0000
  H   H3531     1.0  0.60970  0.94949  0.70044  1.0000
  H   H3532     1.0  0.74698  0.58178  0.94249  1.0000
  C   C1992     1.0  0.55629  0.60708  0.99034  1.0000
  C   C1993     1.0  0.67274  0.91792  0.67634  1.0000
  H   H3533     1.0  0.54704  0.97642  0.76790  1.0000
  H   H3534     1.0  0.51527  0.84242  0.75195  1.0000
  H   H3535     1.0  0.51033  0.64901  0.99217  1.0000
  H   H3536     1.0  0.51825  0.98281  0.79097  1.0000
  H   H3537     1.0  0.68256  0.63447  0.00597  1.0000
  H   H3538     1.0  0.50189  0.86968  0.81907  1.0000
  C   C1994     1.0  0.63181  0.88739  0.67493  1.0000
  H   H3539     1.0  0.50367  0.66427  0.90517  1.0000
  H   H3540     1.0  0.53481  0.99310  0.82494  1.0000
  N   N111      1.0  0.51068  0.00480  0.81010  1.0000
  H   H3541     1.0  0.60129  0.00241  0.72639  1.0000
  H   H3542     1.0  0.51583  0.83397  0.71645  1.0000
  C   C1995     1.0  0.67533  0.52419  0.96097  1.0000
  C   C1996     1.0  0.51977  0.99824  0.79110  1.0000
  H   H3543     1.0  0.50587  0.89173  0.78982  1.0000
  H   H3544     1.0  0.53697  0.62768  0.00493  1.0000
  H   H3545     1.0  0.56087  0.59924  0.00395  1.0000
  H   H3546     1.0  0.51622  0.83188  0.00597  1.0000
  H   H3547     1.0  0.68322  0.51245  0.00600  1.0000
  H   H3548     1.0  0.54380  0.66522  0.00591  1.0000
  C   C1997     1.0  0.82767  0.37966  0.01423  1.0000
  S   S429      1.0  0.77720  0.35713  0.11455  1.0000
  C   C1998     1.0  0.83802  0.37478  0.04749  1.0000
  S   S430      1.0  0.77771  0.40290  0.11930  1.0000
  H   H3549     1.0  0.88958  0.45828  0.29204  1.0000
  C   C1999     1.0  0.76590  0.31453  0.08955  1.0000
  S   S431      1.0  0.78124  0.39673  0.06610  1.0000
  Fe  Fe214     1.0  0.78079  0.37436  0.13794  1.0000
  S   S432      1.0  0.80101  0.36632  0.16069  1.0000
  C   C2000     1.0  0.78868  0.45377  0.10030  1.0000
  H   H3550     1.0  0.79238  0.44048  0.04367  1.0000
  H   H3551     1.0  0.80004  0.49923  0.18553  1.0000
  Fe  Fe215     1.0  0.89589  0.38900  0.19225  1.0000
  S   S433      1.0  0.87957  0.38889  0.22196  1.0000
  S   S434      1.0  0.88322  0.39005  0.16440  1.0000
  Fe  Fe216     1.0  0.93216  0.40064  0.20503  1.0000
  S   S435      1.0  0.91792  0.40172  0.23521  1.0000
  S   S436      1.0  0.96004  0.41333  0.19556  1.0000
  Fe  Fe217     1.0  0.90731  0.37436  0.23192  1.0000
  S   S437      1.0  0.91242  0.35097  0.25646  1.0000
  Fe  Fe218     1.0  0.89198  0.41618  0.22225  1.0000
  S   S438      1.0  0.87573  0.44437  0.22960  1.0000
  S   S439      1.0  0.92302  0.37224  0.20208  1.0000
  S   S440      1.0  0.90687  0.41705  0.19239  1.0000
  C   C2001     1.0  0.90605  0.37308  0.31470  1.0000
  C   C2002     1.0  0.92261  0.36126  0.30850  1.0000
  C   C2003     1.0  0.92466  0.35459  0.29049  1.0000
  C   C2004     1.0  0.91057  0.36047  0.27831  1.0000
  C   C2005     1.0  0.89451  0.37311  0.28414  1.0000
  C   C2006     1.0  0.89208  0.37906  0.30245  1.0000
  H   H3552     1.0  0.93356  0.35677  0.31780  1.0000
  H   H3553     1.0  0.93715  0.34488  0.28598  1.0000
  H   H3554     1.0  0.88355  0.37761  0.27486  1.0000
  H   H3555     1.0  0.87919  0.38808  0.30724  1.0000
  C   C2007     1.0  0.92165  0.48111  0.23443  1.0000
  C   C2008     1.0  0.90241  0.48831  0.23889  1.0000
  C   C2009     1.0  0.88808  0.47721  0.23720  1.0000
  C   C2010     1.0  0.89309  0.45919  0.23059  1.0000
  C   C2011     1.0  0.91230  0.45248  0.22558  1.0000
  C   C2012     1.0  0.92654  0.46312  0.22798  1.0000
  H   H3556     1.0  0.81781  0.34858  0.00852  1.0000
  H   H3557     1.0  0.87324  0.48241  0.24120  1.0000
  H   H3558     1.0  0.91637  0.43916  0.21962  1.0000
  H   H3559     1.0  0.94132  0.45756  0.22420  1.0000
  H   H3560     1.0  0.75988  0.47434  0.04356  1.0000
  C   C2013     1.0  0.82332  0.37430  0.16160  1.0000
  C   C2014     1.0  0.83209  0.36865  0.17835  1.0000
  C   C2015     1.0  0.85017  0.37377  0.17956  1.0000
  C   C2016     1.0  0.85982  0.38451  0.16392  1.0000
  C   C2017     1.0  0.85096  0.39047  0.14723  1.0000
  C   C2018     1.0  0.83273  0.38552  0.14611  1.0000
  H   H3561     1.0  0.82496  0.35996  0.19040  1.0000
  H   H3562     1.0  0.85684  0.36895  0.19243  1.0000
  H   H3563     1.0  0.85832  0.39872  0.13502  1.0000
  H   H3564     1.0  0.82618  0.38996  0.13312  1.0000
  S   S441      1.0  0.77770  0.33432  0.01225  1.0000
  H   H3565     1.0  0.82804  0.48061  0.19959  1.0000
  H   H3566     1.0  0.91317  0.33597  0.16652  1.0000
  H   H3567     1.0  0.85610  0.49544  0.10475  1.0000
  H   H3568     1.0  0.85562  0.36575  0.02245  1.0000
  C   C2019     1.0  0.98317  0.44391  0.25130  1.0000
  C   C2020     1.0  0.77998  0.37934  0.05135  1.0000
  C   C2021     1.0  0.78742  0.36011  0.05627  1.0000
  C   C2022     1.0  0.78708  0.34641  0.04396  1.0000
  C   C2023     1.0  0.77849  0.35174  0.02719  1.0000
  C   C2024     1.0  0.84030  0.36670  0.02834  1.0000
  C   C2025     1.0  0.97375  0.46604  0.18783  1.0000
  H   H3569     1.0  0.79383  0.35588  0.06938  1.0000
  C   C2026     1.0  0.92391  0.42188  0.27861  1.0000
  H   H3570     1.0  0.79982  0.46305  0.07081  1.0000
  N   N112      1.0  0.84143  0.45214  0.17454  1.0000
  C   C2027     1.0  0.85712  0.46422  0.17511  1.0000
  C   C2028     1.0  0.82258  0.46483  0.17677  1.0000
  C   C2029     1.0  0.84248  0.43558  0.19065  1.0000
  C   C2030     1.0  0.84364  0.44390  0.15582  1.0000
  C   C2031     1.0  0.84337  0.45894  0.13752  1.0000
  C   C2032     1.0  0.87745  0.45597  0.16678  1.0000
  C   C2033     1.0  0.82618  0.42263  0.19371  1.0000
  H   H3571     1.0  0.83620  0.35186  0.03146  1.0000
  H   H3572     1.0  0.79111  0.46235  0.01275  1.0000
  C   C2034     1.0  0.85252  0.44965  0.11966  1.0000
  C   C2035     1.0  0.89260  0.46681  0.17198  1.0000
  C   C2036     1.0  0.82757  0.40779  0.21158  1.0000
  H   H3573     1.0  0.85775  0.46645  0.19021  1.0000
  H   H3574     1.0  0.85409  0.47905  0.16742  1.0000
  H   H3575     1.0  0.82269  0.47766  0.16555  1.0000
  H   H3576     1.0  0.81082  0.45729  0.17401  1.0000
  H   H3577     1.0  0.84302  0.44093  0.20453  1.0000
  H   H3578     1.0  0.85610  0.42583  0.18822  1.0000
  H   H3579     1.0  0.85679  0.43328  0.15439  1.0000
  H   H3580     1.0  0.83183  0.43531  0.15556  1.0000
  H   H3581     1.0  0.85100  0.47131  0.13826  1.0000
  H   H3582     1.0  0.82836  0.46482  0.13566  1.0000
  H   H3583     1.0  0.88050  0.44052  0.17221  1.0000
  H   H3584     1.0  0.87890  0.45727  0.15088  1.0000
  H   H3585     1.0  0.82700  0.41450  0.18131  1.0000
  H   H3586     1.0  0.81191  0.43118  0.19562  1.0000
  C   C2037     1.0  0.79830  0.48645  0.19656  1.0000
  C   C2038     1.0  0.92012  0.47366  0.29065  1.0000
  H   H3587     1.0  0.97212  0.48788  0.20605  1.0000
  H   H3588     1.0  0.98023  0.38190  0.16240  1.0000
  H   H3589     1.0  0.78650  0.44497  0.15677  1.0000
  H   H3590     1.0  0.84574  0.43669  0.11866  1.0000
  H   H3591     1.0  0.85076  0.46015  0.10657  1.0000
  H   H3592     1.0  0.86801  0.44522  0.12025  1.0000
  H   H3593     1.0  0.88994  0.48248  0.16674  1.0000
  H   H3594     1.0  0.89265  0.46483  0.18779  1.0000
  H   H3595     1.0  0.90693  0.46106  0.16525  1.0000
  H   H3596     1.0  0.82630  0.41506  0.22464  1.0000
  H   H3597     1.0  0.81590  0.39861  0.21330  1.0000
  H   H3598     1.0  0.84135  0.39829  0.21014  1.0000
  N   N113      1.0  0.95943  0.37913  0.14402  1.0000
  C   C2039     1.0  0.94723  0.39617  0.15207  1.0000
  C   C2040     1.0  0.93562  0.48641  0.29080  1.0000
  H   H3599     1.0  0.88145  0.34184  0.33581  1.0000
  C   C2041     1.0  0.95885  0.37934  0.12277  1.0000
  C   C2042     1.0  0.93998  0.38855  0.11483  1.0000
  C   C2043     1.0  0.95409  0.41614  0.14430  1.0000
  H   H3600     1.0  0.95680  0.48596  0.33208  1.0000
  C   C2044     1.0  0.93275  0.35673  0.15434  1.0000
  H   H3601     1.0  0.94318  0.48147  0.30351  1.0000
  C   C2045     1.0  0.93984  0.38391  0.09451  1.0000
  C   C2046     1.0  0.93863  0.43286  0.14856  1.0000
  H   H3602     1.0  0.94007  0.44822  0.29777  1.0000
  H   H3603     1.0  0.94670  0.39438  0.16798  1.0000
  H   H3604     1.0  0.93211  0.39685  0.14982  1.0000
  H   H3605     1.0  0.76351  0.42358  0.15223  1.0000
  C   C2047     1.0  0.77264  0.46664  0.04975  1.0000
  C   C2048     1.0  0.92826  0.33792  0.16684  1.0000
  C   C2049     1.0  0.98420  0.46170  0.23635  1.0000
  H   H3606     1.0  0.99705  0.43994  0.25692  1.0000
  H   H3607     1.0  0.81065  0.42888  0.10188  1.0000
  H   H3608     1.0  0.93839  0.40449  0.11412  1.0000
  H   H3609     1.0  0.92713  0.38367  0.12385  1.0000
  H   H3610     1.0  0.96652  0.41792  0.15131  1.0000
  H   H3611     1.0  0.95868  0.41750  0.12859  1.0000
  H   H3612     1.0  0.97613  0.42960  0.31264  1.0000
  H   H3613     1.0  0.86792  0.33289  0.28958  1.0000
  H   H3614     1.0  0.92205  0.36854  0.15932  1.0000
  H   H3615     1.0  0.93112  0.35489  0.13947  1.0000
  H   H3616     1.0  0.76754  0.43781  0.04460  1.0000
  H   H3617     1.0  0.83087  0.39468  0.01389  1.0000
  C   C2050     1.0  0.95002  0.29769  0.33134  1.0000
  H   H3618     1.0  0.95216  0.38918  0.08467  1.0000
  H   H3619     1.0  0.97578  0.47560  0.31531  1.0000
  H   H3620     1.0  0.77683  0.48996  0.07983  1.0000
  H   H3621     1.0  0.94373  0.44673  0.14183  1.0000
  H   H3622     1.0  0.92536  0.43144  0.14279  1.0000
  H   H3623     1.0  0.93550  0.43329  0.16428  1.0000
  H   H3624     1.0  0.92905  0.50159  0.29155  1.0000
  H   H3625     1.0  0.86379  0.34966  0.30698  1.0000
  N   N114      1.0  0.76930  0.46396  0.07146  1.0000
  C   C2051     1.0  0.75404  0.32449  0.07386  1.0000
  H   H3626     1.0  0.91209  0.47998  0.27849  1.0000
  H   H3627     1.0  0.84288  0.38929  0.04540  1.0000
  H   H3628     1.0  0.88565  0.42281  0.27337  1.0000
  H   H3629     1.0  0.78430  0.43896  0.01156  1.0000
  H   H3630     1.0  0.97199  0.44721  0.26341  1.0000
  H   H3631     1.0  0.89924  0.45293  0.26891  1.0000
  C   C2052     1.0  0.80796  0.44387  0.10558  1.0000
  C   C2053     1.0  0.98442  0.37922  0.20050  1.0000
  H   H3632     1.0  0.84672  0.36501  0.05753  1.0000
  C   C2054     1.0  0.92887  0.45257  0.28807  1.0000
  H   H3633     1.0  0.89862  0.50222  0.24403  1.0000
  H   H3634     1.0  0.79172  0.43988  0.07483  1.0000
  H   H3635     1.0  0.96258  0.34788  0.15024  1.0000
  C   C2055     1.0  0.97231  0.48515  0.32678  1.0000
  H   H3636     1.0  0.93026  0.33819  0.18199  1.0000
  H   H3637     1.0  0.94605  0.48603  0.27752  1.0000
  H   H3638     1.0  0.98534  0.39282  0.13837  1.0000
  N   N115      1.0  0.91527  0.43748  0.29095  1.0000
  H   H3639     1.0  0.94280  0.40235  0.29679  1.0000
  C   C2056     1.0  0.76381  0.48331  0.07893  1.0000
  H   H3640     1.0  0.76624  0.45943  0.01359  1.0000
  C   C2057     1.0  0.75463  0.45045  0.07944  1.0000
  H   H3641     1.0  0.80881  0.49998  0.05713  1.0000
  C   C2058     1.0  0.98480  0.41524  0.31211  1.0000
  H   H3642     1.0  0.76383  0.37511  0.00968  1.0000
  C   C2059     1.0  0.86188  0.44337  0.28197  1.0000
  C   C2060     1.0  0.94391  0.41155  0.28264  1.0000
  H   H3643     1.0  0.85250  0.32774  0.31182  1.0000
  H   H3644     1.0  0.97956  0.43166  0.24493  1.0000
  H   H3645     1.0  0.76036  0.50458  0.05340  1.0000
  C   C2061     1.0  0.95330  0.36066  0.15533  1.0000
  H   H3646     1.0  0.94490  0.48140  0.19228  1.0000
  H   H3647     1.0  0.89570  0.32960  0.30637  1.0000
  H   H3648     1.0  0.81953  0.45212  0.09787  1.0000
  C   C2062     1.0  0.88291  0.32344  0.31437  1.0000
  H   H3649     1.0  0.91463  0.41020  0.28043  1.0000
  C   C2063     1.0  0.78798  0.45494  0.07837  1.0000
  C   C2064     1.0  0.88145  0.43226  0.28491  1.0000
  C   C2065     1.0  0.97974  0.37997  0.14721  1.0000
  H   H3650     1.0  0.77762  0.44537  0.10872  1.0000
  C   C2066     1.0  0.77072  0.37092  0.02246  1.0000
  C   C2067     1.0  0.77343  0.45114  0.15106  1.0000
  H   H3651     1.0  0.93663  0.45364  0.27315  1.0000
  H   H3652     1.0  0.82290  0.37595  0.05420  1.0000
  H   H3653     1.0  0.91022  0.47451  0.30415  1.0000
  S   S442      1.0  0.93976  0.49461  0.23623  1.0000
  H   H3654     1.0  0.78068  0.31835  0.08600  1.0000
  H   H3655     1.0  0.95506  0.36019  0.17076  1.0000
  Fe  Fe219     1.0  0.77165  0.38618  0.09698  1.0000
  H   H3656     1.0  0.95403  0.42201  0.28263  1.0000
  S   S443      1.0  0.78679  0.48575  0.14844  1.0000
  C   C2068     1.0  0.89653  0.44622  0.28408  1.0000
  C   C2069     1.0  0.86566  0.33409  0.30522  1.0000
  H   H3657     1.0  0.76651  0.29860  0.09072  1.0000
  H   H3658     1.0  0.79427  0.49151  0.21086  1.0000
  H   H3659     1.0  0.98525  0.40807  0.32705  1.0000
  H   H3660     1.0  0.95714  0.48595  0.16816  1.0000
  C   C2070     1.0  0.90257  0.44143  0.32667  1.0000
  H   H3661     1.0  0.97004  0.46545  0.23148  1.0000
  H   H3662     1.0  0.94838  0.29124  0.31842  1.0000
  C   C2071     1.0  0.76049  0.43901  0.14835  1.0000
  H   H3663     1.0  0.96671  0.39101  0.27087  1.0000
  H   H3664     1.0  0.97182  0.37192  0.20443  1.0000
  H   H3665     1.0  0.93761  0.32537  0.16136  1.0000
  H   H3666     1.0  0.86281  0.45364  0.26851  1.0000
  C   C2072     1.0  0.91269  0.42829  0.31160  1.0000
  H   H3667     1.0  0.95452  0.40683  0.25298  1.0000
  H   H3668     1.0  0.95439  0.31235  0.32680  1.0000
  H   H3669     1.0  0.97554  0.49995  0.32076  1.0000
  H   H3670     1.0  0.76607  0.39969  0.03048  1.0000
  H   H3671     1.0  0.76097  0.31946  0.06012  1.0000
  H   H3672     1.0  0.97072  0.45407  0.19940  1.0000
  H   H3673     1.0  0.78650  0.46833  0.10500  1.0000
  H   H3674     1.0  0.97022  0.38735  0.11404  1.0000
  H   H3675     1.0  0.80805  0.44323  0.12130  1.0000
  H   H3676     1.0  0.79324  0.33162  0.04757  1.0000
  H   H3677     1.0  0.87124  0.49296  0.20174  1.0000
  H   H3678     1.0  0.81258  0.37952  0.02108  1.0000
  H   H3679     1.0  0.91245  0.45132  0.32912  1.0000
  H   H3680     1.0  0.94323  0.38711  0.26733  1.0000
  C   C2073     1.0  0.95480  0.47476  0.18074  1.0000
  H   H3681     1.0  0.85183  0.43308  0.28093  1.0000
  C   C2074     1.0  0.95256  0.39836  0.26749  1.0000
  C   C2075     1.0  0.76965  0.47113  0.14612  1.0000
  H   H3682     1.0  0.96232  0.36437  0.11892  1.0000
  H   H3683     1.0  0.88429  0.30809  0.31217  1.0000
  H   H3684     1.0  0.85614  0.45152  0.29426  1.0000
  H   H3685     1.0  0.81463  0.46063  0.20822  1.0000
  H   H3686     1.0  0.90510  0.41541  0.31300  1.0000
  C   C2076     1.0  0.98255  0.39932  0.19601  1.0000
  H   H3687     1.0  0.87967  0.42308  0.29896  1.0000
  H   H3688     1.0  0.78655  0.47907  0.19357  1.0000
  C   C2077     1.0  0.77186  0.38481  0.03431  1.0000
  H   H3689     1.0  0.78399  0.47620  0.04457  1.0000
  H   H3690     1.0  0.75979  0.31934  0.10363  1.0000
  C   C2078     1.0  0.81686  0.47262  0.19643  1.0000
  C   C2079     1.0  0.77837  0.44794  0.04006  1.0000
  H   H3691     1.0  0.92493  0.42800  0.26311  1.0000
  H   H3692     1.0  0.92673  0.42248  0.31643  1.0000
  H   H3693     1.0  0.91406  0.30460  0.32252  1.0000
  H   H3694     1.0  0.98205  0.50203  0.22830  1.0000
  H   H3695     1.0  0.92648  0.39111  0.08902  1.0000
  H   H3696     1.0  0.75454  0.34024  0.07290  1.0000
  H   H3697     1.0  0.88934  0.45002  0.32233  1.0000
  H   H3698     1.0  0.98737  0.47339  0.24373  1.0000
  H   H3699     1.0  0.75637  0.48135  0.09395  1.0000
  H   H3700     1.0  0.91985  0.32569  0.32963  1.0000
  H   H3701     1.0  0.94040  0.36809  0.09453  1.0000
  H   H3702     1.0  0.97783  0.40641  0.30420  1.0000
  C   C2080     1.0  0.75267  0.47901  0.13885  1.0000
  H   H3703     1.0  0.94793  0.46323  0.17641  1.0000
  C   C2081     1.0  0.98316  0.48150  0.19528  1.0000
  H   H3704     1.0  0.98291  0.45996  0.17558  1.0000
  H   H3705     1.0  0.96151  0.28857  0.33864  1.0000
  H   H3706     1.0  0.76031  0.43540  0.07674  1.0000
  C   C2082     1.0  0.78009  0.45252  0.01816  1.0000
  H   H3707     1.0  0.98534  0.49343  0.18328  1.0000
  C   C2083     1.0  0.91503  0.31141  0.33537  1.0000
  C   C2084     1.0  0.88110  0.32604  0.33594  1.0000
  S   S444      1.0  0.90189  0.37995  0.33793  1.0000
  H   H3708     1.0  0.99720  0.44486  0.21346  1.0000
  C   C2085     1.0  0.99900  0.40861  0.19091  1.0000
  H   H3709     1.0  0.99236  0.34988  0.15407  1.0000
  H   H3710     1.0  0.99764  0.42411  0.18723  1.0000
  H   H3711     1.0  0.99307  0.35785  0.12860  1.0000
  C   C2086     1.0  0.99395  0.50746  0.21808  1.0000
  H   H3712     1.0  0.90074  0.27819  0.33346  1.0000
  C   C2087     1.0  0.99977  0.45793  0.21927  1.0000
  C   C2088     1.0  0.99446  0.36226  0.14264  1.0000
  H   H3713     1.0  0.87532  0.28578  0.33577  1.0000
  S   S445      1.0  0.80401  0.50447  0.01712  1.0000
  N   N116      1.0  0.00167  0.47461  0.20348  1.0000
  H   H3714     1.0  0.00167  0.40650  0.26579  1.0000
  H   H3715     1.0  0.83333  0.50765  0.09899  1.0000
  H   H3716     1.0  0.85888  0.10805  0.64712  1.0000
  H   H3717     1.0  0.83428  0.15346  0.53703  1.0000
  Fe  Fe220     1.0  0.94864  0.39355  0.37879  1.0000
  H   H3718     1.0  0.94260  0.29367  0.61226  1.0000
  S   S446      1.0  0.95883  0.41933  0.38810  1.0000
  Fe  Fe221     1.0  0.93818  0.35219  0.39279  1.0000
  C   C2089     1.0  0.84196  0.14793  0.50073  1.0000
  S   S447      1.0  0.93144  0.33179  0.42006  1.0000
  C   C2090     1.0  0.99946  0.21550  0.48572  1.0000
  H   H3719     1.0  0.93193  0.02863  0.49308  1.0000
  S   S448      1.0  0.95239  0.38889  0.34776  1.0000
  S   S449      1.0  0.96542  0.36522  0.38832  1.0000
  S   S450      1.0  0.92081  0.38109  0.38618  1.0000
  Fe  Fe222     1.0  0.84207  0.02244  0.46966  1.0000
  S   S451      1.0  0.81144  0.03509  0.47054  1.0000
  H   H3720     1.0  0.88089  0.29907  0.66486  1.0000
  Fe  Fe223     1.0  0.85650  0.06238  0.46168  1.0000
  S   S452      1.0  0.82688  0.07828  0.46169  1.0000
  S   S453      1.0  0.88435  0.07503  0.45956  1.0000
  Fe  Fe224     1.0  0.81906  0.05668  0.48719  1.0000
  S   S454      1.0  0.80206  0.06382  0.51498  1.0000
  Fe  Fe225     1.0  0.82190  0.05524  0.44495  1.0000
  S   S455      1.0  0.80725  0.06138  0.41851  1.0000
  S   S456      1.0  0.84893  0.04238  0.48853  1.0000
  S   S457      1.0  0.85229  0.04091  0.44263  1.0000
  Fe  Fe226     1.0  0.84217  0.06646  0.62464  1.0000
  S   S458      1.0  0.86855  0.05160  0.63690  1.0000
  S   S459      1.0  0.81428  0.06812  0.64415  1.0000
  Fe  Fe227     1.0  0.86365  0.07594  0.58546  1.0000
  S   S460      1.0  0.89148  0.06154  0.59437  1.0000
  S   S461      1.0  0.86423  0.09057  0.55526  1.0000
  Fe  Fe228     1.0  0.87470  0.03785  0.60964  1.0000
  H   H3721     1.0  0.87502  0.31878  0.38623  1.0000
  Fe  Fe229     1.0  0.88254  0.07690  0.62043  1.0000
  S   S462      1.0  0.90365  0.09206  0.63199  1.0000
  S   S463      1.0  0.84748  0.05119  0.59846  1.0000
  S   S464      1.0  0.85559  0.09273  0.61045  1.0000
  Fe  Fe230     1.0  0.95009  0.22813  0.63826  1.0000
  S   S465      1.0  0.97541  0.22679  0.61530  1.0000
  H   H3722     1.0  0.95042  0.26900  0.60862  1.0000
  Fe  Fe231     1.0  0.93123  0.19888  0.62175  1.0000
  S   S466      1.0  0.95494  0.19594  0.59743  1.0000
  S   S467      1.0  0.90515  0.18326  0.62260  1.0000
  Fe  Fe232     1.0  0.97450  0.19498  0.61937  1.0000
  C   C2091     1.0  0.99490  0.18996  0.46803  1.0000
  Fe  Fe233     1.0  0.95425  0.22786  0.59495  1.0000
  S   S468      1.0  0.96180  0.24243  0.56496  1.0000
  S   S469      1.0  0.92859  0.23165  0.61738  1.0000
  Fe  Fe234     1.0  0.91675  0.20958  0.48527  1.0000
  S   S470      1.0  0.92526  0.17803  0.48325  1.0000
  S   S471      1.0  0.90565  0.21796  0.51469  1.0000
  Fe  Fe235     1.0  0.92477  0.22118  0.44189  1.0000
  S   S472      1.0  0.93383  0.19033  0.43661  1.0000
  S   S473      1.0  0.92778  0.24331  0.41532  1.0000
  Fe  Fe236     1.0  0.90863  0.18295  0.45819  1.0000
  S   S474      1.0  0.88483  0.16581  0.45516  1.0000
  Fe  Fe237     1.0  0.94953  0.18835  0.46208  1.0000
  S   S475      1.0  0.98025  0.17498  0.46106  1.0000
  S   S476      1.0  0.89832  0.21414  0.46160  1.0000
  S   S477      1.0  0.94216  0.21961  0.46594  1.0000
  H   H3723     1.0  0.84120  0.18315  0.52750  1.0000
  C   C2092     1.0  0.82962  0.13685  0.63529  1.0000
  H   H3724     1.0  0.98179  0.17262  0.55522  1.0000
  H   H3725     1.0  0.88771  0.35916  0.38179  1.0000
  H   H3726     1.0  0.97266  0.20471  0.48658  1.0000
  H   H3727     1.0  0.90856  0.31793  0.37271  1.0000
  Fe  Fe238     1.0  0.96762  0.35990  0.35787  1.0000
  H   H3728     1.0  0.86942  0.11754  0.51761  1.0000
  C   C2093     1.0  0.98966  0.36157  0.43104  1.0000
  C   C2094     1.0  0.86435  0.16682  0.50979  1.0000
  C   C2095     1.0  0.82929  0.12036  0.65191  1.0000
  C   C2096     1.0  0.94639  0.23637  0.55039  1.0000
  C   C2097     1.0  0.95288  0.23321  0.53132  1.0000
  C   C2098     1.0  0.94054  0.22751  0.52012  1.0000
  C   C2099     1.0  0.92156  0.22562  0.52781  1.0000
  C   C2100     1.0  0.91509  0.22936  0.54668  1.0000
  C   C2101     1.0  0.92755  0.23425  0.55808  1.0000
  H   H3729     1.0  0.96750  0.23475  0.52535  1.0000
  H   H3730     1.0  0.94566  0.22468  0.50559  1.0000
  H   H3731     1.0  0.90039  0.22846  0.55261  1.0000
  H   H3732     1.0  0.92242  0.23677  0.57274  1.0000
  C   C2102     1.0  0.90518  0.15783  0.62505  1.0000
  C   C2103     1.0  0.92044  0.14492  0.63130  1.0000
  C   C2104     1.0  0.91992  0.12483  0.63299  1.0000
  C   C2105     1.0  0.90427  0.11741  0.62824  1.0000
  C   C2106     1.0  0.88905  0.13032  0.62186  1.0000
  C   C2107     1.0  0.88936  0.15039  0.62063  1.0000
  H   H3733     1.0  0.93245  0.15041  0.63526  1.0000
  H   H3734     1.0  0.93165  0.11498  0.63821  1.0000
  H   H3735     1.0  0.87690  0.12486  0.61820  1.0000
  H   H3736     1.0  0.87732  0.16024  0.61610  1.0000
  C   C2108     1.0  0.88452  0.10032  0.45794  1.0000
  C   C2109     1.0  0.90154  0.10761  0.45917  1.0000
  C   C2110     1.0  0.90204  0.12766  0.45814  1.0000
  C   C2111     1.0  0.88555  0.14057  0.45554  1.0000
  C   C2112     1.0  0.86867  0.13326  0.45398  1.0000
  C   C2113     1.0  0.86808  0.11326  0.45536  1.0000
  H   H3737     1.0  0.91436  0.09771  0.46105  1.0000
  H   H3738     1.0  0.91513  0.13311  0.45934  1.0000
  H   H3739     1.0  0.85593  0.14317  0.45171  1.0000
  H   H3740     1.0  0.85495  0.10790  0.45417  1.0000
  C   C2114     1.0  0.81799  0.07310  0.52645  1.0000
  C   C2115     1.0  0.81515  0.07316  0.54638  1.0000
  C   C2116     1.0  0.82920  0.07887  0.55540  1.0000
  C   C2117     1.0  0.84607  0.08424  0.54447  1.0000
  C   C2118     1.0  0.84868  0.08435  0.52460  1.0000
  C   C2119     1.0  0.83454  0.07910  0.51560  1.0000
  H   H3741     1.0  0.96051  0.28994  0.45088  1.0000
  H   H3742     1.0  0.82705  0.07900  0.57078  1.0000
  H   H3743     1.0  0.86189  0.08786  0.51611  1.0000
  H   H3744     1.0  0.83667  0.07952  0.50019  1.0000
  C   C2120     1.0  0.93631  0.28643  0.58611  1.0000
  C   C2121     1.0  0.78080  0.11883  0.53524  1.0000
  C   C2122     1.0  0.94726  0.47782  0.38180  1.0000
  H   H3745     1.0  0.77445  0.09404  0.55508  1.0000
  H   H3746     1.0  0.86474  0.01660  0.56029  1.0000
  C   C2123     1.0  0.85903  0.20302  0.51074  1.0000
  C   C2124     1.0  0.79397  0.06767  0.63306  1.0000
  C   C2125     1.0  0.77687  0.06353  0.64441  1.0000
  H   H3747     1.0  0.80766  0.07508  0.60428  1.0000
  H   H3748     1.0  0.81537  0.14007  0.63028  1.0000
  C   C2126     1.0  0.78433  0.05451  0.42030  1.0000
  H   H3749     1.0  0.77632  0.06049  0.65986  1.0000
  H   H3750     1.0  0.77838  0.05155  0.45120  1.0000
  C   C2127     1.0  0.93019  0.30724  0.41864  1.0000
  C   C2128     1.0  0.92453  0.29496  0.43533  1.0000
  C   C2129     1.0  0.92374  0.27528  0.43456  1.0000
  C   C2130     1.0  0.92857  0.26782  0.41705  1.0000
  C   C2131     1.0  0.93421  0.28009  0.40038  1.0000
  C   C2132     1.0  0.93510  0.29970  0.40120  1.0000
  H   H3751     1.0  0.92066  0.30071  0.44889  1.0000
  H   H3752     1.0  0.91916  0.26594  0.44743  1.0000
  H   H3753     1.0  0.93808  0.27435  0.38682  1.0000
  H   H3754     1.0  0.93988  0.30893  0.38842  1.0000
  C   C2133     1.0  0.94770  0.44308  0.38223  1.0000
  H   H3755     1.0  0.79640  0.00991  0.44147  1.0000
  H   H3756     1.0  0.89146  0.43912  0.35705  1.0000
  C   C2134     1.0  0.87324  0.03473  0.53442  1.0000
  C   C2135     1.0  0.84144  0.02323  0.39145  1.0000
  H   H3757     1.0  0.83433  0.03447  0.53427  1.0000
  H   H3758     1.0  0.78190  0.02904  0.52292  1.0000
  H   H3759     1.0  0.81945  0.02244  0.61219  1.0000
  C   C2136     1.0  0.97308  0.25975  0.45103  1.0000
  C   C2137     1.0  0.90390  0.01909  0.44116  1.0000
  C   C2138     1.0  0.95073  0.27421  0.47790  1.0000
  H   H3760     1.0  0.77352  0.13110  0.52625  1.0000
  H   H3761     1.0  0.89899  0.14489  0.50007  1.0000
  C   C2139     1.0  0.75717  0.09655  0.53132  1.0000
  H   H3762     1.0  0.80207  0.02950  0.54855  1.0000
  H   H3763     1.0  0.91214  0.03755  0.46642  1.0000
  C   C2140     1.0  0.91409  0.05540  0.49687  1.0000
  H   H3764     1.0  0.98292  0.31312  0.62674  1.0000
  C   C2141     1.0  0.76043  0.06329  0.63586  1.0000
  H   H3765     1.0  0.98997  0.35099  0.44424  1.0000
  H   H3766     1.0  0.86847  0.20203  0.52200  1.0000
  S   S478      1.0  0.95100  0.19558  0.64426  1.0000
  H   H3767     1.0  0.97923  0.48699  0.35465  1.0000
  H   H3768     1.0  0.97169  0.27678  0.41678  1.0000
  H   H3769     1.0  0.89631  0.25501  0.36332  1.0000
  H   H3770     1.0  0.75737  0.07025  0.56420  1.0000
  H   H3771     1.0  0.79893  0.01039  0.62074  1.0000
  H   H3772     1.0  0.93422  0.30467  0.35781  1.0000
  C   C2142     1.0  0.84939  0.18472  0.51292  1.0000
  H   H3773     1.0  0.92153  0.11775  0.51167  1.0000
  C   C2143     1.0  0.00055  0.29918  0.59561  1.0000
  C   C2144     1.0  0.93140  0.29874  0.34515  1.0000
  H   H3774     1.0  0.92005  0.06324  0.48302  1.0000
  H   H3775     1.0  0.84792  0.07764  0.66275  1.0000
  H   H3776     1.0  0.94958  0.35611  0.61045  1.0000
  C   C2145     1.0  0.88765  0.28066  0.34379  1.0000
  H   H3777     1.0  0.96649  0.23100  0.43156  1.0000
  H   H3778     1.0  0.98509  0.30190  0.43273  1.0000
  H   H3779     1.0  0.99742  0.19700  0.64787  1.0000
  H   H3780     1.0  0.91945  0.31120  0.64651  1.0000
  S   S479      1.0  0.99679  0.34846  0.34476  1.0000
  H   H3781     1.0  0.97256  0.19788  0.55189  1.0000
  C   C2146     1.0  0.93370  0.28231  0.65299  1.0000
  H   H3782     1.0  0.76629  0.06018  0.54291  1.0000
  H   H3783     1.0  0.85183  0.04036  0.55810  1.0000
  H   H3784     1.0  0.91092  0.02681  0.51025  1.0000
  H   H3785     1.0  0.80677  0.14126  0.49161  1.0000
  C   C2147     1.0  0.89824  0.32593  0.36324  1.0000
  C   C2148     1.0  0.76098  0.06745  0.61593  1.0000
  C   C2149     1.0  0.80880  0.01074  0.52632  1.0000
  H   H3786     1.0  0.99233  0.26244  0.61235  1.0000
  H   H3787     1.0  0.93320  0.30188  0.58028  1.0000
  H   H3788     1.0  0.97008  0.38660  0.42116  1.0000
  N   N117      1.0  0.85691  0.14745  0.51383  1.0000
  H   H3789     1.0  0.78591  0.05627  0.38959  1.0000
  H   H3790     1.0  0.99608  0.22245  0.54898  1.0000
  H   H3791     1.0  0.82750  0.12289  0.51493  1.0000
  H   H3792     1.0  0.90890  0.46828  0.36347  1.0000
  H   H3793     1.0  0.95354  0.48976  0.38510  1.0000
  C   C2150     1.0  0.87991  0.33171  0.37699  1.0000
  H   H3794     1.0  0.99856  0.22923  0.44158  1.0000
  C   C2151     1.0  0.76027  0.04524  0.40401  1.0000
  H   H3795     1.0  0.98526  0.31163  0.66344  1.0000
  H   H3796     1.0  0.99071  0.50294  0.66709  1.0000
  N   N118      1.0  0.92328  0.15766  0.55961  1.0000
  C   C2152     1.0  0.93489  0.15334  0.54076  1.0000
  C   C2153     1.0  0.91099  0.14177  0.56773  1.0000
  C   C2154     1.0  0.91019  0.17617  0.55549  1.0000
  C   C2155     1.0  0.93577  0.16041  0.57410  1.0000
  C   C2156     1.0  0.94967  0.14247  0.58064  1.0000
  C   C2157     1.0  0.94605  0.16962  0.52931  1.0000
  C   C2158     1.0  0.89646  0.18308  0.57298  1.0000
  C   C2159     1.0  0.91855  0.12113  0.56269  1.0000
  C   C2160     1.0  0.90635  0.10626  0.57418  1.0000
  C   C2161     1.0  0.96282  0.14706  0.59397  1.0000
  C   C2162     1.0  0.96198  0.16169  0.51455  1.0000
  C   C2163     1.0  0.87791  0.19445  0.56707  1.0000
  H   H3797     1.0  0.92534  0.15013  0.53091  1.0000
  H   H3798     1.0  0.94519  0.14012  0.54280  1.0000
  H   H3799     1.0  0.90811  0.14079  0.58369  1.0000
  H   H3800     1.0  0.89666  0.14517  0.56286  1.0000
  H   H3801     1.0  0.90170  0.17485  0.54389  1.0000
  H   H3802     1.0  0.91852  0.18838  0.54975  1.0000
  H   H3803     1.0  0.94393  0.17280  0.56893  1.0000
  H   H3804     1.0  0.92681  0.16457  0.58744  1.0000
  H   H3805     1.0  0.95893  0.13669  0.56830  1.0000
  H   H3806     1.0  0.94145  0.13103  0.58886  1.0000
  H   H3807     1.0  0.93623  0.18063  0.52151  1.0000
  H   H3808     1.0  0.95257  0.17716  0.53867  1.0000
  H   H3809     1.0  0.90367  0.19256  0.57999  1.0000
  H   H3810     1.0  0.89251  0.17102  0.58396  1.0000
  H   H3811     1.0  0.91806  0.12054  0.54727  1.0000
  H   H3812     1.0  0.93344  0.11657  0.56557  1.0000
  H   H3813     1.0  0.89106  0.11042  0.57245  1.0000
  H   H3814     1.0  0.91109  0.09203  0.56899  1.0000
  H   H3815     1.0  0.90794  0.10475  0.58965  1.0000
  H   H3816     1.0  0.97261  0.15734  0.58628  1.0000
  H   H3817     1.0  0.95444  0.15331  0.60654  1.0000
  H   H3818     1.0  0.97159  0.13360  0.59937  1.0000
  H   H3819     1.0  0.96901  0.17377  0.50598  1.0000
  H   H3820     1.0  0.97291  0.15165  0.52184  1.0000
  H   H3821     1.0  0.95619  0.15401  0.50459  1.0000
  H   H3822     1.0  0.86999  0.20170  0.57929  1.0000
  H   H3823     1.0  0.88076  0.20558  0.55458  1.0000
  H   H3824     1.0  0.86878  0.18461  0.56319  1.0000
  H   H3825     1.0  0.80239  0.06839  0.55485  1.0000
  C   C2164     1.0  0.98358  0.47720  0.34349  1.0000
  H   H3826     1.0  0.98852  0.33508  0.64985  1.0000
  C   C2165     1.0  0.92928  0.30207  0.65519  1.0000
  H   H3827     1.0  0.84810  0.01220  0.52989  1.0000
  H   H3828     1.0  0.93848  0.26927  0.47291  1.0000
  N   N119      1.0  0.98229  0.29290  0.60681  1.0000
  C   C2166     1.0  0.96985  0.28901  0.59274  1.0000
  C   C2167     1.0  0.94621  0.27030  0.66429  1.0000
  H   H3829     1.0  0.92264  0.28093  0.59247  1.0000
  C   C2168     1.0  0.97271  0.30885  0.61826  1.0000
  C   C2169     1.0  0.96437  0.32760  0.60638  1.0000
  H   H3830     1.0  0.97573  0.33388  0.59594  1.0000
  H   H3831     1.0  0.92173  0.05835  0.50842  1.0000
  C   C2170     1.0  0.98751  0.20357  0.48057  1.0000
  C   C2171     1.0  0.95524  0.34281  0.61933  1.0000
  H   H3832     1.0  0.95622  0.26302  0.48917  1.0000
  H   H3833     1.0  0.97664  0.27655  0.58512  1.0000
  H   H3834     1.0  0.96849  0.30136  0.58109  1.0000
  H   H3835     1.0  0.96051  0.25753  0.44451  1.0000
  C   C2172     1.0  0.84158  0.02096  0.54161  1.0000
  H   H3836     1.0  0.94551  0.28771  0.48437  1.0000
  H   H3837     1.0  0.97245  0.27022  0.62845  1.0000
  H   H3838     1.0  0.96124  0.30370  0.62933  1.0000
  H   H3839     1.0  0.99050  0.20338  0.42350  1.0000
  H   H3840     1.0  0.97928  0.46274  0.34930  1.0000
  H   H3841     1.0  0.92796  0.28377  0.34973  1.0000
  S   S480      1.0  0.94179  0.34441  0.36282  1.0000
  S   S481      1.0  0.93062  0.33474  0.67163  1.0000
  C   C2173     1.0  0.89874  0.01159  0.42374  1.0000
  H   H3842     1.0  0.89876  0.06105  0.50014  1.0000
  H   H3843     1.0  0.81750  0.02067  0.51627  1.0000
  H   H3844     1.0  0.97058  0.31175  0.40257  1.0000
  H   H3845     1.0  0.96580  0.34665  0.62763  1.0000
  H   H3846     1.0  0.94317  0.33744  0.62946  1.0000
  H   H3847     1.0  0.95310  0.32477  0.59839  1.0000
  C   C2174     1.0  0.97879  0.23378  0.42052  1.0000
  C   C2175     1.0  0.75388  0.03162  0.56870  1.0000
  H   H3848     1.0  0.99743  0.21675  0.40022  1.0000
  H   H3849     1.0  0.84585  0.11739  0.49547  1.0000
  H   H3850     1.0  0.87578  0.16743  0.51853  1.0000
  H   H3851     1.0  0.82927  0.15838  0.50472  1.0000
  C   C2176     1.0  0.81916  0.13080  0.48693  1.0000
  C   C2177     1.0  0.89334  0.13416  0.51187  1.0000
  C   C2178     1.0  0.88411  0.26112  0.35531  1.0000
  H   H3852     1.0  0.99363  0.22608  0.49533  1.0000
  C   C2179     1.0  0.93035  0.48134  0.37348  1.0000
  H   H3853     1.0  0.87193  0.13166  0.54951  1.0000
  C   C2180     1.0  0.93724  0.31000  0.66875  1.0000
  H   H3854     1.0  0.88026  0.02246  0.52682  1.0000
  C   C2181     1.0  0.83427  0.12847  0.50048  1.0000
  C   C2182     1.0  0.85778  0.02793  0.55017  1.0000
  H   H3855     1.0  0.77858  0.07494  0.58915  1.0000
  H   H3856     1.0  0.99307  0.30436  0.38858  1.0000
  C   C2183     1.0  0.77748  0.05267  0.40331  1.0000
  H   H3857     1.0  0.00116  0.48866  0.37499  1.0000
  H   H3858     1.0  0.79668  0.03273  0.60488  1.0000
  H   H3859     1.0  0.99727  0.31054  0.58349  1.0000
  C   C2184     1.0  0.77808  0.07166  0.60456  1.0000
  H   H3860     1.0  0.75556  0.04303  0.39083  1.0000
  H   H3861     1.0  0.98815  0.18708  0.53269  1.0000
  C   C2185     1.0  0.75278  0.06582  0.55141  1.0000
  H   H3862     1.0  0.89070  0.03580  0.48237  1.0000
  H   H3863     1.0  0.90630  0.10909  0.49772  1.0000
  C   C2186     1.0  0.84919  0.11478  0.65882  1.0000
  Fe  Fe239     1.0  0.92614  0.37400  0.35574  1.0000
  H   H3864     1.0  0.92714  0.27627  0.64286  1.0000
  H   H3865     1.0  0.89544  0.33875  0.39875  1.0000
  H   H3866     1.0  0.78759  0.12466  0.54585  1.0000
  C   C2187     1.0  0.96648  0.27800  0.46115  1.0000
  H   H3867     1.0  0.79219  0.11079  0.52594  1.0000
  C   C2188     1.0  0.82416  0.01764  0.57474  1.0000
  H   H3868     1.0  0.98899  0.35369  0.41885  1.0000
  H   H3869     1.0  0.88410  0.04050  0.54091  1.0000
  C   C2189     1.0  0.91643  0.03366  0.49586  1.0000
  H   H3870     1.0  0.85840  0.14081  0.58118  1.0000
  C   C2190     1.0  0.90667  0.11519  0.51118  1.0000
  C   C2191     1.0  0.98517  0.18714  0.54851  1.0000
  H   H3871     1.0  0.86814  0.33912  0.36901  1.0000
  H   H3872     1.0  0.99834  0.19275  0.57198  1.0000
  H   H3873     1.0  0.81937  0.03350  0.57280  1.0000
  C   C2192     1.0  0.78865  0.01424  0.52069  1.0000
  H   H3874     1.0  0.95872  0.36720  0.43564  1.0000
  H   H3875     1.0  0.75770  0.05446  0.51572  1.0000
  H   H3876     1.0  0.83768  0.01597  0.58105  1.0000
  H   H3877     1.0  0.83244  0.03747  0.39006  1.0000
  H   H3878     1.0  0.81406  0.11663  0.48704  1.0000
  C   C2193     1.0  0.95575  0.45873  0.38639  1.0000
  S   S482      1.0  0.91839  0.50496  0.36908  1.0000
  H   H3879     1.0  0.99080  0.32409  0.40249  1.0000
  H   H3880     1.0  0.75566  0.11396  0.55515  1.0000
  H   H3881     1.0  0.86709  0.04636  0.52398  1.0000
  C   C2194     1.0  0.75566  0.04296  0.43872  1.0000
  N   N120      1.0  0.99056  0.26020  0.43614  1.0000
  C   C2195     1.0  0.98562  0.21485  0.41216  1.0000
  H   H3882     1.0  0.99799  0.45619  0.37212  1.0000
  C   C2196     1.0  0.83267  0.00964  0.40818  1.0000
  H   H3883     1.0  0.84289  0.12880  0.53701  1.0000
  H   H3884     1.0  0.90417  0.33949  0.35660  1.0000
  H   H3885     1.0  0.91960  0.01883  0.43942  1.0000
  H   H3886     1.0  0.97372  0.24478  0.40891  1.0000
  H   H3887     1.0  0.97054  0.38260  0.44684  1.0000
  C   C2197     1.0  0.90582  0.02916  0.47978  1.0000
  H   H3888     1.0  0.75840  0.07694  0.50001  1.0000
  C   C2198     1.0  0.98696  0.27525  0.41908  1.0000
  H   H3889     1.0  0.84030  0.13276  0.62303  1.0000
  H   H3890     1.0  0.97531  0.24717  0.46236  1.0000
  H   H3891     1.0  0.97816  0.28274  0.46717  1.0000
  H   H3892     1.0  0.85462  0.12860  0.65964  1.0000
  H   H3893     1.0  0.83311  0.15011  0.63996  1.0000
  H   H3894     1.0  0.93651  0.01027  0.46669  1.0000
  H   H3895     1.0  0.82489  0.10787  0.64658  1.0000
  H   H3896     1.0  0.99192  0.14977  0.40803  1.0000
  H   H3897     1.0  0.88546  0.42078  0.34469  1.0000
  H   H3898     1.0  0.89892  0.28840  0.36805  1.0000
  H   H3899     1.0  0.84768  0.15317  0.48564  1.0000
  H   H3900     1.0  0.87070  0.34890  0.40046  1.0000
  C   C2199     1.0  0.79457  0.07169  0.61310  1.0000
  C   C2200     1.0  0.84883  0.14105  0.57015  1.0000
  H   H3901     1.0  0.87395  0.12913  0.49388  1.0000
  C   C2201     1.0  0.76650  0.10544  0.54579  1.0000
  C   C2202     1.0  0.86019  0.14375  0.55010  1.0000
  C   C2203     1.0  0.88374  0.34546  0.39029  1.0000
  C   C2204     1.0  0.94956  0.28416  0.60151  1.0000
  H   H3902     1.0  0.98907  0.38532  0.35880  1.0000
  C   C2205     1.0  0.99487  0.24046  0.42944  1.0000
  C   C2206     1.0  0.92213  0.46566  0.36962  1.0000
  H   H3903     1.0  0.96850  0.45607  0.39332  1.0000
  H   H3904     1.0  0.97361  0.21014  0.40651  1.0000
  H   H3905     1.0  0.86618  0.15757  0.54847  1.0000
  H   H3906     1.0  0.92449  0.43460  0.37089  1.0000
  H   H3907     1.0  0.80321  0.02093  0.40688  1.0000
  C   C2207     1.0  0.77334  0.04982  0.43805  1.0000
  C   C2208     1.0  0.87279  0.13146  0.50918  1.0000
  H   H3908     1.0  0.85580  0.02557  0.39411  1.0000
  C   C2209     1.0  0.99883  0.27593  0.63593  1.0000
  H   H3909     1.0  0.94279  0.27818  0.57412  1.0000
  H   H3910     1.0  0.86762  0.20528  0.49637  1.0000
  H   H3911     1.0  0.83710  0.15309  0.57188  1.0000
  H   H3912     1.0  0.83934  0.18701  0.50208  1.0000
  H   H3913     1.0  0.84274  0.12713  0.57268  1.0000
  C   C2210     1.0  0.99212  0.29580  0.41959  1.0000
  H   H3914     1.0  0.78930  0.01278  0.50529  1.0000
  H   H3915     1.0  0.87128  0.16906  0.49462  1.0000
  H   H3916     1.0  0.84806  0.21576  0.51226  1.0000
  H   H3917     1.0  0.75486  0.02359  0.62503  1.0000
  C   C2211     1.0  0.89691  0.42944  0.34592  1.0000
  C   C2212     1.0  0.84760  0.14341  0.53432  1.0000
  C   C2213     1.0  0.97118  0.37538  0.43385  1.0000
  H   H3918     1.0  0.76547  0.02604  0.55794  1.0000
  H   H3919     1.0  0.89394  0.13936  0.52567  1.0000
  C   C2214     1.0  0.93091  0.44661  0.37376  1.0000
  N   N121      1.0  0.89590  0.31433  0.34767  1.0000
  C   C2215     1.0  0.98628  0.30976  0.40223  1.0000
  C   C2216     1.0  0.98607  0.27467  0.62045  1.0000
  C   C2217     1.0  0.88939  0.29545  0.35726  1.0000
  H   H3920     1.0  0.82524  0.13583  0.47199  1.0000
  H   H3921     1.0  0.89750  0.03445  0.44090  1.0000
  H   H3922     1.0  0.90233  0.10447  0.52363  1.0000
  C   C2218     1.0  0.98920  0.32612  0.66401  1.0000
  H   H3923     1.0  0.83256  0.01627  0.42143  1.0000
  H   H3924     1.0  0.97435  0.50759  0.41857  1.0000
  H   H3925     1.0  0.99512  0.27045  0.40559  1.0000
  H   H3926     1.0  0.87504  0.29798  0.36572  1.0000
  H   H3927     1.0  0.99894  0.16756  0.42031  1.0000
  H   H3928     1.0  0.87085  0.26261  0.36568  1.0000
  H   H3929     1.0  0.76019  0.03598  0.58053  1.0000
  C   C2219     1.0  0.80837  0.01420  0.54753  1.0000
  H   H3930     1.0  0.99072  0.28487  0.64676  1.0000
  H   H3931     1.0  0.90934  0.41947  0.35063  1.0000
  N   N122      1.0  0.82723  0.01020  0.55547  1.0000
  H   H3932     1.0  0.88254  0.25083  0.34541  1.0000
  S   S483      1.0  0.95171  0.24520  0.66282  1.0000
  H   H3933     1.0  0.76914  0.08907  0.52227  1.0000
  C   C2220     1.0  0.99545  0.49009  0.65940  1.0000
  H   H3934     1.0  0.88802  0.32170  0.66810  1.0000
  H   H3935     1.0  0.86647  0.32333  0.34272  1.0000
  H   H3936     1.0  0.90454  0.02031  0.41037  1.0000
  H   H3937     1.0  0.99222  0.24885  0.65322  1.0000
  H   H3938     1.0  0.84296  0.01694  0.37778  1.0000
  H   H3939     1.0  0.81830  0.12498  0.66368  1.0000
  C   C2221     1.0  0.80607  0.01903  0.60813  1.0000
  H   H3940     1.0  0.98253  0.48445  0.65666  1.0000
  H   H3941     1.0  0.88500  0.11975  0.66380  1.0000
  H   H3942     1.0  0.88097  0.01289  0.46374  1.0000
  H   H3943     1.0  0.88664  0.50272  0.47579  1.0000
  H   H3944     1.0  0.87764  0.08654  0.66894  1.0000
  H   H3945     1.0  0.88304  0.01288  0.42421  1.0000
  N   N123      1.0  0.90671  0.00811  0.47724  1.0000
  H   H3946     1.0  0.88244  0.50666  0.39853  1.0000
  H   H3947     1.0  0.86071  0.36901  0.99118  1.0000
  S   S484      1.0  0.77051  0.37548  0.96873  1.0000
  C   C2222     1.0  0.88939  0.31409  0.70731  1.0000
  Fe  Fe240     1.0  0.94043  0.34994  0.69397  1.0000
  S   S485      1.0  0.76661  0.33190  0.96013  1.0000
  Fe  Fe241     1.0  0.76429  0.34735  0.98591  1.0000
  H   H3948     1.0  0.94430  0.34554  0.82484  1.0000
  Fe  Fe242     1.0  0.77005  0.36086  0.94295  1.0000
  S   S486      1.0  0.79180  0.36776  0.91693  1.0000
  H   H3949     1.0  0.97448  0.40174  0.80380  1.0000
  Fe  Fe243     1.0  0.93761  0.35203  0.73705  1.0000
  S   S487      1.0  0.91994  0.36718  0.71441  1.0000
  S   S488      1.0  0.92646  0.33724  0.76607  1.0000
  Fe  Fe244     1.0  0.97437  0.35756  0.71128  1.0000
  Fe  Fe245     1.0  0.94109  0.38891  0.70913  1.0000
  C   C2223     1.0  0.82394  0.32383  0.98018  1.0000
  H   H3950     1.0  0.90427  0.49732  0.72018  1.0000
  C   C2224     1.0  0.96013  0.48393  0.78019  1.0000
  S   S489      1.0  0.95713  0.37479  0.73350  1.0000
  S   S490      1.0  0.95642  0.33337  0.71712  1.0000
  Fe  Fe246     1.0  0.91854  0.40225  0.89056  1.0000
  S   S491      1.0  0.92734  0.37334  0.90686  1.0000
  S   S492      1.0  0.91679  0.43013  0.90290  1.0000
  Fe  Fe247     1.0  0.91025  0.38493  0.85659  1.0000
  S   S493      1.0  0.91823  0.35455  0.86992  1.0000
  S   S494      1.0  0.90084  0.39522  0.82754  1.0000
  Fe  Fe248     1.0  0.90160  0.36462  0.89710  1.0000
  S   S495      1.0  0.88112  0.34664  0.91729  1.0000
  Fe  Fe249     1.0  0.94322  0.36603  0.87841  1.0000
  S   S496      1.0  0.97381  0.35218  0.87149  1.0000
  S   S497      1.0  0.89183  0.39415  0.88289  1.0000
  S   S498      1.0  0.93628  0.39551  0.86301  1.0000
  C   C2225     1.0  0.88906  0.29955  0.69299  1.0000
  H   H3951     1.0  0.83960  0.12807  0.69030  1.0000
  C   C2226     1.0  0.94469  0.47599  0.86020  1.0000
  C   C2227     1.0  0.94153  0.45896  0.85412  1.0000
  C   C2228     1.0  0.93220  0.44531  0.86705  1.0000
  C   C2229     1.0  0.92713  0.44796  0.88635  1.0000
  C   C2230     1.0  0.93008  0.46514  0.89238  1.0000
  C   C2231     1.0  0.93856  0.47930  0.87923  1.0000
  H   H3952     1.0  0.94594  0.45645  0.83937  1.0000
  H   H3953     1.0  0.92860  0.43300  0.86190  1.0000
  H   H3954     1.0  0.92608  0.46740  0.90725  1.0000
  H   H3955     1.0  0.94069  0.49254  0.88400  1.0000
  C   C2232     1.0  0.88253  0.29149  0.73665  1.0000
  H   H3956     1.0  0.97339  0.32995  0.75440  1.0000
  H   H3957     1.0  0.90370  0.47241  0.75865  1.0000
  H   H3958     1.0  0.79879  0.41424  0.95666  1.0000
  C   C2233     1.0  0.91858  0.35344  0.78295  1.0000
  C   C2234     1.0  0.91419  0.34631  0.80236  1.0000
  C   C2235     1.0  0.90895  0.35908  0.81619  1.0000
  C   C2236     1.0  0.90749  0.37900  0.81054  1.0000
  C   C2237     1.0  0.91110  0.38613  0.79103  1.0000
  C   C2238     1.0  0.91694  0.37337  0.77726  1.0000
  H   H3959     1.0  0.91513  0.33090  0.80674  1.0000
  H   H3960     1.0  0.90607  0.35353  0.83121  1.0000
  H   H3961     1.0  0.90962  0.40155  0.78658  1.0000
  H   H3962     1.0  0.92000  0.37900  0.76225  1.0000
  S   S499      1.0  0.95581  0.49323  0.84377  1.0000
  H   H3963     1.0  0.87216  0.39919  0.95536  1.0000
  C   C2239     1.0  0.96073  0.43704  0.71265  1.0000
  H   H3964     1.0  0.91518  0.50201  0.78758  1.0000
  H   H3965     1.0  0.94905  0.40003  0.80928  1.0000
  C   C2240     1.0  0.82989  0.11494  0.72931  1.0000
  C   C2241     1.0  0.81627  0.36266  0.91941  1.0000
  C   C2242     1.0  0.82390  0.34463  0.92796  1.0000
  C   C2243     1.0  0.84379  0.34004  0.92763  1.0000
  C   C2244     1.0  0.85616  0.35346  0.91882  1.0000
  C   C2245     1.0  0.84844  0.37174  0.91093  1.0000
  C   C2246     1.0  0.82861  0.37619  0.91091  1.0000
  H   H3966     1.0  0.81451  0.33400  0.93426  1.0000
  H   H3967     1.0  0.84961  0.32589  0.93388  1.0000
  H   H3968     1.0  0.85773  0.38236  0.90457  1.0000
  H   H3969     1.0  0.82278  0.39007  0.90409  1.0000
  H   H3970     1.0  0.93479  0.44487  0.74966  1.0000
  H   H3971     1.0  0.86790  0.29591  0.73261  1.0000
  H   H3972     1.0  0.82751  0.35181  0.96470  1.0000
  H   H3973     1.0  0.79991  0.38256  0.99219  1.0000
  H   H3974     1.0  0.90282  0.49978  0.92166  1.0000
  H   H3975     1.0  0.88074  0.28763  0.69973  1.0000
  H   H3976     1.0  0.99002  0.31042  0.76414  1.0000
  N   N124      1.0  0.84610  0.35961  0.85139  1.0000
  C   C2247     1.0  0.86169  0.34281  0.85333  1.0000
  C   C2248     1.0  0.84246  0.36467  0.83064  1.0000
  C   C2249     1.0  0.85311  0.37683  0.85715  1.0000
  C   C2250     1.0  0.82797  0.35583  0.86451  1.0000
  C   C2251     1.0  0.81967  0.33713  0.86310  1.0000
  C   C2252     1.0  0.86762  0.33669  0.87369  1.0000
  C   C2253     1.0  0.83968  0.39619  0.85490  1.0000
  C   C2254     1.0  0.84515  0.34788  0.81822  1.0000
  C   C2255     1.0  0.83835  0.35477  0.79866  1.0000
  C   C2256     1.0  0.80291  0.33403  0.87890  1.0000
  C   C2257     1.0  0.88123  0.31787  0.87459  1.0000
  C   C2258     1.0  0.84872  0.41259  0.86031  1.0000
  H   H3977     1.0  0.87476  0.34627  0.84346  1.0000
  H   H3978     1.0  0.85777  0.32977  0.84869  1.0000
  H   H3979     1.0  0.82785  0.37253  0.82986  1.0000
  H   H3980     1.0  0.85237  0.37489  0.82269  1.0000
  H   H3981     1.0  0.86728  0.37919  0.84879  1.0000
  H   H3982     1.0  0.85548  0.37419  0.87242  1.0000
  H   H3983     1.0  0.82993  0.35581  0.87975  1.0000
  H   H3984     1.0  0.81635  0.36781  0.86185  1.0000
  H   H3985     1.0  0.83036  0.32416  0.86480  1.0000
  H   H3986     1.0  0.81419  0.33824  0.84914  1.0000
  H   H3987     1.0  0.87523  0.34786  0.87756  1.0000
  H   H3988     1.0  0.85512  0.33441  0.88468  1.0000
  H   H3989     1.0  0.82600  0.39524  0.86453  1.0000
  H   H3990     1.0  0.83657  0.40030  0.83989  1.0000
  H   H3991     1.0  0.86055  0.34225  0.81549  1.0000
  H   H3992     1.0  0.83731  0.33578  0.82528  1.0000
  H   H3993     1.0  0.84092  0.34263  0.78989  1.0000
  H   H3994     1.0  0.82283  0.35997  0.80043  1.0000
  H   H3995     1.0  0.84628  0.36662  0.79082  1.0000
  H   H3996     1.0  0.80774  0.33200  0.89332  1.0000
  H   H3997     1.0  0.79159  0.34660  0.87809  1.0000
  H   H3998     1.0  0.79668  0.32092  0.87730  1.0000
  H   H3999     1.0  0.89412  0.31936  0.86390  1.0000
  H   H4000     1.0  0.88578  0.31437  0.88914  1.0000
  H   H4001     1.0  0.87406  0.30578  0.87188  1.0000
  H   H4002     1.0  0.86263  0.41414  0.85119  1.0000
  H   H4003     1.0  0.83914  0.42637  0.85808  1.0000
  H   H4004     1.0  0.85094  0.40975  0.87567  1.0000
  N   N125      1.0  0.85927  0.47530  0.90328  1.0000
  H   H4005     1.0  0.81610  0.10923  0.72986  1.0000
  C   C2259     1.0  0.84255  0.49060  0.90707  1.0000
  C   C2260     1.0  0.87679  0.48246  0.90788  1.0000
  C   C2261     1.0  0.85635  0.45650  0.91604  1.0000
  C   C2262     1.0  0.84612  0.44190  0.90823  1.0000
  H   H4006     1.0  0.98906  0.48967  0.78086  1.0000
  C   C2263     1.0  0.87549  0.48823  0.92836  1.0000
  H   H4007     1.0  0.93387  0.29570  0.84576  1.0000
  H   H4008     1.0  0.95907  0.33652  0.78820  1.0000
  C   C2264     1.0  0.84051  0.42578  0.92407  1.0000
  H   H4009     1.0  0.86239  0.48777  0.87341  1.0000
  H   H4010     1.0  0.81728  0.31917  0.96876  1.0000
  H   H4011     1.0  0.86436  0.35953  0.75614  1.0000
  C   C2265     1.0  0.83874  0.11226  0.69365  1.0000
  C   C2266     1.0  0.84092  0.08395  0.67592  1.0000
  H   H4012     1.0  0.99794  0.47045  0.68517  1.0000
  H   H4013     1.0  0.90096  0.09903  0.70024  1.0000
  H   H4014     1.0  0.88936  0.47119  0.90628  1.0000
  H   H4015     1.0  0.87030  0.44838  0.91944  1.0000
  H   H4016     1.0  0.84832  0.45953  0.93022  1.0000
  H   H4017     1.0  0.85576  0.43506  0.89668  1.0000
  H   H4018     1.0  0.83304  0.44875  0.90219  1.0000
  H   H4019     1.0  0.99230  0.34375  0.83183  1.0000
  H   H4020     1.0  0.88390  0.44763  0.88511  1.0000
  H   H4021     1.0  0.86911  0.47740  0.93950  1.0000
  C   C2267     1.0  0.91599  0.48099  0.75546  1.0000
  H   H4022     1.0  0.99961  0.48421  0.85166  1.0000
  C   C2268     1.0  0.88115  0.46095  0.87500  1.0000
  C   C2269     1.0  0.99263  0.33696  0.81860  1.0000
  S   S500      1.0  0.97347  0.49136  0.71357  1.0000
  H   H4023     1.0  0.93621  0.48974  0.70214  1.0000
  H   H4024     1.0  0.83332  0.41554  0.91813  1.0000
  H   H4025     1.0  0.85337  0.41774  0.92989  1.0000
  H   H4026     1.0  0.83044  0.43181  0.93586  1.0000
  C   C2270     1.0  0.89594  0.50361  0.73278  1.0000
  H   H4027     1.0  0.91631  0.28360  0.71369  1.0000
  C   C2271     1.0  0.95118  0.42477  0.76826  1.0000
  H   H4028     1.0  0.90380  0.47585  0.93513  1.0000
  H   H4029     1.0  0.87674  0.34629  0.72583  1.0000
  H   H4030     1.0  0.83483  0.11098  0.74365  1.0000
  C   C2272     1.0  0.94239  0.44024  0.70723  1.0000
  H   H4031     1.0  0.78328  0.41521  0.97925  1.0000
  H   H4032     1.0  0.98199  0.36854  0.79536  1.0000
  H   H4033     1.0  0.86696  0.27015  0.78312  1.0000
  H   H4034     1.0  0.98285  0.49082  0.75694  1.0000
  H   H4035     1.0  0.88053  0.49525  0.89747  1.0000
  C   C2273     1.0  0.98756  0.32622  0.75954  1.0000
  H   H4036     1.0  0.98019  0.37385  0.82957  1.0000
  H   H4037     1.0  0.89845  0.32531  0.69992  1.0000
  H   H4038     1.0  0.84268  0.38406  0.95412  1.0000
  C   C2274     1.0  0.90825  0.50228  0.74886  1.0000
  C   C2275     1.0  0.94382  0.44554  0.76092  1.0000
  H   H4039     1.0  0.89462  0.44699  0.85027  1.0000
  H   H4040     1.0  0.87874  0.34049  0.76937  1.0000
  H   H4041     1.0  0.91181  0.46348  0.81347  1.0000
  C   C2276     1.0  0.93774  0.31045  0.84537  1.0000
  H   H4042     1.0  0.89361  0.28632  0.76491  1.0000
  H   H4043     1.0  0.95635  0.45286  0.75425  1.0000
  H   H4044     1.0  0.96107  0.33740  0.84103  1.0000
  C   C2277     1.0  0.94990  0.29800  0.67987  1.0000
  H   H4045     1.0  0.99894  0.46336  0.90778  1.0000
  C   C2278     1.0  0.90865  0.49091  0.82425  1.0000
  H   H4046     1.0  0.92492  0.47578  0.74258  1.0000
  H   H4047     1.0  0.84227  0.04423  0.67565  1.0000
  H   H4048     1.0  0.88324  0.49594  0.73787  1.0000
  H   H4049     1.0  0.91008  0.09464  0.67580  1.0000
  C   C2279     1.0  0.93209  0.45624  0.77732  1.0000
  H   H4050     1.0  0.88475  0.37525  0.96080  1.0000
  C   C2280     1.0  0.79727  0.41860  0.97128  1.0000
  C   C2281     1.0  0.81391  0.38609  0.98423  1.0000
  H   H4051     1.0  0.99440  0.38469  0.72527  1.0000
  H   H4052     1.0  0.93329  0.47417  0.81133  1.0000
  H   H4053     1.0  0.87151  0.30169  0.76454  1.0000
  H   H4054     1.0  0.88709  0.27705  0.73172  1.0000
  C   C2282     1.0  0.91802  0.47733  0.80965  1.0000
  H   H4055     1.0  0.87223  0.08657  0.69397  1.0000
  N   N126      1.0  0.82987  0.37425  0.99410  1.0000
  H   H4056     1.0  0.87552  0.38219  0.93823  1.0000
  H   H4057     1.0  0.84199  0.34416  0.99816  1.0000
  C   C2283     1.0  0.93362  0.45935  0.70357  1.0000
  H   H4058     1.0  0.94390  0.31106  0.85871  1.0000
  C   C2284     1.0  0.95426  0.27827  0.67771  1.0000
  N   N127      1.0  0.84984  0.10164  0.67766  1.0000
  H   H4059     1.0  0.77296  0.43827  0.92860  1.0000
  C   C2285     1.0  0.97006  0.45282  0.71451  1.0000
  H   H4060     1.0  0.94530  0.31399  0.81484  1.0000
  S   S501      1.0  0.78077  0.47235  0.94137  1.0000
  C   C2286     1.0  0.76414  0.43985  0.94221  1.0000
  H   H4061     1.0  0.95850  0.41726  0.75596  1.0000
  H   H4062     1.0  0.95506  0.29003  0.72587  1.0000
  H   H4063     1.0  0.85157  0.39346  0.98579  1.0000
  H   H4064     1.0  0.82706  0.41279  0.97389  1.0000
  H   H4065     1.0  0.99997  0.39637  0.83652  1.0000
  C   C2287     1.0  0.89642  0.32214  0.73755  1.0000
  H   H4066     1.0  0.91875  0.44938  0.78193  1.0000
  C   C2288     1.0  0.98862  0.33751  0.77602  1.0000
  H   H4067     1.0  0.88994  0.35798  0.75162  1.0000
  H   H4068     1.0  0.91947  0.46198  0.69928  1.0000
  C   C2289     1.0  0.82810  0.35293  0.99570  1.0000
  H   H4069     1.0  0.91898  0.27405  0.74753  1.0000
  H   H4070     1.0  0.92654  0.29700  0.74973  1.0000
  H   H4071     1.0  0.79744  0.43447  0.96980  1.0000
  H   H4072     1.0  0.92514  0.30599  0.71332  1.0000
  H   H4073     1.0  0.94734  0.26726  0.72361  1.0000
  C   C2290     1.0  0.96293  0.39713  0.81510  1.0000
  H   H4074     1.0  0.95369  0.27143  0.74614  1.0000
  S   S502      1.0  0.92971  0.42093  0.70524  1.0000
  C   C2291     1.0  0.95772  0.33570  0.82660  1.0000
  H   H4075     1.0  0.81730  0.31716  0.99432  1.0000
  H   H4076     1.0  0.95166  0.48505  0.75196  1.0000
  H   H4077     1.0  0.81134  0.41360  0.99630  1.0000
  H   H4078     1.0  0.95626  0.30387  0.69023  1.0000
  H   H4079     1.0  0.96525  0.46829  0.78278  1.0000
  H   H4080     1.0  0.80512  0.35041  0.97940  1.0000
  C   C2292     1.0  0.76500  0.45562  0.95177  1.0000
  H   H4081     1.0  0.97496  0.31650  0.79634  1.0000
  H   H4082     1.0  0.95699  0.36706  0.79817  1.0000
  H   H4083     1.0  0.89325  0.49492  0.82299  1.0000
  C   C2293     1.0  0.91599  0.29561  0.72226  1.0000
  H   H4084     1.0  0.85844  0.11172  0.71484  1.0000
  H   H4085     1.0  0.93921  0.41681  0.77547  1.0000
  C   C2294     1.0  0.87990  0.28870  0.75899  1.0000
  H   H4086     1.0  0.96764  0.42243  0.71553  1.0000
  C   C2295     1.0  0.92616  0.28640  0.73978  1.0000
  C   C2296     1.0  0.94681  0.27831  0.73338  1.0000
  C   C2297     1.0  0.86909  0.27150  0.76718  1.0000
  C   C2298     1.0  0.84108  0.06757  0.69304  1.0000
  H   H4087     1.0  0.83392  0.03828  0.70077  1.0000
  H   H4088     1.0  0.87539  0.12392  0.68771  1.0000
  H   H4089     1.0  0.91014  0.48372  0.83904  1.0000
  H   H4090     1.0  0.86494  0.31516  0.67929  1.0000
  H   H4091     1.0  0.81766  0.47488  0.91378  1.0000
  H   H4092     1.0  0.84569  0.50469  0.89870  1.0000
  H   H4093     1.0  0.96394  0.26907  0.68653  1.0000
  H   H4094     1.0  0.84018  0.49301  0.92243  1.0000
  C   C2299     1.0  0.87272  0.38369  0.95380  1.0000
  C   C2300     1.0  0.95211  0.31508  0.82764  1.0000
  C   C2301     1.0  0.82298  0.48653  0.90288  1.0000
  H   H4095     1.0  0.96156  0.42463  0.77842  1.0000
  C   C2302     1.0  0.81357  0.40833  0.98208  1.0000
  C   C2303     1.0  0.87786  0.33657  0.73956  1.0000
  H   H4096     1.0  0.99870  0.32995  0.74742  1.0000
  H   H4097     1.0  0.90812  0.33067  0.73064  1.0000
  Fe  Fe250     1.0  0.78111  0.49871  0.95563  1.0000
  H   H4098     1.0  0.95513  0.37177  0.83341  1.0000
  C   C2304     1.0  0.99189  0.36621  0.87346  1.0000
  H   H4099     1.0  0.81404  0.38235  0.96958  1.0000
  H   H4100     1.0  0.83150  0.07244  0.70567  1.0000
  H   H4101     1.0  0.86941  0.44572  0.85593  1.0000
  H   H4102     1.0  0.92460  0.32091  0.84488  1.0000
  H   H4103     1.0  0.98645  0.35306  0.77030  1.0000
  C   C2305     1.0  0.86236  0.47325  0.88212  1.0000
  H   H4104     1.0  0.94010  0.45279  0.78986  1.0000
  H   H4105     1.0  0.85044  0.46708  0.87795  1.0000
  H   H4106     1.0  0.90016  0.31683  0.75215  1.0000
  H   H4107     1.0  0.84696  0.09053  0.71813  1.0000
  H   H4108     1.0  0.85569  0.36060  0.96075  1.0000
  H   H4109     1.0  0.97192  0.44779  0.88570  1.0000
  C   C2306     1.0  0.91451  0.48624  0.78894  1.0000
  H   H4110     1.0  0.87788  0.46810  0.84463  1.0000
  C   C2307     1.0  0.82069  0.34584  0.97886  1.0000
  H   H4111     1.0  0.89924  0.48493  0.78837  1.0000
  C   C2308     1.0  0.94468  0.48807  0.76650  1.0000
  C   C2309     1.0  0.94303  0.47512  0.70525  1.0000
  S   S503      1.0  0.76603  0.50652  0.98393  1.0000
  N   N128      1.0  0.92718  0.47777  0.77236  1.0000
  H   H4112     1.0  0.94050  0.50396  0.76493  1.0000
  N   N129      1.0  0.89592  0.30561  0.72644  1.0000
  C   C2310     1.0  0.98726  0.38409  0.88033  1.0000
  C   C2311     1.0  0.96996  0.36328  0.80567  1.0000
  H   H4113     1.0  0.87733  0.25791  0.76277  1.0000
  C   C2312     1.0  0.85389  0.37613  0.96255  1.0000
  C   C2313     1.0  0.97331  0.33246  0.79329  1.0000
  H   H4114     1.0  0.98410  0.45010  0.71897  1.0000
  H   H4115     1.0  0.83944  0.31861  0.97818  1.0000
  C   C2314     1.0  0.97774  0.44955  0.89891  1.0000
  H   H4116     1.0  0.82326  0.11092  0.69467  1.0000
  C   C2315     1.0  0.84929  0.37856  0.98414  1.0000
  H   H4117     1.0  0.95459  0.48950  0.79400  1.0000
  H   H4118     1.0  0.86503  0.32892  0.74299  1.0000
  H   H4119     1.0  0.89359  0.49667  0.94682  1.0000
  H   H4120     1.0  0.97249  0.38951  0.88451  1.0000
  N   N130      1.0  0.97360  0.34165  0.81114  1.0000
  C   C2316     1.0  0.96718  0.37569  0.82244  1.0000
  H   H4121     1.0  0.98739  0.47699  0.88824  1.0000
  H   H4122     1.0  0.85487  0.27352  0.76212  1.0000
  H   H4123     1.0  0.96204  0.40583  0.82708  1.0000
  H   H4124     1.0  0.98303  0.43511  0.90607  1.0000
  C   C2317     1.0  0.80820  0.50436  0.90427  1.0000
  S   S504      1.0  0.80964  0.50437  0.96123  1.0000
  C   C2318     1.0  0.96125  0.47194  0.71086  1.0000
  H   H4125     1.0  0.96454  0.30379  0.82812  1.0000
  S   S505      1.0  0.95991  0.37313  0.68645  1.0000
  C   C2319     1.0  0.88068  0.45513  0.85522  1.0000
  H   H4126     1.0  0.86659  0.50240  0.92928  1.0000
  C   C2320     1.0  0.97748  0.49425  0.77172  1.0000
  H   H4127     1.0  0.87459  0.32163  0.70945  1.0000
  H   H4128     1.0  0.96599  0.45624  0.90888  1.0000
  C   C2321     1.0  0.89516  0.49023  0.93322  1.0000
  H   H4129     1.0  0.89329  0.46945  0.87376  1.0000
  C   C2322     1.0  0.88263  0.11268  0.67880  1.0000
  H   H4130     1.0  0.90368  0.29320  0.68781  1.0000
  C   C2323     1.0  0.87776  0.34936  0.75517  1.0000
  C   C2324     1.0  0.90228  0.10553  0.68494  1.0000
  H   H4131     1.0  0.91074  0.11784  0.68315  1.0000
  C   C2325     1.0  0.84480  0.10633  0.71406  1.0000
  H   H4132     1.0  0.99061  0.30990  0.83775  1.0000
  H   H4133     1.0  0.85564  0.06272  0.69683  1.0000
  C   C2326     1.0  0.99373  0.46238  0.89409  1.0000
  H   H4134     1.0  0.82766  0.13095  0.72616  1.0000
  C   C2327     1.0  0.83348  0.04988  0.68838  1.0000
  H   H4135     1.0  0.81845  0.05359  0.68544  1.0000
  H   H4136     1.0  0.97860  0.33317  0.67477  1.0000
  C   C2328     1.0  0.88014  0.30955  0.67526  1.0000
  C   C2329     1.0  0.87059  0.09578  0.68012  1.0000
  C   C2330     1.0  0.75373  0.45745  0.96949  1.0000
  H   H4137     1.0  0.82358  0.48246  0.88833  1.0000
  H   H4138     1.0  0.99798  0.40844  0.88804  1.0000
  H   H4139     1.0  0.91577  0.50422  0.82196  1.0000
  H   H4140     1.0  0.82562  0.08788  0.67398  1.0000
  H   H4141     1.0  0.79404  0.50087  0.90220  1.0000
  C   C2331     1.0  0.99936  0.31530  0.82427  1.0000
  H   H4142     1.0  0.99845  0.30649  0.81285  1.0000
  H   H4143     1.0  0.75463  0.46936  0.97711  1.0000
  C   C2332     1.0  0.75209  0.42593  0.95026  1.0000
  C   C2333     1.0  0.99081  0.58964  0.25145  1.0000
  Fe  Fe251     1.0  0.77926  0.55149  0.11041  1.0000
  S   S506      1.0  0.77283  0.57326  0.13130  1.0000
  S   S507      1.0  0.78362  0.56284  0.07894  1.0000
  Fe  Fe252     1.0  0.79431  0.55381  0.14777  1.0000
  S   S508      1.0  0.81647  0.56669  0.16005  1.0000
  S   S509      1.0  0.80213  0.53352  0.12576  1.0000
  Fe  Fe253     1.0  0.91942  0.54320  0.18140  1.0000
  S   S510      1.0  0.90549  0.53507  0.21141  1.0000
  S   S511      1.0  0.90493  0.53616  0.15724  1.0000
  Fe  Fe254     1.0  0.95349  0.55663  0.19552  1.0000
  S   S512      1.0  0.94183  0.54932  0.22647  1.0000
  S   S513      1.0  0.98015  0.57159  0.19208  1.0000
  H   H4144     1.0  0.96555  0.63414  0.29451  1.0000
  H   H4145     1.0  0.78587  0.54400  0.01526  1.0000
  Fe  Fe255     1.0  0.91372  0.56254  0.21775  1.0000
  S   S514      1.0  0.89357  0.58192  0.23598  1.0000
  S   S515      1.0  0.94871  0.52837  0.18706  1.0000
  S   S516      1.0  0.92538  0.57215  0.18719  1.0000
  H   H4146     1.0  0.97836  0.51950  0.27265  1.0000
  H   H4147     1.0  0.83506  0.60476  0.18861  1.0000
  H   H4148     1.0  0.95818  0.59174  0.30178  1.0000
  H   H4149     1.0  0.82593  0.56756  0.06710  1.0000
  H   H4150     1.0  0.96967  0.61017  0.22241  1.0000
  H   H4151     1.0  0.82583  0.52800  0.24032  1.0000
  H   H4152     1.0  0.99309  0.63910  0.31775  1.0000
  C   C2334     1.0  0.90061  0.58371  0.25828  1.0000
  C   C2335     1.0  0.91046  0.56801  0.26884  1.0000
  C   C2336     1.0  0.91554  0.57004  0.28681  1.0000
  C   C2337     1.0  0.91118  0.58790  0.29393  1.0000
  C   C2338     1.0  0.90139  0.60344  0.28329  1.0000
  C   C2339     1.0  0.89595  0.60131  0.26568  1.0000
  H   H4153     1.0  0.91383  0.55425  0.26335  1.0000
  H   H4154     1.0  0.92282  0.55788  0.29511  1.0000
  H   H4155     1.0  0.89788  0.61722  0.28875  1.0000
  H   H4156     1.0  0.88828  0.61343  0.25766  1.0000
  H   H4157     1.0  0.94023  0.62074  0.20789  1.0000
  H   H4158     1.0  0.77821  0.56663  0.03958  1.0000
  H   H4159     1.0  0.86107  0.52354  0.08087  1.0000
  C   C2340     1.0  0.84116  0.55829  0.15737  1.0000
  C   C2341     1.0  0.85366  0.56972  0.16236  1.0000
  C   C2342     1.0  0.87313  0.56298  0.16246  1.0000
  C   C2343     1.0  0.88047  0.54490  0.15696  1.0000
  C   C2344     1.0  0.86818  0.53375  0.15102  1.0000
  C   C2345     1.0  0.84850  0.54028  0.15152  1.0000
  H   H4160     1.0  0.84819  0.58382  0.16639  1.0000
  H   H4161     1.0  0.88253  0.57184  0.16668  1.0000
  H   H4162     1.0  0.87380  0.51976  0.14665  1.0000
  H   H4163     1.0  0.83898  0.53126  0.14782  1.0000
  H   H4164     1.0  0.99511  0.57884  0.24112  1.0000
  C   C2346     1.0  0.78477  0.55204  0.04350  1.0000
  C   C2347     1.0  0.78873  0.54606  0.06234  1.0000
  C   C2348     1.0  0.79722  0.52718  0.06734  1.0000
  H   H4165     1.0  0.99169  0.60390  0.24250  1.0000
  C   C2349     1.0  0.84178  0.56617  0.06537  1.0000
  H   H4166     1.0  0.96853  0.61852  0.26427  1.0000
  H   H4167     1.0  0.96903  0.54972  0.25271  1.0000
  C   C2350     1.0  0.87927  0.56344  0.10033  1.0000
  H   H4168     1.0  0.86768  0.55377  0.23327  1.0000
  H   H4169     1.0  0.87974  0.51478  0.18938  1.0000
  C   C2351     1.0  0.80198  0.51448  0.05335  1.0000
  H   H4170     1.0  0.84781  0.56789  0.02502  1.0000
  C   C2352     1.0  0.90051  0.55586  0.09816  1.0000
  N   N131      1.0  0.84885  0.56334  0.08473  1.0000
  H   H4171     1.0  0.84583  0.57993  0.05692  1.0000
  H   H4172     1.0  0.98026  0.53242  0.29219  1.0000
  H   H4173     1.0  0.87772  0.57858  0.10354  1.0000
  H   H4174     1.0  0.81547  0.59619  0.12498  1.0000
  H   H4175     1.0  0.82360  0.57922  0.22510  1.0000
  H   H4176     1.0  0.94382  0.58511  0.25175  1.0000
  H   H4177     1.0  0.96915  0.64900  0.32657  1.0000
  C   C2353     1.0  0.97641  0.55061  0.26506  1.0000
  H   H4178     1.0  0.84472  0.57904  0.10940  1.0000
  H   H4179     1.0  0.99596  0.57376  0.31151  1.0000
  H   H4180     1.0  0.86214  0.57900  0.19846  1.0000
  C   C2354     1.0  0.96903  0.56940  0.27416  1.0000
  C   C2355     1.0  0.84059  0.58084  0.09465  1.0000
  H   H4181     1.0  0.94564  0.59489  0.20954  1.0000
  H   H4182     1.0  0.75684  0.52268  0.08166  1.0000
  H   H4183     1.0  0.83953  0.54749  0.11237  1.0000
  C   C2356     1.0  0.85084  0.58497  0.20924  1.0000
  C   C2357     1.0  0.85218  0.54041  0.20848  1.0000
  C   C2358     1.0  0.85293  0.53568  0.25668  1.0000
  C   C2359     1.0  0.79158  0.53152  0.22782  1.0000
  S   S517      1.0  0.77211  0.53674  0.16541  1.0000
  H   H4184     1.0  0.83302  0.61246  0.21206  1.0000
  H   H4185     1.0  0.81649  0.53123  0.20694  1.0000
  C   C2360     1.0  0.84133  0.55517  0.03303  1.0000
  H   H4186     1.0  0.84547  0.54287  0.02451  1.0000
  H   H4187     1.0  0.94694  0.60810  0.27211  1.0000
  C   C2361     1.0  0.81855  0.58561  0.09717  1.0000
  H   H4188     1.0  0.97685  0.56856  0.28666  1.0000
  Fe  Fe256     1.0  0.77849  0.51775  0.14195  1.0000
  H   H4189     1.0  0.79620  0.60511  0.11108  1.0000
  C   C2362     1.0  0.83479  0.57171  0.21507  1.0000
  H   H4190     1.0  0.95091  0.62039  0.23930  1.0000
  H   H4191     1.0  0.84658  0.59398  0.08680  1.0000
  N   N132      1.0  0.97064  0.58814  0.26098  1.0000
  H   H4192     1.0  0.81342  0.59121  0.08316  1.0000
  C   C2363     1.0  0.84224  0.54547  0.09689  1.0000
  H   H4193     1.0  0.85479  0.61402  0.19572  1.0000
  H   H4194     1.0  0.83919  0.53718  0.26637  1.0000
  C   C2364     1.0  0.82269  0.54260  0.23241  1.0000
  N   N133      1.0  0.84072  0.55129  0.22404  1.0000
  H   H4195     1.0  0.81869  0.61458  0.10447  1.0000
  H   H4196     1.0  0.85761  0.58679  0.22176  1.0000
  H   H4197     1.0  0.78224  0.53026  0.21700  1.0000
  H   H4198     1.0  0.82822  0.54317  0.09317  1.0000
  C   C2365     1.0  0.80920  0.54061  0.21777  1.0000
  H   H4199     1.0  0.80409  0.55488  0.21015  1.0000
  C   C2366     1.0  0.85266  0.55230  0.23969  1.0000
  C   C2367     1.0  0.84287  0.60525  0.20086  1.0000
  H   H4200     1.0  0.86546  0.54694  0.20273  1.0000
  C   C2368     1.0  0.95773  0.62199  0.30174  1.0000
  C   C2369     1.0  0.86898  0.53646  0.26846  1.0000
  H   H4201     1.0  0.84429  0.54191  0.19589  1.0000
  C   C2370     1.0  0.79792  0.52050  0.03448  1.0000
  C   C2371     1.0  0.94131  0.60716  0.21803  1.0000
  H   H4202     1.0  0.87740  0.55002  0.07507  1.0000
  H   H4203     1.0  0.87455  0.57537  0.07134  1.0000
  H   H4204     1.0  0.81438  0.55137  0.24343  1.0000
  H   H4205     1.0  0.82825  0.57165  0.20181  1.0000
  H   H4206     1.0  0.81162  0.57265  0.10355  1.0000
  H   H4207     1.0  0.84174  0.53656  0.05954  1.0000
  C   C2372     1.0  0.81191  0.60134  0.11023  1.0000
  C   C2373     1.0  0.87027  0.56283  0.08182  1.0000
  C   C2374     1.0  0.95835  0.58854  0.24530  1.0000
  H   H4208     1.0  0.84637  0.51101  0.22177  1.0000
  H   H4209     1.0  0.96431  0.57735  0.23582  1.0000
  H   H4210     1.0  0.84758  0.56556  0.24675  1.0000
  H   H4211     1.0  0.86394  0.54631  0.05033  1.0000
  H   H4212     1.0  0.87207  0.55485  0.11298  1.0000
  H   H4213     1.0  0.86971  0.51694  0.22376  1.0000
  S   S518      1.0  0.91778  0.59186  0.31579  1.0000
  H   H4214     1.0  0.78330  0.54066  0.23845  1.0000
  C   C2375     1.0  0.84821  0.54971  0.05273  1.0000
  C   C2376     1.0  0.85842  0.51866  0.21433  1.0000
  H   H4215     1.0  0.99198  0.54980  0.26024  1.0000
  H   H4216     1.0  0.90275  0.54042  0.09587  1.0000
  H   H4217     1.0  0.85485  0.52120  0.25202  1.0000
  H   H4218     1.0  0.95920  0.61982  0.31729  1.0000
  C   C2377     1.0  0.96277  0.60517  0.27180  1.0000
  C   C2378     1.0  0.78914  0.53925  0.02968  1.0000
  H   H4219     1.0  0.86848  0.52641  0.10309  1.0000
  C   C2379     1.0  0.95594  0.60775  0.23147  1.0000
  C   C2380     1.0  0.96579  0.60342  0.29318  1.0000
  H   H4220     1.0  0.90638  0.55701  0.11152  1.0000
  H   H4221     1.0  0.82554  0.55851  0.03461  1.0000
  H   H4222     1.0  0.88311  0.53426  0.25953  1.0000
  H   H4223     1.0  0.92702  0.60566  0.22636  1.0000
  Fe  Fe257     1.0  0.93480  0.52263  0.21749  1.0000
  C   C2381     1.0  0.97285  0.53273  0.27948  1.0000
  H   H4224     1.0  0.94231  0.62570  0.30033  1.0000
  H   H4225     1.0  0.99678  0.53762  0.17389  1.0000
  Fe  Fe258     1.0  0.97153  0.54387  0.33870  1.0000
  H   H4226     1.0  0.99309  0.53410  0.23002  1.0000
  H   H4227     1.0  0.79575  0.51684  0.23522  1.0000
  H   H4228     1.0  0.90837  0.56445  0.08592  1.0000
  H   H4229     1.0  0.80035  0.52251  0.08187  1.0000
  H   H4230     1.0  0.95391  0.56871  0.28048  1.0000
  H   H4231     1.0  0.98100  0.60032  0.29503  1.0000
  H   H4232     1.0  0.86744  0.55065  0.27393  1.0000
  C   C2382     1.0  0.85583  0.52620  0.09583  1.0000
  H   H4233     1.0  0.95732  0.53261  0.28424  1.0000
  S   S519      1.0  0.00057  0.53335  0.32473  1.0000
  H   H4234     1.0  0.85621  0.50949  0.18683  1.0000
  S   S520      1.0  0.94481  0.53859  0.32860  1.0000
  S   S521      1.0  0.75603  0.53389  0.12451  1.0000
  H   H4235     1.0  0.84153  0.51023  0.12132  1.0000
  H   H4236     1.0  0.86854  0.52491  0.28092  1.0000
  H   H4237     1.0  0.98903  0.66066  0.32961  1.0000
  C   C2383     1.0  0.86688  0.50844  0.19691  1.0000
  Fe  Fe259     1.0  0.93430  0.56889  0.33448  1.0000
  H   H4238     1.0  0.98768  0.51633  0.20576  1.0000
  C   C2384     1.0  0.98421  0.64642  0.32947  1.0000
  C   C2385     1.0  0.84601  0.50888  0.10586  1.0000
  Fe  Fe260     1.0  0.92266  0.73920  0.61308  1.0000
  S   S522      1.0  0.92717  0.71094  0.60098  1.0000
  S   S523      1.0  0.89651  0.76015  0.60560  1.0000
  Fe  Fe261     1.0  0.95933  0.72856  0.63186  1.0000
  S   S524      1.0  0.96708  0.69982  0.62084  1.0000
  S   S525      1.0  0.97439  0.74050  0.65227  1.0000
  Fe  Fe262     1.0  0.95769  0.71622  0.59335  1.0000
  S   S526      1.0  0.97380  0.71607  0.56343  1.0000
  Fe  Fe263     1.0  0.93590  0.69669  0.62937  1.0000
  S   S527      1.0  0.92230  0.67142  0.64715  1.0000
  S   S528      1.0  0.95274  0.74533  0.60374  1.0000
  S   S529      1.0  0.92868  0.72459  0.64221  1.0000
  Fe  Fe264     1.0  0.96446  0.70626  0.43666  1.0000
  S   S530      1.0  0.96022  0.67555  0.44825  1.0000
  H   H4239     1.0  0.99757  0.65909  0.37760  1.0000
  Fe  Fe265     1.0  0.92280  0.72188  0.44798  1.0000
  S   S531      1.0  0.91545  0.69209  0.45974  1.0000
  S   S532      1.0  0.89867  0.74579  0.45460  1.0000
  Fe  Fe266     1.0  0.94241  0.68854  0.47318  1.0000
  S   S533      1.0  0.94184  0.67456  0.50409  1.0000
  Fe  Fe267     1.0  0.93381  0.68173  0.43371  1.0000
  S   S534      1.0  0.92404  0.66303  0.41434  1.0000
  S   S535      1.0  0.94893  0.71878  0.46283  1.0000
  S   S536      1.0  0.93891  0.71199  0.42068  1.0000
  C   C2386     1.0  0.86340  0.96513  0.43151  1.0000
  H   H4240     1.0  0.84337  0.83342  0.37344  1.0000
  H   H4241     1.0  0.81468  0.99576  0.52394  1.0000
  C   C2387     1.0  0.87128  0.79085  0.65963  1.0000
  S   S537      1.0  0.96294  0.53323  0.36963  1.0000
  H   H4242     1.0  0.95349  0.96551  0.47949  1.0000
  Fe  Fe268     1.0  0.93522  0.53032  0.35999  1.0000
  H   H4243     1.0  0.77274  0.97617  0.59965  1.0000
  Fe  Fe269     1.0  0.95098  0.56427  0.37231  1.0000
  S   S538      1.0  0.95725  0.57735  0.39782  1.0000
  Fe  Fe270     1.0  0.83582  0.91050  0.61755  1.0000
  S   S539      1.0  0.80832  0.90185  0.61180  1.0000
  S   S540      1.0  0.83108  0.94110  0.62560  1.0000
  Fe  Fe271     1.0  0.85741  0.87008  0.61187  1.0000
  S   S541      1.0  0.83161  0.85901  0.60544  1.0000
  S   S542      1.0  0.88530  0.85004  0.61428  1.0000
  Fe  Fe272     1.0  0.82624  0.88786  0.58792  1.0000
  S   S543      1.0  0.81387  0.89057  0.56038  1.0000
  Fe  Fe273     1.0  0.81595  0.87401  0.62985  1.0000
  S   S544      1.0  0.79506  0.85834  0.65113  1.0000
  S   S545      1.0  0.85344  0.89828  0.59203  1.0000
  S   S546      1.0  0.84202  0.88336  0.63789  1.0000
  Fe  Fe274     1.0  0.86581  0.86716  0.46924  1.0000
  S   S547      1.0  0.88508  0.87395  0.44191  1.0000
  S   S548      1.0  0.87707  0.85832  0.49743  1.0000
  Fe  Fe275     1.0  0.83047  0.87186  0.44934  1.0000
  S   S549      1.0  0.84679  0.87897  0.42009  1.0000
  S   S550      1.0  0.79924  0.86980  0.45891  1.0000
  Fe  Fe276     1.0  0.86872  0.85456  0.43007  1.0000
  S   S551      1.0  0.88476  0.83159  0.41237  1.0000
  Fe  Fe277     1.0  0.86168  0.89765  0.43474  1.0000
  S   S552      1.0  0.86700  0.92821  0.42230  1.0000
  S   S553      1.0  0.85113  0.84621  0.45809  1.0000
  S   S554      1.0  0.84361  0.89228  0.46307  1.0000
  C   C2388     1.0  0.84704  0.95873  0.62073  1.0000
  C   C2389     1.0  0.86596  0.95469  0.61244  1.0000
  H   H4244     1.0  0.79795  0.00502  0.55614  1.0000
  H   H4245     1.0  0.84225  0.78785  0.43347  1.0000
  C   C2390     1.0  0.85227  0.99216  0.62108  1.0000
  C   C2391     1.0  0.84033  0.97747  0.62522  1.0000
  H   H4246     1.0  0.87135  0.94026  0.60910  1.0000
  C   C2392     1.0  0.85963  0.94003  0.45839  1.0000
  C   C2393     1.0  0.78947  0.95294  0.58619  1.0000
  H   H4247     1.0  0.82581  0.98065  0.63193  1.0000
  C   C2394     1.0  0.83108  0.88004  0.54352  1.0000
  C   C2395     1.0  0.82657  0.87899  0.52528  1.0000
  C   C2396     1.0  0.84045  0.87113  0.51150  1.0000
  C   C2397     1.0  0.85908  0.86517  0.51563  1.0000
  C   C2398     1.0  0.86344  0.86556  0.53410  1.0000
  C   C2399     1.0  0.84937  0.87285  0.54812  1.0000
  H   H4248     1.0  0.81246  0.88448  0.52172  1.0000
  H   H4249     1.0  0.83674  0.86987  0.49764  1.0000
  H   H4250     1.0  0.87778  0.86074  0.53744  1.0000
  H   H4251     1.0  0.85286  0.87334  0.56230  1.0000
  H   H4252     1.0  0.75719  0.98878  0.37855  1.0000
  C   C2400     1.0  0.86326  0.94548  0.43857  1.0000
  C   C2401     1.0  0.84147  0.76243  0.42098  1.0000
  C   C2402     1.0  0.93186  0.53937  0.42266  1.0000
  H   H4253     1.0  0.86032  0.92497  0.46412  1.0000
  H   H4254     1.0  0.78567  0.96869  0.65257  1.0000
  C   C2403     1.0  0.79056  0.87161  0.42213  1.0000
  C   C2404     1.0  0.78433  0.86845  0.44184  1.0000
  C   C2405     1.0  0.75892  0.86816  0.41535  1.0000
  H   H4255     1.0  0.86789  0.97646  0.51487  1.0000
  H   H4256     1.0  0.80502  0.87457  0.41709  1.0000
  H   H4257     1.0  0.89411  0.60342  0.40033  1.0000
  C   C2406     1.0  0.88268  0.96896  0.51463  1.0000
  C   C2407     1.0  0.98553  0.63387  0.34883  1.0000
  H   H4258     1.0  0.81182  0.78753  0.40709  1.0000
  C   C2408     1.0  0.77444  0.85509  0.64177  1.0000
  C   C2409     1.0  0.76876  0.83664  0.64434  1.0000
  H   H4259     1.0  0.83197  0.81330  0.61644  1.0000
  H   H4260     1.0  0.79008  0.98210  0.38762  1.0000
  H   H4261     1.0  0.81270  0.00414  0.39053  1.0000
  H   H4262     1.0  0.80271  0.85444  0.50185  1.0000
  S   S555      1.0  0.92227  0.56046  0.36516  1.0000
  C   C2410     1.0  0.81552  0.82504  0.40508  1.0000
  H   H4263     1.0  0.96575  0.61237  0.63323  1.0000
  H   H4264     1.0  0.87840  0.82831  0.65216  1.0000
  H   H4265     1.0  0.00004  0.77993  0.54741  1.0000
  C   C2411     1.0  0.81539  0.79103  0.42078  1.0000
  C   C2412     1.0  0.77443  0.96016  0.60212  1.0000
  H   H4266     1.0  0.75366  0.92791  0.61816  1.0000
  S   S556      1.0  0.96207  0.57502  0.34202  1.0000
  C   C2413     1.0  0.90083  0.76614  0.66203  1.0000
  C   C2414     1.0  0.85891  0.97926  0.44411  1.0000
  H   H4267     1.0  0.83367  0.84304  0.41492  1.0000
  C   C2415     1.0  0.79382  0.98788  0.47547  1.0000
  C   C2416     1.0  0.89492  0.76909  0.44173  1.0000
  C   C2417     1.0  0.87925  0.78178  0.44857  1.0000
  C   C2418     1.0  0.87616  0.80092  0.43974  1.0000
  C   C2419     1.0  0.88842  0.80747  0.42361  1.0000
  C   C2420     1.0  0.90378  0.79460  0.41632  1.0000
  C   C2421     1.0  0.90718  0.77550  0.42549  1.0000
  H   H4268     1.0  0.86956  0.77682  0.46096  1.0000
  H   H4269     1.0  0.86414  0.81047  0.44527  1.0000
  H   H4270     1.0  0.91328  0.79949  0.40375  1.0000
  H   H4271     1.0  0.91924  0.76578  0.42002  1.0000
  C   C2422     1.0  0.93407  0.63939  0.40971  1.0000
  C   C2423     1.0  0.94642  0.62764  0.42139  1.0000
  C   C2424     1.0  0.95351  0.60870  0.41751  1.0000
  C   C2425     1.0  0.94844  0.60139  0.40187  1.0000
  C   C2426     1.0  0.93632  0.61320  0.39004  1.0000
  C   C2427     1.0  0.92908  0.63204  0.39404  1.0000
  H   H4272     1.0  0.95025  0.63307  0.43357  1.0000
  H   H4273     1.0  0.96287  0.59966  0.42675  1.0000
  H   H4274     1.0  0.93230  0.60777  0.37795  1.0000
  H   H4275     1.0  0.91950  0.64101  0.38496  1.0000
  C   C2428     1.0  0.89428  0.78534  0.60688  1.0000
  C   C2429     1.0  0.87780  0.79716  0.60163  1.0000
  C   C2430     1.0  0.87508  0.81706  0.60332  1.0000
  C   C2431     1.0  0.88871  0.82534  0.61053  1.0000
  C   C2432     1.0  0.90535  0.81358  0.61545  1.0000
  C   C2433     1.0  0.90817  0.79370  0.61359  1.0000
  H   H4276     1.0  0.86700  0.79087  0.59635  1.0000
  H   H4277     1.0  0.86238  0.82597  0.59916  1.0000
  H   H4278     1.0  0.91604  0.81983  0.62094  1.0000
  H   H4279     1.0  0.92095  0.78481  0.61767  1.0000
  C   C2434     1.0  0.93157  0.64661  0.65092  1.0000
  H   H4280     1.0  0.81259  0.82274  0.63337  1.0000
  H   H4281     1.0  0.89249  0.96624  0.60170  1.0000
  H   H4282     1.0  0.78042  0.82472  0.39615  1.0000
  H   H4283     1.0  0.79312  0.83849  0.60366  1.0000
  C   C2435     1.0  0.94760  0.63860  0.63946  1.0000
  C   C2436     1.0  0.77786  0.87136  0.40889  1.0000
  H   H4284     1.0  0.83452  0.82793  0.65605  1.0000
  H   H4285     1.0  0.85864  0.99438  0.43861  1.0000
  H   H4286     1.0  0.95502  0.64775  0.62805  1.0000
  C   C2437     1.0  0.96471  0.70443  0.54722  1.0000
  C   C2438     1.0  0.96606  0.71226  0.52782  1.0000
  C   C2439     1.0  0.95912  0.70320  0.51448  1.0000
  C   C2440     1.0  0.95066  0.68629  0.52048  1.0000
  C   C2441     1.0  0.94935  0.67842  0.53991  1.0000
  C   C2442     1.0  0.95640  0.68744  0.55326  1.0000
  H   H4287     1.0  0.97226  0.72553  0.52317  1.0000
  H   H4288     1.0  0.96051  0.70916  0.49954  1.0000
  H   H4289     1.0  0.94298  0.66523  0.54461  1.0000
  H   H4290     1.0  0.95551  0.68121  0.56820  1.0000
  C   C2443     1.0  0.78710  0.81472  0.42568  1.0000
  C   C2444     1.0  0.75598  0.90574  0.57629  1.0000
  H   H4291     1.0  0.93148  0.98697  0.44700  1.0000
  H   H4292     1.0  0.80989  0.83341  0.44135  1.0000
  H   H4293     1.0  0.81597  0.81789  0.39201  1.0000
  N   N134      1.0  0.88597  0.71360  0.55985  1.0000
  C   C2445     1.0  0.89188  0.70547  0.54105  1.0000
  C   C2446     1.0  0.88845  0.69768  0.57651  1.0000
  C   C2447     1.0  0.86493  0.72098  0.56114  1.0000
  C   C2448     1.0  0.89649  0.73038  0.56126  1.0000
  C   C2449     1.0  0.91780  0.72919  0.55269  1.0000
  C   C2450     1.0  0.88761  0.71949  0.52276  1.0000
  C   C2451     1.0  0.85586  0.72851  0.58039  1.0000
  C   C2452     1.0  0.90604  0.68209  0.57434  1.0000
  C   C2453     1.0  0.90698  0.66767  0.59264  1.0000
  C   C2454     1.0  0.92628  0.74713  0.55538  1.0000
  C   C2455     1.0  0.89860  0.71188  0.50468  1.0000
  C   C2456     1.0  0.83487  0.73650  0.57984  1.0000
  H   H4294     1.0  0.88459  0.69253  0.54107  1.0000
  H   H4295     1.0  0.90738  0.70006  0.53925  1.0000
  H   H4296     1.0  0.88867  0.70389  0.59000  1.0000
  H   H4297     1.0  0.87596  0.68937  0.57944  1.0000
  H   H4298     1.0  0.85672  0.70946  0.55875  1.0000
  H   H4299     1.0  0.86218  0.73315  0.54961  1.0000
  H   H4300     1.0  0.88946  0.74410  0.55403  1.0000
  H   H4301     1.0  0.89562  0.73287  0.57651  1.0000
  H   H4302     1.0  0.91986  0.72815  0.53708  1.0000
  H   H4303     1.0  0.92614  0.71660  0.55983  1.0000
  H   H4304     1.0  0.87218  0.72093  0.52139  1.0000
  H   H4305     1.0  0.89145  0.73408  0.52318  1.0000
  H   H4306     1.0  0.86331  0.74028  0.58336  1.0000
  H   H4307     1.0  0.85653  0.71675  0.59263  1.0000
  H   H4308     1.0  0.90542  0.67366  0.56247  1.0000
  H   H4309     1.0  0.91938  0.68863  0.57144  1.0000
  H   H4310     1.0  0.91997  0.65701  0.59084  1.0000
  H   H4311     1.0  0.90769  0.67510  0.60520  1.0000
  H   H4312     1.0  0.89431  0.65973  0.59565  1.0000
  H   H4313     1.0  0.91864  0.76039  0.54812  1.0000
  H   H4314     1.0  0.92544  0.74846  0.57088  1.0000
  H   H4315     1.0  0.94151  0.74589  0.54909  1.0000
  H   H4316     1.0  0.89451  0.72157  0.49177  1.0000
  H   H4317     1.0  0.91420  0.71136  0.50466  1.0000
  H   H4318     1.0  0.89535  0.69716  0.50372  1.0000
  H   H4319     1.0  0.83340  0.74887  0.56827  1.0000
  H   H4320     1.0  0.82663  0.72510  0.57740  1.0000
  H   H4321     1.0  0.82875  0.74166  0.59379  1.0000
  N   N135      1.0  0.90918  0.80154  0.48734  1.0000
  C   C2457     1.0  0.91334  0.77991  0.49220  1.0000
  C   C2458     1.0  0.88783  0.80701  0.48912  1.0000
  C   C2459     1.0  0.91718  0.80660  0.46651  1.0000
  C   C2460     1.0  0.91806  0.81266  0.49960  1.0000
  C   C2461     1.0  0.92025  0.80318  0.52052  1.0000
  C   C2462     1.0  0.93456  0.77144  0.48756  1.0000
  C   C2463     1.0  0.91253  0.82792  0.45762  1.0000
  C   C2464     1.0  0.87675  0.80435  0.50962  1.0000
  C   C2465     1.0  0.85523  0.80862  0.50914  1.0000
  C   C2466     1.0  0.92537  0.81758  0.53241  1.0000
  C   C2467     1.0  0.93889  0.75146  0.49867  1.0000
  C   C2468     1.0  0.92581  0.83262  0.43901  1.0000
  H   H4322     1.0  0.90502  0.77247  0.48407  1.0000
  H   H4323     1.0  0.90837  0.77516  0.50750  1.0000
  H   H4324     1.0  0.88417  0.82245  0.48369  1.0000
  H   H4325     1.0  0.88157  0.79887  0.47991  1.0000
  H   H4326     1.0  0.91219  0.79740  0.45730  1.0000
  H   H4327     1.0  0.93300  0.80335  0.46460  1.0000
  H   H4328     1.0  0.93265  0.81554  0.49283  1.0000
  H   H4329     1.0  0.90983  0.82728  0.50029  1.0000
  H   H4330     1.0  0.93181  0.79085  0.52048  1.0000
  H   H4331     1.0  0.90710  0.79761  0.52814  1.0000
  H   H4332     1.0  0.93782  0.76997  0.47198  1.0000
  H   H4333     1.0  0.94436  0.78093  0.49091  1.0000
  H   H4334     1.0  0.91389  0.83816  0.46763  1.0000
  H   H4335     1.0  0.89771  0.83048  0.45400  1.0000
  H   H4336     1.0  0.87972  0.78941  0.51683  1.0000
  H   H4337     1.0  0.88054  0.81469  0.51835  1.0000
  H   H4338     1.0  0.85142  0.82351  0.50199  1.0000
  H   H4339     1.0  0.85037  0.79807  0.50140  1.0000
  H   H4340     1.0  0.84767  0.80750  0.52405  1.0000
  H   H4341     1.0  0.91376  0.82985  0.53360  1.0000
  H   H4342     1.0  0.97547  0.64126  0.35972  1.0000
  C   C2469     1.0  0.75948  0.98764  0.39382  1.0000
  H   H4343     1.0  0.98067  0.61989  0.34775  1.0000
  H   H4344     1.0  0.92914  0.74158  0.49591  1.0000
  H   H4345     1.0  0.95380  0.74541  0.49398  1.0000
  H   H4346     1.0  0.94077  0.83156  0.44194  1.0000
  H   H4347     1.0  0.92148  0.84755  0.43234  1.0000
  H   H4348     1.0  0.98228  0.64850  0.42006  1.0000
  C   C2470     1.0  0.83349  0.80093  0.64620  1.0000
  H   H4349     1.0  0.84806  0.84947  0.66530  1.0000
  H   H4350     1.0  0.93772  0.54779  0.43205  1.0000
  H   H4351     1.0  0.76903  0.83249  0.54117  1.0000
  H   H4352     1.0  0.76078  0.86194  0.46351  1.0000
  H   H4353     1.0  0.77873  0.87299  0.52287  1.0000
  H   H4354     1.0  0.76157  0.91931  0.48900  1.0000
  H   H4355     1.0  0.81615  0.99288  0.59545  1.0000
  H   H4356     1.0  0.99900  0.61977  0.40343  1.0000
  H   H4357     1.0  0.96265  0.76307  0.56331  1.0000
  H   H4358     1.0  0.92216  0.97100  0.46685  1.0000
  H   H4359     1.0  0.82311  0.79632  0.65872  1.0000
  H   H4360     1.0  0.94249  0.51320  0.40910  1.0000
  C   C2471     1.0  0.75293  0.86443  0.43507  1.0000
  H   H4361     1.0  0.87874  0.53117  0.38669  1.0000
  H   H4362     1.0  0.79025  0.93703  0.58675  1.0000
  H   H4363     1.0  0.92026  0.52783  0.45656  1.0000
  C   C2472     1.0  0.92197  0.63446  0.66555  1.0000
  C   C2473     1.0  0.81214  0.00681  0.40567  1.0000
  H   H4364     1.0  0.90844  0.56594  0.44031  1.0000
  H   H4365     1.0  0.76947  0.89948  0.47556  1.0000
  H   H4366     1.0  0.81346  0.95246  0.66698  1.0000
  H   H4367     1.0  0.88848  0.97118  0.52769  1.0000
  C   C2474     1.0  0.79529  0.98059  0.45606  1.0000
  H   H4368     1.0  0.76502  0.87716  0.58919  1.0000
  H   H4369     1.0  0.77970  0.00358  0.52930  1.0000
  H   H4370     1.0  0.76072  0.95557  0.60039  1.0000
  C   C2475     1.0  0.92819  0.61453  0.66870  1.0000
  C   C2476     1.0  0.99639  0.62834  0.38939  1.0000
  H   H4371     1.0  0.94078  0.50892  0.43479  1.0000
  H   H4372     1.0  0.96548  0.78403  0.54580  1.0000
  H   H4373     1.0  0.81346  0.92020  0.48230  1.0000
  C   C2477     1.0  0.76049  0.92199  0.40475  1.0000
  C   C2478     1.0  0.94440  0.51947  0.42204  1.0000
  C   C2479     1.0  0.76115  0.87570  0.55943  1.0000
  H   H4374     1.0  0.89058  0.54615  0.46753  1.0000
  H   H4375     1.0  0.98642  0.78229  0.57068  1.0000
  N   N136      1.0  0.80324  0.99104  0.41936  1.0000
  C   C2480     1.0  0.76318  0.87068  0.63260  1.0000
  C   C2481     1.0  0.90829  0.52686  0.44844  1.0000
  H   H4376     1.0  0.81166  0.79070  0.45993  1.0000
  C   C2482     1.0  0.98251  0.65771  0.40594  1.0000
  H   H4377     1.0  0.82142  0.97206  0.40064  1.0000
  H   H4378     1.0  0.77620  0.87839  0.55503  1.0000
  C   C2483     1.0  0.80355  0.95387  0.41999  1.0000
  H   H4379     1.0  0.85482  0.84903  0.38467  1.0000
  H   H4380     1.0  0.90241  0.99987  0.50810  1.0000
  C   C2484     1.0  0.83700  0.78430  0.42071  1.0000
  C   C2485     1.0  0.78266  0.99251  0.41607  1.0000
  C   C2486     1.0  0.84114  0.84335  0.38455  1.0000
  N   N137      1.0  0.75886  0.85471  0.55965  1.0000
  H   H4381     1.0  0.87387  0.79216  0.64364  1.0000
  H   H4382     1.0  0.96995  0.53274  0.40905  1.0000
  H   H4383     1.0  0.90117  0.76433  0.64671  1.0000
  H   H4384     1.0  0.76747  0.88499  0.63066  1.0000
  C   C2487     1.0  0.79936  0.91476  0.48579  1.0000
  H   H4385     1.0  0.98963  0.59952  0.37170  1.0000
  H   H4386     1.0  0.83283  0.80833  0.47365  1.0000
  H   H4387     1.0  0.80481  0.96665  0.45675  1.0000
  C   C2488     1.0  0.78066  0.95270  0.62225  1.0000
  H   H4388     1.0  0.79516  0.91696  0.45631  1.0000
  H   H4389     1.0  0.92720  0.81034  0.54714  1.0000
  H   H4390     1.0  0.76635  0.82662  0.57557  1.0000
  C   C2489     1.0  0.76261  0.92159  0.44027  1.0000
  C   C2490     1.0  0.87305  0.85848  0.67254  1.0000
  H   H4391     1.0  0.85261  0.94968  0.48630  1.0000
  H   H4392     1.0  0.99325  0.67549  0.50957  1.0000
  H   H4393     1.0  0.76373  0.93706  0.40054  1.0000
  H   H4394     1.0  0.98199  0.61380  0.66969  1.0000
  H   H4395     1.0  0.76424  0.92506  0.64880  1.0000
  H   H4396     1.0  0.96844  0.65878  0.40076  1.0000
  C   C2491     1.0  0.78733  0.92239  0.46955  1.0000
  H   H4397     1.0  0.79561  0.83200  0.51440  1.0000
  H   H4398     1.0  0.79502  0.85672  0.53631  1.0000
  C   C2492     1.0  0.92733  0.99928  0.47431  1.0000
  H   H4399     1.0  0.77072  0.90899  0.57073  1.0000
  H   H4400     1.0  0.78817  0.97700  0.48708  1.0000
  H   H4401     1.0  0.88101  0.00553  0.49736  1.0000
  H   H4402     1.0  0.83500  0.98355  0.54298  1.0000
  C   C2493     1.0  0.83325  0.98870  0.55725  1.0000
  H   H4403     1.0  0.80755  0.78145  0.43220  1.0000
  H   H4404     1.0  0.99331  0.64049  0.65577  1.0000
  C   C2494     1.0  0.87106  0.98826  0.61241  1.0000
  C   C2495     1.0  0.94400  0.60642  0.65710  1.0000
  N   N138      1.0  0.76599  0.95560  0.63965  1.0000
  C   C2496     1.0  0.87791  0.96942  0.60827  1.0000
  H   H4405     1.0  0.84648  0.82102  0.40779  1.0000
  H   H4406     1.0  0.98904  0.73213  0.45384  1.0000
  H   H4407     1.0  0.96843  0.52575  0.43464  1.0000
  H   H4408     1.0  0.85560  0.95387  0.55347  1.0000
  C   C2497     1.0  0.87521  0.52147  0.40021  1.0000
  C   C2498     1.0  0.79071  0.84151  0.57311  1.0000
  C   C2499     1.0  0.85477  0.97373  0.46386  1.0000
  C   C2500     1.0  0.97268  0.76982  0.55163  1.0000
  H   H4409     1.0  0.85329  0.82224  0.63767  1.0000
  H   H4410     1.0  0.78627  0.93715  0.62250  1.0000
  H   H4411     1.0  0.93888  0.82322  0.52575  1.0000
  H   H4412     1.0  0.82517  0.93282  0.43247  1.0000
  C   C2501     1.0  0.95229  0.97176  0.46434  1.0000
  C   C2502     1.0  0.81708  0.93501  0.41997  1.0000
  H   H4413     1.0  0.77093  0.93380  0.43471  1.0000
  H   H4414     1.0  0.78247  0.79892  0.40241  1.0000
  N   N139      1.0  0.91074  0.53887  0.42886  1.0000
  C   C2503     1.0  0.90165  0.55948  0.43004  1.0000
  H   H4415     1.0  0.91005  0.51458  0.41366  1.0000
  H   H4416     1.0  0.99191  0.74763  0.58118  1.0000
  C   C2504     1.0  0.90314  0.52973  0.41417  1.0000
  C   C2505     1.0  0.88140  0.52880  0.41722  1.0000
  C   C2506     1.0  0.90231  0.57336  0.41091  1.0000
  H   H4417     1.0  0.77315  0.90831  0.44026  1.0000
  H   H4418     1.0  0.97616  0.76048  0.53997  1.0000
  H   H4419     1.0  0.81364  0.82780  0.47706  1.0000
  H   H4420     1.0  0.84704  0.00648  0.62475  1.0000
  C   C2507     1.0  0.89366  0.59388  0.41429  1.0000
  S   S557      1.0  0.84909  0.99087  0.48014  1.0000
  C   C2508     1.0  0.80375  0.99510  0.43957  1.0000
  H   H4421     1.0  0.88633  0.56017  0.43590  1.0000
  S   S558      1.0  0.99347  0.71124  0.42067  1.0000
  C   C2509     1.0  0.99078  0.77260  0.55938  1.0000
  H   H4422     1.0  0.90487  0.99625  0.42323  1.0000
  H   H4423     1.0  0.77514  0.99180  0.62491  1.0000
  H   H4424     1.0  0.90712  0.53715  0.39948  1.0000
  C   C2510     1.0  0.75513  0.88399  0.57877  1.0000
  H   H4425     1.0  0.87319  0.54319  0.41876  1.0000
  H   H4426     1.0  0.84272  0.78793  0.64163  1.0000
  H   H4427     1.0  0.76261  0.84566  0.58953  1.0000
  H   H4428     1.0  0.89409  0.56854  0.40083  1.0000
  H   H4429     1.0  0.76588  0.96124  0.66891  1.0000
  N   N140      1.0  0.75300  0.92370  0.46049  1.0000
  H   H4430     1.0  0.78075  0.97817  0.45432  1.0000
  C   C2511     1.0  0.96556  0.52155  0.42098  1.0000
  C   C2512     1.0  0.81491  0.81784  0.44045  1.0000
  H   H4431     1.0  0.88962  0.97268  0.48399  1.0000
  H   H4432     1.0  0.82191  0.98086  0.56620  1.0000
  H   H4433     1.0  0.90200  0.59974  0.42362  1.0000
  C   C2513     1.0  0.81710  0.81206  0.47620  1.0000
  S   S559      1.0  0.95156  0.58118  0.66011  1.0000
  C   C2514     1.0  0.80794  0.80649  0.46006  1.0000
  H   H4434     1.0  0.93736  0.75238  0.51428  1.0000
  C   C2515     1.0  0.81000  0.00791  0.59072  1.0000
  C   C2516     1.0  0.85543  0.95409  0.47098  1.0000
  H   H4435     1.0  0.79457  0.95334  0.43407  1.0000
  C   C2517     1.0  0.83496  0.83266  0.40435  1.0000
  H   H4436     1.0  0.87018  0.95427  0.57188  1.0000
  H   H4437     1.0  0.91575  0.76381  0.66539  1.0000
  H   H4438     1.0  0.92501  0.82259  0.42858  1.0000
  H   H4439     1.0  0.86430  0.98672  0.55509  1.0000
  H   H4440     1.0  0.83414  0.75481  0.43425  1.0000
  H   H4441     1.0  0.78562  0.95977  0.57193  1.0000
  H   H4442     1.0  0.80885  0.92261  0.42109  1.0000
  H   H4443     1.0  0.85222  0.98593  0.57946  1.0000
  C   C2518     1.0  0.95363  0.61854  0.64240  1.0000
  H   H4444     1.0  0.84500  0.95290  0.57839  1.0000
  H   H4445     1.0  0.78143  0.80407  0.43757  1.0000
  C   C2519     1.0  0.79853  0.83062  0.59108  1.0000
  C   C2520     1.0  0.81458  0.97174  0.41585  1.0000
  H   H4446     1.0  0.79336  0.95998  0.62275  1.0000
  H   H4447     1.0  0.81434  0.82953  0.58877  1.0000
  H   H4448     1.0  0.82671  0.96868  0.42445  1.0000
  H   H4449     1.0  0.77453  0.00604  0.42088  1.0000
  C   C2521     1.0  0.85590  0.95926  0.56734  1.0000
  C   C2522     1.0  0.88995  0.53215  0.46239  1.0000
  H   H4450     1.0  0.75932  0.95268  0.46094  1.0000
  C   C2523     1.0  0.77744  0.81290  0.40795  1.0000
  C   C2524     1.0  0.85227  0.98133  0.56521  1.0000
  H   H4451     1.0  0.99605  0.56238  0.38125  1.0000
  H   H4452     1.0  0.90913  0.51128  0.44682  1.0000
  H   H4453     1.0  0.83703  0.75784  0.40819  1.0000
  C   C2525     1.0  0.88804  0.51692  0.48005  1.0000
  H   H4454     1.0  0.87687  0.53351  0.45547  1.0000
  C   C2526     1.0  0.89535  0.97637  0.49644  1.0000
  H   H4455     1.0  0.77404  0.91204  0.40379  1.0000
  H   H4456     1.0  0.97700  0.64724  0.52296  1.0000
  H   H4457     1.0  0.79231  0.91975  0.49956  1.0000
  H   H4458     1.0  0.82730  0.93512  0.40651  1.0000
  H   H4459     1.0  0.80172  0.89871  0.48766  1.0000
  H   H4460     1.0  0.78255  0.87417  0.39363  1.0000
  H   H4461     1.0  0.79225  0.80981  0.46370  1.0000
  H   H4462     1.0  0.81324  0.79891  0.62689  1.0000
  C   C2527     1.0  0.78304  0.85751  0.52794  1.0000
  H   H4463     1.0  0.81163  0.80410  0.49016  1.0000
  C   C2528     1.0  0.84524  0.81593  0.65126  1.0000
  H   H4464     1.0  0.85956  0.52101  0.40264  1.0000
  H   H4465     1.0  0.98493  0.67246  0.40785  1.0000
  H   H4466     1.0  0.79439  0.81580  0.59419  1.0000
  H   H4467     1.0  0.91708  0.57430  0.40390  1.0000
  H   H4468     1.0  0.80374  0.95655  0.58773  1.0000
  H   H4469     1.0  0.84203  0.99568  0.40893  1.0000
  H   H4470     1.0  0.86665  0.96939  0.41622  1.0000
  C   C2529     1.0  0.98786  0.64647  0.51004  1.0000
  H   H4471     1.0  0.98123  0.62719  0.38835  1.0000
  H   H4472     1.0  0.78650  0.93831  0.46758  1.0000
  H   H4473     1.0  0.98033  0.64973  0.49712  1.0000
  H   H4474     1.0  0.78155  0.82923  0.43009  1.0000
  H   H4475     1.0  0.84517  0.79091  0.40745  1.0000
  H   H4476     1.0  0.93452  0.54701  0.40788  1.0000
  H   H4477     1.0  0.80520  0.83838  0.40313  1.0000
  H   H4478     1.0  0.79414  0.95424  0.40883  1.0000
  H   H4479     1.0  0.96296  0.98204  0.45945  1.0000
  C   C2530     1.0  0.76722  0.91559  0.47434  1.0000
  C   C2531     1.0  0.78908  0.93846  0.66375  1.0000
  H   H4480     1.0  0.85710  0.75813  0.42073  1.0000
  C   C2532     1.0  0.77937  0.99255  0.39496  1.0000
  H   H4481     1.0  0.83026  0.85573  0.38079  1.0000
  N   N141      1.0  0.80868  0.81200  0.42297  1.0000
  C   C2533     1.0  0.93214  0.98191  0.46248  1.0000
  H   H4482     1.0  0.81866  0.99504  0.44231  1.0000
  H   H4483     1.0  0.88215  0.95326  0.51497  1.0000
  C   C2534     1.0  0.76560  0.86463  0.44827  1.0000
  H   H4484     1.0  0.83065  0.81672  0.43926  1.0000
  H   H4485     1.0  0.87857  0.59420  0.42103  1.0000
  C   C2535     1.0  0.75577  0.81417  0.41310  1.0000
  H   H4486     1.0  0.79767  0.83386  0.56082  1.0000
  H   H4487     1.0  0.77533  0.98087  0.42507  1.0000
  H   H4488     1.0  0.75415  0.85243  0.53062  1.0000
  H   H4489     1.0  0.80807  0.99030  0.47835  1.0000
  H   H4490     1.0  0.89620  0.99221  0.45788  1.0000
  C   C2536     1.0  0.99835  0.64948  0.39136  1.0000
  C   C2537     1.0  0.75472  0.93865  0.64524  1.0000
  H   H4491     1.0  0.77923  0.84861  0.50073  1.0000
  H   H4492     1.0  0.79485  0.85624  0.57112  1.0000
  C   C2538     1.0  0.76570  0.84851  0.53996  1.0000
  H   H4493     1.0  0.95554  0.95983  0.45530  1.0000
  C   C2539     1.0  0.76887  0.84185  0.57502  1.0000
  H   H4494     1.0  0.90983  0.96842  0.49733  1.0000
  C   C2540     1.0  0.79052  0.84745  0.51017  1.0000
  C   C2541     1.0  0.82214  0.80956  0.62972  1.0000
  C   C2542     1.0  0.89601  0.99835  0.49522  1.0000
  H   H4495     1.0  0.00039  0.72431  0.49884  1.0000
  C   C2543     1.0  0.75214  0.83366  0.63756  1.0000
  H   H4496     1.0  0.99545  0.63154  0.51066  1.0000
  H   H4497     1.0  0.87756  0.51853  0.43016  1.0000
  H   H4498     1.0  0.86390  0.77774  0.66427  1.0000
  C   C2544     1.0  0.76133  0.99291  0.63433  1.0000
  H   H4499     1.0  0.99669  0.75867  0.67204  1.0000
  H   H4500     1.0  0.78397  0.00159  0.47576  1.0000
  H   H4501     1.0  0.75298  0.88480  0.54844  1.0000
  C   C2545     1.0  0.89633  0.00731  0.46041  1.0000
  H   H4502     1.0  0.93258  0.99477  0.48851  1.0000
  H   H4503     1.0  0.79717  0.93110  0.65172  1.0000
  H   H4504     1.0  0.78060  0.00717  0.38689  1.0000
  N   N142      1.0  0.85866  0.80854  0.66605  1.0000
  H   H4505     1.0  0.75786  0.97270  0.40074  1.0000
  H   H4506     1.0  0.99713  0.58762  0.40313  1.0000
  H   H4507     1.0  0.76389  0.99602  0.64856  1.0000
  H   H4508     1.0  0.79602  0.00747  0.58601  1.0000
  H   H4509     1.0  0.90084  0.79688  0.65735  1.0000
  H   H4510     1.0  0.89286  0.75498  0.67116  1.0000
  C   C2546     1.0  0.99926  0.74050  0.64976  1.0000
  C   C2547     1.0  0.77629  0.95702  0.65641  1.0000
  H   H4511     1.0  0.90065  0.51542  0.48784  1.0000
  H   H4512     1.0  0.77728  0.82459  0.65152  1.0000
  C   C2548     1.0  0.87055  0.82441  0.66670  1.0000
  S   S560      1.0  0.88618  0.00662  0.60626  1.0000
  H   H4513     1.0  0.87946  0.86216  0.65739  1.0000
  C   C2549     1.0  0.89158  0.78638  0.66580  1.0000
  H   H4514     1.0  0.87509  0.52133  0.48998  1.0000
  H   H4515     1.0  0.00106  0.74250  0.55777  1.0000
  C   C2550     1.0  0.00110  0.75301  0.56790  1.0000
  C   C2551     1.0  0.75230  0.97386  0.63672  1.0000
  H   H4516     1.0  0.00064  0.65430  0.62207  1.0000
  H   H4517     1.0  0.75182  0.80186  0.42394  1.0000
  H   H4518     1.0  0.99043  0.57819  0.77373  1.0000
  H   H4519     1.0  0.90945  0.60203  0.87989  1.0000
  H   H4520     1.0  0.97162  0.59704  0.85659  1.0000
  S   S561      1.0  0.78799  0.54580  0.97434  1.0000
  Fe  Fe278     1.0  0.80152  0.53423  0.94681  1.0000
  S   S562      1.0  0.82131  0.54670  0.92132  1.0000
  C   C2552     1.0  0.80344  0.94296  0.67585  1.0000
  Fe  Fe279     1.0  0.94865  0.56331  0.68964  1.0000
  S   S563      1.0  0.77345  0.52811  0.93973  1.0000
  S   S564      1.0  0.94267  0.57771  0.71639  1.0000
  H   H4521     1.0  0.86767  0.80684  0.70387  1.0000
  H   H4522     1.0  0.94112  0.62000  0.75938  1.0000
  C   C2553     1.0  0.96518  0.61014  0.84804  1.0000
  Fe  Fe280     1.0  0.92945  0.55131  0.73009  1.0000
  S   S565      1.0  0.90457  0.55138  0.75363  1.0000
  H   H4523     1.0  0.95302  0.60785  0.79057  1.0000
  S   S566      1.0  0.93255  0.53790  0.70263  1.0000
  Fe  Fe281     1.0  0.93085  0.54306  0.88841  1.0000
  H   H4524     1.0  0.99849  0.63223  0.69160  1.0000
  H   H4525     1.0  0.96407  0.63434  0.69394  1.0000
  Fe  Fe282     1.0  0.97031  0.55207  0.86734  1.0000
  S   S567      1.0  0.96292  0.54633  0.83935  1.0000
  C   C2554     1.0  0.95370  0.62810  0.75609  1.0000
  Fe  Fe283     1.0  0.93441  0.56273  0.84733  1.0000
  S   S568      1.0  0.92151  0.58573  0.82581  1.0000
  Fe  Fe284     1.0  0.96045  0.52306  0.71174  1.0000
  S   S569      1.0  0.95639  0.53531  0.73970  1.0000
  S   S570      1.0  0.94230  0.57054  0.87427  1.0000
  H   H4526     1.0  0.76117  0.59086  0.92076  1.0000
  C   C2555     1.0  0.90982  0.56095  0.77344  1.0000
  C   C2556     1.0  0.91250  0.54881  0.79055  1.0000
  C   C2557     1.0  0.91650  0.55630  0.80652  1.0000
  C   C2558     1.0  0.91698  0.57613  0.80572  1.0000
  C   C2559     1.0  0.91408  0.58837  0.78871  1.0000
  C   C2560     1.0  0.91080  0.58074  0.77248  1.0000
  H   H4527     1.0  0.90016  0.58377  0.89825  1.0000
  H   H4528     1.0  0.91898  0.54672  0.81950  1.0000
  H   H4529     1.0  0.91461  0.60369  0.78795  1.0000
  H   H4530     1.0  0.90870  0.59018  0.75930  1.0000
  C   C2561     1.0  0.84635  0.54277  0.92103  1.0000
  C   C2562     1.0  0.85484  0.54347  0.93737  1.0000
  C   C2563     1.0  0.87480  0.54280  0.93595  1.0000
  C   C2564     1.0  0.88641  0.54130  0.91827  1.0000
  C   C2565     1.0  0.87794  0.53962  0.90218  1.0000
  C   C2566     1.0  0.85800  0.54049  0.90356  1.0000
  H   H4531     1.0  0.84600  0.54523  0.95093  1.0000
  S   S571      1.0  0.95978  0.52521  0.88422  1.0000
  H   H4532     1.0  0.88671  0.53792  0.88864  1.0000
  H   H4533     1.0  0.85150  0.53945  0.89105  1.0000
  H   H4534     1.0  0.78011  0.92815  0.67295  1.0000
  Fe  Fe285     1.0  0.76063  0.53666  0.96853  1.0000
  C   C2567     1.0  0.85760  0.79673  0.70252  1.0000
  C   C2568     1.0  0.87314  0.53878  0.84052  1.0000
  Fe  Fe286     1.0  0.79388  0.51509  0.98825  1.0000
  H   H4535     1.0  0.85935  0.53725  0.83585  1.0000
  H   H4536     1.0  0.86555  0.78215  0.70122  1.0000
  H   H4537     1.0  0.89651  0.60874  0.90221  1.0000
  H   H4538     1.0  0.83577  0.80944  0.72358  1.0000
  H   H4539     1.0  0.85196  0.78980  0.73350  1.0000
  H   H4540     1.0  0.96027  0.59170  0.81980  1.0000
  H   H4541     1.0  0.88974  0.62604  0.80908  1.0000
  H   H4542     1.0  0.88125  0.54385  0.94854  1.0000
  S   S572      1.0  0.91132  0.54170  0.91684  1.0000
  C   C2569     1.0  0.84382  0.79511  0.72121  1.0000
  C   C2570     1.0  0.84668  0.80353  0.68502  1.0000
  Fe  Fe287     1.0  0.96994  0.56045  0.72354  1.0000
  H   H4543     1.0  0.97518  0.53915  0.79500  1.0000
  N   N143      1.0  0.98208  0.59747  0.79566  1.0000
  C   C2571     1.0  0.96812  0.54920  0.78388  1.0000
  H   H4544     1.0  0.83359  0.78477  0.72082  1.0000
  H   H4545     1.0  0.96697  0.62639  0.79096  1.0000
  H   H4546     1.0  0.88725  0.62147  0.84452  1.0000
  H   H4547     1.0  0.82691  0.61102  0.90150  1.0000
  H   H4548     1.0  0.83831  0.79166  0.68415  1.0000
  H   H4549     1.0  0.88188  0.64840  0.81892  1.0000
  S   S573      1.0  0.92109  0.53658  0.86178  1.0000
  H   H4550     1.0  0.95588  0.57872  0.77872  1.0000
  H   H4551     1.0  0.86488  0.63628  0.81041  1.0000
  C   C2572     1.0  0.97521  0.59502  0.81702  1.0000
  H   H4552     1.0  0.91167  0.53359  0.79139  1.0000
  H   H4553     1.0  0.99930  0.51729  0.83451  1.0000
  H   H4554     1.0  0.80696  0.50903  0.91867  1.0000
  C   C2573     1.0  0.97591  0.61260  0.82771  1.0000
  H   H4555     1.0  0.79599  0.95012  0.68831  1.0000
  S   S574      1.0  0.99087  0.57605  0.73359  1.0000
  H   H4556     1.0  0.80889  0.60811  0.88703  1.0000
  H   H4557     1.0  0.81321  0.59099  0.90792  1.0000
  Fe  Fe288     1.0  0.95059  0.52094  0.85644  1.0000
  H   H4558     1.0  0.89932  0.50916  0.76079  1.0000
  H   H4559     1.0  0.89098  0.51903  0.72814  1.0000
  H   H4560     1.0  0.95681  0.63150  0.74025  1.0000
  H   H4561     1.0  0.95023  0.64191  0.76235  1.0000
  N   N144      1.0  0.86296  0.59068  0.85573  1.0000
  C   C2574     1.0  0.84450  0.60026  0.86547  1.0000
  C   C2575     1.0  0.86849  0.60276  0.83683  1.0000
  C   C2576     1.0  0.85916  0.57144  0.85118  1.0000
  C   C2577     1.0  0.87892  0.58731  0.86811  1.0000
  C   C2578     1.0  0.87872  0.60194  0.88251  1.0000
  C   C2579     1.0  0.83499  0.58797  0.88340  1.0000
  C   C2580     1.0  0.87574  0.56009  0.83904  1.0000
  C   C2581     1.0  0.87390  0.62296  0.83792  1.0000
  C   C2582     1.0  0.87780  0.63405  0.81782  1.0000
  C   C2583     1.0  0.89738  0.59887  0.89121  1.0000
  C   C2584     1.0  0.82008  0.60039  0.89564  1.0000
  H   H4562     1.0  0.94991  0.60898  0.84763  1.0000
  H   H4563     1.0  0.83377  0.60405  0.85520  1.0000
  H   H4564     1.0  0.84642  0.61428  0.86970  1.0000
  H   H4565     1.0  0.88118  0.59538  0.82856  1.0000
  H   H4566     1.0  0.85685  0.60451  0.82764  1.0000
  H   H4567     1.0  0.84641  0.57330  0.84345  1.0000
  H   H4568     1.0  0.85564  0.56179  0.86467  1.0000
  H   H4569     1.0  0.87913  0.57293  0.87697  1.0000
  H   H4570     1.0  0.89300  0.58663  0.85892  1.0000
  H   H4571     1.0  0.86707  0.60005  0.89459  1.0000
  H   H4572     1.0  0.87661  0.61711  0.87575  1.0000
  H   H4573     1.0  0.82762  0.57693  0.87883  1.0000
  H   H4574     1.0  0.84564  0.58025  0.89260  1.0000
  H   H4575     1.0  0.88965  0.56088  0.84372  1.0000
  H   H4576     1.0  0.87628  0.56618  0.82363  1.0000
  H   H4577     1.0  0.86237  0.63177  0.84623  1.0000
  H   H4578     1.0  0.96937  0.62631  0.82032  1.0000
  H   H4579     1.0  0.87362  0.53164  0.85552  1.0000
  H   H4580     1.0  0.98463  0.59377  0.68799  1.0000
  H   H4581     1.0  0.97707  0.54872  0.76970  1.0000
  H   H4582     1.0  0.95625  0.56918  0.80359  1.0000
  C   C2585     1.0  0.96765  0.61207  0.78610  1.0000
  S   S575      1.0  0.97683  0.54705  0.69642  1.0000
  C   C2586     1.0  0.96462  0.56972  0.78921  1.0000
  H   H4583     1.0  0.90952  0.64050  0.67442  1.0000
  H   H4584     1.0  0.95335  0.61300  0.69365  1.0000
  C   C2587     1.0  0.97102  0.61593  0.76395  1.0000
  H   H4585     1.0  0.99312  0.56717  0.79735  1.0000
  H   H4586     1.0  0.99522  0.51738  0.86010  1.0000
  C   C2588     1.0  0.98390  0.60973  0.68497  1.0000
  C   C2589     1.0  0.96606  0.61834  0.69708  1.0000
  C   C2590     1.0  0.85964  0.84318  0.67390  1.0000
  H   H4587     1.0  0.81194  0.92932  0.68127  1.0000
  H   H4588     1.0  0.95428  0.54425  0.78298  1.0000
  H   H4589     1.0  0.85333  0.84030  0.68915  1.0000
  H   H4590     1.0  0.97346  0.60238  0.75749  1.0000
  C   C2591     1.0  0.98363  0.57794  0.78882  1.0000
  H   H4591     1.0  0.96703  0.61391  0.71261  1.0000
  C   C2592     1.0  0.00149  0.60450  0.79279  1.0000
  H   H4592     1.0  0.92053  0.60537  0.67992  1.0000
  H   H4593     1.0  0.99089  0.61421  0.82893  1.0000
  H   H4594     1.0  0.99983  0.62046  0.79266  1.0000
  H   H4595     1.0  0.98341  0.62408  0.75919  1.0000
  H   H4596     1.0  0.75882  0.60288  0.94184  1.0000
  H   H4597     1.0  0.92021  0.51084  0.74319  1.0000
  H   H4598     1.0  0.86493  0.87183  0.67763  1.0000
  H   H4599     1.0  0.88489  0.53140  0.83107  1.0000
  H   H4600     1.0  0.98373  0.58239  0.82449  1.0000
  S   S576      1.0  0.99900  0.56352  0.86283  1.0000
  H   H4601     1.0  0.89157  0.78735  0.68119  1.0000
  H   H4602     1.0  0.88182  0.81960  0.67609  1.0000
  H   H4603     1.0  0.81227  0.51643  0.89318  1.0000
  H   H4604     1.0  0.88464  0.85325  0.68155  1.0000
  H   H4605     1.0  0.83577  0.81596  0.68838  1.0000
  H   H4606     1.0  0.96602  0.62281  0.85531  1.0000
  H   H4607     1.0  0.97369  0.51011  0.77123  1.0000
  H   H4608     1.0  0.00162  0.53516  0.73272  1.0000
