data_image0
_chemical_formula_structural       H5C3H5CHC2H3CHNHCH3CH7C2NHCSH3CHN2SFeCFeSFeSFeSFe2S2FeS2FeS2FeSFeS3FeS2FeS2FeSFeS3C6H4C6H4C6H7CH2C2HC2HC6H5CHC2SCH2C4H6C4H3C4H4C2HSCHNC10HCH19C2H2S2CH3C2HCHC3SH4CH3CSHSHCH3C2H3C3H3CNH2CH4SHC2H2CH2CH2C3H4CSCHCFeH9SH3CH3SCHSHCH3CH8CSHCHSCH2CH3CH8CH2C2H5CFeHCH3C2HFeCH4CH4CH9C3HCH3CHSC3H6CH2FeHCH10C2HCH4CH3NCNC12H28NC4HC5SCH8CH14CH3CHC2H3C4H2CH2CHCSC2HCHCHFeCH2C2HCH3NH2NC3HCHC3SH5NC3SH3CH4CSCH3FeCH5CHCHSHC2H2CH2CHCHCHC2HCH2C2H2CHSC2H2CH2CH9C3H8C3H2C2HCH2CH6C3HC2HC2H2FeS2H2SHCFeSHSH3SCHCFeHCH2C2H4C4H3C2HCH2CH8SCH5CH5CHCHCHC2HCH4C2H5NCH2C2H2C2H2CH2C4HCH5CHCH2CH2C3HCHCSCHC3H2CH3NHCH7CH3CH3CH2CH13CHCFeS2FeS2HSH2FeSCFeS2FeS2FeSFeS3H2CFeSFeS3CH3SH3FeSCHC2HC2H2C3HC2HCH2C6H4CH2C6H5C6H4C6H4C4H8C3H5C2HCH3CH3CH2C2HC2H2CH6SH2C2FeCH4CH2SH3SCHSH4C2H2CH3C3HCH2CHCHCHCHCHC2H5CSHNCH5CHC3H2CH4CSH2CHCHC2H2CHCH2CH2CHFeHCSHCH3CH3CH8FeHCH3CH2SCSNC12H29CFeH3CHCHCHFeH3CNH4CHCSH3FeH2CH2SHC2H3C2H2CHSC2H6NC7SHC2H3NSH8SH3CSH3CH5NH3FeCH4C2HC2H2CHC2H4SCHFeH2NCHCH3CH2CH6C3HCH3C2H5CH3NC2H3SH3C2FeCH5CHCHCH6CH8NFeNC2H6CH3NCFeS2C2FeS2HSFeSFeH2FeS2FeSHCSH2FeSFeS2H2CHCFeCHSFeSC6H4CH9C6H10CH3C6H4C2SH2CH5CH2C2HSH5CH2C4HSFeCHCFeHSH3CFeH2CHCH5SHCSHCH3NC2HNC2HCH2C2H2C5H14CHC2HC2HC2H2CHSHC2H4CHCH2CH2SFeHNC2H3C3H2CH6C3H2CH6C2NSH2CH4C2H2CNH3FeC2H3NC12H30CHSH4C2HCSHCH3CH3C2H5CH2SC3HSHCSCH2C2NH2CH6CH2CH3C4H2SHCH5CNC12H28CNC12H26SH2SCHC2S2C3H2SH2CH2CHSHCH7C2FeCNH4C2HSFeH2CHCSHCH2C2SC3H6CHC2SHSNHSCHFeH6C2SFeC2HFeSC2HCSH2CHC2HSC2HCFeC3H2CHSCHCFeH3CSH2SCHFeCH3C2HC2H2SCH3FeCHSCH5CH3SCFeH3CHC3H2CH4CHCH2CHCH2C2H5CH5SH2Fe2H3CH2CH2CHCH3FeHNHFeCHNH3FeSHFeS2FeSFeCS2H5NHSCH3C2HFeS2FeS2FeSFeSHFeS2FeS2FeSFeS3FeSHFeS2FeSFeS3C6H5C3HC6H5C4H5CH2C4HSH5C2H3C8H5C2H2CH5C2HNC11H23C2HCH5CSH4CH6NHNC3H4CHCH3CHSCH3CHCHFeHC5H5CNC8HCHCH14CH8SH4CH6CHCH3NHCHCH3CHCH4N2C12H16C2H8CHCH2C2H3C6H4CH2CHC5H14CH5NH3SCHC2HS2CH2CSHCHSH3C2SH2FeCH2NC5HC4HCH10NCH9SHCHC2HCH4CHC5HCHCH3CH2CH4CH4CH3CH4SCH4C2H2CH2CHC3H2C2H2CHC2H6C2HCHC2H7C2H2C2H3CH2C2H2CHCHSCH3C2HCH2C2H2C2H3CH5CHCHC2HCH2CSHCH2CH7FeHCHFeSHFeS2FeSFeS3HC4HSC2HFeS2FeS2FeSFeS3H3CH2CSC2HCHCHCHC4H3CNCHFeCH2C4H4C7H4CHC3HCH2CHCH4CH4CH12CHCHCH6C3H2C5H7NH3CH3CH6CHCH9C3HCHSHCH2CHSC4HCH7C2FeH2CHCH2C2HC2SH3C5H4CH3C2HCH3CHNCH2CNCHSC2H6CH2CHCH3CH3SHCH3CHCHCHCH6NC9HC2H11CH7CHSCHC2H3CH11CH4CHSCH3SH7CNH2CH5CH3C4HS2HCHC2HCHSH2C2HSH6C3HFeH3C2HFeS2FeS2FeS2FeSFeS3HC2FeS2FeHSCHFeS3CH3CH3CH2CH3SHC2H4C2HC2H4CHC2H2C2H10C6H4C4H4CH2CHCH2C6H4C6H4CH3CH4FeSC3HCSH2CHC2SHCH2C2H10CH8C2SH3CH6CHCH2C3H2CHCH5CH3CH6C2HCH7CHCHC2HCHC2NH2CSH4CH2CHCHCFeH2FeH2FeH3NC3HCHSH3CSNHNFeSH3C3HCH4CH2CH4SC2H2C2HC2H2CHNHNC10HCH16CH6CH3CHCH3SCHCH3NH2FeCH2FeS2CHSFeSCSC2HCHS4NCH5CHCSHCNHCH2CHCH2FeS2CHC2SC2HCH4SC2HCHC2HCH5SH2C2HCH4CH4C3H2SHCH2C3H7NHC5H8C3HCNCHCH3C2H2CHCH4C2HCH2CH2NHC2H2C2HCH3CHCHCH3C2H4CH4C2H5C2H2CSH4CH4CH2FeH5CSCH3CH2SCSC2HNHCFeS2FeS2FeSFeS3HCHC2H3FeSCH2FeS2FeS2FeHFeS3FeSHFeS2FeSFeS3C3H2C2H4C2NH2C6H4FeC2H3C7H10CHC3HCH6C8H4C2H2C2H2CH2CHC7H3C5HSH2CHC3HC2H7CH2CNHFeH4CH5CHSH4NC12H18CHC2H6NC12H10CH19CSHCH4C2H4C2HSHCHFeC2NC12H33SHCH4CH3C3H2C2H4CH3NC2FeC7H3CH11CHNHSCH2SCHCH3CSH10CHSHCH2C3HC3HC2SNHFeH13CHC3H5C2H2SH5CH2C2HCH6CHC2H2SHCHCNHCH3C2HCH2C2SH2CSFeH3CHCHCH3CHC2H3C2H2NHCHCHSH5CH4CH2SH3C3H5C2H6SH2SH2CH3SC2SHCH3C4FeHCFeHS2H3SHCH3CH2CH3CH2CH3CH3CHCH4C2H6C2H3C2H3SHCH3C3SH3SHFeSHFeSFeSFeSHSCH2SC3H4CHSCHCHSHCH2CSH4SH3C8H8CH2C6H5SCHC2HC2FeHSH2C3H5CH7CH2CH2SCFeC2HCHCHCHC7FeC2SFeCH3CH2CH2C2H4CFeHCNCSH5CHSNC12H22NCH9C2H10C2H2CH2CHCH6NH3SFeH3SFeCNHC4H7C3H3CH2CHC2HNH2SFeS2FeS2FeSFeS3FeCS3FeHS2FeS2FeSHFeSFeS3HCH2C3FeHC6H4C6H4C6H4C6H21CHC2HC3NCH3C2H3CHC2H2CSH4CSCH6C3HCHCH3NH2CHCNC2FeC2H3CSH4NH5FeH3CH6CH2SHC2H2CHFeHCHCH2CHSCH4C2H3C2H2CH2C7H2C2H2C2H2CNC12H35C3H2SH4CH2CSH2CHCH2NH3CHCH2NC2HCHCH4C2H2CHC2H2C2H3C2HC2H4CH10C2SCH3C2HCH3CH2CH5FeCHC3H2CHCH6CH2SH3FeH4CH2CH2SHCHFeSH3SH12CHCSHCHSFeHS2H2FeS2FeS2FeSFeS4HSCH2FeSHCH2C2HFeSH4FeSHSH4C6H4C2HC2H3CHC6H9CHC6H3CHCHC3Fe2H5SCHC2HCHSH3C6H5C8H2CH2C2H3CHCHCHSCH3C2H7CH2CH2CH5CH2CH3CH2CHCH5C2SC2H3SC2HC2SH6CHCH2SHNC5HC2H10CH3CH2C4HCFeC2H3SCHCHCH4CH3C2HCH2CH2SCHCH5CH3CSH2CH3C2H3CNC5HC2H11SH8C2HC2H3C2NC11H4CH12NHCH7CH3CFeH4C3H6C2H2CHCNH2C2SH2C2H2CH3CH2CFeH4C2H3CNH2CH5NC2HCH5CFeH2C4HCHCSHC2H3NHCH4NH2CFeHCSCH2CH2CH3C2HCH5NCHCH4CH3CH4SCH4CHCH3CSC4HSCH2CH2NH2CH4CHFeHCHCHFeH2CHCH4CSH4FeSFe2H3FeS2FeSHFeSFeS3FeS2H2FeSCSFeHSFeHSH2CS2HFeS2FeSFeSFeSCH9CHCSHC2H5CH2C6H4C6H4CHSH6C6H3C6H6C2H2C2HC3H3C2H2CH3C2NHCFeNHC3H3CH14CHSH5C2HCH2CHC4HCH2CHCH2C2H2CHC2H3CHNC13H21C2SHCH12CHNCH2CH3CHC2H2CH4C2HSH2CHSH3CHC2H2CH2CHNH2CHSH2CHCH2SHCH2SH2CH2C4H3C2H4C2SHC4HFeS2CH2CFeS3CHCFe2S2Fe2S3CFeS2FeS2FeSFeS3H2FeCH3C4H2C6H6C4H6CFeHNH2C6H4CHC5HFeNC8HC3H17C2H5SH7C4HC4H3SHCSCH2SCHCHCNCH6C3H7NH2NH9NH2NC12H21CH8C2HCH3SH5CH2SC2H2CH2C3NSHSCSC2HCH2C3H7C2SHC2H15CHCNH5C2H6C3HC4H2FeH4SFeH3CSHCHCH4CSHCHC2H2CHCH3CH3CH3CSCHC2HC3HCHSC4HCH4CH3CH3FeCH4CH2FeCH10SFeH3FeH5FeH3CH6CHC2HC3H3C2SHC2H3CH3CHNHCH5C2HC2FeSHCSFeSFeHNSFeS2FeS2FeSFeS3FeS2HCHFe2SHSFeS2FeS2HCHCH2C2HC4HC3H2C6H3C6H4C6H4C6H6CH5CHNC11H14CH15CH6C3HSCH2CH3CSHNHCH4CH6C2HC2H4CHCH2CHFeHCH4CH5CH3CHFeSH6FeH2C2H2CHSH3CHCH2CFeH3CHC2H5C3HCSH2SH3FeHCH2CHC3H3CH7CHC2HSH3NH2CHC2HNHCHC2H3CSHC2H4CH2NC4HC5HCH6CH13NC5HCH6CH3CH6FeSCHCH2SH5CH3CH4CHSCH3FeHCH2CH4CFeSH2NCH7C2H3CH3CHCHFeS2HSFeSCSFeS2FeS2FeSFeS5FeSFeS2FeS2FeSFeS3H2C2HSHCH3C6H3C7H4C6H5C6H4CSFeH2CNH3C6H4C6H4C2FeH3CHS2HCHC2HC3HC5H3FeHFeNC6HC2SCH14CH3CH4CH2C3H7CH4CSH4CH5C2SC2H2CHC2H4C2HCNC2HC2H2NH2C2NC12H27CNC8HC2H21CHSHC2HNHC2HCHCHC3HCHCH7C2FeC2H2CH2CHNC12H29FeH3FeSHCHC2H6FeH3CH3SHSHCH2CNC2SC2HCH4FeHCFeHNHCH4CHCH3CSHSHSH5C2H2FeH6SHCH2C2HC2HCH4CH6CHC3H7CSCSH2SFeH4CH3SH2SH5CH4SCHSCH2Fe2SHCH2CSH2C4H3CHC2HC2FeH2CH3CHCHC2HSCH6CHC3H2SHCH3CH2CHSCH4CHCH7SH5CHCFeH5C2H2CHCH2C2H3CH3SH2CH3CH4C2H8FeH2CH4CHCHCH2CH2C2HCHC2HCH3CHCH2CFeC2HSNCH2C4H2C2SFeHC2H3CSH3SCH2CH2CH6FeH2CSHFeSHC2HFeS2FeS2FeSFeS3FeS2FeS2FeSFeS3FeS2FeS2FeSFeS3H6CH7CH2NC2HNH5C3H3CH2CHC4H2C6H2C6H5C5H4C6H4C6H6C3HCH3C6H4CHC4HCH2C4H12SCH2CH2CHCH2CSCH3CNSH5CH2CH2CH2CH2C2H4CHCH5SH2CHCNC11H21CH4NC2H5CH2CH2C5NC12H16CH2CH9CHCH2CH9CH6C3H4C2H6CHCH2CH3C2H7CNSH2CH5CH2CH3CHC2H2CSH4CNH4CHCH5C2HCSHC2H4C3H4CH3C2HC2H3C2FeH3CH6CHCH3CH4C3HCH3CHCHC2H3CHC2H4C2HNCHCH4CSH2CH2CH4C2H2CHC2H5NHCH3CH2C2SFeHCHCHCH5SH2SH3CHNCH3FeHFeHCSHSHC6HCHCFeH2CHC3H4SFeH2CH3SH5C2SH3CH3CHCH3NH2SH3NC2HCHFeH7CH5FeSHC3HCFeNSHCH2FeCH2C3H3C3HCH3CHSH2CSCH5C3H2NC4H2CH5SH4CSHCH3CH4FeHCFeS2HCFeS3CSHSFeS2FeSCHCSH2FeSFeS3H2CHFeSH4SHCH3SH2C3HCH2CHS2FeH4FeC4H2CH9CHC2H5SCHC7H5CH2C4H3C7H3CHCHNC6HC4H13FeH13CSH2SNC3HFeHC2H2SCHCH4CH4CHNC5HC5H14CH2CH3FeH5C2SCH4C2H2C2H2FeH4FeH3C2HCH4NSC2H2CHFeH4CH2C2HSH10C2H4SH4C2HSC2HSNHSH7CH2C7HFeC4HCH2C3H8SHSCH5SC3HCH2CHCH2CHC2SH5SCHSHSH2C2FeCSHCHCNCHC6H3FeNHCHCH2CHCH4CHC2SH3NH3CH6NHC2H6CHCH4CHC3H7C2H2CHCH5CNHCHCHC3H3CHFeS2HC2FeSFeSCSHS2CHCH5CFeS2FeSHFeSFeS3HFeS2H2CFeS2HCHFeSCH6C6H5CHCHSHC2H2C2H3C3H2CH7C6H4CH3CH3C2HC5H3NH4SCH2SHSC5H3CNH3CH5NC4HCH4C2FeHCH2CH2C2HC3H9C4H2CH2CH2CHCH2NHNCH5CH2CHCHSCFeH2FeCHC2HCHC2H2C3H15CH4NH2NCH3CHNC4HC7H7CH11C2H11C2H2C3HC2H10CH2NCH2C3H2C2SHCFeCH5FeCH2CH4FeH3CH2CH2CSC2H2SH10SHCH5CHCH2C2H3CH3FeSH2FeSHSHCHC2HS2FeS2FeSFeS2FeS2FeS2FeSFeHS3FeS2FeS2FeSFeS3FeS2FeS2FeSFeS3FeS2H2C6H4C6H4CHC6H4C6H4C6H4C6H3C6H5NH2SHC6H5C6H3SHC2SH9FeH2CHCH4C2HC2H2C2H3C2H4SCHSCH3N2C12H25C2H3C2H2CSHC2H4C5H6C2HCHCH4CH2FeHCH2CHNC10HCH29NC10HCH23CNSHFeH2FeCHCFeHCHCH2CHCHCH2CH5CH2NC2H3CHCH4CHC4HCH4C2HCH4NCSHCHC2H6CH3C2H5FeH2CH4FeH5C5NCH6CH7CHC7H2C3H5CHNCH4C2HSCHFeC2H2SCHC2H4FeC2NHSH4CH2SH2C3H5CHFeC2H3C2H2CH10CHC3H3C2H5CHC2HCSCH2CHCH5CH4SHCH4SHCH3SHSH3C2H6FeCH3CH5C2H5CH3CH9C2H2CHCH2CH4C2H4SH2NHCH5CHC2FeHSHFeS2FeHSHFeS3CH3SH4SH2FeS2FeS2FeS2H3FeH2CSHFeHSCH2CHSC2H3C2H2C2FeHSC3NHFeH3CSH2C2H2CH2CH3C6H4CH3CH3C6H7C3H2C6H4C3HC2HFeH3CHC4HCHCNC2H10CH9FeSC3HSCH4C3H3SCH8C3HC2H6NFeHCHCHCH5CHCH4CNH4CHNC9HC2HSH7CH12SCH4C2H13CH2FeHNH3C2H3CHCHC2H5CHCH2C3HCH2CHC2H2C3HCH6SH2CH2CHCH6NCH5CSHCHCH2C4HSHCH2CH6FeH2C6HCH2CNCH3SH3CHCHSH4CH2CNHFeHCH2SHFeH2FeS2HCH3CSHCH2CHS2H2SH2CSHCHNSCHCH2FeCH3C4H2CH4C4HC3FeH8CFeH3CHCH5SH4S2H2C3H3CH5CH3CH3CHCHCH4CHSHCFeCH7CH2CHFe
_chemical_formula_sum              "H6144 C3456 N192 S768 Fe384"
_cell_length_a       75.8424
_cell_length_b       75.675
_cell_length_c       75.717
_cell_angle_alpha    74.6518
_cell_angle_beta     74.5267
_cell_angle_gamma    74.7207

_space_group_name_H-M_alt    "P 1"
_space_group_IT_number       1

loop_
  _space_group_symop_operation_xyz
  'x, y, z'

loop_
  _atom_site_type_symbol
  _atom_site_label
  _atom_site_symmetry_multiplicity
  _atom_site_fract_x
  _atom_site_fract_y
  _atom_site_fract_z
  _atom_site_occupancy
  H   H1        1.0  0.02374  0.08277  0.42255  1.0000
  H   H2        1.0  0.10784  0.10952  0.42569  1.0000
  H   H3        1.0  0.04014  0.05695  0.47455  1.0000
  H   H4        1.0  0.12565  0.09306  0.43682  1.0000
  H   H5        1.0  0.05382  0.08731  0.42544  1.0000
  C   C1        1.0  0.11223  0.09468  0.43267  1.0000
  C   C2        1.0  0.04472  0.09161  0.45442  1.0000
  C   C3        1.0  0.09745  0.08915  0.45007  1.0000
  H   H6        1.0  0.03279  0.08899  0.46643  1.0000
  H   H7        1.0  0.04676  0.06735  0.44225  1.0000
  H   H8        1.0  0.11460  0.08551  0.42261  1.0000
  H   H9        1.0  0.13924  0.05550  0.47498  1.0000
  H   H10       1.0  0.07404  0.10604  0.43754  1.0000
  C   C4        1.0  0.04369  0.08286  0.43846  1.0000
  H   H11       1.0  0.08120  0.08294  0.43397  1.0000
  C   C5        1.0  0.05735  0.11599  0.47281  1.0000
  C   C6        1.0  0.07839  0.09130  0.44488  1.0000
  H   H12       1.0  0.04175  0.10704  0.44909  1.0000
  H   H13       1.0  0.06720  0.12154  0.46014  1.0000
  H   H14       1.0  0.10275  0.07445  0.45675  1.0000
  C   C7        1.0  0.06787  0.06436  0.46723  1.0000
  H   H15       1.0  0.07269  0.05742  0.45502  1.0000
  N   N1        1.0  0.06295  0.08539  0.46095  1.0000
  H   H16       1.0  0.09623  0.09823  0.45987  1.0000
  C   C8        1.0  0.06095  0.09423  0.47727  1.0000
  H   H17       1.0  0.02063  0.10468  0.42938  1.0000
  H   H18       1.0  0.07994  0.06026  0.47421  1.0000
  H   H19       1.0  0.01353  0.08470  0.44647  1.0000
  C   C9        1.0  0.02421  0.08920  0.43397  1.0000
  H   H20       1.0  0.06430  0.02712  0.47540  1.0000
  H   H21       1.0  0.04287  0.12197  0.47061  1.0000
  H   H22       1.0  0.01374  0.23107  0.05886  1.0000
  H   H23       1.0  0.16954  0.03342  0.47642  1.0000
  H   H24       1.0  0.29263  0.14537  0.65991  1.0000
  H   H25       1.0  0.21777  0.01238  0.60068  1.0000
  H   H26       1.0  0.05650  0.13894  0.48535  1.0000
  C   C10       1.0  0.99694  0.00489  0.59468  1.0000
  C   C11       1.0  0.18207  0.12485  0.73167  1.0000
  N   N2        1.0  0.14670  0.07620  0.53724  1.0000
  H   H27       1.0  0.30417  0.21879  0.56745  1.0000
  C   C12       1.0  0.18268  0.99879  0.60389  1.0000
  S   S1        1.0  0.04711  0.01981  0.57941  1.0000
  H   H28       1.0  0.07336  0.08846  0.48382  1.0000
  H   H29       1.0  0.19507  0.98742  0.60084  1.0000
  H   H30       1.0  0.08017  0.19525  0.75514  1.0000
  C   C13       1.0  0.14238  0.09362  0.54517  1.0000
  H   H31       1.0  0.99047  0.99434  0.60505  1.0000
  N   N3        1.0  0.28899  0.15787  0.60387  1.0000
  N   N4        1.0  0.15643  0.21560  0.59230  1.0000
  S   S2        1.0  0.25770  0.07556  0.75831  1.0000
  Fe  Fe1       1.0  0.28111  0.07446  0.77169  1.0000
  C   C14       1.0  0.30158  0.19663  0.82133  1.0000
  Fe  Fe2       1.0  0.25271  0.05006  0.78043  1.0000
  S   S3        1.0  0.22426  0.04561  0.79740  1.0000
  Fe  Fe3       1.0  0.27269  0.01567  0.59463  1.0000
  S   S4        1.0  0.24608  0.02370  0.61465  1.0000
  Fe  Fe4       1.0  0.28844  0.04808  0.59788  1.0000
  S   S5        1.0  0.26227  0.05938  0.61730  1.0000
  Fe  Fe5       1.0  0.26352  0.02919  0.63164  1.0000
  Fe  Fe6       1.0  0.24718  0.05292  0.59878  1.0000
  S   S6        1.0  0.22124  0.07028  0.58952  1.0000
  S   S7        1.0  0.27297  0.04484  0.57781  1.0000
  Fe  Fe7       1.0  0.14359  0.18520  0.79698  1.0000
  S   S8        1.0  0.16204  0.16240  0.81373  1.0000
  S   S9        1.0  0.12135  0.20976  0.80543  1.0000
  Fe  Fe8       1.0  0.16360  0.17333  0.76012  1.0000
  S   S10       1.0  0.18421  0.15002  0.77321  1.0000
  S   S11       1.0  0.16751  0.17934  0.72876  1.0000
  Fe  Fe9       1.0  0.15956  0.14395  0.79595  1.0000
  S   S12       1.0  0.15605  0.11425  0.80837  1.0000
  Fe  Fe10      1.0  0.18540  0.16992  0.78984  1.0000
  S   S13       1.0  0.21279  0.17194  0.79424  1.0000
  S   S14       1.0  0.13847  0.16592  0.78159  1.0000
  S   S15       1.0  0.16743  0.19404  0.77438  1.0000
  Fe  Fe11      1.0  0.15034  0.11410  0.65195  1.0000
  S   S16       1.0  0.15863  0.12977  0.62244  1.0000
  S   S17       1.0  0.16101  0.08337  0.66151  1.0000
  Fe  Fe12      1.0  0.12686  0.14863  0.66548  1.0000
  S   S18       1.0  0.13214  0.16717  0.63682  1.0000
  S   S19       1.0  0.11168  0.15812  0.69247  1.0000
  Fe  Fe13      1.0  0.12812  0.14340  0.62616  1.0000
  S   S20       1.0  0.11325  0.14793  0.60214  1.0000
  Fe  Fe14      1.0  0.16204  0.15181  0.63548  1.0000
  S   S21       1.0  0.18813  0.16423  0.62536  1.0000
  S   S22       1.0  0.11976  0.12652  0.65522  1.0000
  S   S23       1.0  0.15690  0.13454  0.66454  1.0000
  C   C15       1.0  0.15152  0.17364  0.71914  1.0000
  C   C16       1.0  0.13518  0.16801  0.73033  1.0000
  C   C17       1.0  0.12282  0.16339  0.72214  1.0000
  C   C18       1.0  0.12692  0.16413  0.70280  1.0000
  C   C19       1.0  0.14325  0.16970  0.69172  1.0000
  C   C20       1.0  0.15537  0.17469  0.69980  1.0000
  H   H32       1.0  0.13199  0.16737  0.74520  1.0000
  H   H33       1.0  0.11015  0.15915  0.73077  1.0000
  H   H34       1.0  0.14630  0.17051  0.67683  1.0000
  H   H35       1.0  0.16774  0.17945  0.69101  1.0000
  C   C21       1.0  0.20349  0.07106  0.60959  1.0000
  C   C22       1.0  0.18541  0.08090  0.60804  1.0000
  C   C23       1.0  0.17172  0.08339  0.62424  1.0000
  C   C24       1.0  0.17614  0.07596  0.64189  1.0000
  C   C25       1.0  0.19377  0.06485  0.64347  1.0000
  C   C26       1.0  0.20755  0.06262  0.62727  1.0000
  H   H36       1.0  0.18224  0.08733  0.59438  1.0000
  H   H37       1.0  0.15791  0.09163  0.62309  1.0000
  H   H38       1.0  0.19720  0.05910  0.65712  1.0000
  H   H39       1.0  0.22152  0.05513  0.62859  1.0000
  C   C27       1.0  0.20566  0.06505  0.79994  1.0000
  C   C28       1.0  0.20610  0.08246  0.78774  1.0000
  C   C29       1.0  0.19127  0.09790  0.79055  1.0000
  C   C30       1.0  0.17563  0.09575  0.80516  1.0000
  C   C31       1.0  0.17501  0.07815  0.81698  1.0000
  C   C32       1.0  0.18999  0.06291  0.81445  1.0000
  H   H40       1.0  0.21786  0.08394  0.77614  1.0000
  H   H41       1.0  0.19175  0.11124  0.78109  1.0000
  H   H42       1.0  0.16290  0.07626  0.82816  1.0000
  H   H43       1.0  0.18942  0.04939  0.82378  1.0000
  H   H44       1.0  0.27977  0.04831  0.65215  1.0000
  H   H45       1.0  0.29549  0.19415  0.67064  1.0000
  H   H46       1.0  0.19258  0.02951  0.57199  1.0000
  C   C33       1.0  0.14306  0.05990  0.55334  1.0000
  H   H47       1.0  0.15470  0.02051  0.56613  1.0000
  H   H48       1.0  0.29198  0.17028  0.65448  1.0000
  C   C34       1.0  0.20553  0.19075  0.62780  1.0000
  C   C35       1.0  0.18913  0.18362  0.63366  1.0000
  H   H49       1.0  0.21754  0.18398  0.61876  1.0000
  C   C36       1.0  0.29663  0.21542  0.59747  1.0000
  C   C37       1.0  0.30291  0.20901  0.61427  1.0000
  H   H50       1.0  0.29317  0.21017  0.62747  1.0000
  C   C38       1.0  0.20447  0.22166  0.82080  1.0000
  C   C39       1.0  0.22251  0.21223  0.81391  1.0000
  C   C40       1.0  0.22504  0.19657  0.80623  1.0000
  C   C41       1.0  0.20952  0.19045  0.80532  1.0000
  C   C42       1.0  0.19148  0.19953  0.81270  1.0000
  C   C43       1.0  0.18896  0.21502  0.82062  1.0000
  H   H51       1.0  0.23453  0.21688  0.81463  1.0000
  H   H52       1.0  0.23900  0.18942  0.80072  1.0000
  H   H53       1.0  0.17943  0.19483  0.81205  1.0000
  H   H54       1.0  0.26109  0.12130  0.59555  1.0000
  H   H55       1.0  0.08207  0.22969  0.80795  1.0000
  C   C44       1.0  0.29308  0.21576  0.81797  1.0000
  H   H56       1.0  0.01889  0.06130  0.52028  1.0000
  C   C45       1.0  0.30682  0.00421  0.84261  1.0000
  C   C46       1.0  0.20401  0.02084  0.59778  1.0000
  S   S24       1.0  0.07089  0.09061  0.52941  1.0000
  C   C47       1.0  0.05913  0.03409  0.48755  1.0000
  H   H57       1.0  0.29305  0.18618  0.82569  1.0000
  H   H58       1.0  0.17498  0.22216  0.82601  1.0000
  C   C48       1.0  0.11007  0.11118  0.60544  1.0000
  C   C49       1.0  0.10609  0.12995  0.59617  1.0000
  C   C50       1.0  0.09654  0.13454  0.58140  1.0000
  C   C51       1.0  0.09102  0.12063  0.57599  1.0000
  H   H59       1.0  0.18783  0.09457  0.73534  1.0000
  H   H60       1.0  0.09339  0.14898  0.57410  1.0000
  H   H61       1.0  0.08370  0.12443  0.56464  1.0000
  H   H62       1.0  0.04902  0.09044  0.48868  1.0000
  H   H63       1.0  0.99435  0.11705  0.49509  1.0000
  H   H64       1.0  0.11809  0.99798  0.60193  1.0000
  C   C52       1.0  0.02373  0.01962  0.58076  1.0000
  C   C53       1.0  0.01375  0.03239  0.56798  1.0000
  C   C54       1.0  0.15899  0.01582  0.50244  1.0000
  C   C55       1.0  0.27526  0.04558  0.66723  1.0000
  H   H65       1.0  0.04933  0.11893  0.50191  1.0000
  H   H66       1.0  0.02013  0.04306  0.55764  1.0000
  H   H67       1.0  0.13600  0.06726  0.51773  1.0000
  C   C56       1.0  0.10111  0.21481  0.86682  1.0000
  C   C57       1.0  0.11364  0.19857  0.86220  1.0000
  C   C58       1.0  0.12046  0.19703  0.84335  1.0000
  C   C59       1.0  0.11480  0.21178  0.82907  1.0000
  H   H68       1.0  0.05000  0.00124  0.54673  1.0000
  H   H69       1.0  0.14905  0.09656  0.49937  1.0000
  H   H70       1.0  0.11782  0.18703  0.87323  1.0000
  H   H71       1.0  0.12972  0.18429  0.83992  1.0000
  C   C60       1.0  0.05943  0.12339  0.48888  1.0000
  C   C61       1.0  0.31170  0.04888  0.53718  1.0000
  H   H72       1.0  0.16524  0.08381  0.56113  1.0000
  S   S25       1.0  0.28377  0.06267  0.71015  1.0000
  C   C62       1.0  0.19484  0.00230  0.62926  1.0000
  H   H73       1.0  0.14565  0.08192  0.72521  1.0000
  N   N5        1.0  0.23059  0.10760  0.82336  1.0000
  C   C63       1.0  0.21492  0.12372  0.82831  1.0000
  C   C64       1.0  0.23325  0.10686  0.80301  1.0000
  C   C65       1.0  0.22481  0.08974  0.83531  1.0000
  C   C66       1.0  0.24869  0.10854  0.82744  1.0000
  C   C67       1.0  0.25613  0.12672  0.81794  1.0000
  C   C68       1.0  0.21031  0.12615  0.84885  1.0000
  C   C69       1.0  0.23769  0.07115  0.83059  1.0000
  C   C70       1.0  0.22913  0.12567  0.78892  1.0000
  C   C71       1.0  0.23423  0.12286  0.76884  1.0000
  C   C72       1.0  0.27309  0.12683  0.82515  1.0000
  H   H74       1.0  0.15404  0.10935  0.57937  1.0000
  C   C73       1.0  0.23005  0.05419  0.84309  1.0000
  H   H75       1.0  0.20182  0.12242  0.82513  1.0000
  H   H76       1.0  0.21789  0.13724  0.81948  1.0000
  H   H77       1.0  0.24759  0.09918  0.79769  1.0000
  H   H78       1.0  0.22370  0.09871  0.80167  1.0000
  H   H79       1.0  0.21042  0.08965  0.83422  1.0000
  H   H80       1.0  0.22412  0.08889  0.85036  1.0000
  H   H81       1.0  0.24757  0.10609  0.84281  1.0000
  H   H82       1.0  0.26010  0.09699  0.82278  1.0000
  H   H83       1.0  0.24548  0.13946  0.82061  1.0000
  H   H84       1.0  0.26085  0.12755  0.80262  1.0000
  H   H85       1.0  0.20485  0.11410  0.85866  1.0000
  H   H86       1.0  0.22284  0.12755  0.85284  1.0000
  H   H87       1.0  0.25197  0.06962  0.83271  1.0000
  H   H88       1.0  0.23873  0.07046  0.81590  1.0000
  H   H89       1.0  0.21398  0.13189  0.79203  1.0000
  H   H90       1.0  0.23687  0.13589  0.78958  1.0000
  H   H91       1.0  0.22919  0.13609  0.75936  1.0000
  H   H92       1.0  0.24961  0.11857  0.76451  1.0000
  H   H93       1.0  0.22758  0.11203  0.76752  1.0000
  C   C74       1.0  0.13368  0.07949  0.52412  1.0000
  C   C75       1.0  0.31237  0.11442  0.78382  1.0000
  H   H94       1.0  0.27853  0.13972  0.81775  1.0000
  H   H95       1.0  0.29510  0.00800  0.85368  1.0000
  S   S26       1.0  0.27630  0.99486  0.57652  1.0000
  S   S27       1.0  0.10360  0.05757  0.49931  1.0000
  C   C76       1.0  0.09625  0.99296  0.58085  1.0000
  H   H96       1.0  0.23936  0.04116  0.83917  1.0000
  H   H97       1.0  0.01746  0.22644  0.91359  1.0000
  H   H98       1.0  0.13229  0.22504  0.57955  1.0000
  C   C77       1.0  0.28375  0.15951  0.65634  1.0000
  C   C78       1.0  0.31090  0.22567  0.69962  1.0000
  H   H99       1.0  0.22344  0.18107  0.73118  1.0000
  C   C79       1.0  0.00812  0.09010  0.50868  1.0000
  H   H100      1.0  0.00941  0.20709  0.82878  1.0000
  C   C80       1.0  0.30869  0.10087  0.77659  1.0000
  C   C81       1.0  0.19526  0.14380  0.85144  1.0000
  C   C82       1.0  0.28137  0.05456  0.67785  1.0000
  S   S28       1.0  0.31697  0.00805  0.78613  1.0000
  H   H101      1.0  0.08716  0.00714  0.57829  1.0000
  H   H102      1.0  0.08124  0.00513  0.54890  1.0000
  H   H103      1.0  0.00633  0.22272  0.80655  1.0000
  H   H104      1.0  0.18218  0.21286  0.71498  1.0000
  C   C83       1.0  0.06948  0.98621  0.63233  1.0000
  H   H105      1.0  0.29127  0.12849  0.61786  1.0000
  H   H106      1.0  0.20398  0.05669  0.51357  1.0000
  H   H107      1.0  0.30799  0.17483  0.58490  1.0000
  C   C84       1.0  0.98888  0.09477  0.48568  1.0000
  S   S29       1.0  0.27438  0.05065  0.79544  1.0000
  H   H108      1.0  0.30050  0.19658  0.75398  1.0000
  S   S30       1.0  0.30227  0.05611  0.75389  1.0000
  H   H109      1.0  0.21003  0.22981  0.73096  1.0000
  C   C85       1.0  0.13837  0.04303  0.54878  1.0000
  H   H110      1.0  0.22512  0.99474  0.64694  1.0000
  H   H111      1.0  0.12229  0.11105  0.48364  1.0000
  H   H112      1.0  0.30482  0.05622  0.54893  1.0000
  C   C86       1.0  0.30770  0.18859  0.67744  1.0000
  C   C87       1.0  0.07150  0.19752  0.82229  1.0000
  H   H113      1.0  0.04895  0.99993  0.52349  1.0000
  H   H114      1.0  0.06829  0.00090  0.63320  1.0000
  H   H115      1.0  0.10755  0.09779  0.50227  1.0000
  C   C88       1.0  0.99556  0.03111  0.56830  1.0000
  C   C89       1.0  0.07821  0.18731  0.78543  1.0000
  C   C90       1.0  0.00333  0.06350  0.49946  1.0000
  H   H116      1.0  0.31296  0.10011  0.83326  1.0000
  H   H117      1.0  0.11278  0.02970  0.61348  1.0000
  H   H118      1.0  0.04741  0.02793  0.49719  1.0000
  C   C91       1.0  0.08810  0.18529  0.76541  1.0000
  N   N6        1.0  0.06466  0.21216  0.80629  1.0000
  H   H119      1.0  0.12749  0.08590  0.48739  1.0000
  H   H120      1.0  0.06970  0.18350  0.82200  1.0000
  C   C92       1.0  0.19403  0.05702  0.50500  1.0000
  H   H121      1.0  0.21895  0.21242  0.62837  1.0000
  H   H122      1.0  0.06342  0.21384  0.84459  1.0000
  H   H123      1.0  0.19371  0.06981  0.49365  1.0000
  H   H124      1.0  0.04186  0.19778  0.81236  1.0000
  S   S31       1.0  0.01867  0.09979  0.52135  1.0000
  H   H125      1.0  0.15553  0.98698  0.59343  1.0000
  C   C93       1.0  0.02906  0.22586  0.81729  1.0000
  C   C94       1.0  0.15262  0.21746  0.89783  1.0000
  H   H126      1.0  0.06406  0.18430  0.78820  1.0000
  H   H127      1.0  0.08643  0.17652  0.79495  1.0000
  C   C95       1.0  0.09317  0.01980  0.60387  1.0000
  H   H128      1.0  0.20121  0.20059  0.68145  1.0000
  H   H129      1.0  0.07389  0.11827  0.49133  1.0000
  C   C96       1.0  0.99682  0.10205  0.49643  1.0000
  H   H130      1.0  0.20568  0.18715  0.70398  1.0000
  H   H131      1.0  0.27153  0.16140  0.66811  1.0000
  C   C97       1.0  0.99239  0.07541  0.48692  1.0000
  C   C98       1.0  0.04054  0.00303  0.53717  1.0000
  C   C99       1.0  0.07570  0.98410  0.61158  1.0000
  H   H132      1.0  0.08911  0.17085  0.76384  1.0000
  H   H133      1.0  0.99909  0.23156  0.82780  1.0000
  H   H134      1.0  0.13034  0.22476  0.92158  1.0000
  H   H135      1.0  0.25249  0.21930  0.73391  1.0000
  C   C100      1.0  0.17160  0.02823  0.61655  1.0000
  S   S32       1.0  0.27185  0.02956  0.76316  1.0000
  C   C101      1.0  0.10293  0.99880  0.60834  1.0000
  H   H136      1.0  0.29063  0.06414  0.67082  1.0000
  C   C102      1.0  0.15295  0.10774  0.72664  1.0000
  Fe  Fe15      1.0  0.29393  0.03208  0.77672  1.0000
  H   H137      1.0  0.08681  0.19620  0.82068  1.0000
  H   H138      1.0  0.20366  0.03510  0.59953  1.0000
  H   H139      1.0  0.16166  0.02276  0.62934  1.0000
  H   H140      1.0  0.17630  0.03917  0.62049  1.0000
  H   H141      1.0  0.15106  0.11500  0.77036  1.0000
  H   H142      1.0  0.31688  0.99174  0.56187  1.0000
  H   H143      1.0  0.20805  0.02480  0.63008  1.0000
  H   H144      1.0  0.14209  0.08447  0.57522  1.0000
  H   H145      1.0  0.17808  0.07551  0.77293  1.0000
  S   S33       1.0  0.29059  0.01797  0.61319  1.0000
  H   H146      1.0  0.14342  0.08003  0.75718  1.0000
  H   H147      1.0  0.30431  0.14763  0.62623  1.0000
  H   H148      1.0  0.14782  0.06457  0.61128  1.0000
  C   C103      1.0  0.09024  0.99084  0.55014  1.0000
  H   H149      1.0  0.17581  0.04309  0.52776  1.0000
  H   H150      1.0  0.12692  0.09852  0.54954  1.0000
  H   H151      1.0  0.15514  0.05461  0.56039  1.0000
  S   S34       1.0  0.25743  0.22351  0.69380  1.0000
  C   C104      1.0  0.20251  0.12529  0.72997  1.0000
  H   H152      1.0  0.10480  0.99187  0.54266  1.0000
  S   S35       1.0  0.08907  0.08341  0.57890  1.0000
  H   H153      1.0  0.07777  0.02164  0.60619  1.0000
  C   C105      1.0  0.06192  0.20044  0.84241  1.0000
  H   H154      1.0  0.19478  0.22611  0.89800  1.0000
  H   H155      1.0  0.30183  0.05183  0.52775  1.0000
  H   H156      1.0  0.28436  0.11449  0.82244  1.0000
  C   C106      1.0  0.22127  0.03213  0.56451  1.0000
  H   H157      1.0  0.21278  0.21098  0.86193  1.0000
  H   H158      1.0  0.20091  0.21446  0.77052  1.0000
  H   H159      1.0  0.21457  0.22604  0.68503  1.0000
  H   H160      1.0  0.30935  0.04382  0.82135  1.0000
  H   H161      1.0  0.18215  0.14287  0.84815  1.0000
  H   H162      1.0  0.15527  0.02886  0.59623  1.0000
  H   H163      1.0  0.31387  0.99678  0.58399  1.0000
  H   H164      1.0  0.10749  0.08294  0.60755  1.0000
  C   C107      1.0  0.12465  0.04128  0.50114  1.0000
  S   S36       1.0  0.25602  0.02105  0.66324  1.0000
  H   H165      1.0  0.25967  0.16305  0.58299  1.0000
  C   C108      1.0  0.30911  0.21382  0.58040  1.0000
  H   H166      1.0  0.20948  0.00769  0.57368  1.0000
  S   S37       1.0  0.28545  0.10096  0.77673  1.0000
  C   C109      1.0  0.15061  0.09178  0.56248  1.0000
  H   H167      1.0  0.15400  0.99970  0.62120  1.0000
  H   H168      1.0  0.11891  0.08102  0.53224  1.0000
  C   C110      1.0  0.21024  0.19797  0.69165  1.0000
  H   H169      1.0  0.16882  0.04615  0.77391  1.0000
  H   H170      1.0  0.22488  0.19252  0.68491  1.0000
  H   H171      1.0  0.09174  0.20838  0.78722  1.0000
  C   C111      1.0  0.30637  0.07592  0.61828  1.0000
  H   H172      1.0  0.17865  0.00532  0.59021  1.0000
  H   H173      1.0  0.17500  0.21716  0.60904  1.0000
  H   H174      1.0  0.21587  0.05480  0.84113  1.0000
  H   H175      1.0  0.30406  0.02230  0.55053  1.0000
  H   H176      1.0  0.20712  0.99081  0.62605  1.0000
  H   H177      1.0  0.13515  0.01454  0.56153  1.0000
  H   H178      1.0  0.30030  0.08785  0.64256  1.0000
  H   H179      1.0  0.31159  0.15655  0.76447  1.0000
  C   C112      1.0  0.19477  0.22987  0.73471  1.0000
  H   H180      1.0  0.13719  0.19008  0.92592  1.0000
  H   H181      1.0  0.20559  0.22936  0.59744  1.0000
  C   C113      1.0  0.30951  0.14968  0.73892  1.0000
  C   C114      1.0  0.30401  0.22927  0.81319  1.0000
  H   H182      1.0  0.11105  0.21695  0.63902  1.0000
  H   H183      1.0  0.14230  0.19667  0.57200  1.0000
  H   H184      1.0  0.07250  0.21728  0.77594  1.0000
  H   H185      1.0  0.15077  0.19897  0.62035  1.0000
  H   H186      1.0  0.17003  0.08607  0.51686  1.0000
  C   C115      1.0  0.14327  0.01305  0.51682  1.0000
  Fe  Fe16      1.0  0.08211  0.06110  0.52561  1.0000
  H   H187      1.0  0.16026  0.11809  0.55442  1.0000
  C   C116      1.0  0.12609  0.02597  0.51629  1.0000
  H   H188      1.0  0.18116  0.23082  0.69450  1.0000
  H   H189      1.0  0.13448  0.05857  0.59802  1.0000
  H   H190      1.0  0.31224  0.06300  0.80165  1.0000
  C   C117      1.0  0.16653  0.98925  0.61648  1.0000
  C   C118      1.0  0.13461  0.09692  0.50781  1.0000
  H   H191      1.0  0.14954  0.16226  0.57469  1.0000
  Fe  Fe17      1.0  0.07199  0.07904  0.55992  1.0000
  C   C119      1.0  0.31713  0.02774  0.54446  1.0000
  H   H192      1.0  0.13097  0.20725  0.60983  1.0000
  H   H193      1.0  0.29479  0.06884  0.62339  1.0000
  H   H194      1.0  0.11307  0.20041  0.92486  1.0000
  H   H195      1.0  0.13596  0.11995  0.56623  1.0000
  C   C120      1.0  0.15745  0.03128  0.48755  1.0000
  H   H196      1.0  0.15973  0.22110  0.74211  1.0000
  H   H197      1.0  0.31598  0.07618  0.68230  1.0000
  H   H198      1.0  0.11396  0.02395  0.52738  1.0000
  H   H199      1.0  0.04694  0.19991  0.84543  1.0000
  C   C121      1.0  0.15018  0.11099  0.56577  1.0000
  H   H200      1.0  0.10221  0.99456  0.62365  1.0000
  H   H201      1.0  0.27805  0.10465  0.60778  1.0000
  H   H202      1.0  0.12892  0.19247  0.90484  1.0000
  H   H203      1.0  0.09836  0.02601  0.58895  1.0000
  H   H204      1.0  0.28082  0.10696  0.58300  1.0000
  H   H205      1.0  0.30101  0.12508  0.78902  1.0000
  H   H206      1.0  0.24919  0.01921  0.70284  1.0000
  H   H207      1.0  0.06419  0.18765  0.87122  1.0000
  H   H208      1.0  0.14442  0.00108  0.52835  1.0000
  C   C122      1.0  0.07065  0.18482  0.85697  1.0000
  C   C123      1.0  0.28372  0.13908  0.60755  1.0000
  C   C124      1.0  0.16049  0.03867  0.60113  1.0000
  H   H209      1.0  0.22308  0.03157  0.54960  1.0000
  C   C125      1.0  0.00983  0.22144  0.82024  1.0000
  H   H210      1.0  0.25991  0.03522  0.72158  1.0000
  H   H211      1.0  0.17624  0.07085  0.53717  1.0000
  H   H212      1.0  0.21839  0.21288  0.70764  1.0000
  C   C126      1.0  0.21175  0.00262  0.65406  1.0000
  H   H213      1.0  0.31756  0.06765  0.83457  1.0000
  S   S38       1.0  0.04232  0.07423  0.56709  1.0000
  C   C127      1.0  0.13911  0.09704  0.72423  1.0000
  C   C128      1.0  0.13404  0.10423  0.70504  1.0000
  C   C129      1.0  0.11413  0.12805  0.77770  1.0000
  H   H214      1.0  0.11795  0.11966  0.75191  1.0000
  H   H215      1.0  0.12599  0.09827  0.73501  1.0000
  H   H216      1.0  0.14677  0.10228  0.69382  1.0000
  H   H217      1.0  0.12424  0.09630  0.70367  1.0000
  H   H218      1.0  0.12716  0.11927  0.70319  1.0000
  H   H219      1.0  0.12003  0.12393  0.79052  1.0000
  C   C130      1.0  0.15015  0.18757  0.58269  1.0000
  H   H220      1.0  0.09916  0.12712  0.78192  1.0000
  H   H221      1.0  0.21207  0.11450  0.72242  1.0000
  Fe  Fe18      1.0  0.05551  0.04588  0.56063  1.0000
  H   H222      1.0  0.19218  0.14537  0.86620  1.0000
  C   C131      1.0  0.12219  0.09792  0.49451  1.0000
  H   H223      1.0  0.04216  0.21576  0.79204  1.0000
  H   H224      1.0  0.11070  0.99459  0.57328  1.0000
  H   H225      1.0  0.21516  0.01185  0.66137  1.0000
  H   H226      1.0  0.26019  0.17275  0.61078  1.0000
  H   H227      1.0  0.03296  0.01789  0.53484  1.0000
  H   H228      1.0  0.20008  0.15647  0.84216  1.0000
  H   H229      1.0  0.20390  0.99261  0.66467  1.0000
  H   H230      1.0  0.32063  0.21190  0.69914  1.0000
  H   H231      1.0  0.13073  0.06462  0.56420  1.0000
  H   H232      1.0  0.12964  0.11001  0.51329  1.0000
  C   C132      1.0  0.29352  0.15987  0.62144  1.0000
  C   C133      1.0  0.25151  0.19296  0.57742  1.0000
  H   H233      1.0  0.31337  0.17976  0.70521  1.0000
  C   C134      1.0  0.01088  0.07075  0.51045  1.0000
  H   H234      1.0  0.26609  0.20442  0.76692  1.0000
  H   H235      1.0  0.14744  0.03892  0.53589  1.0000
  H   H236      1.0  0.27076  0.20392  0.78932  1.0000
  H   H237      1.0  0.29064  0.01464  0.82101  1.0000
  C   C135      1.0  0.19377  0.21981  0.88674  1.0000
  H   H238      1.0  0.11738  0.10736  0.61682  1.0000
  H   H239      1.0  0.12385  0.04685  0.54663  1.0000
  H   H240      1.0  0.16540  0.05634  0.50799  1.0000
  N   N7        1.0  0.15803  0.10309  0.74567  1.0000
  C   C136      1.0  0.26365  0.03279  0.67619  1.0000
  N   N8        1.0  0.22373  0.10684  0.65687  1.0000
  C   C137      1.0  0.24145  0.10056  0.66438  1.0000
  C   C138      1.0  0.21125  0.09293  0.66656  1.0000
  C   C139      1.0  0.22906  0.10615  0.63630  1.0000
  C   C140      1.0  0.21353  0.12655  0.65882  1.0000
  C   C141      1.0  0.21508  0.13336  0.67587  1.0000
  C   C142      1.0  0.25723  0.11136  0.65351  1.0000
  C   C143      1.0  0.21255  0.11086  0.62617  1.0000
  C   C144      1.0  0.20453  0.09055  0.68808  1.0000
  C   C145      1.0  0.19440  0.07425  0.69632  1.0000
  C   C146      1.0  0.20178  0.15220  0.67756  1.0000
  C   C147      1.0  0.27066  0.11054  0.66575  1.0000
  C   C148      1.0  0.21944  0.11392  0.60492  1.0000
  H   H241      1.0  0.24743  0.08541  0.66431  1.0000
  H   H242      1.0  0.23858  0.10135  0.67932  1.0000
  H   H243      1.0  0.19821  0.09690  0.66106  1.0000
  H   H244      1.0  0.21846  0.07886  0.66341  1.0000
  H   H245      1.0  0.23738  0.09202  0.63431  1.0000
  H   H246      1.0  0.23824  0.11618  0.62838  1.0000
  H   H247      1.0  0.21845  0.13702  0.64621  1.0000
  H   H248      1.0  0.19840  0.12830  0.65917  1.0000
  H   H249      1.0  0.22945  0.13531  0.67428  1.0000
  H   H250      1.0  0.21175  0.12330  0.68916  1.0000
  H   H251      1.0  0.26542  0.10501  0.64136  1.0000
  H   H252      1.0  0.25143  0.12629  0.64807  1.0000
  H   H253      1.0  0.20231  0.12364  0.62938  1.0000
  H   H254      1.0  0.20507  0.09919  0.63051  1.0000
  H   H255      1.0  0.21625  0.08756  0.69527  1.0000
  H   H256      1.0  0.19443  0.10338  0.69145  1.0000
  H   H257      1.0  0.20377  0.06094  0.69313  1.0000
  H   H258      1.0  0.19002  0.07258  0.71177  1.0000
  H   H259      1.0  0.18173  0.07689  0.69054  1.0000
  H   H260      1.0  0.18712  0.15112  0.67896  1.0000
  H   H261      1.0  0.20265  0.15664  0.69010  1.0000
  H   H262      1.0  0.20557  0.16314  0.66503  1.0000
  H   H263      1.0  0.27586  0.09586  0.67261  1.0000
  H   H264      1.0  0.28289  0.11645  0.65698  1.0000
  H   H265      1.0  0.26357  0.11880  0.67674  1.0000
  H   H266      1.0  0.20755  0.11558  0.59825  1.0000
  H   H267      1.0  0.22525  0.12682  0.59949  1.0000
  H   H268      1.0  0.23031  0.10171  0.60100  1.0000
  N   N9        1.0  0.28063  0.16149  0.72378  1.0000
  C   C149      1.0  0.29215  0.16548  0.70407  1.0000
  C   C150      1.0  0.27754  0.14175  0.72809  1.0000
  C   C151      1.0  0.26237  0.17563  0.72468  1.0000
  C   C152      1.0  0.29037  0.16325  0.73798  1.0000
  H   H269      1.0  0.18405  0.99536  0.63969  1.0000
  C   C153      1.0  0.30110  0.18290  0.69870  1.0000
  C   C154      1.0  0.24800  0.17331  0.74359  1.0000
  C   C155      1.0  0.26487  0.13837  0.71675  1.0000
  C   C156      1.0  0.26487  0.11757  0.71996  1.0000
  C   C157      1.0  0.30428  0.00802  0.82409  1.0000
  S   S39       1.0  0.31392  0.06132  0.58676  1.0000
  C   C158      1.0  0.22883  0.18538  0.74133  1.0000
  H   H270      1.0  0.28343  0.16745  0.69373  1.0000
  H   H271      1.0  0.30365  0.15329  0.70125  1.0000
  H   H272      1.0  0.29118  0.13176  0.72547  1.0000
  H   H273      1.0  0.27178  0.13707  0.74330  1.0000
  H   H274      1.0  0.25556  0.17594  0.71323  1.0000
  H   H275      1.0  0.26488  0.19000  0.72193  1.0000
  H   H276      1.0  0.29208  0.17790  0.73566  1.0000
  H   H277      1.0  0.28163  0.16034  0.75237  1.0000
  C   C159      1.0  0.20008  0.01455  0.63982  1.0000
  H   H278      1.0  0.30741  0.13525  0.74574  1.0000
  H   H279      1.0  0.29116  0.19512  0.70354  1.0000
  H   H280      1.0  0.06835  0.17106  0.85652  1.0000
  H   H281      1.0  0.25244  0.17783  0.75426  1.0000
  H   H282      1.0  0.24634  0.15869  0.74911  1.0000
  H   H283      1.0  0.25019  0.14578  0.72104  1.0000
  H   H284      1.0  0.26971  0.14336  0.70151  1.0000
  H   H285      1.0  0.27911  0.10949  0.71517  1.0000
  H   H286      1.0  0.25996  0.11186  0.73499  1.0000
  H   H287      1.0  0.25534  0.11561  0.71209  1.0000
  H   H288      1.0  0.31831  0.09666  0.85583  1.0000
  H   H289      1.0  0.22388  0.20957  0.88068  1.0000
  H   H290      1.0  0.30413  0.15798  0.57502  1.0000
  H   H291      1.0  0.08590  0.18409  0.85443  1.0000
  C   C160      1.0  0.20909  0.21608  0.69766  1.0000
  H   H292      1.0  0.19913  0.04457  0.49844  1.0000
  H   H293      1.0  0.21868  0.18382  0.75493  1.0000
  H   H294      1.0  0.22983  0.20030  0.73645  1.0000
  C   C161      1.0  0.31777  0.22403  0.73111  1.0000
  H   H295      1.0  0.16819  0.15972  0.58630  1.0000
  C   C162      1.0  0.27587  0.05090  0.69747  1.0000
  C   C163      1.0  0.17373  0.19241  0.64544  1.0000
  H   H296      1.0  0.16110  0.18697  0.65004  1.0000
  H   H297      1.0  0.14546  0.13114  0.75017  1.0000
  H   H298      1.0  0.31266  0.11895  0.70081  1.0000
  C   C164      1.0  0.12468  0.11508  0.76415  1.0000
  C   C165      1.0  0.20637  0.20681  0.63334  1.0000
  C   C166      1.0  0.18867  0.22476  0.70628  1.0000
  C   C167      1.0  0.14354  0.21128  0.61122  1.0000
  H   H299      1.0  0.14732  0.12308  0.72244  1.0000
  H   H300      1.0  0.16165  0.20872  0.90768  1.0000
  C   C168      1.0  0.09498  0.10188  0.58532  1.0000
  H   H301      1.0  0.30393  0.11112  0.68481  1.0000
  H   H302      1.0  0.14757  0.23170  0.62536  1.0000
  C   C169      1.0  0.29413  0.22444  0.76114  1.0000
  H   H303      1.0  0.26770  0.17585  0.63609  1.0000
  C   C170      1.0  0.19872  0.22998  0.76695  1.0000
  S   S40       1.0  0.24315  0.21973  0.64942  1.0000
  C   C171      1.0  0.17447  0.20858  0.65084  1.0000
  C   C172      1.0  0.19074  0.21596  0.64468  1.0000
  H   H304      1.0  0.16237  0.21544  0.65976  1.0000
  C   C173      1.0  0.15297  0.23281  0.73224  1.0000
  H   H305      1.0  0.20559  0.12272  0.74408  1.0000
  C   C174      1.0  0.27692  0.16171  0.63848  1.0000
  H   H306      1.0  0.16565  0.10462  0.71558  1.0000
  Fe  Fe19      1.0  0.27846  0.05537  0.74195  1.0000
  C   C175      1.0  0.14549  0.11642  0.75774  1.0000
  H   H307      1.0  0.17345  0.13612  0.73902  1.0000
  H   H308      1.0  0.17932  0.12828  0.71733  1.0000
  C   C176      1.0  0.26422  0.03816  0.70646  1.0000
  C   C177      1.0  0.14031  0.04379  0.48677  1.0000
  H   H309      1.0  0.17786  0.22391  0.86594  1.0000
  C   C178      1.0  0.25721  0.98507  0.57716  1.0000
  H   H310      1.0  0.28430  0.14000  0.57770  1.0000
  H   H311      1.0  0.27646  0.18725  0.59844  1.0000
  H   H312      1.0  0.13107  0.02925  0.57811  1.0000
  N   N10       1.0  0.18800  0.01275  0.61155  1.0000
  H   H313      1.0  0.30264  0.12307  0.58708  1.0000
  H   H314      1.0  0.14003  0.18376  0.59589  1.0000
  N   N11       1.0  0.09554  0.98563  0.60162  1.0000
  C   C179      1.0  0.17787  0.10541  0.74269  1.0000
  C   C180      1.0  0.10453  0.09731  0.60006  1.0000
  C   C181      1.0  0.00925  0.22965  0.97340  1.0000
  H   H315      1.0  0.19137  0.20541  0.89303  1.0000
  C   C182      1.0  0.15753  0.08288  0.75505  1.0000
  H   H316      1.0  0.16702  0.07352  0.74571  1.0000
  C   C183      1.0  0.16008  0.16937  0.57602  1.0000
  C   C184      1.0  0.10274  0.22821  0.83372  1.0000
  C   C185      1.0  0.27622  0.19834  0.77628  1.0000
  S   S41       1.0  0.18096  0.00071  0.50253  1.0000
  H   H317      1.0  0.01943  0.99295  0.56004  1.0000
  H   H318      1.0  0.12295  0.10070  0.77151  1.0000
  H   H319      1.0  0.13481  0.04611  0.62166  1.0000
  H   H320      1.0  0.18179  0.10311  0.75635  1.0000
  H   H321      1.0  0.20519  0.13932  0.72220  1.0000
  N   N12       1.0  0.31161  0.23083  0.74926  1.0000
  C   C186      1.0  0.27286  0.17367  0.59935  1.0000
  C   C187      1.0  0.25813  0.02913  0.69582  1.0000
  C   C188      1.0  0.09745  0.03109  0.61564  1.0000
  S   S42       1.0  0.09212  0.21605  0.89053  1.0000
  H   H322      1.0  0.26919  0.12663  0.84042  1.0000
  H   H323      1.0  0.19833  0.20488  0.58512  1.0000
  H   H324      1.0  0.11504  0.14280  0.77092  1.0000
  C   C189      1.0  0.16308  0.07585  0.77439  1.0000
  H   H325      1.0  0.14526  0.05529  0.78570  1.0000
  H   H326      1.0  0.21763  0.04704  0.56565  1.0000
  H   H327      1.0  0.24657  0.19343  0.56471  1.0000
  H   H328      1.0  0.16967  0.17226  0.56216  1.0000
  C   C190      1.0  0.28761  0.12984  0.59045  1.0000
  S   S43       1.0  0.08481  0.04974  0.55527  1.0000
  C   C191      1.0  0.14342  0.05283  0.60853  1.0000
  H   H329      1.0  0.15452  0.08485  0.78434  1.0000
  H   H330      1.0  0.00727  0.21849  0.96814  1.0000
  H   H331      1.0  0.31312  0.08495  0.71094  1.0000
  Fe  Fe20      1.0  0.04261  0.08275  0.53594  1.0000
  C   C192      1.0  0.16023  0.05588  0.78316  1.0000
  H   H332      1.0  0.06562  0.99508  0.60431  1.0000
  H   H333      1.0  0.16938  0.04649  0.58914  1.0000
  H   H334      1.0  0.15468  0.20903  0.88713  1.0000
  H   H335      1.0  0.09104  0.04616  0.61134  1.0000
  H   H336      1.0  0.02285  0.99640  0.60434  1.0000
  C   C193      1.0  0.30598  0.16013  0.58826  1.0000
  H   H337      1.0  0.16464  0.05115  0.79681  1.0000
  C   C194      1.0  0.20576  0.02201  0.57660  1.0000
  H   H338      1.0  0.27789  0.17536  0.56882  1.0000
  S   S44       1.0  0.05428  0.05393  0.53035  1.0000
  H   H339      1.0  0.04711  0.06127  0.49362  1.0000
  C   C195      1.0  0.27617  0.11479  0.59452  1.0000
  C   C196      1.0  0.16702  0.07318  0.52722  1.0000
  H   H340      1.0  0.25753  0.20552  0.57497  1.0000
  H   H341      1.0  0.22939  0.05357  0.85806  1.0000
  C   C197      1.0  0.13992  0.02580  0.56472  1.0000
  H   H342      1.0  0.14737  0.10535  0.53420  1.0000
  H   H343      1.0  0.23478  0.02534  0.56887  1.0000
  C   C198      1.0  0.21275  0.21804  0.87308  1.0000
  H   H344      1.0  0.10247  0.18793  0.76215  1.0000
  C   C199      1.0  0.13231  0.21863  0.90925  1.0000
  H   H345      1.0  0.09152  0.02630  0.63074  1.0000
  C   C200      1.0  0.26626  0.17504  0.58130  1.0000
  H   H346      1.0  0.26855  0.15100  0.64088  1.0000
  C   C201      1.0  0.17449  0.05646  0.51721  1.0000
  C   C202      1.0  0.04463  0.21217  0.80656  1.0000
  H   H347      1.0  0.27804  0.22002  0.81970  1.0000
  C   C203      1.0  0.07711  0.20718  0.78829  1.0000
  H   H348      1.0  0.23930  0.19346  0.58939  1.0000
  H   H349      1.0  0.17247  0.18728  0.59568  1.0000
  C   C204      1.0  0.32107  0.19099  0.81927  1.0000
  C   C205      1.0  0.29536  0.20296  0.76646  1.0000
  H   H350      1.0  0.29319  0.21720  0.72634  1.0000
  H   H351      1.0  0.27749  0.18290  0.78011  1.0000
  C   C206      1.0  0.09570  0.22962  0.85251  1.0000
  H   H352      1.0  0.26865  0.14019  0.61443  1.0000
  S   S45       1.0  0.27310  0.22477  0.59759  1.0000
  C   C207      1.0  0.12771  0.19915  0.91665  1.0000
  C   C208      1.0  0.01525  0.00601  0.59422  1.0000
  H   H353      1.0  0.19383  0.21482  0.73919  1.0000
  H   H354      1.0  0.12214  0.22702  0.90055  1.0000
  C   C209      1.0  0.16442  0.19742  0.58560  1.0000
  H   H355      1.0  0.18719  0.02258  0.64753  1.0000
  H   H356      1.0  0.15053  0.22678  0.72141  1.0000
  C   C210      1.0  0.06739  0.23095  0.80707  1.0000
  H   H357      1.0  0.29984  0.17235  0.61848  1.0000
  H   H358      1.0  0.00527  0.22767  0.89569  1.0000
  H   H359      1.0  0.17473  0.19924  0.57215  1.0000
  H   H360      1.0  0.14083  0.22721  0.86447  1.0000
  H   H361      1.0  0.19017  0.22280  0.56653  1.0000
  H   H362      1.0  0.30496  0.19616  0.77627  1.0000
  H   H363      1.0  0.31765  0.03844  0.65586  1.0000
  H   H364      1.0  0.03513  0.23271  0.95342  1.0000
  H   H365      1.0  0.30793  0.13007  0.84227  1.0000
  C   C211      1.0  0.30951  0.08675  0.62912  1.0000
  C   C212      1.0  0.31648  0.11018  0.69020  1.0000
  C   C213      1.0  0.19126  0.21981  0.58134  1.0000
  H   H366      1.0  0.16212  0.22285  0.55250  1.0000
  H   H367      1.0  0.03139  0.22555  0.83118  1.0000
  H   H368      1.0  0.03968  0.99053  0.63314  1.0000
  H   H369      1.0  0.26333  0.98725  0.54726  1.0000
  H   H370      1.0  0.07055  0.03145  0.49516  1.0000
  H   H371      1.0  0.29019  0.22914  0.77467  1.0000
  H   H372      1.0  0.12526  0.23074  0.74899  1.0000
  H   H373      1.0  0.31583  0.19971  0.67401  1.0000
  C   C214      1.0  0.31947  0.04936  0.80887  1.0000
  C   C215      1.0  0.31813  0.07435  0.60086  1.0000
  C   C216      1.0  0.17188  0.22338  0.59486  1.0000
  H   H374      1.0  0.29960  0.22697  0.69226  1.0000
  H   H375      1.0  0.21796  0.22836  0.57375  1.0000
  C   C217      1.0  0.02654  0.99022  0.54595  1.0000
  C   C218      1.0  0.32016  0.15544  0.75025  1.0000
  H   H376      1.0  0.31113  0.23058  0.63807  1.0000
  C   C219      1.0  0.32177  0.20062  0.61397  1.0000
  H   H377      1.0  0.31683  0.17646  0.67162  1.0000
  H   H378      1.0  0.31878  0.02760  0.57215  1.0000
  C   C220      1.0  0.30232  0.22754  0.71988  1.0000
  H   H379      1.0  0.31846  0.14922  0.72486  1.0000
  H   H380      1.0  0.13103  0.20877  0.64994  1.0000
  H   H381      1.0  0.01596  0.99424  0.53711  1.0000
  H   H382      1.0  0.28207  0.23120  0.75423  1.0000
  H   H383      1.0  0.00601  0.04850  0.50070  1.0000
  H   H384      1.0  0.32093  0.07689  0.76400  1.0000
  C   C221      1.0  0.17789  0.23170  0.87651  1.0000
  C   C222      1.0  0.12330  0.22094  0.64115  1.0000
  C   C223      1.0  0.14503  0.22984  0.57935  1.0000
  H   H385      1.0  0.11815  0.23254  0.64887  1.0000
  C   C224      1.0  0.05215  0.05510  0.48107  1.0000
  C   C225      1.0  0.13603  0.22728  0.62233  1.0000
  H   H386      1.0  0.21609  0.23208  0.86645  1.0000
  C   C226      1.0  0.31937  0.00325  0.80965  1.0000
  C   C227      1.0  0.20391  0.23188  0.58280  1.0000
  H   H387      1.0  0.32070  0.23305  0.65641  1.0000
  H   H388      1.0  0.04579  0.98362  0.65578  1.0000
  Fe  Fe21      1.0  0.03053  0.46524  0.14432  1.0000
  S   S46       1.0  0.04524  0.47067  0.11424  1.0000
  S   S47       1.0  0.00417  0.45315  0.15246  1.0000
  H   H389      1.0  0.01644  0.26956  0.99193  1.0000
  H   H390      1.0  0.18078  0.47939  0.07270  1.0000
  S   S48       1.0  0.99848  0.38575  0.12008  1.0000
  H   H391      1.0  0.06154  0.30515  0.99043  1.0000
  C   C228      1.0  0.15997  0.40867  0.03355  1.0000
  Fe  Fe22      1.0  0.07167  0.46297  0.12497  1.0000
  S   S49       1.0  0.09793  0.44572  0.11072  1.0000
  H   H392      1.0  0.03006  0.37944  0.15638  1.0000
  S   S50       1.0  0.05725  0.45491  0.15506  1.0000
  H   H393      1.0  0.12218  0.40126  0.02169  1.0000
  H   H394      1.0  0.11487  0.39241  0.05875  1.0000
  H   H395      1.0  0.11164  0.42447  0.04185  1.0000
  S   S51       1.0  0.18308  0.46505  0.03560  1.0000
  C   C229      1.0  0.00474  0.46279  0.09078  1.0000
  H   H396      1.0  0.16373  0.39325  0.03882  1.0000
  C   C230      1.0  0.02154  0.30786  0.05358  1.0000
  Fe  Fe23      1.0  0.19405  0.46169  0.00563  1.0000
  H   H397      1.0  0.02082  0.32387  0.07381  1.0000
  C   C231      1.0  0.13983  0.45008  0.01697  1.0000
  H   H398      1.0  0.99773  0.29538  0.05731  1.0000
  H   H399      1.0  0.00528  0.46816  0.07555  1.0000
  C   C232      1.0  0.17283  0.45866  0.09771  1.0000
  C   C233      1.0  0.04337  0.28493  0.00244  1.0000
  H   H400      1.0  0.13601  0.39239  0.06527  1.0000
  H   H401      1.0  0.00488  0.23393  0.03803  1.0000
  H   H402      1.0  0.15471  0.41353  0.06221  1.0000
  H   H403      1.0  0.14426  0.46435  0.98763  1.0000
  C   C234      1.0  0.98950  0.43247  0.04619  1.0000
  C   C235      1.0  0.17946  0.44327  0.08641  1.0000
  C   C236      1.0  0.14965  0.39373  0.00440  1.0000
  C   C237      1.0  0.00121  0.31891  0.01581  1.0000
  H   H404      1.0  0.00098  0.42783  0.03468  1.0000
  H   H405      1.0  0.03334  0.29291  0.99340  1.0000
  H   H406      1.0  0.07317  0.28197  0.00074  1.0000
  C   C238      1.0  0.01454  0.25827  0.98699  1.0000
  C   C239      1.0  0.02749  0.38068  0.17120  1.0000
  H   H407      1.0  0.15064  0.42885  0.00109  1.0000
  C   C240      1.0  0.01709  0.40977  0.12560  1.0000
  H   H408      1.0  0.21529  0.44731  0.26284  1.0000
  H   H409      1.0  0.01835  0.27954  0.06262  1.0000
  C   C241      1.0  0.19030  0.42859  0.98108  1.0000
  H   H410      1.0  0.98903  0.23419  0.06047  1.0000
  H   H411      1.0  0.18748  0.39580  0.05491  1.0000
  H   H412      1.0  0.02032  0.26167  0.02273  1.0000
  H   H413      1.0  0.02377  0.41537  0.05678  1.0000
  H   H414      1.0  0.15678  0.47816  0.07878  1.0000
  H   H415      1.0  0.03700  0.30343  0.05159  1.0000
  H   H416      1.0  0.99452  0.40382  0.06303  1.0000
  H   H417      1.0  0.16038  0.43309  0.04411  1.0000
  S   S52       1.0  0.20019  0.43312  0.99783  1.0000
  C   C242      1.0  0.20702  0.47618  0.26622  1.0000
  H   H418      1.0  0.12585  0.43308  0.00862  1.0000
  H   H419      1.0  0.11833  0.41498  0.08560  1.0000
  H   H420      1.0  0.13890  0.38516  0.03395  1.0000
  H   H421      1.0  0.99907  0.32023  0.17078  1.0000
  H   H422      1.0  0.04700  0.47176  0.00701  1.0000
  C   C243      1.0  0.13699  0.39833  0.02314  1.0000
  H   H423      1.0  0.99331  0.32219  0.98927  1.0000
  H   H424      1.0  0.14869  0.48138  0.12015  1.0000
  H   H425      1.0  0.17064  0.41161  0.02042  1.0000
  H   H426      1.0  0.12774  0.42923  0.05204  1.0000
  H   H427      1.0  0.04751  0.28116  0.03056  1.0000
  C   C244      1.0  0.12239  0.48255  0.05623  1.0000
  H   H428      1.0  0.15431  0.45011  0.01745  1.0000
  C   C245      1.0  0.00210  0.23839  0.05155  1.0000
  H   H429      1.0  0.31792  0.47085  0.34285  1.0000
  C   C246      1.0  0.11074  0.40732  0.08047  1.0000
  H   H430      1.0  0.09712  0.41653  0.07816  1.0000
  C   C247      1.0  0.99951  0.40620  0.12675  1.0000
  C   C248      1.0  0.18383  0.41127  0.05027  1.0000
  H   H431      1.0  0.15089  0.36359  0.01194  1.0000
  C   C249      1.0  0.03689  0.28968  0.02224  1.0000
  H   H432      1.0  0.02963  0.40076  0.11954  1.0000
  H   H433      1.0  0.03233  0.42691  0.13208  1.0000
  H   H434      1.0  0.02969  0.25759  0.04291  1.0000
  H   H435      1.0  0.18202  0.42937  0.09597  1.0000
  C   C250      1.0  0.01317  0.29182  0.05201  1.0000
  C   C251      1.0  0.21484  0.46161  0.25392  1.0000
  H   H436      1.0  0.16868  0.44353  0.07884  1.0000
  H   H437      1.0  0.01486  0.32261  0.00833  1.0000
  H   H438      1.0  0.10794  0.39482  0.09155  1.0000
  H   H439      1.0  0.99584  0.26344  0.06215  1.0000
  H   H440      1.0  0.12000  0.46654  0.99939  1.0000
  N   N13       1.0  0.14057  0.41428  0.02935  1.0000
  C   C252      1.0  0.03990  0.47822  0.99508  1.0000
  H   H441      1.0  0.15575  0.37327  0.98711  1.0000
  H   H442      1.0  0.07907  0.46016  0.02024  1.0000
  C   C253      1.0  0.01192  0.41914  0.06834  1.0000
  C   C254      1.0  0.99846  0.47893  0.10112  1.0000
  H   H443      1.0  0.13202  0.37717  0.00033  1.0000
  H   H444      1.0  0.04502  0.26974  0.00329  1.0000
  C   C255      1.0  0.09662  0.47694  0.08254  1.0000
  C   C256      1.0  0.99282  0.38183  0.17646  1.0000
  H   H445      1.0  0.01756  0.30025  0.08410  1.0000
  H   H446      1.0  0.00992  0.37222  0.19786  1.0000
  C   C257      1.0  0.13907  0.43113  0.01339  1.0000
  H   H447      1.0  0.01017  0.47812  0.21320  1.0000
  H   H448      1.0  0.19272  0.44514  0.07612  1.0000
  C   C258      1.0  0.10732  0.45971  0.08964  1.0000
  C   C259      1.0  0.12558  0.45383  0.07994  1.0000
  C   C260      1.0  0.13311  0.46529  0.06324  1.0000
  C   C261      1.0  0.12244  0.40121  0.06243  1.0000
  H   H449      1.0  0.18597  0.41775  0.06087  1.0000
  C   C262      1.0  0.16863  0.47828  0.08476  1.0000
  H   H450      1.0  0.13394  0.44056  0.08548  1.0000
  H   H451      1.0  0.14715  0.46079  0.05583  1.0000
  H   H452      1.0  0.08250  0.48153  0.08989  1.0000
  H   H453      1.0  0.99890  0.31805  0.07547  1.0000
  H   H454      1.0  0.02445  0.39576  0.17173  1.0000
  C   C263      1.0  0.01123  0.37153  0.18309  1.0000
  H   H455      1.0  0.07391  0.46797  0.04192  1.0000
  C   C264      1.0  0.13423  0.46604  0.00100  1.0000
  H   H456      1.0  0.99715  0.44930  0.00713  1.0000
  H   H457      1.0  0.13021  0.45338  0.03003  1.0000
  C   C265      1.0  0.99971  0.25962  0.04824  1.0000
  H   H458      1.0  0.22925  0.46273  0.24596  1.0000
  H   H459      1.0  0.16002  0.45573  0.10820  1.0000
  C   C266      1.0  0.01866  0.42457  0.13274  1.0000
  C   C267      1.0  0.00264  0.43576  0.14145  1.0000
  C   C268      1.0  0.00272  0.29749  0.02212  1.0000
  H   H460      1.0  0.05183  0.45461  0.98218  1.0000
  C   C269      1.0  0.16349  0.41767  0.04815  1.0000
  H   H461      1.0  0.00235  0.35366  0.15710  1.0000
  C   C270      1.0  0.12532  0.41834  0.04614  1.0000
  S   S53       1.0  0.21507  0.47985  0.00030  1.0000
  C   C271      1.0  0.06236  0.28989  0.99252  1.0000
  H   H462      1.0  0.20578  0.46360  0.24388  1.0000
  C   C272      1.0  0.01785  0.26608  0.03619  1.0000
  C   C273      1.0  0.14683  0.37582  0.00083  1.0000
  C   C274      1.0  0.99345  0.41833  0.06440  1.0000
  H   H463      1.0  0.09688  0.46699  0.02721  1.0000
  H   H464      1.0  0.01158  0.43338  0.06999  1.0000
  C   C275      1.0  0.01424  0.31272  0.07294  1.0000
  H   H465      1.0  0.01893  0.45497  0.09276  1.0000
  H   H466      1.0  0.99570  0.38357  0.16101  1.0000
  H   H467      1.0  0.01429  0.40905  0.08155  1.0000
  N   N14       1.0  0.01763  0.28673  0.03297  1.0000
  H   H468      1.0  0.16464  0.39183  0.00451  1.0000
  C   C276      1.0  0.99607  0.23600  0.98850  1.0000
  H   H469      1.0  0.03808  0.30439  0.02024  1.0000
  H   H470      1.0  0.18392  0.45749  0.10525  1.0000
  H   H471      1.0  0.99503  0.45293  0.09646  1.0000
  H   H472      1.0  0.19346  0.41561  0.03682  1.0000
  H   H473      1.0  0.04041  0.37359  0.17656  1.0000
  H   H474      1.0  0.00430  0.29169  0.00964  1.0000
  H   H475      1.0  0.21628  0.47317  0.27624  1.0000
  C   C277      1.0  0.99020  0.32995  0.16123  1.0000
  H   H476      1.0  0.14625  0.40512  0.99235  1.0000
  H   H477      1.0  0.99690  0.32813  0.14669  1.0000
  H   H478      1.0  0.01824  0.32079  0.04301  1.0000
  C   C278      1.0  0.99876  0.25031  0.99535  1.0000
  H   H479      1.0  0.99778  0.47280  0.11618  1.0000
  H   H480      1.0  0.19282  0.47418  0.27393  1.0000
  H   H481      1.0  0.01500  0.35662  0.18200  1.0000
  C   C279      1.0  0.31838  0.48219  0.34938  1.0000
  H   H482      1.0  0.07671  0.47256  0.98229  1.0000
  H   H483      1.0  0.13433  0.47954  0.00403  1.0000
  C   C280      1.0  0.08177  0.47012  0.02715  1.0000
  H   H484      1.0  0.99139  0.44645  0.04665  1.0000
  H   H485      1.0  0.20296  0.39915  0.98595  1.0000
  H   H486      1.0  0.04375  0.48030  0.05756  1.0000
  H   H487      1.0  0.02553  0.47542  0.99943  1.0000
  H   H488      1.0  0.99560  0.32554  0.02816  1.0000
  H   H489      1.0  0.98963  0.34351  0.19172  1.0000
  H   H490      1.0  0.98871  0.29559  0.03061  1.0000
  H   H491      1.0  0.98868  0.25526  0.00701  1.0000
  H   H492      1.0  0.98985  0.39630  0.17886  1.0000
  H   H493      1.0  0.27479  0.48287  0.23132  1.0000
  H   H494      1.0  0.30012  0.48195  0.07953  1.0000
  H   H495      1.0  0.28444  0.26212  0.87188  1.0000
  H   H496      1.0  0.21090  0.45984  0.91016  1.0000
  C   C281      1.0  0.99511  0.29305  0.86433  1.0000
  H   H497      1.0  0.19197  0.23536  0.77997  1.0000
  C   C282      1.0  0.06089  0.33530  0.87816  1.0000
  Fe  Fe24      1.0  0.04618  0.27844  0.89391  1.0000
  S   S54       1.0  0.05521  0.29183  0.91218  1.0000
  S   S55       1.0  0.01926  0.29359  0.88487  1.0000
  Fe  Fe25      1.0  0.08439  0.28200  0.89686  1.0000
  S   S56       1.0  0.10831  0.29727  0.88612  1.0000
  S   S57       1.0  0.07507  0.27142  0.87648  1.0000
  H   H498      1.0  0.28882  0.28861  0.74785  1.0000
  S   S58       1.0  0.05918  0.41716  0.82830  1.0000
  H   H499      1.0  0.11982  0.35716  0.87537  1.0000
  H   H500      1.0  0.07859  0.37153  0.80139  1.0000
  Fe  Fe26      1.0  0.08697  0.41216  0.80882  1.0000
  S   S59       1.0  0.10955  0.38797  0.81817  1.0000
  C   C283      1.0  0.06352  0.37113  0.80434  1.0000
  Fe  Fe27      1.0  0.16341  0.39153  0.92751  1.0000
  S   S60       1.0  0.13806  0.39713  0.91510  1.0000
  S   S61       1.0  0.16013  0.41544  0.94217  1.0000
  Fe  Fe28      1.0  0.18247  0.35932  0.90661  1.0000
  S   S62       1.0  0.15877  0.36356  0.89254  1.0000
  S   S63       1.0  0.20660  0.33582  0.89907  1.0000
  Fe  Fe29      1.0  0.15848  0.39390  0.88830  1.0000
  S   S64       1.0  0.15372  0.41509  0.86226  1.0000
  Fe  Fe30      1.0  0.14081  0.36603  0.92083  1.0000
  S   S65       1.0  0.11523  0.35306  0.93238  1.0000
  S   S66       1.0  0.18375  0.38977  0.89997  1.0000
  S   S67       1.0  0.16446  0.36025  0.93562  1.0000
  H   H501      1.0  0.12769  0.23970  0.61448  1.0000
  H   H502      1.0  0.13817  0.45280  0.77829  1.0000
  C   C284      1.0  0.00472  0.30197  0.94922  1.0000
  Fe  Fe31      1.0  0.23133  0.29582  0.80881  1.0000
  S   S68       1.0  0.21885  0.32426  0.81630  1.0000
  Fe  Fe32      1.0  0.24286  0.27623  0.77513  1.0000
  S   S69       1.0  0.24639  0.28278  0.74365  1.0000
  S   S70       1.0  0.21559  0.28462  0.79454  1.0000
  S   S71       1.0  0.25789  0.29023  0.78750  1.0000
  C   C285      1.0  0.08808  0.42104  0.88601  1.0000
  H   H503      1.0  0.98950  0.45597  0.97636  1.0000
  H   H504      1.0  0.11591  0.41316  0.97451  1.0000
  H   H505      1.0  0.08780  0.25845  0.78508  1.0000
  S   S72       1.0  0.22684  0.26054  0.66204  1.0000
  H   H506      1.0  0.10289  0.36747  0.86090  1.0000
  H   H507      1.0  0.31380  0.35058  0.53596  1.0000
  H   H508      1.0  0.08324  0.46005  0.92842  1.0000
  Fe  Fe33      1.0  0.24516  0.27266  0.63526  1.0000
  S   S73       1.0  0.24854  0.30285  0.62737  1.0000
  C   C286      1.0  0.26114  0.33156  0.86797  1.0000
  H   H509      1.0  0.09820  0.40646  0.96703  1.0000
  C   C287      1.0  0.10496  0.36412  0.87546  1.0000
  C   C288      1.0  0.04226  0.31959  0.83522  1.0000
  H   H510      1.0  0.10945  0.43821  0.89949  1.0000
  C   C289      1.0  0.14161  0.24788  0.54667  1.0000
  C   C290      1.0  0.19925  0.47259  0.87789  1.0000
  H   H511      1.0  0.14076  0.27270  0.89892  1.0000
  H   H512      1.0  0.27519  0.32707  0.87141  1.0000
  C   C291      1.0  0.24908  0.26586  0.73041  1.0000
  C   C292      1.0  0.12845  0.25432  0.85051  1.0000
  C   C293      1.0  0.14510  0.26696  0.92676  1.0000
  H   H513      1.0  0.23293  0.42952  0.91839  1.0000
  C   C294      1.0  0.25356  0.25874  0.69972  1.0000
  C   C295      1.0  0.25116  0.27166  0.71092  1.0000
  H   H514      1.0  0.29172  0.34982  0.56432  1.0000
  C   C296      1.0  0.17528  0.45056  0.76101  1.0000
  H   H515      1.0  0.25522  0.26346  0.68469  1.0000
  H   H516      1.0  0.25090  0.28628  0.70440  1.0000
  C   C297      1.0  0.27047  0.30693  0.61353  1.0000
  C   C298      1.0  0.28305  0.29312  0.60473  1.0000
  C   C299      1.0  0.30012  0.29671  0.59321  1.0000
  C   C300      1.0  0.30493  0.31408  0.59033  1.0000
  C   C301      1.0  0.29255  0.32785  0.59940  1.0000
  C   C302      1.0  0.27527  0.32434  0.61083  1.0000
  H   H517      1.0  0.27941  0.27981  0.60637  1.0000
  H   H518      1.0  0.21134  0.24856  0.70099  1.0000
  H   H519      1.0  0.29618  0.34123  0.59751  1.0000
  H   H520      1.0  0.26563  0.33508  0.61766  1.0000
  C   C303      1.0  0.07887  0.39425  0.92391  1.0000
  H   H521      1.0  0.00204  0.36920  0.84696  1.0000
  H   H522      1.0  0.28309  0.37557  0.58161  1.0000
  C   C304      1.0  0.20883  0.33232  0.87638  1.0000
  C   C305      1.0  0.21694  0.31456  0.87221  1.0000
  C   C306      1.0  0.21939  0.31175  0.85398  1.0000
  C   C307      1.0  0.21433  0.32680  0.83969  1.0000
  C   C308      1.0  0.20612  0.34451  0.84390  1.0000
  C   C309      1.0  0.20323  0.34724  0.86219  1.0000
  H   H523      1.0  0.22121  0.30295  0.88314  1.0000
  H   H524      1.0  0.22546  0.29800  0.85096  1.0000
  H   H525      1.0  0.20219  0.35622  0.83293  1.0000
  H   H526      1.0  0.19711  0.36103  0.86521  1.0000
  H   H527      1.0  0.25256  0.32131  0.87692  1.0000
  C   C310      1.0  0.12168  0.39494  0.83108  1.0000
  C   C311      1.0  0.13766  0.38302  0.83677  1.0000
  C   C312      1.0  0.14739  0.38892  0.84682  1.0000
  C   C313      1.0  0.14157  0.40702  0.85044  1.0000
  C   C314      1.0  0.12574  0.41887  0.84468  1.0000
  C   C315      1.0  0.11544  0.41256  0.83570  1.0000
  H   H528      1.0  0.14252  0.36929  0.83345  1.0000
  H   H529      1.0  0.15971  0.37971  0.85123  1.0000
  H   H530      1.0  0.12106  0.43276  0.84772  1.0000
  H   H531      1.0  0.10240  0.42119  0.83287  1.0000
  C   C316      1.0  0.11019  0.31164  0.90021  1.0000
  C   C317      1.0  0.12726  0.31687  0.89753  1.0000
  C   C318      1.0  0.12905  0.32900  0.90781  1.0000
  C   C319      1.0  0.11365  0.33644  0.92057  1.0000
  C   C320      1.0  0.09665  0.33083  0.92366  1.0000
  C   C321      1.0  0.09494  0.31836  0.91359  1.0000
  H   H532      1.0  0.13919  0.31149  0.88755  1.0000
  H   H533      1.0  0.14240  0.33254  0.90586  1.0000
  H   H534      1.0  0.08472  0.33632  0.93369  1.0000
  H   H535      1.0  0.08174  0.31430  0.91591  1.0000
  C   C322      1.0  0.00521  0.37224  0.78158  1.0000
  C   C323      1.0  0.02029  0.38111  0.77234  1.0000
  C   C324      1.0  0.02556  0.39287  0.78082  1.0000
  C   C325      1.0  0.01545  0.39618  0.79842  1.0000
  H   H536      1.0  0.29087  0.25881  0.77138  1.0000
  H   H537      1.0  0.31867  0.23700  0.69215  1.0000
  H   H538      1.0  0.02779  0.37907  0.75847  1.0000
  H   H539      1.0  0.03707  0.39978  0.77353  1.0000
  H   H540      1.0  0.00153  0.29690  0.92372  1.0000
  H   H541      1.0  0.05005  0.33372  0.89130  1.0000
  H   H542      1.0  0.18217  0.24506  0.86836  1.0000
  H   H543      1.0  0.31557  0.25706  0.76863  1.0000
  C   C326      1.0  0.01287  0.28541  0.86834  1.0000
  C   C327      1.0  0.02549  0.27255  0.85826  1.0000
  C   C328      1.0  0.02063  0.26819  0.84346  1.0000
  H   H544      1.0  0.03922  0.26654  0.86137  1.0000
  H   H545      1.0  0.03066  0.25895  0.83509  1.0000
  H   H546      1.0  0.13269  0.27791  0.93085  1.0000
  H   H547      1.0  0.03375  0.35304  0.86115  1.0000
  H   H548      1.0  0.05667  0.31288  0.86820  1.0000
  C   C329      1.0  0.17288  0.42002  0.95644  1.0000
  C   C330      1.0  0.16971  0.43842  0.95898  1.0000
  H   H549      1.0  0.99854  0.43609  0.77875  1.0000
  C   C331      1.0  0.16488  0.45435  0.79336  1.0000
  H   H550      1.0  0.99273  0.31412  0.94958  1.0000
  H   H551      1.0  0.16047  0.44949  0.95146  1.0000
  H   H552      1.0  0.27586  0.29572  0.54365  1.0000
  C   C332      1.0  0.01179  0.33978  0.84353  1.0000
  H   H553      1.0  0.25005  0.34912  0.88855  1.0000
  H   H554      1.0  0.99219  0.39019  0.82095  1.0000
  H   H555      1.0  0.26058  0.36105  0.86572  1.0000
  C   C333      1.0  0.10002  0.44754  0.89030  1.0000
  H   H556      1.0  0.09186  0.39970  0.92023  1.0000
  H   H557      1.0  0.11043  0.39076  0.87370  1.0000
  C   C334      1.0  0.25087  0.38273  0.50727  1.0000
  C   C335      1.0  0.17858  0.44275  0.97097  1.0000
  H   H558      1.0  0.17234  0.23482  0.75927  1.0000
  C   C336      1.0  0.02760  0.25213  0.97176  1.0000
  C   C337      1.0  0.03674  0.31592  0.81836  1.0000
  H   H559      1.0  0.16433  0.43486  0.82061  1.0000
  H   H560      1.0  0.14719  0.47661  0.81946  1.0000
  C   C338      1.0  0.14407  0.24140  0.85986  1.0000
  H   H561      1.0  0.19257  0.39451  0.81620  1.0000
  H   H562      1.0  0.26249  0.38366  0.54958  1.0000
  H   H563      1.0  0.29600  0.34547  0.82257  1.0000
  H   H564      1.0  0.01539  0.27769  0.93702  1.0000
  H   H565      1.0  0.28428  0.24991  0.85447  1.0000
  H   H566      1.0  0.07962  0.39650  0.86696  1.0000
  S   S74       1.0  0.25059  0.24779  0.79288  1.0000
  H   H567      1.0  0.17875  0.45673  0.79331  1.0000
  H   H568      1.0  0.13137  0.25264  0.88470  1.0000
  C   C339      1.0  0.10511  0.43339  0.95138  1.0000
  C   C340      1.0  0.05057  0.46998  0.97791  1.0000
  Fe  Fe34      1.0  0.07742  0.24423  0.89759  1.0000
  C   C341      1.0  0.19376  0.41019  0.97832  1.0000
  H   H569      1.0  0.29598  0.34107  0.84692  1.0000
  H   H570      1.0  0.08243  0.37933  0.92287  1.0000
  H   H571      1.0  0.05092  0.28646  0.82309  1.0000
  H   H572      1.0  0.06706  0.40937  0.94666  1.0000
  C   C342      1.0  0.27467  0.33478  0.80491  1.0000
  H   H573      1.0  0.19063  0.42498  0.79281  1.0000
  H   H574      1.0  0.28699  0.38390  0.54641  1.0000
  S   S75       1.0  0.23859  0.26890  0.82911  1.0000
  H   H575      1.0  0.17893  0.37849  0.81575  1.0000
  H   H576      1.0  0.32025  0.33161  0.51384  1.0000
  H   H577      1.0  0.16720  0.23872  0.59438  1.0000
  S   S76       1.0  0.20119  0.24213  0.82897  1.0000
  C   C343      1.0  0.00248  0.28884  0.93808  1.0000
  H   H578      1.0  0.26758  0.35083  0.56617  1.0000
  S   S77       1.0  0.02031  0.41189  0.80926  1.0000
  H   H579      1.0  0.16079  0.41123  0.81197  1.0000
  H   H580      1.0  0.06750  0.32980  0.85059  1.0000
  H   H581      1.0  0.12814  0.41132  0.78326  1.0000
  H   H582      1.0  0.05405  0.24430  0.78246  1.0000
  C   C344      1.0  0.18520  0.40592  0.96597  1.0000
  C   C345      1.0  0.02495  0.23777  0.96496  1.0000
  H   H583      1.0  0.13563  0.24680  0.75465  1.0000
  H   H584      1.0  0.12982  0.46762  0.88303  1.0000
  C   C346      1.0  0.14265  0.26021  0.91042  1.0000
  H   H585      1.0  0.26600  0.34765  0.80959  1.0000
  H   H586      1.0  0.04613  0.40186  0.87372  1.0000
  H   H587      1.0  0.04185  0.47539  0.96719  1.0000
  C   C347      1.0  0.19552  0.27092  0.71427  1.0000
  C   C348      1.0  0.20343  0.28667  0.69959  1.0000
  C   C349      1.0  0.99068  0.24634  0.91479  1.0000
  H   H588      1.0  0.99133  0.41560  0.76264  1.0000
  C   C350      1.0  0.05919  0.35537  0.82111  1.0000
  H   H589      1.0  0.16948  0.46393  0.82506  1.0000
  H   H590      1.0  0.16264  0.25747  0.73193  1.0000
  C   C351      1.0  0.15997  0.24541  0.90357  1.0000
  H   H591      1.0  0.13750  0.47534  0.93779  1.0000
  C   C352      1.0  0.18002  0.42276  0.78633  1.0000
  H   H592      1.0  0.07566  0.26562  0.76606  1.0000
  C   C353      1.0  0.03658  0.33831  0.85940  1.0000
  H   H593      1.0  0.12228  0.47496  0.72594  1.0000
  C   C354      1.0  0.08833  0.46788  0.83911  1.0000
  H   H594      1.0  0.18452  0.25358  0.74960  1.0000
  C   C355      1.0  0.06488  0.40524  0.91125  1.0000
  H   H595      1.0  0.06839  0.34227  0.81745  1.0000
  C   C356      1.0  0.11042  0.41331  0.96224  1.0000
  C   C357      1.0  0.00042  0.38727  0.80761  1.0000
  H   H596      1.0  0.18108  0.27711  0.72077  1.0000
  H   H597      1.0  0.20430  0.26603  0.72496  1.0000
  H   H598      1.0  0.19505  0.29246  0.68857  1.0000
  H   H599      1.0  0.20309  0.29812  0.70639  1.0000
  H   H600      1.0  0.21817  0.28151  0.69293  1.0000
  C   C358      1.0  0.28045  0.28004  0.84485  1.0000
  S   S78       1.0  0.27043  0.24983  0.63907  1.0000
  H   H601      1.0  0.14813  0.45818  0.84017  1.0000
  N   N15       1.0  0.03261  0.33805  0.84092  1.0000
  C   C359      1.0  0.11231  0.47390  0.95978  1.0000
  H   H602      1.0  0.14633  0.25519  0.93907  1.0000
  H   H603      1.0  0.05679  0.41808  0.91649  1.0000
  H   H604      1.0  0.07284  0.45022  0.88536  1.0000
  H   H605      1.0  0.01956  0.43900  0.88090  1.0000
  H   H606      1.0  0.16509  0.46316  0.75572  1.0000
  C   C360      1.0  0.05627  0.32815  0.86319  1.0000
  H   H607      1.0  0.05729  0.38913  0.94918  1.0000
  C   C361      1.0  0.17097  0.40660  0.79982  1.0000
  C   C362      1.0  0.99026  0.28866  0.84967  1.0000
  C   C363      1.0  0.27257  0.31901  0.55699  1.0000
  H   H608      1.0  0.00792  0.34238  0.82972  1.0000
  H   H609      1.0  0.26817  0.39734  0.57327  1.0000
  C   C364      1.0  0.20594  0.44657  0.91329  1.0000
  H   H610      1.0  0.10060  0.41249  0.89139  1.0000
  H   H611      1.0  0.26879  0.34603  0.52033  1.0000
  H   H612      1.0  0.26505  0.29183  0.56827  1.0000
  H   H613      1.0  0.01421  0.42054  0.87356  1.0000
  C   C365      1.0  0.08003  0.39278  0.88217  1.0000
  S   S79       1.0  0.04701  0.45411  0.79638  1.0000
  H   H614      1.0  0.21319  0.41836  0.92982  1.0000
  H   H615      1.0  0.06293  0.35837  0.83307  1.0000
  C   C366      1.0  0.14578  0.24875  0.87647  1.0000
  H   H616      1.0  0.10458  0.48155  0.97113  1.0000
  C   C367      1.0  0.27190  0.31694  0.82018  1.0000
  H   H617      1.0  0.14107  0.43144  0.79441  1.0000
  C   C368      1.0  0.24941  0.24692  0.73870  1.0000
  C   C369      1.0  0.08933  0.44522  0.96392  1.0000
  H   H618      1.0  0.15723  0.24099  0.84903  1.0000
  H   H619      1.0  0.03394  0.35519  0.81282  1.0000
  C   C370      1.0  0.25185  0.35053  0.87322  1.0000
  H   H620      1.0  0.11714  0.43311  0.76988  1.0000
  C   C371      1.0  0.29588  0.31591  0.83762  1.0000
  H   H621      1.0  0.04473  0.29569  0.80053  1.0000
  H   H622      1.0  0.30138  0.34494  0.50264  1.0000
  C   C372      1.0  0.99876  0.35526  0.85383  1.0000
  H   H623      1.0  0.21253  0.23405  0.76139  1.0000
  H   H624      1.0  0.21582  0.46729  0.73639  1.0000
  C   C373      1.0  0.16558  0.24737  0.72276  1.0000
  H   H625      1.0  0.06421  0.30188  0.80517  1.0000
  Fe  Fe35      1.0  0.22443  0.25726  0.81355  1.0000
  H   H626      1.0  0.08039  0.38601  0.95321  1.0000
  C   C374      1.0  0.28877  0.32792  0.54346  1.0000
  S   S80       1.0  0.23445  0.25927  0.61819  1.0000
  H   H627      1.0  0.01780  0.30722  0.94247  1.0000
  C   C375      1.0  0.99560  0.37503  0.79943  1.0000
  H   H628      1.0  0.03053  0.36788  0.83022  1.0000
  H   H629      1.0  0.28963  0.33565  0.80096  1.0000
  H   H630      1.0  0.20360  0.44615  0.76635  1.0000
  C   C376      1.0  0.27612  0.29806  0.55744  1.0000
  H   H631      1.0  0.13455  0.26086  0.55204  1.0000
  H   H632      1.0  0.29219  0.32223  0.53055  1.0000
  H   H633      1.0  0.09874  0.23992  0.82278  1.0000
  C   C377      1.0  0.25408  0.23982  0.70790  1.0000
  H   H634      1.0  0.12655  0.25323  0.73341  1.0000
  H   H635      1.0  0.31127  0.25366  0.64068  1.0000
  H   H636      1.0  0.21443  0.47144  0.87692  1.0000
  H   H637      1.0  0.11803  0.45923  0.96616  1.0000
  H   H638      1.0  0.29484  0.25760  0.73847  1.0000
  H   H639      1.0  0.30943  0.28609  0.58616  1.0000
  H   H640      1.0  0.25900  0.32576  0.55283  1.0000
  H   H641      1.0  0.00195  0.24791  0.93765  1.0000
  Fe  Fe36      1.0  0.26399  0.26218  0.80659  1.0000
  H   H642      1.0  0.15770  0.27320  0.92267  1.0000
  C   C378      1.0  0.28006  0.35583  0.55674  1.0000
  H   H643      1.0  0.17810  0.44103  0.75117  1.0000
  H   H644      1.0  0.10780  0.44896  0.87549  1.0000
  H   H645      1.0  0.19646  0.38511  0.79544  1.0000
  C   C379      1.0  0.03822  0.35446  0.82597  1.0000
  H   H646      1.0  0.28134  0.30514  0.81395  1.0000
  H   H647      1.0  0.16338  0.40108  0.79251  1.0000
  S   S81       1.0  0.04759  0.25036  0.91340  1.0000
  C   C380      1.0  0.07993  0.25373  0.77735  1.0000
  S   S82       1.0  0.08851  0.25437  0.91700  1.0000
  N   N16       1.0  0.15686  0.30750  0.83076  1.0000
  C   C381      1.0  0.13622  0.31400  0.83102  1.0000
  C   C382      1.0  0.16431  0.28922  0.82407  1.0000
  C   C383      1.0  0.15917  0.30396  0.85072  1.0000
  C   C384      1.0  0.16781  0.32222  0.81922  1.0000
  C   C385      1.0  0.16621  0.32952  0.79849  1.0000
  C   C386      1.0  0.12659  0.33278  0.83726  1.0000
  C   C387      1.0  0.17875  0.29323  0.85455  1.0000
  C   C388      1.0  0.15624  0.28661  0.80830  1.0000
  C   C389      1.0  0.16676  0.26868  0.80137  1.0000
  C   C390      1.0  0.17435  0.34714  0.78994  1.0000
  C   C391      1.0  0.10564  0.33690  0.83783  1.0000
  C   C392      1.0  0.18004  0.29291  0.87444  1.0000
  H   H648      1.0  0.12862  0.30303  0.84037  1.0000
  H   H649      1.0  0.13329  0.31577  0.81701  1.0000
  H   H650      1.0  0.17980  0.28675  0.81953  1.0000
  H   H651      1.0  0.16147  0.27721  0.83585  1.0000
  H   H652      1.0  0.14876  0.29591  0.86048  1.0000
  H   H653      1.0  0.15622  0.31744  0.85535  1.0000
  H   H654      1.0  0.16407  0.33449  0.82600  1.0000
  H   H655      1.0  0.18297  0.31682  0.81882  1.0000
  H   H656      1.0  0.15154  0.33318  0.79682  1.0000
  H   H657      1.0  0.17447  0.31878  0.79027  1.0000
  H   H658      1.0  0.12820  0.33244  0.85148  1.0000
  H   H659      1.0  0.13240  0.34451  0.82721  1.0000
  H   H660      1.0  0.19006  0.29980  0.84475  1.0000
  H   H661      1.0  0.18157  0.27849  0.85306  1.0000
  H   H662      1.0  0.14139  0.28536  0.81372  1.0000
  H   H663      1.0  0.15679  0.29845  0.79610  1.0000
  H   H664      1.0  0.16065  0.26713  0.79021  1.0000
  H   H665      1.0  0.18176  0.26905  0.79551  1.0000
  H   H666      1.0  0.16563  0.25626  0.81302  1.0000
  H   H667      1.0  0.17376  0.35172  0.77487  1.0000
  H   H668      1.0  0.16617  0.35872  0.79714  1.0000
  H   H669      1.0  0.18919  0.34427  0.79110  1.0000
  H   H670      1.0  0.09886  0.35066  0.84159  1.0000
  H   H671      1.0  0.10307  0.33738  0.82393  1.0000
  H   H672      1.0  0.09923  0.32591  0.84855  1.0000
  H   H673      1.0  0.19380  0.28448  0.87716  1.0000
  H   H674      1.0  0.17871  0.30737  0.87621  1.0000
  H   H675      1.0  0.16884  0.28665  0.88491  1.0000
  H   H676      1.0  0.31381  0.28678  0.74421  1.0000
  C   C393      1.0  0.14781  0.43888  0.78054  1.0000
  Fe  Fe37      1.0  0.07609  0.44639  0.77915  1.0000
  H   H677      1.0  0.19066  0.26022  0.69232  1.0000
  H   H678      1.0  0.18834  0.41700  0.77381  1.0000
  H   H679      1.0  0.23923  0.38582  0.51927  1.0000
  C   C394      1.0  0.19378  0.45696  0.75854  1.0000
  H   H680      1.0  0.16586  0.24335  0.55788  1.0000
  C   C395      1.0  0.27773  0.26270  0.86032  1.0000
  H   H681      1.0  0.12987  0.41411  0.75851  1.0000
  C   C396      1.0  0.31212  0.34600  0.50957  1.0000
  H   H682      1.0  0.06306  0.42803  0.86603  1.0000
  Fe  Fe38      1.0  0.06128  0.44734  0.82058  1.0000
  H   H683      1.0  0.31079  0.42874  0.48370  1.0000
  H   H684      1.0  0.00016  0.35231  0.86860  1.0000
  H   H685      1.0  0.05765  0.31773  0.83204  1.0000
  C   C397      1.0  0.02556  0.42751  0.87308  1.0000
  N   N17       1.0  0.07285  0.41013  0.89048  1.0000
  H   H686      1.0  0.17159  0.25317  0.89823  1.0000
  H   H687      1.0  0.05447  0.39635  0.91414  1.0000
  H   H688      1.0  0.15649  0.46832  0.78806  1.0000
  H   H689      1.0  0.25428  0.33343  0.78994  1.0000
  C   C398      1.0  0.27528  0.37727  0.55530  1.0000
  H   H690      1.0  0.03451  0.40733  0.89626  1.0000
  C   C399      1.0  0.10045  0.38208  0.88281  1.0000
  S   S83       1.0  0.09013  0.44187  0.80284  1.0000
  H   H691      1.0  0.07741  0.43795  0.96842  1.0000
  H   H692      1.0  0.15054  0.26223  0.87041  1.0000
  H   H693      1.0  0.30133  0.37014  0.52274  1.0000
  Fe  Fe39      1.0  0.21938  0.24409  0.64529  1.0000
  H   H694      1.0  0.25556  0.35772  0.53847  1.0000
  H   H695      1.0  0.30056  0.30748  0.85067  1.0000
  C   C400      1.0  0.26923  0.35636  0.52825  1.0000
  H   H696      1.0  0.13678  0.46232  0.90517  1.0000
  H   H697      1.0  0.09182  0.47817  0.78198  1.0000
  S   S84       1.0  0.04699  0.26276  0.96156  1.0000
  H   H698      1.0  0.25857  0.37661  0.58376  1.0000
  C   C401      1.0  0.04105  0.41325  0.88170  1.0000
  C   C402      1.0  0.30752  0.25200  0.74461  1.0000
  H   H699      1.0  0.19074  0.47012  0.76374  1.0000
  H   H700      1.0  0.10056  0.43270  0.93886  1.0000
  H   H701      1.0  0.07071  0.38258  0.88889  1.0000
  C   C403      1.0  0.00321  0.27677  0.83878  1.0000
  C   C404      1.0  0.99494  0.25797  0.92667  1.0000
  H   H702      1.0  0.08933  0.24217  0.77082  1.0000
  H   H703      1.0  0.24793  0.37240  0.50097  1.0000
  C   C405      1.0  0.07325  0.46654  0.93978  1.0000
  H   H704      1.0  0.02685  0.33125  0.87133  1.0000
  S   S85       1.0  0.99817  0.27414  0.81841  1.0000
  C   C406      1.0  0.14732  0.42894  0.76520  1.0000
  C   C407      1.0  0.30312  0.35471  0.52715  1.0000
  H   H705      1.0  0.20870  0.44795  0.73247  1.0000
  H   H706      1.0  0.15788  0.47926  0.87887  1.0000
  H   H707      1.0  0.13794  0.48266  0.95841  1.0000
  H   H708      1.0  0.13089  0.24036  0.54656  1.0000
  H   H709      1.0  0.01684  0.24620  0.89391  1.0000
  H   H710      1.0  0.29568  0.27927  0.83935  1.0000
  N   N18       1.0  0.19494  0.45333  0.88193  1.0000
  C   C408      1.0  0.20013  0.44628  0.86395  1.0000
  C   C409      1.0  0.15588  0.44816  0.81423  1.0000
  C   C410      1.0  0.20708  0.44023  0.89498  1.0000
  C   C411      1.0  0.17480  0.45334  0.89185  1.0000
  C   C412      1.0  0.15958  0.46393  0.88052  1.0000
  C   C413      1.0  0.19742  0.42629  0.86578  1.0000
  C   C414      1.0  0.18631  0.23818  0.75258  1.0000
  S   S86       1.0  0.05231  0.46427  0.84336  1.0000
  H   H711      1.0  0.03103  0.43367  0.85821  1.0000
  C   C415      1.0  0.14068  0.45914  0.89095  1.0000
  C   C416      1.0  0.20098  0.42147  0.84659  1.0000
  H   H712      1.0  0.03925  0.30785  0.84723  1.0000
  H   H713      1.0  0.21507  0.44659  0.85723  1.0000
  H   H714      1.0  0.19206  0.45559  0.85355  1.0000
  N   N19       1.0  0.16695  0.44121  0.78066  1.0000
  S   S87       1.0  0.99762  0.35911  0.76992  1.0000
  H   H715      1.0  0.22205  0.43793  0.88755  1.0000
  H   H716      1.0  0.20334  0.42619  0.89954  1.0000
  H   H717      1.0  0.17272  0.43871  0.89776  1.0000
  H   H718      1.0  0.17117  0.45981  0.90428  1.0000
  H   H719      1.0  0.16266  0.46034  0.86660  1.0000
  H   H720      1.0  0.14137  0.44657  0.81589  1.0000
  H   H721      1.0  0.20735  0.41576  0.87367  1.0000
  H   H722      1.0  0.18293  0.42506  0.87302  1.0000
  S   S88       1.0  0.08966  0.46302  0.75148  1.0000
  H   H723      1.0  0.27203  0.38623  0.51922  1.0000
  H   H724      1.0  0.15948  0.41712  0.76345  1.0000
  H   H725      1.0  0.02240  0.31302  0.82263  1.0000
  C   C417      1.0  0.08273  0.43954  0.89319  1.0000
  S   S89       1.0  0.29384  0.25330  0.81012  1.0000
  H   H726      1.0  0.07628  0.43738  0.90835  1.0000
  H   H727      1.0  0.29884  0.28959  0.76659  1.0000
  H   H728      1.0  0.14120  0.44406  0.89217  1.0000
  C   C418      1.0  0.06961  0.47330  0.84758  1.0000
  H   H729      1.0  0.19083  0.43112  0.83834  1.0000
  H   H730      1.0  0.21546  0.42233  0.83872  1.0000
  H   H731      1.0  0.19906  0.40697  0.84848  1.0000
  H   H732      1.0  0.21675  0.43666  0.93875  1.0000
  H   H733      1.0  0.98900  0.26896  0.95996  1.0000
  N   N20       1.0  0.08299  0.46554  0.95510  1.0000
  H   H734      1.0  0.13038  0.26898  0.84640  1.0000
  H   H735      1.0  0.10805  0.46967  0.93396  1.0000
  H   H736      1.0  0.31872  0.42128  0.53797  1.0000
  Fe  Fe40      1.0  0.05841  0.26321  0.93075  1.0000
  C   C419      1.0  0.09936  0.47502  0.94659  1.0000
  H   H737      1.0  0.06035  0.36894  0.79167  1.0000
  H   H738      1.0  0.23779  0.35557  0.86972  1.0000
  H   H739      1.0  0.05079  0.43508  0.88737  1.0000
  H   H740      1.0  0.24765  0.24234  0.75374  1.0000
  C   C420      1.0  0.06253  0.24749  0.79064  1.0000
  C   C421      1.0  0.30118  0.28298  0.75446  1.0000
  H   H741      1.0  0.27406  0.27938  0.83352  1.0000
  C   C422      1.0  0.27104  0.38192  0.57468  1.0000
  C   C423      1.0  0.07026  0.39480  0.94450  1.0000
  H   H742      1.0  0.05524  0.38481  0.80742  1.0000
  H   H743      1.0  0.18498  0.47918  0.93580  1.0000
  C   C424      1.0  0.18573  0.39023  0.80719  1.0000
  H   H744      1.0  0.09307  0.42474  0.87055  1.0000
  C   C425      1.0  0.05728  0.42252  0.88109  1.0000
  C   C426      1.0  0.12951  0.42141  0.76958  1.0000
  H   H745      1.0  0.09241  0.45769  0.83046  1.0000
  H   H746      1.0  0.28060  0.37329  0.50107  1.0000
  H   H747      1.0  0.27131  0.32045  0.57151  1.0000
  H   H748      1.0  0.28986  0.29077  0.56105  1.0000
  S   S90       1.0  0.07503  0.41589  0.78359  1.0000
  C   C427      1.0  0.26922  0.33427  0.78705  1.0000
  H   H749      1.0  0.10332  0.37834  0.89701  1.0000
  Fe  Fe41      1.0  0.04699  0.42318  0.80278  1.0000
  H   H750      1.0  0.09586  0.46164  0.89377  1.0000
  H   H751      1.0  0.09594  0.35433  0.88443  1.0000
  N   N21       1.0  0.27550  0.31624  0.83909  1.0000
  C   C428      1.0  0.26230  0.33243  0.84699  1.0000
  H   H752      1.0  0.03704  0.32805  0.80636  1.0000
  C   C429      1.0  0.27082  0.29833  0.85204  1.0000
  H   H753      1.0  0.11798  0.43921  0.94658  1.0000
  H   H754      1.0  0.26260  0.26279  0.86591  1.0000
  H   H755      1.0  0.30132  0.32220  0.54983  1.0000
  C   C430      1.0  0.20362  0.46106  0.73791  1.0000
  H   H756      1.0  0.00778  0.32633  0.85167  1.0000
  H   H757      1.0  0.12160  0.40500  0.95308  1.0000
  C   C431      1.0  0.00870  0.23605  0.90386  1.0000
  H   H758      1.0  0.24782  0.33338  0.84555  1.0000
  H   H759      1.0  0.26568  0.34604  0.83883  1.0000
  H   H760      1.0  0.30698  0.42874  0.55958  1.0000
  H   H761      1.0  0.25738  0.31509  0.82187  1.0000
  H   H762      1.0  0.25553  0.29902  0.85518  1.0000
  H   H763      1.0  0.27445  0.29648  0.86582  1.0000
  C   C432      1.0  0.21800  0.43182  0.92574  1.0000
  C   C433      1.0  0.05001  0.29892  0.81142  1.0000
  C   C434      1.0  0.10560  0.47516  0.75383  1.0000
  H   H764      1.0  0.06215  0.45816  0.94515  1.0000
  C   C435      1.0  0.26942  0.37523  0.51370  1.0000
  H   H765      1.0  0.31784  0.37168  0.48979  1.0000
  H   H766      1.0  0.00568  0.26569  0.91721  1.0000
  H   H767      1.0  0.19145  0.44870  0.92168  1.0000
  C   C436      1.0  0.19617  0.25442  0.70543  1.0000
  C   C437      1.0  0.07003  0.47536  0.97014  1.0000
  H   H768      1.0  0.18778  0.39168  0.96418  1.0000
  H   H769      1.0  0.27808  0.32208  0.78115  1.0000
  H   H770      1.0  0.19392  0.47112  0.72941  1.0000
  H   H771      1.0  0.07458  0.32712  0.88125  1.0000
  H   H772      1.0  0.06304  0.47860  0.90484  1.0000
  C   C438      1.0  0.30383  0.26174  0.76123  1.0000
  H   H773      1.0  0.16047  0.25577  0.70991  1.0000
  H   H774      1.0  0.06188  0.35026  0.87311  1.0000
  H   H775      1.0  0.14780  0.43908  0.75152  1.0000
  N   N22       1.0  0.28509  0.34911  0.53859  1.0000
  C   C439      1.0  0.15516  0.46266  0.82533  1.0000
  C   C440      1.0  0.30150  0.33506  0.83416  1.0000
  H   H776      1.0  0.08596  0.24210  0.85590  1.0000
  H   H777      1.0  0.11471  0.25384  0.86032  1.0000
  H   H778      1.0  0.05376  0.25974  0.79657  1.0000
  S   S91       1.0  0.19098  0.23689  0.65085  1.0000
  H   H779      1.0  0.13964  0.24316  0.58443  1.0000
  H   H780      1.0  0.06669  0.28610  0.97854  1.0000
  H   H781      1.0  0.27124  0.34725  0.77638  1.0000
  C   C441      1.0  0.25208  0.23390  0.72744  1.0000
  C   C442      1.0  0.32000  0.42833  0.54853  1.0000
  Fe  Fe42      1.0  0.25152  0.23680  0.66481  1.0000
  C   C443      1.0  0.10191  0.47587  0.84157  1.0000
  H   H782      1.0  0.05905  0.23543  0.82016  1.0000
  H   H783      1.0  0.31048  0.45594  0.53336  1.0000
  H   H784      1.0  0.25161  0.39591  0.49654  1.0000
  H   H785      1.0  0.14934  0.25191  0.53203  1.0000
  H   H786      1.0  0.31811  0.46123  0.49954  1.0000
  C   C444      1.0  0.15527  0.23530  0.55874  1.0000
  H   H787      1.0  0.00566  0.29442  0.96376  1.0000
  C   C445      1.0  0.10365  0.48055  0.77065  1.0000
  H   H788      1.0  0.19796  0.24698  0.57813  1.0000
  C   C446      1.0  0.31918  0.23892  0.64170  1.0000
  H   H789      1.0  0.29329  0.24170  0.71943  1.0000
  H   H790      1.0  0.30485  0.30846  0.82641  1.0000
  H   H791      1.0  0.04196  0.47849  0.92311  1.0000
  H   H792      1.0  0.17627  0.45705  0.97243  1.0000
  H   H793      1.0  0.20590  0.48221  0.84736  1.0000
  H   H794      1.0  0.31900  0.25731  0.73354  1.0000
  C   C447      1.0  0.13393  0.24154  0.74295  1.0000
  H   H795      1.0  0.09403  0.44398  0.97701  1.0000
  H   H796      1.0  0.19205  0.47951  0.88982  1.0000
  H   H797      1.0  0.99003  0.37392  0.73073  1.0000
  H   H798      1.0  0.12962  0.25478  0.91494  1.0000
  H   H799      1.0  0.11622  0.47191  0.83445  1.0000
  H   H800      1.0  0.02843  0.24046  0.80914  1.0000
  H   H801      1.0  0.16364  0.23484  0.91612  1.0000
  H   H802      1.0  0.12841  0.24965  0.83780  1.0000
  N   N23       1.0  0.18625  0.23920  0.71774  1.0000
  Fe  Fe43      1.0  0.25869  0.23582  0.62343  1.0000
  N   N24       1.0  0.15865  0.23584  0.88882  1.0000
  C   C448      1.0  0.12064  0.47916  0.73897  1.0000
  C   C449      1.0  0.12891  0.48297  0.94892  1.0000
  H   H803      1.0  0.27209  0.53603  0.43777  1.0000
  H   H804      1.0  0.18382  0.56773  0.27816  1.0000
  H   H805      1.0  0.17045  0.49837  0.25337  1.0000
  H   H806      1.0  0.28860  0.61671  0.14565  1.0000
  H   H807      1.0  0.31957  0.62083  0.27847  1.0000
  H   H808      1.0  0.99208  0.65408  0.34882  1.0000
  C   C450      1.0  0.02228  0.53783  0.16498  1.0000
  H   H809      1.0  0.25027  0.58459  0.03965  1.0000
  H   H810      1.0  0.18200  0.59750  0.31175  1.0000
  H   H811      1.0  0.28561  0.53053  0.00406  1.0000
  N   N25       1.0  0.16421  0.49487  0.09392  1.0000
  C   C451      1.0  0.28460  0.52302  0.01894  1.0000
  Fe  Fe44      1.0  0.28776  0.69466  0.10886  1.0000
  S   S92       1.0  0.26709  0.70431  0.13353  1.0000
  S   S93       1.0  0.29852  0.66477  0.10530  1.0000
  C   C452      1.0  0.99090  0.62534  0.40521  1.0000
  C   C453      1.0  0.05542  0.53093  0.01643  1.0000
  Fe  Fe45      1.0  0.28879  0.71906  0.13439  1.0000
  S   S94       1.0  0.29927  0.71561  0.16030  1.0000
  S   S95       1.0  0.27785  0.71947  0.08740  1.0000
  H   H812      1.0  0.06029  0.49270  0.01788  1.0000
  S   S96       1.0  0.27413  0.56507  0.13031  1.0000
  Fe  Fe46      1.0  0.25248  0.58394  0.11504  1.0000
  S   S97       1.0  0.24026  0.61326  0.11998  1.0000
  Fe  Fe47      1.0  0.19189  0.50339  0.99147  1.0000
  H   H813      1.0  0.21233  0.49362  0.32402  1.0000
  H   H814      1.0  0.27329  0.49128  0.01655  1.0000
  Fe  Fe48      1.0  0.15366  0.68708  0.23278  1.0000
  S   S98       1.0  0.17819  0.69309  0.20949  1.0000
  S   S99       1.0  0.14163  0.66094  0.24311  1.0000
  Fe  Fe49      1.0  0.18645  0.70474  0.22974  1.0000
  S   S100      1.0  0.21594  0.69747  0.23394  1.0000
  H   H815      1.0  0.05463  0.55499  0.99251  1.0000
  C   C454      1.0  0.01425  0.50625  0.19976  1.0000
  S   S101      1.0  0.16376  0.69594  0.25365  1.0000
  H   H816      1.0  0.31991  0.65200  0.18926  1.0000
  H   H817      1.0  0.31918  0.54909  0.25755  1.0000
  Fe  Fe50      1.0  0.14516  0.58017  0.20191  1.0000
  S   S102      1.0  0.15347  0.60763  0.18744  1.0000
  Fe  Fe51      1.0  0.25760  0.69672  0.32764  1.0000
  S   S103      1.0  0.26790  0.71167  0.29837  1.0000
  S   S104      1.0  0.26213  0.66503  0.33450  1.0000
  H   H818      1.0  0.27708  0.56295  0.05253  1.0000
  H   H819      1.0  0.00886  0.57171  0.17852  1.0000
  C   C455      1.0  0.30659  0.67049  0.29483  1.0000
  H   H820      1.0  0.20096  0.49736  0.24180  1.0000
  C   C456      1.0  0.29337  0.49704  0.07656  1.0000
  Fe  Fe52      1.0  0.28070  0.72679  0.31182  1.0000
  C   C457      1.0  0.18459  0.51213  0.10397  1.0000
  H   H821      1.0  0.21135  0.49836  0.11193  1.0000
  S   S105      1.0  0.27180  0.71056  0.34112  1.0000
  Fe  Fe53      1.0  0.22759  0.59569  0.29956  1.0000
  S   S106      1.0  0.21930  0.62666  0.29885  1.0000
  C   C458      1.0  0.25035  0.65457  0.32427  1.0000
  C   C459      1.0  0.25499  0.63507  0.32587  1.0000
  C   C460      1.0  0.24568  0.62633  0.31796  1.0000
  C   C461      1.0  0.23154  0.63709  0.30861  1.0000
  C   C462      1.0  0.22700  0.65660  0.30688  1.0000
  C   C463      1.0  0.23649  0.66535  0.31456  1.0000
  H   H822      1.0  0.26577  0.62671  0.33330  1.0000
  H   H823      1.0  0.24929  0.61130  0.31923  1.0000
  H   H824      1.0  0.21618  0.66499  0.29949  1.0000
  H   H825      1.0  0.23290  0.68040  0.31320  1.0000
  C   C464      1.0  0.02741  0.55685  0.01027  1.0000
  H   H826      1.0  0.13541  0.49145  0.10278  1.0000
  H   H827      1.0  0.31132  0.50264  0.04953  1.0000
  H   H828      1.0  0.24292  0.56923  0.39015  1.0000
  H   H829      1.0  0.27799  0.62696  0.25746  1.0000
  H   H830      1.0  0.01676  0.52720  0.98375  1.0000
  H   H831      1.0  0.23541  0.68963  0.26397  1.0000
  H   H832      1.0  0.21546  0.51652  0.31107  1.0000
  H   H833      1.0  0.26525  0.51120  0.99902  1.0000
  H   H834      1.0  0.24617  0.49089  0.18834  1.0000
  C   C465      1.0  0.14645  0.64584  0.22756  1.0000
  C   C466      1.0  0.15394  0.65143  0.20846  1.0000
  C   C467      1.0  0.15635  0.63951  0.19618  1.0000
  C   C468      1.0  0.15153  0.62191  0.20304  1.0000
  C   C469      1.0  0.14456  0.61614  0.22220  1.0000
  C   C470      1.0  0.14185  0.62817  0.23439  1.0000
  H   H835      1.0  0.15743  0.66510  0.20308  1.0000
  H   H836      1.0  0.16178  0.64401  0.18135  1.0000
  H   H837      1.0  0.14092  0.60254  0.22763  1.0000
  H   H838      1.0  0.13605  0.62380  0.24912  1.0000
  H   H839      1.0  0.99398  0.53015  0.20869  1.0000
  H   H840      1.0  0.02051  0.55412  0.02536  1.0000
  H   H841      1.0  0.25832  0.57019  0.41228  1.0000
  H   H842      1.0  0.99330  0.49619  0.22372  1.0000
  H   H843      1.0  0.15725  0.73076  0.45319  1.0000
  H   H844      1.0  0.02412  0.50515  0.20868  1.0000
  C   C471      1.0  0.20682  0.49618  0.25416  1.0000
  H   H845      1.0  0.09399  0.53839  0.05718  1.0000
  H   H846      1.0  0.11337  0.52074  0.13848  1.0000
  H   H847      1.0  0.28878  0.51803  0.21862  1.0000
  C   C472      1.0  0.28212  0.65079  0.10894  1.0000
  C   C473      1.0  0.28847  0.63193  0.10760  1.0000
  C   C474      1.0  0.27571  0.62034  0.11087  1.0000
  C   C475      1.0  0.25651  0.62758  0.11549  1.0000
  C   C476      1.0  0.25013  0.64648  0.11669  1.0000
  C   C477      1.0  0.26291  0.65810  0.11333  1.0000
  H   H848      1.0  0.30329  0.62617  0.10413  1.0000
  H   H849      1.0  0.28077  0.60581  0.10982  1.0000
  H   H850      1.0  0.23528  0.65218  0.11997  1.0000
  H   H851      1.0  0.25793  0.67275  0.11392  1.0000
  C   C478      1.0  0.21549  0.53522  0.23842  1.0000
  C   C479      1.0  0.28490  0.57036  0.22162  1.0000
  S   S107      1.0  0.15925  0.56078  0.22425  1.0000
  H   H852      1.0  0.13387  0.53540  0.04630  1.0000
  H   H853      1.0  0.10876  0.50838  0.12342  1.0000
  C   C480      1.0  0.20226  0.50253  0.29815  1.0000
  H   H854      1.0  0.14662  0.62531  0.32701  1.0000
  H   H855      1.0  0.27183  0.64443  0.37052  1.0000
  H   H856      1.0  0.03659  0.69280  0.41608  1.0000
  H   H857      1.0  0.09588  0.50173  0.06065  1.0000
  H   H858      1.0  0.99517  0.61175  0.38259  1.0000
  C   C481      1.0  0.14638  0.49384  0.10864  1.0000
  H   H859      1.0  0.99575  0.62462  0.34165  1.0000
  H   H860      1.0  0.25166  0.49114  0.22648  1.0000
  C   C482      1.0  0.28393  0.51917  0.38649  1.0000
  C   C483      1.0  0.29931  0.52237  0.37202  1.0000
  H   H861      1.0  0.20186  0.48789  0.29880  1.0000
  S   S108      1.0  0.99000  0.71636  0.35118  1.0000
  H   H862      1.0  0.10988  0.50331  0.99546  1.0000
  H   H863      1.0  0.27643  0.58816  0.16207  1.0000
  H   H864      1.0  0.15025  0.53863  0.32647  1.0000
  H   H865      1.0  0.28412  0.61311  0.36313  1.0000
  H   H866      1.0  0.07125  0.54865  0.06929  1.0000
  C   C484      1.0  0.30982  0.58026  0.36161  1.0000
  H   H867      1.0  0.24247  0.57601  0.35590  1.0000
  H   H868      1.0  0.17584  0.51257  0.06834  1.0000
  C   C485      1.0  0.26306  0.50476  0.01423  1.0000
  C   C486      1.0  0.16225  0.51235  0.07870  1.0000
  C   C487      1.0  0.08200  0.50598  0.19719  1.0000
  C   C488      1.0  0.13902  0.54773  0.30151  1.0000
  H   H869      1.0  0.13379  0.68976  0.28984  1.0000
  S   S109      1.0  0.23059  0.71766  0.33203  1.0000
  Fe  Fe54      1.0  0.28903  0.55841  0.10257  1.0000
  C   C489      1.0  0.17808  0.63323  0.28577  1.0000
  H   H870      1.0  0.20253  0.52183  0.11583  1.0000
  C   C490      1.0  0.30574  0.61991  0.27694  1.0000
  Fe  Fe55      1.0  0.20192  0.48563  0.02934  1.0000
  H   H871      1.0  0.08189  0.56135  0.04692  1.0000
  S   S110      1.0  0.17199  0.48501  0.99495  1.0000
  H   H872      1.0  0.00101  0.53292  0.12740  1.0000
  H   H873      1.0  0.30212  0.58224  0.35046  1.0000
  H   H874      1.0  0.19208  0.50298  0.13135  1.0000
  C   C491      1.0  0.00150  0.49247  0.21020  1.0000
  Fe  Fe56      1.0  0.04411  0.49938  0.11802  1.0000
  H   H875      1.0  0.07991  0.52213  0.98699  1.0000
  H   H876      1.0  0.20450  0.56535  0.23157  1.0000
  C   C492      1.0  0.14573  0.65045  0.29659  1.0000
  H   H877      1.0  0.29113  0.53297  0.05850  1.0000
  C   C493      1.0  0.26484  0.58662  0.03368  1.0000
  H   H878      1.0  0.28964  0.66761  0.27004  1.0000
  H   H879      1.0  0.23998  0.60068  0.35509  1.0000
  H   H880      1.0  0.31945  0.70590  0.24929  1.0000
  H   H881      1.0  0.02293  0.54847  0.00289  1.0000
  H   H882      1.0  0.04015  0.52757  0.19260  1.0000
  S   S111      1.0  0.32030  0.55598  0.09509  1.0000
  H   H883      1.0  0.29303  0.57096  0.03141  1.0000
  C   C494      1.0  0.32059  0.58562  0.27717  1.0000
  S   S112      1.0  0.25811  0.51983  0.15871  1.0000
  H   H884      1.0  0.23600  0.48662  0.07962  1.0000
  C   C495      1.0  0.30010  0.56993  0.38078  1.0000
  H   H885      1.0  0.18757  0.61924  0.28647  1.0000
  H   H886      1.0  0.09456  0.51893  0.21169  1.0000
  H   H887      1.0  0.02032  0.67905  0.36416  1.0000
  N   N26       1.0  0.19687  0.51226  0.26380  1.0000
  C   C496      1.0  0.23614  0.51574  0.07692  1.0000
  C   C497      1.0  0.30942  0.60343  0.26690  1.0000
  H   H888      1.0  0.13347  0.51274  0.07673  1.0000
  N   N27       1.0  0.01381  0.54137  0.18450  1.0000
  C   C498      1.0  0.21690  0.50070  0.19893  1.0000
  C   C499      1.0  0.30529  0.64482  0.24761  1.0000
  H   H889      1.0  0.03870  0.49362  0.99193  1.0000
  C   C500      1.0  0.22197  0.50408  0.05780  1.0000
  H   H890      1.0  0.27513  0.55970  0.01313  1.0000
  H   H891      1.0  0.05270  0.56127  0.01436  1.0000
  C   C501      1.0  0.99889  0.66290  0.37015  1.0000
  C   C502      1.0  0.27880  0.56803  0.03716  1.0000
  H   H892      1.0  0.16488  0.66941  0.29184  1.0000
  H   H893      1.0  0.13785  0.54522  0.06382  1.0000
  C   C503      1.0  0.15101  0.61970  0.28907  1.0000
  C   C504      1.0  0.17971  0.64234  0.26468  1.0000
  C   C505      1.0  0.13105  0.61662  0.29934  1.0000
  C   C506      1.0  0.13725  0.68299  0.30374  1.0000
  C   C507      1.0  0.12705  0.59960  0.29518  1.0000
  H   H894      1.0  0.16084  0.60596  0.28815  1.0000
  H   H895      1.0  0.14994  0.62638  0.27433  1.0000
  H   H896      1.0  0.14248  0.65647  0.28245  1.0000
  H   H897      1.0  0.17659  0.63320  0.25711  1.0000
  H   H898      1.0  0.17006  0.65608  0.26272  1.0000
  H   H899      1.0  0.12055  0.62913  0.29455  1.0000
  H   H900      1.0  0.12889  0.61447  0.31475  1.0000
  H   H901      1.0  0.12443  0.67965  0.31396  1.0000
  H   H902      1.0  0.14219  0.69313  0.30852  1.0000
  H   H903      1.0  0.20291  0.65542  0.26203  1.0000
  H   H904      1.0  0.13028  0.60024  0.27987  1.0000
  H   H905      1.0  0.13568  0.58668  0.30203  1.0000
  H   H906      1.0  0.11211  0.59890  0.30088  1.0000
  H   H907      1.0  0.22173  0.49693  0.24827  1.0000
  C   C508      1.0  0.24677  0.65015  0.25466  1.0000
  H   H908      1.0  0.04733  0.52769  0.03108  1.0000
  C   C509      1.0  0.14520  0.50621  0.27299  1.0000
  C   C510      1.0  0.14709  0.51489  0.06745  1.0000
  H   H909      1.0  0.29289  0.67401  0.30438  1.0000
  C   C511      1.0  0.21293  0.55387  0.22434  1.0000
  C   C512      1.0  0.30874  0.53674  0.02311  1.0000
  H   H910      1.0  0.30091  0.49781  0.20926  1.0000
  C   C513      1.0  0.26596  0.52440  0.38250  1.0000
  C   C514      1.0  0.06452  0.71629  0.32053  1.0000
  H   H911      1.0  0.14700  0.49263  0.28318  1.0000
  H   H912      1.0  0.01558  0.53186  0.22326  1.0000
  C   C515      1.0  0.30839  0.65215  0.28900  1.0000
  H   H913      1.0  0.25391  0.53085  0.02317  1.0000
  S   S113      1.0  0.27723  0.54716  0.32646  1.0000
  H   H914      1.0  0.00966  0.72278  0.30416  1.0000
  C   C516      1.0  0.27304  0.56453  0.40578  1.0000
  C   C517      1.0  0.10763  0.51876  0.99189  1.0000
  H   H915      1.0  0.02233  0.50156  0.18672  1.0000
  H   H916      1.0  0.04981  0.54991  0.21400  1.0000
  H   H917      1.0  0.17701  0.57897  0.34407  1.0000
  H   H918      1.0  0.02714  0.54845  0.12560  1.0000
  C   C518      1.0  0.26440  0.49557  0.22676  1.0000
  H   H919      1.0  0.19665  0.71808  0.17302  1.0000
  C   C519      1.0  0.27719  0.59689  0.39235  1.0000
  H   H920      1.0  0.27098  0.52634  0.05736  1.0000
  H   H921      1.0  0.04413  0.71317  0.29994  1.0000
  C   C520      1.0  0.07494  0.50772  0.18128  1.0000
  H   H922      1.0  0.17184  0.52180  0.10953  1.0000
  H   H923      1.0  0.04944  0.52528  0.22248  1.0000
  S   S114      1.0  0.00510  0.70088  0.39850  1.0000
  Fe  Fe57      1.0  0.25923  0.54244  0.13272  1.0000
  H   H924      1.0  0.28337  0.54542  0.45028  1.0000
  N   N28       1.0  0.07612  0.52467  0.01577  1.0000
  C   C521      1.0  0.08020  0.50436  0.02556  1.0000
  C   C522      1.0  0.08260  0.53589  0.02571  1.0000
  H   H925      1.0  0.17867  0.48445  0.11702  1.0000
  H   H926      1.0  0.13623  0.50560  0.26382  1.0000
  H   H927      1.0  0.27447  0.49669  0.19736  1.0000
  C   C523      1.0  0.07559  0.49024  0.01679  1.0000
  C   C524      1.0  0.27459  0.73205  0.20719  1.0000
  C   C525      1.0  0.07073  0.53808  0.04552  1.0000
  H   H928      1.0  0.99260  0.52592  0.18729  1.0000
  H   H929      1.0  0.27288  0.55099  0.40266  1.0000
  C   C526      1.0  0.13789  0.51073  0.11830  1.0000
  H   H930      1.0  0.07215  0.50240  0.04026  1.0000
  H   H931      1.0  0.09512  0.49977  0.02670  1.0000
  H   H932      1.0  0.09722  0.52941  0.02738  1.0000
  H   H933      1.0  0.08328  0.55021  0.01711  1.0000
  H   H934      1.0  0.29536  0.50981  0.01855  1.0000
  H   H935      1.0  0.99975  0.61016  0.43106  1.0000
  C   C527      1.0  0.26196  0.65420  0.26193  1.0000
  C   C528      1.0  0.00082  0.56031  0.18410  1.0000
  C   C529      1.0  0.08641  0.52753  0.99552  1.0000
  H   H936      1.0  0.30680  0.50530  0.13846  1.0000
  H   H937      1.0  0.29109  0.50990  0.17117  1.0000
  C   C530      1.0  0.99428  0.64733  0.36331  1.0000
  H   H938      1.0  0.01514  0.55661  0.21573  1.0000
  H   H939      1.0  0.05666  0.54698  0.04466  1.0000
  H   H940      1.0  0.06874  0.52443  0.05474  1.0000
  H   H941      1.0  0.31182  0.53589  0.20333  1.0000
  H   H942      1.0  0.25211  0.59689  0.24976  1.0000
  H   H943      1.0  0.26574  0.58000  0.18630  1.0000
  C   C531      1.0  0.02370  0.54247  0.21442  1.0000
  C   C532      1.0  0.27381  0.61438  0.37639  1.0000
  N   N29       1.0  0.28867  0.53463  0.03023  1.0000
  S   S115      1.0  0.07182  0.49221  0.12634  1.0000
  H   H944      1.0  0.18821  0.50938  0.30518  1.0000
  H   H945      1.0  0.19298  0.71397  0.47517  1.0000
  C   C533      1.0  0.99895  0.72891  0.41827  1.0000
  H   H946      1.0  0.29270  0.70852  0.22132  1.0000
  H   H947      1.0  0.99106  0.56370  0.15808  1.0000
  H   H948      1.0  0.15866  0.59333  0.31992  1.0000
  H   H949      1.0  0.31243  0.67309  0.17301  1.0000
  C   C534      1.0  0.16038  0.62266  0.31717  1.0000
  C   C535      1.0  0.26875  0.57830  0.37380  1.0000
  H   H950      1.0  0.20587  0.55300  0.21357  1.0000
  H   H951      1.0  0.28683  0.57269  0.42384  1.0000
  C   C536      1.0  0.29677  0.58296  0.21285  1.0000
  N   N30       1.0  0.29549  0.63858  0.26765  1.0000
  H   H952      1.0  0.00712  0.63614  0.36155  1.0000
  H   H953      1.0  0.15834  0.59749  0.35168  1.0000
  H   H954      1.0  0.22228  0.54627  0.16149  1.0000
  Fe  Fe58      1.0  0.13031  0.55856  0.24003  1.0000
  C   C537      1.0  0.27452  0.54918  0.43974  1.0000
  C   C538      1.0  0.23737  0.58711  0.36427  1.0000
  H   H955      1.0  0.99931  0.65908  0.38520  1.0000
  H   H956      1.0  0.26989  0.62841  0.28122  1.0000
  H   H957      1.0  0.27988  0.65261  0.29045  1.0000
  N   N31       1.0  0.18296  0.59822  0.13190  1.0000
  C   C539      1.0  0.19796  0.60706  0.11764  1.0000
  C   C540      1.0  0.18994  0.58865  0.14975  1.0000
  C   C541      1.0  0.17964  0.58311  0.12422  1.0000
  C   C542      1.0  0.16469  0.61214  0.13573  1.0000
  C   C543      1.0  0.16582  0.63265  0.13454  1.0000
  C   C544      1.0  0.19470  0.61393  0.09734  1.0000
  C   C545      1.0  0.16674  0.57031  0.13804  1.0000
  C   C546      1.0  0.19820  0.60023  0.15838  1.0000
  C   C547      1.0  0.20563  0.58820  0.17561  1.0000
  C   C548      1.0  0.14670  0.64422  0.14185  1.0000
  C   C549      1.0  0.20822  0.62642  0.08521  1.0000
  C   C550      1.0  0.16172  0.55781  0.12804  1.0000
  H   H958      1.0  0.21157  0.59693  0.11686  1.0000
  H   H959      1.0  0.20034  0.61899  0.12198  1.0000
  H   H960      1.0  0.17851  0.58348  0.16101  1.0000
  H   H961      1.0  0.20101  0.57599  0.14736  1.0000
  H   H962      1.0  0.19321  0.57381  0.11927  1.0000
  H   H963      1.0  0.17332  0.58940  0.11170  1.0000
  H   H964      1.0  0.15588  0.61316  0.12570  1.0000
  H   H965      1.0  0.15618  0.60705  0.14971  1.0000
  H   H966      1.0  0.17066  0.63958  0.11978  1.0000
  H   H967      1.0  0.17561  0.63350  0.14261  1.0000
  H   H968      1.0  0.19724  0.60174  0.09074  1.0000
  H   H969      1.0  0.18017  0.62184  0.09710  1.0000
  H   H970      1.0  0.15354  0.57873  0.14479  1.0000
  H   H971      1.0  0.17398  0.56090  0.14910  1.0000
  H   H972      1.0  0.21000  0.60575  0.14839  1.0000
  H   H973      1.0  0.18748  0.61203  0.16304  1.0000
  H   H974      1.0  0.21091  0.59699  0.18182  1.0000
  H   H975      1.0  0.19433  0.58228  0.18636  1.0000
  H   H976      1.0  0.21734  0.57661  0.17165  1.0000
  H   H977      1.0  0.13629  0.64403  0.13404  1.0000
  H   H978      1.0  0.14180  0.63862  0.15699  1.0000
  H   H979      1.0  0.14782  0.65896  0.14009  1.0000
  H   H980      1.0  0.20607  0.63914  0.09088  1.0000
  H   H981      1.0  0.22294  0.61865  0.08476  1.0000
  H   H982      1.0  0.20585  0.63085  0.07069  1.0000
  H   H983      1.0  0.23461  0.66209  0.25481  1.0000
  H   H984      1.0  0.15315  0.54827  0.13843  1.0000
  H   H985      1.0  0.15349  0.56642  0.11745  1.0000
  H   H986      1.0  0.13914  0.73165  0.34552  1.0000
  H   H987      1.0  0.28884  0.63108  0.38423  1.0000
  C   C551      1.0  0.32110  0.72203  0.15291  1.0000
  H   H988      1.0  0.17012  0.52322  0.28013  1.0000
  S   S116      1.0  0.31006  0.70741  0.11155  1.0000
  H   H989      1.0  0.16095  0.71466  0.31838  1.0000
  H   H990      1.0  0.26074  0.55167  0.03469  1.0000
  H   H991      1.0  0.27826  0.49856  0.08323  1.0000
  H   H992      1.0  0.08139  0.73019  0.27353  1.0000
  C   C552      1.0  0.03618  0.49377  0.06060  1.0000
  C   C553      1.0  0.22861  0.70422  0.26172  1.0000
  H   H993      1.0  0.30027  0.63292  0.14951  1.0000
  C   C554      1.0  0.26466  0.59291  0.23959  1.0000
  S   S117      1.0  0.18027  0.51047  0.01986  1.0000
  H   H994      1.0  0.08269  0.49137  0.00184  1.0000
  C   C555      1.0  0.01767  0.66767  0.35909  1.0000
  H   H995      1.0  0.13795  0.51763  0.28069  1.0000
  H   H996      1.0  0.16948  0.72587  0.33984  1.0000
  H   H997      1.0  0.22682  0.55727  0.21718  1.0000
  C   C556      1.0  0.31261  0.52352  0.15330  1.0000
  H   H998      1.0  0.24372  0.51299  0.08793  1.0000
  H   H999      1.0  0.29826  0.55059  0.41714  1.0000
  H   H1000     1.0  0.12757  0.71722  0.47153  1.0000
  C   C557      1.0  0.03084  0.51790  0.07813  1.0000
  C   C558      1.0  0.17255  0.71949  0.30731  1.0000
  H   H1001     1.0  0.18562  0.71607  0.27876  1.0000
  H   H1002     1.0  0.28806  0.72297  0.24653  1.0000
  H   H1003     1.0  0.26819  0.66515  0.25108  1.0000
  H   H1004     1.0  0.31825  0.52276  0.02314  1.0000
  H   H1005     1.0  0.26739  0.59668  0.04060  1.0000
  C   C559      1.0  0.29607  0.50448  0.05540  1.0000
  H   H1006     1.0  0.29972  0.48489  0.47854  1.0000
  H   H1007     1.0  0.31123  0.54193  0.99255  1.0000
  S   S118      1.0  0.01405  0.49310  0.03806  1.0000
  C   C560      1.0  0.01985  0.73009  0.43752  1.0000
  C   C561      1.0  0.10027  0.69708  0.26930  1.0000
  C   C562      1.0  0.04097  0.53971  0.22242  1.0000
  H   H1008     1.0  0.31762  0.60670  0.25236  1.0000
  S   S119      1.0  0.26822  0.57884  0.08672  1.0000
  H   H1009     1.0  0.20029  0.65191  0.24034  1.0000
  C   C563      1.0  0.03203  0.55320  0.15089  1.0000
  S   S120      1.0  0.23972  0.54253  0.30036  1.0000
  C   C564      1.0  0.15255  0.66530  0.30236  1.0000
  H   H1010     1.0  0.01160  0.53546  0.15871  1.0000
  H   H1011     1.0  0.22274  0.50946  0.27245  1.0000
  C   C565      1.0  0.11899  0.50867  0.13141  1.0000
  C   C566      1.0  0.02733  0.70536  0.41997  1.0000
  N   N32       1.0  0.27972  0.57790  0.38791  1.0000
  H   H1012     1.0  0.31561  0.67919  0.04493  1.0000
  H   H1013     1.0  0.22205  0.58845  0.36962  1.0000
  C   C567      1.0  0.08953  0.52035  0.19919  1.0000
  H   H1014     1.0  0.04461  0.70822  0.43733  1.0000
  H   H1015     1.0  0.26407  0.63437  0.39485  1.0000
  H   H1016     1.0  0.11491  0.52326  0.00031  1.0000
  H   H1017     1.0  0.29781  0.56430  0.18211  1.0000
  H   H1018     1.0  0.05031  0.72956  0.27906  1.0000
  H   H1019     1.0  0.00825  0.54140  0.07278  1.0000
  C   C568      1.0  0.23429  0.50244  0.18719  1.0000
  H   H1020     1.0  0.30873  0.52910  0.26148  1.0000
  H   H1021     1.0  0.31649  0.71914  0.04649  1.0000
  C   C569      1.0  0.30370  0.51340  0.17295  1.0000
  H   H1022     1.0  0.25521  0.66025  0.27454  1.0000
  H   H1023     1.0  0.00454  0.62967  0.39939  1.0000
  H   H1024     1.0  0.30563  0.69031  0.06464  1.0000
  C   C570      1.0  0.29411  0.72215  0.21156  1.0000
  C   C571      1.0  0.08011  0.54721  0.05525  1.0000
  C   C572      1.0  0.05123  0.70912  0.35562  1.0000
  C   C573      1.0  0.10414  0.48833  0.06589  1.0000
  H   H1025     1.0  0.99182  0.49237  0.20152  1.0000
  H   H1026     1.0  0.26092  0.55796  0.44519  1.0000
  S   S121      1.0  0.13129  0.49717  0.03539  1.0000
  H   H1027     1.0  0.24217  0.59360  0.38844  1.0000
  C   C574      1.0  0.04865  0.55189  0.00779  1.0000
  H   H1028     1.0  0.30307  0.71796  0.19844  1.0000
  H   H1029     1.0  0.23755  0.70946  0.28420  1.0000
  H   H1030     1.0  0.15930  0.52516  0.08435  1.0000
  H   H1031     1.0  0.15717  0.53752  0.04562  1.0000
  H   H1032     1.0  0.25971  0.61654  0.37346  1.0000
  C   C575      1.0  0.29259  0.65331  0.27894  1.0000
  N   N33       1.0  0.24701  0.64990  0.18107  1.0000
  C   C576      1.0  0.24184  0.63515  0.19826  1.0000
  C   C577      1.0  0.25274  0.66490  0.18680  1.0000
  C   C578      1.0  0.22952  0.65896  0.17336  1.0000
  C   C579      1.0  0.26216  0.64193  0.16595  1.0000
  C   C580      1.0  0.27745  0.62507  0.17255  1.0000
  C   C581      1.0  0.23180  0.62096  0.19544  1.0000
  C   C582      1.0  0.23089  0.67623  0.15700  1.0000
  C   C583      1.0  0.27010  0.65876  0.19579  1.0000
  C   C584      1.0  0.27237  0.67431  0.20392  1.0000
  C   C585      1.0  0.29364  0.62064  0.15626  1.0000
  C   C586      1.0  0.23146  0.60395  0.21167  1.0000
  C   C587      1.0  0.21397  0.68166  0.14786  1.0000
  H   H1033     1.0  0.23237  0.64192  0.20977  1.0000
  H   H1034     1.0  0.25423  0.62705  0.20407  1.0000
  H   H1035     1.0  0.25628  0.67608  0.17441  1.0000
  H   H1036     1.0  0.24074  0.67177  0.19665  1.0000
  H   H1037     1.0  0.21757  0.66339  0.18468  1.0000
  H   H1038     1.0  0.22529  0.64868  0.16800  1.0000
  H   H1039     1.0  0.25602  0.63705  0.15671  1.0000
  H   H1040     1.0  0.26932  0.65312  0.15640  1.0000
  H   H1041     1.0  0.27144  0.61241  0.17887  1.0000
  H   H1042     1.0  0.28337  0.62749  0.18326  1.0000
  H   H1043     1.0  0.21701  0.62773  0.19480  1.0000
  H   H1044     1.0  0.23869  0.61599  0.18222  1.0000
  H   H1045     1.0  0.24366  0.67341  0.14608  1.0000
  H   H1046     1.0  0.23121  0.68848  0.16223  1.0000
  H   H1047     1.0  0.26925  0.64630  0.20732  1.0000
  H   H1048     1.0  0.28296  0.65573  0.18496  1.0000
  H   H1049     1.0  0.28449  0.66915  0.21085  1.0000
  H   H1050     1.0  0.27513  0.68666  0.19261  1.0000
  H   H1051     1.0  0.25965  0.67861  0.21447  1.0000
  H   H1052     1.0  0.30439  0.60869  0.16151  1.0000
  H   H1053     1.0  0.31237  0.58086  0.29141  1.0000
  H   H1054     1.0  0.31133  0.59404  0.36286  1.0000
  H   H1055     1.0  0.24578  0.59538  0.21144  1.0000
  H   H1056     1.0  0.22575  0.60833  0.22534  1.0000
  H   H1057     1.0  0.22255  0.59511  0.21024  1.0000
  H   H1058     1.0  0.21566  0.69366  0.13580  1.0000
  H   H1059     1.0  0.21267  0.66983  0.14253  1.0000
  H   H1060     1.0  0.20092  0.68588  0.15807  1.0000
  C   C588      1.0  0.26347  0.53282  0.36408  1.0000
  N   N34       1.0  0.08388  0.64156  0.21507  1.0000
  C   C589      1.0  0.06379  0.65066  0.22185  1.0000
  C   C590      1.0  0.09588  0.65605  0.20961  1.0000
  C   C591      1.0  0.08492  0.63501  0.19750  1.0000
  C   C592      1.0  0.09109  0.62483  0.22928  1.0000
  C   C593      1.0  0.08373  0.62552  0.25033  1.0000
  C   C594      1.0  0.04924  0.63852  0.22462  1.0000
  C   C595      1.0  0.10489  0.62765  0.18669  1.0000
  C   C596      1.0  0.09628  0.66573  0.22510  1.0000
  C   C597      1.0  0.10539  0.68274  0.21668  1.0000
  C   C598      1.0  0.09371  0.60838  0.26259  1.0000
  C   C599      1.0  0.03035  0.64640  0.23624  1.0000
  C   C600      1.0  0.10456  0.61668  0.17253  1.0000
  H   H1061     1.0  0.05969  0.66393  0.21177  1.0000
  H   H1062     1.0  0.06187  0.65496  0.23525  1.0000
  H   H1063     1.0  0.11081  0.64971  0.20446  1.0000
  H   H1064     1.0  0.09154  0.66717  0.19767  1.0000
  H   H1065     1.0  0.07790  0.64653  0.18744  1.0000
  H   H1066     1.0  0.07723  0.62345  0.20091  1.0000
  H   H1067     1.0  0.08770  0.61191  0.22779  1.0000
  H   H1068     1.0  0.10661  0.62206  0.22648  1.0000
  H   H1069     1.0  0.06858  0.62540  0.25466  1.0000
  H   H1070     1.0  0.08575  0.63817  0.25356  1.0000
  H   H1071     1.0  0.04691  0.63833  0.21079  1.0000
  H   H1072     1.0  0.05410  0.62383  0.23168  1.0000
  H   H1073     1.0  0.11363  0.61831  0.19643  1.0000
  H   H1074     1.0  0.11171  0.63957  0.17885  1.0000
  H   H1075     1.0  0.08218  0.67081  0.23314  1.0000
  H   H1076     1.0  0.10480  0.65584  0.23486  1.0000
  H   H1077     1.0  0.11962  0.67872  0.20815  1.0000
  H   H1078     1.0  0.10672  0.68865  0.22810  1.0000
  H   H1079     1.0  0.08861  0.60923  0.27757  1.0000
  H   H1080     1.0  0.09097  0.59530  0.26079  1.0000
  H   H1081     1.0  0.10904  0.60757  0.25883  1.0000
  H   H1082     1.0  0.02487  0.66105  0.22945  1.0000
  H   H1083     1.0  0.02013  0.63777  0.23741  1.0000
  H   H1084     1.0  0.03167  0.64606  0.25060  1.0000
  H   H1085     1.0  0.11907  0.61202  0.16489  1.0000
  H   H1086     1.0  0.09869  0.60400  0.17979  1.0000
  S   S122      1.0  0.06298  0.49056  0.18089  1.0000
  H   H1087     1.0  0.13198  0.64898  0.30611  1.0000
  H   H1088     1.0  0.24964  0.53674  0.36103  1.0000
  S   S123      1.0  0.12885  0.53426  0.22888  1.0000
  C   C601      1.0  0.22098  0.53743  0.05303  1.0000
  H   H1089     1.0  0.31711  0.69333  0.23319  1.0000
  C   C602      1.0  0.16412  0.50988  0.26106  1.0000
  C   C603      1.0  0.31391  0.53380  0.28674  1.0000
  S   S124      1.0  0.30892  0.61492  0.20931  1.0000
  S   S125      1.0  0.03495  0.52499  0.09665  1.0000
  C   C604      1.0  0.29283  0.60030  0.21785  1.0000
  C   C605      1.0  0.31355  0.54852  0.00296  1.0000
  C   C606      1.0  0.19945  0.64560  0.25548  1.0000
  H   H1090     1.0  0.13550  0.52411  0.10799  1.0000
  H   H1091     1.0  0.25398  0.52194  0.39367  1.0000
  S   S126      1.0  0.11603  0.57958  0.21835  1.0000
  H   H1092     1.0  0.07743  0.71663  0.32474  1.0000
  H   H1093     1.0  0.15979  0.57137  0.25970  1.0000
  C   C607      1.0  0.28449  0.55980  0.42126  1.0000
  H   H1094     1.0  0.30875  0.53425  0.34309  1.0000
  H   H1095     1.0  0.09678  0.69378  0.20773  1.0000
  C   C608      1.0  0.20330  0.53201  0.18398  1.0000
  H   H1096     1.0  0.17461  0.54919  0.12104  1.0000
  S   S127      1.0  0.25666  0.58069  0.28931  1.0000
  H   H1097     1.0  0.27281  0.61935  0.23360  1.0000
  C   C609      1.0  0.01080  0.71269  0.41304  1.0000
  H   H1098     1.0  0.08131  0.49358  0.20825  1.0000
  H   H1099     1.0  0.03312  0.52463  0.16552  1.0000
  H   H1100     1.0  0.22423  0.52449  0.23040  1.0000
  H   H1101     1.0  0.26163  0.57156  0.16796  1.0000
  H   H1102     1.0  0.21541  0.48783  0.20911  1.0000
  H   H1103     1.0  0.06333  0.71241  0.35884  1.0000
  H   H1104     1.0  0.28946  0.59745  0.39748  1.0000
  C   C610      1.0  0.01618  0.52820  0.06923  1.0000
  C   C611      1.0  0.17408  0.71166  0.29022  1.0000
  Fe  Fe59      1.0  0.16041  0.72195  0.20367  1.0000
  C   C612      1.0  0.24719  0.58207  0.38066  1.0000
  N   N35       1.0  0.15875  0.63151  0.29711  1.0000
  H   H1105     1.0  0.09486  0.70469  0.25648  1.0000
  H   H1106     1.0  0.29616  0.60013  0.26644  1.0000
  H   H1107     1.0  0.31310  0.49960  0.17669  1.0000
  H   H1108     1.0  0.30424  0.49134  0.35185  1.0000
  C   C613      1.0  0.29678  0.53128  0.35391  1.0000
  C   C614      1.0  0.28354  0.54135  0.18520  1.0000
  H   H1109     1.0  0.04427  0.55446  0.15548  1.0000
  S   S128      1.0  0.28711  0.50970  0.40964  1.0000
  Fe  Fe60      1.0  0.29873  0.73307  0.09213  1.0000
  H   H1110     1.0  0.31775  0.66908  0.30239  1.0000
  H   H1111     1.0  0.20988  0.63217  0.25695  1.0000
  C   C615      1.0  0.03191  0.71406  0.43206  1.0000
  H   H1112     1.0  0.24189  0.63741  0.26349  1.0000
  C   C616      1.0  0.17163  0.59438  0.34138  1.0000
  S   S129      1.0  0.22215  0.57431  0.32611  1.0000
  H   H1113     1.0  0.23059  0.49594  0.30316  1.0000
  C   C617      1.0  0.27635  0.60560  0.23054  1.0000
  H   H1114     1.0  0.27393  0.53890  0.17765  1.0000
  H   H1115     1.0  0.26502  0.59917  0.40420  1.0000
  C   C618      1.0  0.26496  0.51804  0.02539  1.0000
  C   C619      1.0  0.08555  0.70096  0.28686  1.0000
  S   S130      1.0  0.21486  0.58365  0.28295  1.0000
  C   C620      1.0  0.27225  0.57588  0.17261  1.0000
  C   C621      1.0  0.28948  0.56009  0.17450  1.0000
  C   C622      1.0  0.21800  0.71168  0.24791  1.0000
  H   H1116     1.0  0.07051  0.52539  0.15483  1.0000
  H   H1117     1.0  0.18428  0.64130  0.29193  1.0000
  H   H1118     1.0  0.16952  0.62934  0.32155  1.0000
  H   H1119     1.0  0.00450  0.59612  0.41380  1.0000
  H   H1120     1.0  0.26125  0.51849  0.20348  1.0000
  H   H1121     1.0  0.30500  0.56297  0.00160  1.0000
  C   C623      1.0  0.01101  0.52085  0.05660  1.0000
  H   H1122     1.0  0.15647  0.65986  0.31619  1.0000
  C   C624      1.0  0.20737  0.51364  0.27769  1.0000
  C   C625      1.0  0.20894  0.73052  0.24538  1.0000
  S   S131      1.0  0.27565  0.53416  0.10571  1.0000
  H   H1123     1.0  0.31307  0.54284  0.03277  1.0000
  S   S132      1.0  0.23563  0.56184  0.12040  1.0000
  N   N36       1.0  0.29873  0.52397  0.18851  1.0000
  H   H1124     1.0  0.29796  0.55911  0.16036  1.0000
  S   S133      1.0  0.21723  0.48469  0.05206  1.0000
  C   C626      1.0  0.27223  0.50605  0.20719  1.0000
  H   H1125     1.0  0.03872  0.71257  0.36674  1.0000
  Fe  Fe61      1.0  0.14671  0.72444  0.24477  1.0000
  H   H1126     1.0  0.29781  0.61567  0.29155  1.0000
  H   H1127     1.0  0.18955  0.52930  0.23781  1.0000
  H   H1128     1.0  0.20489  0.52849  0.27905  1.0000
  H   H1129     1.0  0.16139  0.52328  0.25087  1.0000
  H   H1130     1.0  0.18752  0.54216  0.25499  1.0000
  H   H1131     1.0  0.25908  0.71040  0.22349  1.0000
  C   C627      1.0  0.19629  0.53007  0.24886  1.0000
  C   C628      1.0  0.19549  0.72758  0.15974  1.0000
  S   S134      1.0  0.14648  0.55762  0.18713  1.0000
  Fe  Fe62      1.0  0.25079  0.55822  0.31497  1.0000
  C   C629      1.0  0.15786  0.56394  0.27416  1.0000
  C   C630      1.0  0.27898  0.53630  0.34975  1.0000
  H   H1132     1.0  0.27459  0.54442  0.19881  1.0000
  Fe  Fe63      1.0  0.24339  0.56613  0.27574  1.0000
  S   S135      1.0  0.07551  0.71637  0.46842  1.0000
  C   C631      1.0  0.14158  0.55674  0.28260  1.0000
  C   C632      1.0  0.19847  0.50854  0.11656  1.0000
  H   H1133     1.0  0.08510  0.54275  0.98920  1.0000
  C   C633      1.0  0.23098  0.53415  0.06720  1.0000
  S   S136      1.0  0.25549  0.55879  0.24763  1.0000
  H   H1134     1.0  0.22331  0.53659  0.24830  1.0000
  H   H1135     1.0  0.30864  0.56959  0.39080  1.0000
  C   C634      1.0  0.27472  0.63208  0.38192  1.0000
  H   H1136     1.0  0.23984  0.71410  0.19809  1.0000
  C   C635      1.0  0.21647  0.52252  0.04836  1.0000
  C   C636      1.0  0.08272  0.53856  0.16946  1.0000
  H   H1137     1.0  0.20900  0.52528  0.03725  1.0000
  S   S137      1.0  0.09603  0.55657  0.18884  1.0000
  C   C637      1.0  0.04129  0.50110  0.07317  1.0000
  C   C638      1.0  0.03907  0.54845  0.13148  1.0000
  H   H1138     1.0  0.09611  0.62557  0.16223  1.0000
  C   C639      1.0  0.23618  0.51874  0.17352  1.0000
  Fe  Fe64      1.0  0.21158  0.56097  0.30856  1.0000
  C   C640      1.0  0.17141  0.56204  0.28469  1.0000
  C   C641      1.0  0.26919  0.57514  0.23536  1.0000
  C   C642      1.0  0.02084  0.50342  0.05259  1.0000
  H   H1139     1.0  0.04680  0.55908  0.12184  1.0000
  H   H1140     1.0  0.27292  0.56465  0.36933  1.0000
  C   C643      1.0  0.16844  0.60123  0.32138  1.0000
  H   H1141     1.0  0.21693  0.55159  0.04538  1.0000
  S   S138      1.0  0.18481  0.54995  0.31796  1.0000
  C   C644      1.0  0.14175  0.70909  0.46660  1.0000
  H   H1142     1.0  0.29649  0.69947  0.04365  1.0000
  C   C645      1.0  0.08956  0.53691  0.18551  1.0000
  Fe  Fe65      1.0  0.25884  0.73036  0.11237  1.0000
  H   H1143     1.0  0.30796  0.68216  0.28239  1.0000
  H   H1144     1.0  0.30213  0.53544  0.14774  1.0000
  H   H1145     1.0  0.30178  0.55510  0.37987  1.0000
  C   C646      1.0  0.17692  0.51096  0.27346  1.0000
  S   S139      1.0  0.12343  0.55968  0.27071  1.0000
  H   H1146     1.0  0.11322  0.70163  0.26869  1.0000
  H   H1147     1.0  0.31273  0.54615  0.29253  1.0000
  S   S140      1.0  0.17979  0.51219  0.21176  1.0000
  C   C647      1.0  0.22075  0.53363  0.17196  1.0000
  H   H1148     1.0  0.17048  0.70924  0.46421  1.0000
  Fe  Fe66      1.0  0.11793  0.55547  0.20509  1.0000
  C   C648      1.0  0.16872  0.55287  0.30364  1.0000
  H   H1149     1.0  0.19130  0.54341  0.18275  1.0000
  H   H1150     1.0  0.18214  0.60111  0.34335  1.0000
  H   H1151     1.0  0.17632  0.49860  0.28517  1.0000
  C   C649      1.0  0.07580  0.52390  0.16717  1.0000
  C   C650      1.0  0.29095  0.51137  0.20648  1.0000
  H   H1152     1.0  0.30895  0.57926  0.20226  1.0000
  C   C651      1.0  0.28607  0.52534  0.05076  1.0000
  C   C652      1.0  0.15252  0.54567  0.31186  1.0000
  H   H1153     1.0  0.14258  0.70707  0.45237  1.0000
  H   H1154     1.0  0.12646  0.54231  0.30824  1.0000
  S   S141      1.0  0.13504  0.71502  0.22532  1.0000
  C   C653      1.0  0.14385  0.53450  0.05507  1.0000
  H   H1155     1.0  0.28817  0.55671  0.21830  1.0000
  H   H1156     1.0  0.27212  0.58872  0.36070  1.0000
  H   H1157     1.0  0.30317  0.52585  0.29566  1.0000
  Fe  Fe67      1.0  0.25291  0.55517  0.09293  1.0000
  C   C654      1.0  0.02946  0.54068  0.19362  1.0000
  H   H1158     1.0  0.29778  0.65876  0.24124  1.0000
  S   S142      1.0  0.23742  0.55341  0.07145  1.0000
  C   C655      1.0  0.99418  0.60741  0.42011  1.0000
  H   H1159     1.0  0.03661  0.54179  0.23707  1.0000
  H   H1160     1.0  0.02240  0.56708  0.14929  1.0000
  H   H1161     1.0  0.07275  0.69671  0.28649  1.0000
  H   H1162     1.0  0.22505  0.72094  0.14726  1.0000
  H   H1163     1.0  0.05390  0.69391  0.35591  1.0000
  C   C656      1.0  0.22988  0.71550  0.27315  1.0000
  H   H1164     1.0  0.25214  0.64812  0.24006  1.0000
  H   H1165     1.0  0.00938  0.48743  0.09623  1.0000
  H   H1166     1.0  0.04866  0.53448  0.13212  1.0000
  S   S143      1.0  0.31162  0.72635  0.30074  1.0000
  C   C657      1.0  0.15690  0.71931  0.46591  1.0000
  Fe  Fe68      1.0  0.15718  0.53801  0.21164  1.0000
  H   H1167     1.0  0.19089  0.51941  0.08979  1.0000
  H   H1168     1.0  0.08264  0.55132  0.15882  1.0000
  H   H1169     1.0  0.03705  0.55213  0.18597  1.0000
  C   C658      1.0  0.25849  0.72545  0.22248  1.0000
  H   H1170     1.0  0.19562  0.72717  0.36180  1.0000
  C   C659      1.0  0.20138  0.51538  0.19726  1.0000
  C   C660      1.0  0.31887  0.51045  0.13946  1.0000
  C   C661      1.0  0.23171  0.50082  0.07218  1.0000
  H   H1171     1.0  0.24876  0.50174  0.01893  1.0000
  H   H1172     1.0  0.26643  0.59271  0.01843  1.0000
  C   C662      1.0  0.04709  0.72752  0.29463  1.0000
  H   H1173     1.0  0.30486  0.63536  0.23877  1.0000
  H   H1174     1.0  0.01750  0.67263  0.34393  1.0000
  H   H1175     1.0  0.15176  0.50475  0.05809  1.0000
  H   H1176     1.0  0.06547  0.70146  0.32027  1.0000
  C   C663      1.0  0.30896  0.54097  0.26740  1.0000
  H   H1177     1.0  0.16082  0.71666  0.28514  1.0000
  C   C664      1.0  0.27533  0.55340  0.02815  1.0000
  H   H1178     1.0  0.27380  0.72834  0.19422  1.0000
  H   H1179     1.0  0.18582  0.71325  0.31230  1.0000
  C   C665      1.0  0.31576  0.52890  0.19121  1.0000
  H   H1180     1.0  0.31322  0.51803  0.37476  1.0000
  C   C666      1.0  0.30946  0.69291  0.04909  1.0000
  H   H1181     1.0  0.25238  0.70774  0.17612  1.0000
  H   H1182     1.0  0.17711  0.69613  0.29395  1.0000
  C   C667      1.0  0.23951  0.71635  0.18309  1.0000
  C   C668      1.0  0.04764  0.72071  0.33658  1.0000
  H   H1183     1.0  0.29039  0.49557  0.04972  1.0000
  H   H1184     1.0  0.02922  0.65527  0.36109  1.0000
  H   H1185     1.0  0.22720  0.71166  0.18208  1.0000
  H   H1186     1.0  0.17247  0.72241  0.37237  1.0000
  H   H1187     1.0  0.09108  0.69195  0.29919  1.0000
  C   C669      1.0  0.27651  0.63603  0.26728  1.0000
  H   H1188     1.0  0.05091  0.52292  0.00866  1.0000
  H   H1189     1.0  0.99920  0.52843  0.05033  1.0000
  H   H1190     1.0  0.05321  0.49360  0.07922  1.0000
  H   H1191     1.0  0.10387  0.68184  0.26940  1.0000
  H   H1192     1.0  0.31061  0.57635  0.12607  1.0000
  S   S144      1.0  0.02752  0.49474  0.14761  1.0000
  H   H1193     1.0  0.29484  0.55029  0.26865  1.0000
  H   H1194     1.0  0.03506  0.71730  0.33450  1.0000
  Fe  Fe69      1.0  0.31713  0.50510  0.41220  1.0000
  Fe  Fe70      1.0  0.16238  0.48972  0.02417  1.0000
  H   H1195     1.0  0.26214  0.51110  0.04038  1.0000
  H   H1196     1.0  0.31351  0.51370  0.32156  1.0000
  H   H1197     1.0  0.14375  0.69508  0.47602  1.0000
  C   C670      1.0  0.18044  0.49351  0.10269  1.0000
  H   H1198     1.0  0.26058  0.50483  0.23700  1.0000
  H   H1199     1.0  0.32134  0.53925  0.17894  1.0000
  C   C671      1.0  0.21611  0.50213  0.30971  1.0000
  H   H1200     1.0  0.02282  0.57191  0.00414  1.0000
  H   H1201     1.0  0.99359  0.56198  0.19862  1.0000
  C   C672      1.0  0.08149  0.72189  0.28805  1.0000
  H   H1202     1.0  0.12046  0.49562  0.14239  1.0000
  C   C673      1.0  0.21151  0.72917  0.14524  1.0000
  H   H1203     1.0  0.29990  0.50471  0.08287  1.0000
  H   H1204     1.0  0.31725  0.71284  0.01415  1.0000
  H   H1205     1.0  0.14721  0.51146  0.12703  1.0000
  Fe  Fe71      1.0  0.05563  0.48500  0.15576  1.0000
  H   H1206     1.0  0.30746  0.64089  0.30189  1.0000
  N   N37       1.0  0.30386  0.73289  0.21882  1.0000
  H   H1207     1.0  0.99073  0.54969  0.10906  1.0000
  Fe  Fe72      1.0  0.24559  0.73318  0.34297  1.0000
  C   C674      1.0  0.00273  0.52652  0.19527  1.0000
  H   H1208     1.0  0.09384  0.72419  0.29182  1.0000
  N   N38       1.0  0.06371  0.72874  0.30140  1.0000
  H   H1209     1.0  0.19381  0.48648  0.09452  1.0000
  H   H1210     1.0  0.25883  0.72735  0.23638  1.0000
  H   H1211     1.0  0.99496  0.50683  0.11603  1.0000
  Fe  Fe73      1.0  0.11197  0.51762  0.87429  1.0000
  S   S145      1.0  0.13765  0.52939  0.86834  1.0000
  H   H1212     1.0  0.29584  0.56535  0.78640  1.0000
  Fe  Fe74      1.0  0.09575  0.53149  0.91114  1.0000
  S   S146      1.0  0.12018  0.54468  0.90763  1.0000
  S   S147      1.0  0.07712  0.52837  0.94032  1.0000
  Fe  Fe75      1.0  0.11800  0.55471  0.87739  1.0000
  S   S148      1.0  0.12134  0.58308  0.85892  1.0000
  Fe  Fe76      1.0  0.13761  0.51840  0.89878  1.0000
  C   C675      1.0  0.19842  0.68508  0.50618  1.0000
  S   S149      1.0  0.09184  0.54379  0.88141  1.0000
  S   S150      1.0  0.11364  0.50452  0.90398  1.0000
  H   H1213     1.0  0.07345  0.50571  0.81670  1.0000
  H   H1214     1.0  0.30383  0.58976  0.83465  1.0000
  H   H1215     1.0  0.15885  0.66815  0.76985  1.0000
  H   H1216     1.0  0.07114  0.71147  0.56347  1.0000
  H   H1217     1.0  0.21749  0.56062  0.85468  1.0000
  N   N39       1.0  0.30794  0.71029  0.83315  1.0000
  H   H1218     1.0  0.10982  0.52060  0.96213  1.0000
  S   S151      1.0  0.07283  0.69464  0.52482  1.0000
  C   C676      1.0  0.30309  0.53840  0.80370  1.0000
  H   H1219     1.0  0.26122  0.65901  0.54723  1.0000
  H   H1220     1.0  0.26930  0.70206  0.63585  1.0000
  H   H1221     1.0  0.09244  0.54749  0.79080  1.0000
  C   C677      1.0  0.31703  0.56404  0.63026  1.0000
  C   C678      1.0  0.27329  0.68426  0.67198  1.0000
  H   H1222     1.0  0.07841  0.50247  0.69809  1.0000
  Fe  Fe77      1.0  0.16068  0.66235  0.56889  1.0000
  S   S152      1.0  0.13976  0.66968  0.59440  1.0000
  S   S153      1.0  0.15500  0.66734  0.54001  1.0000
  Fe  Fe78      1.0  0.19368  0.65264  0.58774  1.0000
  S   S154      1.0  0.17568  0.65970  0.61462  1.0000
  S   S155      1.0  0.22455  0.64040  0.58518  1.0000
  Fe  Fe79      1.0  0.15618  0.64423  0.61058  1.0000
  S   S156      1.0  0.14146  0.62712  0.63695  1.0000
  Fe  Fe80      1.0  0.16079  0.68443  0.59653  1.0000
  S   S157      1.0  0.17520  0.63521  0.58473  1.0000
  H   H1223     1.0  0.24226  0.69695  0.77390  1.0000
  Fe  Fe81      1.0  0.19563  0.66982  0.79918  1.0000
  S   S158      1.0  0.21178  0.65573  0.82186  1.0000
  S   S159      1.0  0.17332  0.69543  0.80349  1.0000
  Fe  Fe82      1.0  0.21703  0.64216  0.77443  1.0000
  S   S160      1.0  0.23474  0.62606  0.79514  1.0000
  S   S161      1.0  0.22314  0.63249  0.74737  1.0000
  Fe  Fe83      1.0  0.20786  0.62913  0.81670  1.0000
  S   S162      1.0  0.20128  0.60389  0.83931  1.0000
  Fe  Fe84      1.0  0.23681  0.65400  0.79803  1.0000
  S   S163      1.0  0.26471  0.66187  0.79273  1.0000
  S   S164      1.0  0.18999  0.64343  0.79568  1.0000
  S   S165      1.0  0.22077  0.67002  0.77575  1.0000
  Fe  Fe85      1.0  0.16932  0.51948  0.74236  1.0000
  S   S166      1.0  0.16060  0.54898  0.72703  1.0000
  H   H1224     1.0  0.31828  0.48449  0.51952  1.0000
  Fe  Fe86      1.0  0.21048  0.52222  0.73375  1.0000
  S   S167      1.0  0.20507  0.55197  0.71775  1.0000
  S   S168      1.0  0.23878  0.50557  0.73881  1.0000
  Fe  Fe87      1.0  0.17976  0.55596  0.74090  1.0000
  S   S169      1.0  0.16827  0.57976  0.75582  1.0000
  Fe  Fe88      1.0  0.18652  0.54237  0.70524  1.0000
  S   S170      1.0  0.18906  0.55107  0.67399  1.0000
  S   S171      1.0  0.18665  0.52712  0.75793  1.0000
  S   S172      1.0  0.19387  0.51200  0.71943  1.0000
  C   C679      1.0  0.20784  0.61812  0.74908  1.0000
  C   C680      1.0  0.18911  0.62264  0.75806  1.0000
  C   C681      1.0  0.17701  0.61079  0.76000  1.0000
  C   C682      1.0  0.18363  0.59443  0.75289  1.0000
  C   C683      1.0  0.20239  0.58987  0.74392  1.0000
  C   C684      1.0  0.21448  0.60172  0.74201  1.0000
  H   H1225     1.0  0.18391  0.63541  0.76328  1.0000
  H   H1226     1.0  0.16252  0.61428  0.76703  1.0000
  H   H1227     1.0  0.20766  0.57708  0.73875  1.0000
  H   H1228     1.0  0.22905  0.59802  0.73540  1.0000
  H   H1229     1.0  0.22915  0.73016  0.80675  1.0000
  C   C685      1.0  0.24663  0.53808  0.74112  1.0000
  C   C686      1.0  0.16608  0.70974  0.78323  1.0000
  C   C687      1.0  0.17442  0.70570  0.76550  1.0000
  H   H1230     1.0  0.18558  0.69356  0.76401  1.0000
  C   C688      1.0  0.15571  0.60717  0.64791  1.0000
  C   C689      1.0  0.17340  0.59963  0.63826  1.0000
  C   C690      1.0  0.18372  0.58258  0.64656  1.0000
  C   C691      1.0  0.17671  0.57334  0.66477  1.0000
  C   C692      1.0  0.15942  0.58138  0.67477  1.0000
  C   C693      1.0  0.14883  0.59813  0.66625  1.0000
  H   H1231     1.0  0.17879  0.60651  0.62409  1.0000
  H   H1232     1.0  0.19707  0.57641  0.63873  1.0000
  H   H1233     1.0  0.15401  0.57447  0.68887  1.0000
  H   H1234     1.0  0.13518  0.60398  0.67378  1.0000
  H   H1235     1.0  0.18934  0.69741  0.60447  1.0000
  C   C694      1.0  0.09557  0.68750  0.52932  1.0000
  C   C695      1.0  0.09839  0.67709  0.54704  1.0000
  C   C696      1.0  0.11652  0.67117  0.55076  1.0000
  C   C697      1.0  0.13190  0.67523  0.53656  1.0000
  H   H1236     1.0  0.30273  0.66233  0.78999  1.0000
  H   H1237     1.0  0.23501  0.71909  0.66364  1.0000
  H   H1238     1.0  0.08657  0.67339  0.55780  1.0000
  H   H1239     1.0  0.11868  0.66291  0.56433  1.0000
  H   H1240     1.0  0.11414  0.64809  0.85891  1.0000
  C   C698      1.0  0.11059  0.66233  0.83046  1.0000
  H   H1241     1.0  0.30624  0.64228  0.75730  1.0000
  H   H1242     1.0  0.14263  0.68376  0.79647  1.0000
  C   C699      1.0  0.18318  0.70351  0.61668  1.0000
  C   C700      1.0  0.16428  0.71229  0.61992  1.0000
  C   C701      1.0  0.29629  0.65547  0.68472  1.0000
  C   C702      1.0  0.24234  0.68405  0.59126  1.0000
  H   H1243     1.0  0.30634  0.67596  0.89583  1.0000
  S   S173      1.0  0.15038  0.71226  0.60489  1.0000
  H   H1244     1.0  0.17280  0.69284  0.49657  1.0000
  H   H1245     1.0  0.30817  0.50333  0.48253  1.0000
  H   H1246     1.0  0.17863  0.51908  0.81411  1.0000
  H   H1247     1.0  0.17445  0.71411  0.73602  1.0000
  H   H1248     1.0  0.26947  0.67619  0.55352  1.0000
  C   C703      1.0  0.30526  0.70699  0.81534  1.0000
  C   C704      1.0  0.16821  0.71743  0.74959  1.0000
  H   H1249     1.0  0.29644  0.60334  0.56690  1.0000
  H   H1250     1.0  0.14713  0.71789  0.49617  1.0000
  H   H1251     1.0  0.17211  0.70215  0.51632  1.0000
  C   C705      1.0  0.25343  0.51909  0.74095  1.0000
  C   C706      1.0  0.02266  0.53827  0.93631  1.0000
  C   C707      1.0  0.14352  0.58879  0.85392  1.0000
  C   C708      1.0  0.15732  0.57822  0.86384  1.0000
  C   C709      1.0  0.17486  0.58318  0.85950  1.0000
  C   C710      1.0  0.17889  0.59843  0.84494  1.0000
  C   C711      1.0  0.16519  0.60874  0.83486  1.0000
  C   C712      1.0  0.14747  0.60416  0.83954  1.0000
  H   H1252     1.0  0.15439  0.56639  0.87503  1.0000
  H   H1253     1.0  0.18530  0.57515  0.86749  1.0000
  H   H1254     1.0  0.16828  0.62017  0.82340  1.0000
  H   H1255     1.0  0.13694  0.61224  0.83169  1.0000
  H   H1256     1.0  0.29792  0.61600  0.58353  1.0000
  C   C713      1.0  0.25601  0.69411  0.74598  1.0000
  C   C714      1.0  0.19499  0.50640  0.85966  1.0000
  H   H1257     1.0  0.20862  0.50731  0.86179  1.0000
  H   H1258     1.0  0.24653  0.52497  0.80546  1.0000
  C   C715      1.0  0.30847  0.66763  0.54554  1.0000
  H   H1259     1.0  0.28980  0.67456  0.88325  1.0000
  H   H1260     1.0  0.32043  0.56492  0.80397  1.0000
  H   H1261     1.0  0.29111  0.63223  0.54001  1.0000
  H   H1262     1.0  0.23723  0.70926  0.79768  1.0000
  H   H1263     1.0  0.15878  0.53621  0.91600  1.0000
  C   C716      1.0  0.05255  0.53138  0.94542  1.0000
  C   C717      1.0  0.04226  0.53635  0.93139  1.0000
  H   H1264     1.0  0.04933  0.53881  0.91680  1.0000
  N   N40       1.0  0.17285  0.65465  0.68026  1.0000
  C   C718      1.0  0.15679  0.65595  0.67135  1.0000
  C   C719      1.0  0.17580  0.63626  0.69423  1.0000
  C   C720      1.0  0.16759  0.67041  0.69075  1.0000
  C   C721      1.0  0.19052  0.65713  0.66573  1.0000
  C   C722      1.0  0.19959  0.64162  0.65432  1.0000
  C   C723      1.0  0.15005  0.67516  0.65884  1.0000
  C   C724      1.0  0.18025  0.66955  0.70424  1.0000
  C   C725      1.0  0.17258  0.61875  0.68941  1.0000
  C   C726      1.0  0.17965  0.60090  0.70287  1.0000
  C   C727      1.0  0.21576  0.64724  0.63849  1.0000
  C   C728      1.0  0.13382  0.67479  0.65066  1.0000
  H   H1265     1.0  0.14444  0.65265  0.68250  1.0000
  H   H1266     1.0  0.16020  0.64533  0.66259  1.0000
  H   H1267     1.0  0.19007  0.63300  0.69708  1.0000
  H   H1268     1.0  0.16598  0.63740  0.70797  1.0000
  H   H1269     1.0  0.15300  0.67118  0.69919  1.0000
  H   H1270     1.0  0.18814  0.67075  0.65577  1.0000
  H   H1271     1.0  0.20157  0.65809  0.67229  1.0000
  H   H1272     1.0  0.18942  0.63869  0.64793  1.0000
  H   H1273     1.0  0.20548  0.62854  0.66350  1.0000
  H   H1274     1.0  0.14359  0.64474  0.83257  1.0000
  H   H1275     1.0  0.19477  0.67028  0.69654  1.0000
  H   H1276     1.0  0.18069  0.65656  0.71532  1.0000
  H   H1277     1.0  0.15738  0.61983  0.69084  1.0000
  H   H1278     1.0  0.17953  0.61702  0.67499  1.0000
  H   H1279     1.0  0.19488  0.59899  0.70197  1.0000
  H   H1280     1.0  0.17198  0.60154  0.71744  1.0000
  H   H1281     1.0  0.17728  0.58853  0.69931  1.0000
  H   H1282     1.0  0.21065  0.66009  0.62854  1.0000
  H   H1283     1.0  0.22674  0.64982  0.64413  1.0000
  H   H1284     1.0  0.22211  0.63584  0.63058  1.0000
  H   H1285     1.0  0.12180  0.67116  0.66198  1.0000
  H   H1286     1.0  0.12921  0.68881  0.64202  1.0000
  H   H1287     1.0  0.11090  0.59456  0.74718  1.0000
  C   C729      1.0  0.26930  0.58725  0.83354  1.0000
  C   C730      1.0  0.07841  0.49416  0.86196  1.0000
  H   H1288     1.0  0.06732  0.52967  0.80476  1.0000
  C   C731      1.0  0.09525  0.52145  0.81084  1.0000
  H   H1289     1.0  0.08138  0.64591  0.87265  1.0000
  H   H1290     1.0  0.31430  0.67858  0.49804  1.0000
  H   H1291     1.0  0.13801  0.55036  0.77335  1.0000
  H   H1292     1.0  0.05414  0.72502  0.57867  1.0000
  H   H1293     1.0  0.17965  0.72564  0.57038  1.0000
  C   C732      1.0  0.30635  0.69251  0.84791  1.0000
  S   S174      1.0  0.29016  0.55507  0.74744  1.0000
  H   H1294     1.0  0.24034  0.69537  0.66138  1.0000
  H   H1295     1.0  0.25310  0.56366  0.74221  1.0000
  H   H1296     1.0  0.01467  0.54229  0.92546  1.0000
  H   H1297     1.0  0.25675  0.64507  0.83260  1.0000
  C   C733      1.0  0.14393  0.65974  0.83051  1.0000
  H   H1298     1.0  0.19590  0.72175  0.49396  1.0000
  H   H1299     1.0  0.09874  0.67032  0.82364  1.0000
  H   H1300     1.0  0.09933  0.57697  0.77813  1.0000
  H   H1301     1.0  0.28637  0.64268  0.55965  1.0000
  H   H1302     1.0  0.15246  0.67588  0.84578  1.0000
  H   H1303     1.0  0.28359  0.67855  0.69826  1.0000
  N   N41       1.0  0.29929  0.58997  0.80760  1.0000
  H   H1304     1.0  0.11875  0.68950  0.84405  1.0000
  N   N42       1.0  0.12690  0.67204  0.82337  1.0000
  C   C734      1.0  0.19413  0.70248  0.62931  1.0000
  C   C735      1.0  0.13157  0.67533  0.80222  1.0000
  C   C736      1.0  0.26787  0.65702  0.59292  1.0000
  H   H1305     1.0  0.27978  0.56106  0.80848  1.0000
  H   H1306     1.0  0.28604  0.68771  0.66154  1.0000
  H   H1307     1.0  0.12600  0.65096  0.79562  1.0000
  H   H1308     1.0  0.23683  0.69874  0.59143  1.0000
  C   C737      1.0  0.23321  0.72304  0.75478  1.0000
  H   H1309     1.0  0.31752  0.59846  0.57552  1.0000
  C   C738      1.0  0.09705  0.48915  0.85279  1.0000
  H   H1310     1.0  0.30998  0.69397  0.56439  1.0000
  H   H1311     1.0  0.25405  0.69578  0.70523  1.0000
  H   H1312     1.0  0.23896  0.68896  0.54429  1.0000
  C   C739      1.0  0.10322  0.65812  0.85193  1.0000
  H   H1313     1.0  0.16150  0.67895  0.64699  1.0000
  S   S175      1.0  0.98875  0.53778  0.96124  1.0000
  C   C740      1.0  0.30527  0.56893  0.81027  1.0000
  H   H1314     1.0  0.27136  0.59331  0.80327  1.0000
  H   H1315     1.0  0.17166  0.54652  0.93765  1.0000
  H   H1316     1.0  0.21526  0.67076  0.72080  1.0000
  C   C741      1.0  0.13804  0.65756  0.79364  1.0000
  H   H1317     1.0  0.22041  0.69376  0.69140  1.0000
  C   C742      1.0  0.30557  0.59835  0.78712  1.0000
  H   H1318     1.0  0.24335  0.60830  0.83520  1.0000
  Fe  Fe89      1.0  0.06941  0.71760  0.49908  1.0000
  H   H1319     1.0  0.10893  0.69946  0.50148  1.0000
  C   C743      1.0  0.28540  0.66822  0.52672  1.0000
  C   C744      1.0  0.23810  0.65424  0.58864  1.0000
  C   C745      1.0  0.13411  0.52795  0.80442  1.0000
  C   C746      1.0  0.24803  0.59284  0.83705  1.0000
  C   C747      1.0  0.18542  0.51865  0.94905  1.0000
  H   H1320     1.0  0.09218  0.50325  0.67459  1.0000
  H   H1321     1.0  0.23953  0.67399  0.69149  1.0000
  H   H1322     1.0  0.24269  0.58790  0.82733  1.0000
  H   H1323     1.0  0.24187  0.58641  0.85164  1.0000
  H   H1324     1.0  0.14097  0.68796  0.50783  1.0000
  C   C748      1.0  0.17091  0.50699  0.92459  1.0000
  N   N43       1.0  0.13068  0.53204  0.67855  1.0000
  C   C749      1.0  0.14419  0.51349  0.68225  1.0000
  C   C750      1.0  0.11302  0.52859  0.67562  1.0000
  C   C751      1.0  0.13955  0.54364  0.66038  1.0000
  C   C752      1.0  0.12632  0.54288  0.69387  1.0000
  C   C753      1.0  0.12521  0.53140  0.71429  1.0000
  C   C754      1.0  0.16438  0.51459  0.68207  1.0000
  C   C755      1.0  0.12745  0.56287  0.65297  1.0000
  C   C756      1.0  0.10199  0.51587  0.69200  1.0000
  H   H1325     1.0  0.30088  0.66514  0.56047  1.0000
  C   C757      1.0  0.11471  0.54360  0.72857  1.0000
  H   H1326     1.0  0.29539  0.53195  0.79735  1.0000
  C   C758      1.0  0.13835  0.57326  0.63494  1.0000
  H   H1327     1.0  0.14536  0.50530  0.67157  1.0000
  H   H1328     1.0  0.13904  0.50457  0.69587  1.0000
  H   H1329     1.0  0.10275  0.54197  0.67292  1.0000
  H   H1330     1.0  0.11631  0.52254  0.66289  1.0000
  H   H1331     1.0  0.14413  0.53551  0.64904  1.0000
  H   H1332     1.0  0.15242  0.54704  0.66194  1.0000
  H   H1333     1.0  0.13712  0.55125  0.69152  1.0000
  H   H1334     1.0  0.11299  0.55343  0.69324  1.0000
  H   H1335     1.0  0.13954  0.52538  0.71687  1.0000
  H   H1336     1.0  0.11815  0.51961  0.71728  1.0000
  H   H1337     1.0  0.17172  0.52000  0.66762  1.0000
  H   H1338     1.0  0.16427  0.52396  0.69117  1.0000
  H   H1339     1.0  0.12320  0.57185  0.66349  1.0000
  H   H1340     1.0  0.11476  0.56126  0.64945  1.0000
  C   C759      1.0  0.13198  0.49310  0.75816  1.0000
  H   H1341     1.0  0.09520  0.52331  0.70368  1.0000
  H   H1342     1.0  0.30684  0.71928  0.80363  1.0000
  H   H1343     1.0  0.31381  0.64278  0.51147  1.0000
  H   H1344     1.0  0.29352  0.69722  0.78813  1.0000
  H   H1345     1.0  0.09968  0.54808  0.72793  1.0000
  H   H1346     1.0  0.11581  0.53539  0.74290  1.0000
  H   H1347     1.0  0.12067  0.55621  0.72586  1.0000
  H   H1348     1.0  0.19777  0.48946  0.95735  1.0000
  S   S176      1.0  0.16220  0.49918  0.90943  1.0000
  H   H1349     1.0  0.30860  0.66146  0.67660  1.0000
  H   H1350     1.0  0.13017  0.58764  0.63078  1.0000
  H   H1351     1.0  0.15191  0.57446  0.63696  1.0000
  H   H1352     1.0  0.14111  0.56578  0.62337  1.0000
  C   C760      1.0  0.08632  0.51124  0.68597  1.0000
  H   H1353     1.0  0.14895  0.64695  0.80009  1.0000
  H   H1354     1.0  0.29217  0.68948  0.85063  1.0000
  H   H1355     1.0  0.25013  0.72076  0.61207  1.0000
  H   H1356     1.0  0.09022  0.63540  0.85246  1.0000
  H   H1357     1.0  0.05111  0.52426  0.97517  1.0000
  H   H1358     1.0  0.13262  0.56735  0.78729  1.0000
  C   C761      1.0  0.28649  0.70151  0.81678  1.0000
  H   H1359     1.0  0.14493  0.68643  0.66694  1.0000
  C   C762      1.0  0.10416  0.53631  0.79510  1.0000
  H   H1360     1.0  0.13554  0.67333  0.76540  1.0000
  H   H1361     1.0  0.28212  0.65078  0.59427  1.0000
  H   H1362     1.0  0.10574  0.50819  0.81301  1.0000
  N   N44       1.0  0.11833  0.54418  0.79978  1.0000
  H   H1363     1.0  0.30003  0.64599  0.69772  1.0000
  C   C763      1.0  0.10629  0.70577  0.82085  1.0000
  H   H1364     1.0  0.13501  0.69718  0.82373  1.0000
  C   C764      1.0  0.01334  0.53510  0.95523  1.0000
  H   H1365     1.0  0.09616  0.58159  0.80619  1.0000
  H   H1366     1.0  0.16777  0.68415  0.68072  1.0000
  H   H1367     1.0  0.04876  0.72688  0.54104  1.0000
  C   C765      1.0  0.21436  0.72969  0.78557  1.0000
  H   H1368     1.0  0.31951  0.57677  0.63306  1.0000
  C   C766      1.0  0.27960  0.67101  0.68977  1.0000
  H   H1369     1.0  0.11560  0.49264  0.78621  1.0000
  H   H1370     1.0  0.07451  0.50448  0.87060  1.0000
  H   H1371     1.0  0.21948  0.70320  0.83019  1.0000
  H   H1372     1.0  0.28778  0.68191  0.51778  1.0000
  N   N45       1.0  0.25899  0.70205  0.67480  1.0000
  N   N46       1.0  0.27563  0.59391  0.68517  1.0000
  C   C767      1.0  0.28345  0.60701  0.66768  1.0000
  C   C768      1.0  0.28696  0.59015  0.69996  1.0000
  C   C769      1.0  0.27752  0.57558  0.67964  1.0000
  C   C770      1.0  0.25516  0.60107  0.69288  1.0000
  C   C771      1.0  0.24951  0.62117  0.69679  1.0000
  C   C772      1.0  0.27309  0.61165  0.65135  1.0000
  C   C773      1.0  0.27282  0.55896  0.69588  1.0000
  C   C774      1.0  0.29366  0.60696  0.70219  1.0000
  C   C775      1.0  0.24839  0.70597  0.76088  1.0000
  C   C776      1.0  0.22897  0.62970  0.69643  1.0000
  C   C777      1.0  0.27915  0.62781  0.63598  1.0000
  C   C778      1.0  0.30120  0.60237  0.72002  1.0000
  H   H1373     1.0  0.29843  0.60097  0.66228  1.0000
  H   H1374     1.0  0.28387  0.62046  0.67057  1.0000
  H   H1375     1.0  0.27903  0.58401  0.71393  1.0000
  H   H1376     1.0  0.30001  0.57938  0.69699  1.0000
  H   H1377     1.0  0.29207  0.57096  0.67192  1.0000
  H   H1378     1.0  0.26826  0.57734  0.66983  1.0000
  H   H1379     1.0  0.24643  0.60000  0.68364  1.0000
  H   H1380     1.0  0.25026  0.59182  0.70644  1.0000
  H   H1381     1.0  0.25755  0.63108  0.68648  1.0000
  H   H1382     1.0  0.25154  0.62058  0.71096  1.0000
  H   H1383     1.0  0.27617  0.59933  0.64484  1.0000
  H   H1384     1.0  0.25775  0.61583  0.65614  1.0000
  H   H1385     1.0  0.25834  0.56245  0.70400  1.0000
  H   H1386     1.0  0.13773  0.70057  0.55723  1.0000
  H   H1387     1.0  0.30515  0.61047  0.69013  1.0000
  H   H1388     1.0  0.28239  0.61956  0.70279  1.0000
  C   C779      1.0  0.28378  0.52179  0.74412  1.0000
  C   C780      1.0  0.28200  0.70497  0.79749  1.0000
  H   H1389     1.0  0.27737  0.49622  0.74225  1.0000
  H   H1390     1.0  0.22685  0.63262  0.68191  1.0000
  H   H1391     1.0  0.21993  0.62006  0.70563  1.0000
  H   H1392     1.0  0.22475  0.64305  0.70143  1.0000
  H   H1393     1.0  0.29441  0.62454  0.63016  1.0000
  H   H1394     1.0  0.27173  0.63013  0.62454  1.0000
  H   H1395     1.0  0.27540  0.64089  0.64141  1.0000
  H   H1396     1.0  0.32054  0.59223  0.78194  1.0000
  C   C781      1.0  0.30475  0.68158  0.72939  1.0000
  H   H1397     1.0  0.26536  0.68097  0.75149  1.0000
  C   C782      1.0  0.25652  0.64617  0.59067  1.0000
  H   H1398     1.0  0.26201  0.63150  0.59041  1.0000
  H   H1399     1.0  0.28259  0.66075  0.51720  1.0000
  C   C783      1.0  0.23269  0.68644  0.69776  1.0000
  C   C784      1.0  0.07888  0.51713  0.80571  1.0000
  H   H1400     1.0  0.27424  0.61145  0.81220  1.0000
  H   H1401     1.0  0.31158  0.50835  0.70741  1.0000
  H   H1402     1.0  0.24447  0.69038  0.74231  1.0000
  C   C785      1.0  0.11691  0.52439  0.97125  1.0000
  C   C786      1.0  0.26080  0.67598  0.59320  1.0000
  C   C787      1.0  0.29734  0.63935  0.54727  1.0000
  C   C788      1.0  0.11268  0.57027  0.77006  1.0000
  C   C789      1.0  0.10131  0.72251  0.56465  1.0000
  C   C790      1.0  0.12628  0.55793  0.78287  1.0000
  H   H1403     1.0  0.26914  0.69990  0.79891  1.0000
  H   H1404     1.0  0.13908  0.51976  0.79318  1.0000
  H   H1405     1.0  0.29001  0.59953  0.73265  1.0000
  H   H1406     1.0  0.15698  0.66178  0.81991  1.0000
  C   C791      1.0  0.22540  0.67974  0.71870  1.0000
  H   H1407     1.0  0.13824  0.66449  0.64149  1.0000
  H   H1408     1.0  0.20677  0.71970  0.78381  1.0000
  C   C792      1.0  0.27680  0.54077  0.74442  1.0000
  H   H1409     1.0  0.30270  0.61187  0.81918  1.0000
  C   C793      1.0  0.11034  0.55306  0.81668  1.0000
  C   C794      1.0  0.09248  0.56866  0.81592  1.0000
  C   C795      1.0  0.15151  0.53296  0.80748  1.0000
  C   C796      1.0  0.08368  0.57356  0.83512  1.0000
  C   C797      1.0  0.16613  0.51523  0.81238  1.0000
  H   H1410     1.0  0.12914  0.51801  0.81737  1.0000
  H   H1411     1.0  0.10760  0.54216  0.82967  1.0000
  H   H1412     1.0  0.12076  0.55961  0.81911  1.0000
  H   H1413     1.0  0.08161  0.56453  0.81154  1.0000
  H   H1414     1.0  0.23234  0.54447  0.74012  1.0000
  H   H1415     1.0  0.08980  0.52624  0.82427  1.0000
  H   H1416     1.0  0.14774  0.54036  0.81922  1.0000
  H   H1417     1.0  0.15818  0.54195  0.79464  1.0000
  H   H1418     1.0  0.07153  0.58548  0.83402  1.0000
  H   H1419     1.0  0.07867  0.56140  0.84523  1.0000
  H   H1420     1.0  0.09394  0.57766  0.84052  1.0000
  H   H1421     1.0  0.28870  0.62688  0.78660  1.0000
  H   H1422     1.0  0.11438  0.72950  0.82553  1.0000
  H   H1423     1.0  0.29767  0.59476  0.77858  1.0000
  C   C798      1.0  0.22467  0.71978  0.80186  1.0000
  H   H1424     1.0  0.19246  0.51563  0.84612  1.0000
  H   H1425     1.0  0.19912  0.71980  0.82365  1.0000
  H   H1426     1.0  0.22776  0.50029  0.81168  1.0000
  H   H1427     1.0  0.23714  0.71392  0.69591  1.0000
  H   H1428     1.0  0.26392  0.54431  0.67960  1.0000
  N   N47       1.0  0.08272  0.72532  0.57819  1.0000
  H   H1429     1.0  0.21682  0.67947  0.58735  1.0000
  H   H1430     1.0  0.31288  0.58998  0.71995  1.0000
  H   H1431     1.0  0.22156  0.71718  0.75381  1.0000
  S   S177      1.0  0.19359  0.52568  0.96521  1.0000
  C   C799      1.0  0.15281  0.72780  0.48352  1.0000
  H   H1432     1.0  0.27987  0.72011  0.79090  1.0000
  C   C800      1.0  0.22387  0.54623  0.85225  1.0000
  C   C801      1.0  0.06448  0.48655  0.93006  1.0000
  H   H1433     1.0  0.17322  0.69955  0.70371  1.0000
  S   S178      1.0  0.31586  0.71969  0.74972  1.0000
  S   S179      1.0  0.30595  0.66273  0.63204  1.0000
  C   C802      1.0  0.23098  0.67318  0.58901  1.0000
  H   H1434     1.0  0.22560  0.52902  0.83326  1.0000
  H   H1435     1.0  0.09331  0.70029  0.82442  1.0000
  C   C803      1.0  0.08201  0.70989  0.59563  1.0000
  S   S180      1.0  0.27500  0.68999  0.59519  1.0000
  H   H1436     1.0  0.14890  0.71542  0.56366  1.0000
  C   C804      1.0  0.30080  0.64444  0.83653  1.0000
  H   H1437     1.0  0.15845  0.68606  0.72234  1.0000
  S   S181      1.0  0.11469  0.49981  0.85373  1.0000
  H   H1438     1.0  0.05462  0.49452  0.94030  1.0000
  H   H1439     1.0  0.31269  0.71297  0.54442  1.0000
  H   H1440     1.0  0.28739  0.68643  0.82322  1.0000
  C   C805      1.0  0.25667  0.71285  0.63971  1.0000
  C   C806      1.0  0.15630  0.72004  0.63580  1.0000
  S   S182      1.0  0.18076  0.67908  0.56991  1.0000
  H   H1441     1.0  0.23706  0.67121  0.72554  1.0000
  H   H1442     1.0  0.05017  0.49046  0.86599  1.0000
  Fe  Fe90      1.0  0.30288  0.67562  0.60259  1.0000
  C   C807      1.0  0.25199  0.68722  0.53331  1.0000
  H   H1443     1.0  0.21822  0.69185  0.72546  1.0000
  H   H1444     1.0  0.06765  0.49085  0.96510  1.0000
  N   N48       1.0  0.22012  0.55835  0.79940  1.0000
  C   C808      1.0  0.21952  0.53924  0.79727  1.0000
  C   C809      1.0  0.20138  0.57125  0.79779  1.0000
  C   C810      1.0  0.23446  0.56600  0.78303  1.0000
  C   C811      1.0  0.22545  0.55800  0.81737  1.0000
  C   C812      1.0  0.21880  0.54351  0.83504  1.0000
  H   H1445     1.0  0.30199  0.53147  0.81874  1.0000
  C   C813      1.0  0.23716  0.58583  0.78226  1.0000
  C   C814      1.0  0.18414  0.56604  0.81282  1.0000
  C   C815      1.0  0.16591  0.57741  0.80714  1.0000
  C   C816      1.0  0.31345  0.62462  0.55510  1.0000
  H   H1446     1.0  0.14954  0.64995  0.76651  1.0000
  C   C817      1.0  0.25442  0.59052  0.76749  1.0000
  H   H1447     1.0  0.21381  0.54059  0.78471  1.0000
  H   H1448     1.0  0.20975  0.53254  0.80927  1.0000
  H   H1449     1.0  0.20146  0.58572  0.79854  1.0000
  H   H1450     1.0  0.19854  0.57240  0.78378  1.0000
  H   H1451     1.0  0.23084  0.56635  0.76961  1.0000
  H   H1452     1.0  0.24854  0.55675  0.78304  1.0000
  H   H1453     1.0  0.24096  0.55526  0.81544  1.0000
  H   H1454     1.0  0.22020  0.57207  0.82101  1.0000
  H   H1455     1.0  0.30661  0.61437  0.72080  1.0000
  H   H1456     1.0  0.20352  0.54469  0.83814  1.0000
  N   N49       1.0  0.30240  0.65717  0.53447  1.0000
  C   C818      1.0  0.18536  0.71768  0.48889  1.0000
  H   H1457     1.0  0.23913  0.58688  0.79588  1.0000
  H   H1458     1.0  0.22487  0.59663  0.77870  1.0000
  H   H1459     1.0  0.18356  0.55113  0.81532  1.0000
  H   H1460     1.0  0.18434  0.56931  0.82617  1.0000
  H   H1461     1.0  0.16409  0.57325  0.79489  1.0000
  H   H1462     1.0  0.15388  0.57465  0.81886  1.0000
  H   H1463     1.0  0.16580  0.59265  0.80358  1.0000
  H   H1464     1.0  0.29344  0.49013  0.50157  1.0000
  H   H1465     1.0  0.31053  0.69382  0.52378  1.0000
  S   S183      1.0  0.31431  0.63863  0.85365  1.0000
  H   H1466     1.0  0.07547  0.49460  0.92223  1.0000
  C   C819      1.0  0.18920  0.49968  0.94843  1.0000
  H   H1467     1.0  0.18195  0.68506  0.72389  1.0000
  C   C820      1.0  0.14740  0.66265  0.84877  1.0000
  C   C821      1.0  0.25833  0.54888  0.74267  1.0000
  H   H1468     1.0  0.25349  0.58946  0.75346  1.0000
  C   C822      1.0  0.16232  0.64664  0.85641  1.0000
  H   H1469     1.0  0.16571  0.64982  0.86848  1.0000
  H   H1470     1.0  0.15715  0.63336  0.86131  1.0000
  H   H1471     1.0  0.17533  0.64469  0.84548  1.0000
  H   H1472     1.0  0.30392  0.68014  0.74457  1.0000
  C   C823      1.0  0.02375  0.52986  0.96917  1.0000
  H   H1473     1.0  0.12517  0.59485  0.76267  1.0000
  C   C824      1.0  0.18205  0.49388  0.93614  1.0000
  C   C825      1.0  0.17296  0.68608  0.71411  1.0000
  C   C826      1.0  0.29358  0.72647  0.84002  1.0000
  C   C827      1.0  0.08657  0.68959  0.59253  1.0000
  C   C828      1.0  0.26701  0.67194  0.54161  1.0000
  H   H1474     1.0  0.24963  0.49553  0.79518  1.0000
  C   C829      1.0  0.18615  0.71020  0.64523  1.0000
  H   H1475     1.0  0.11904  0.71113  0.58576  1.0000
  C   C830      1.0  0.08657  0.67532  0.61109  1.0000
  H   H1476     1.0  0.26800  0.67554  0.66560  1.0000
  H   H1477     1.0  0.15724  0.73109  0.51620  1.0000
  H   H1478     1.0  0.29030  0.69576  0.54233  1.0000
  C   C831      1.0  0.27832  0.59603  0.81321  1.0000
  H   H1479     1.0  0.30170  0.56532  0.63256  1.0000
  H   H1480     1.0  0.10343  0.70986  0.55883  1.0000
  C   C832      1.0  0.24611  0.70005  0.69392  1.0000
  H   H1481     1.0  0.32153  0.51793  0.67312  1.0000
  H   H1482     1.0  0.28857  0.53730  0.68017  1.0000
  H   H1483     1.0  0.07469  0.65829  0.85079  1.0000
  H   H1484     1.0  0.24721  0.52872  0.78088  1.0000
  C   C833      1.0  0.24686  0.70722  0.66052  1.0000
  H   H1485     1.0  0.10064  0.68642  0.58352  1.0000
  H   H1486     1.0  0.22824  0.50482  0.78679  1.0000
  H   H1487     1.0  0.19067  0.49641  0.68713  1.0000
  H   H1488     1.0  0.17052  0.50719  0.80104  1.0000
  C   C834      1.0  0.08633  0.64890  0.85718  1.0000
  H   H1489     1.0  0.24886  0.68333  0.52150  1.0000
  H   H1490     1.0  0.11095  0.50236  0.69721  1.0000
  H   H1491     1.0  0.16034  0.50622  0.82574  1.0000
  C   C835      1.0  0.31535  0.69748  0.54903  1.0000
  H   H1492     1.0  0.21852  0.53613  0.86489  1.0000
  H   H1493     1.0  0.28099  0.72154  0.84945  1.0000
  H   H1494     1.0  0.09002  0.66092  0.60841  1.0000
  H   H1495     1.0  0.09728  0.67649  0.61805  1.0000
  S   S184      1.0  0.19965  0.70799  0.66145  1.0000
  C   C836      1.0  0.12235  0.69090  0.82864  1.0000
  H   H1496     1.0  0.26817  0.66412  0.69889  1.0000
  H   H1497     1.0  0.18365  0.51147  0.87104  1.0000
  H   H1498     1.0  0.27367  0.59229  0.84389  1.0000
  H   H1499     1.0  0.07606  0.68732  0.58606  1.0000
  C   C837      1.0  0.30818  0.65165  0.81778  1.0000
  C   C838      1.0  0.27205  0.51094  0.74241  1.0000
  H   H1500     1.0  0.11078  0.52976  0.78268  1.0000
  H   H1501     1.0  0.10943  0.56148  0.76218  1.0000
  C   C839      1.0  0.27840  0.65442  0.80977  1.0000
  H   H1502     1.0  0.11451  0.64848  0.82638  1.0000
  H   H1503     1.0  0.13464  0.66351  0.86003  1.0000
  C   C840      1.0  0.14596  0.66262  0.77256  1.0000
  H   H1504     1.0  0.09882  0.67107  0.85757  1.0000
  C   C841      1.0  0.12121  0.58576  0.75564  1.0000
  C   C842      1.0  0.27109  0.64682  0.82842  1.0000
  C   C843      1.0  0.16718  0.52600  0.92507  1.0000
  H   H1505     1.0  0.26731  0.58095  0.77131  1.0000
  H   H1506     1.0  0.25555  0.60507  0.76653  1.0000
  C   C844      1.0  0.04323  0.52815  0.96428  1.0000
  C   C845      1.0  0.17459  0.53185  0.93720  1.0000
  H   H1507     1.0  0.08333  0.51253  0.79214  1.0000
  H   H1508     1.0  0.27654  0.63628  0.85629  1.0000
  C   C846      1.0  0.05367  0.48581  0.91597  1.0000
  H   H1509     1.0  0.13376  0.57963  0.74599  1.0000
  C   C847      1.0  0.29701  0.65660  0.80445  1.0000
  C   C848      1.0  0.28227  0.64192  0.84179  1.0000
  H   H1510     1.0  0.27313  0.57175  0.83650  1.0000
  H   H1511     1.0  0.11926  0.68370  0.79629  1.0000
  H   H1512     1.0  0.19455  0.67207  0.51566  1.0000
  H   H1513     1.0  0.07259  0.67744  0.62062  1.0000
  H   H1514     1.0  0.29359  0.67551  0.72784  1.0000
  H   H1515     1.0  0.25662  0.70079  0.52835  1.0000
  C   C849      1.0  0.11095  0.69179  0.51528  1.0000
  C   C850      1.0  0.16724  0.71900  0.64844  1.0000
  H   H1516     1.0  0.13185  0.51706  0.96879  1.0000
  C   C851      1.0  0.18066  0.69943  0.50257  1.0000
  H   H1517     1.0  0.29805  0.51544  0.74545  1.0000
  C   C852      1.0  0.11692  0.48919  0.77288  1.0000
  C   C853      1.0  0.30803  0.59659  0.81970  1.0000
  H   H1518     1.0  0.23929  0.54391  0.85038  1.0000
  H   H1519     1.0  0.09430  0.49020  0.94141  1.0000
  H   H1520     1.0  0.20646  0.69057  0.51307  1.0000
  H   H1521     1.0  0.29904  0.62293  0.75370  1.0000
  H   H1522     1.0  0.20785  0.69856  0.81459  1.0000
  H   H1523     1.0  0.20874  0.69559  0.62681  1.0000
  H   H1524     1.0  0.29238  0.70467  0.68507  1.0000
  C   C854      1.0  0.30580  0.60973  0.57125  1.0000
  C   C855      1.0  0.31812  0.65161  0.51859  1.0000
  H   H1525     1.0  0.06786  0.71222  0.60496  1.0000
  H   H1526     1.0  0.14152  0.72621  0.63872  1.0000
  C   C856      1.0  0.23853  0.52505  0.79511  1.0000
  C   C857      1.0  0.12904  0.68537  0.51885  1.0000
  H   H1527     1.0  0.28268  0.55512  0.70542  1.0000
  H   H1528     1.0  0.09683  0.71992  0.84441  1.0000
  H   H1529     1.0  0.27205  0.71587  0.70027  1.0000
  C   C858      1.0  0.23577  0.50522  0.79739  1.0000
  H   H1530     1.0  0.11038  0.71032  0.80540  1.0000
  H   H1531     1.0  0.26407  0.70192  0.73321  1.0000
  C   C859      1.0  0.13386  0.48806  0.74116  1.0000
  C   C860      1.0  0.11867  0.72132  0.57228  1.0000
  H   H1532     1.0  0.12407  0.49783  0.94228  1.0000
  H   H1533     1.0  0.23992  0.70177  0.62756  1.0000
  C   C861      1.0  0.30455  0.67523  0.88197  1.0000
  H   H1534     1.0  0.20734  0.68149  0.49286  1.0000
  C   C862      1.0  0.24339  0.71537  0.62677  1.0000
  H   H1535     1.0  0.13680  0.72447  0.54452  1.0000
  S   S185      1.0  0.14869  0.50286  0.76250  1.0000
  C   C863      1.0  0.30831  0.62678  0.76057  1.0000
  H   H1536     1.0  0.29299  0.64725  0.67632  1.0000
  H   H1537     1.0  0.26082  0.72649  0.63701  1.0000
  H   H1538     1.0  0.31553  0.53188  0.70107  1.0000
  C   C864      1.0  0.17601  0.49525  0.68866  1.0000
  C   C865      1.0  0.30541  0.68929  0.53900  1.0000
  H   H1539     1.0  0.07645  0.52425  0.68105  1.0000
  C   C866      1.0  0.27430  0.54158  0.68846  1.0000
  H   H1540     1.0  0.27133  0.52980  0.70042  1.0000
  H   H1541     1.0  0.26055  0.71002  0.76305  1.0000
  C   C867      1.0  0.10180  0.72332  0.82896  1.0000
  C   C868      1.0  0.28051  0.71684  0.68579  1.0000
  H   H1542     1.0  0.14483  0.72839  0.79873  1.0000
  H   H1543     1.0  0.09184  0.71009  0.60405  1.0000
  C   C869      1.0  0.26849  0.71817  0.67172  1.0000
  C   C870      1.0  0.21194  0.70978  0.81858  1.0000
  H   H1544     1.0  0.30402  0.56222  0.82540  1.0000
  H   H1545     1.0  0.23028  0.72560  0.63066  1.0000
  H   H1546     1.0  0.27455  0.70918  0.82579  1.0000
  C   C871      1.0  0.29481  0.55937  0.80157  1.0000
  H   H1547     1.0  0.16085  0.72436  0.66103  1.0000
  H   H1548     1.0  0.27823  0.71977  0.65777  1.0000
  H   H1549     1.0  0.30240  0.69671  0.72258  1.0000
  H   H1550     1.0  0.30136  0.70502  0.87258  1.0000
  H   H1551     1.0  0.31787  0.54773  0.65783  1.0000
  C   C872      1.0  0.06786  0.72474  0.56854  1.0000
  H   H1552     1.0  0.11634  0.53972  0.96723  1.0000
  C   C873      1.0  0.30975  0.69234  0.86733  1.0000
  H   H1553     1.0  0.14569  0.49061  0.72993  1.0000
  C   C874      1.0  0.30332  0.61990  0.78180  1.0000
  C   C875      1.0  0.13662  0.71511  0.55851  1.0000
  H   H1554     1.0  0.31804  0.53595  0.79636  1.0000
  C   C876      1.0  0.30480  0.48927  0.48887  1.0000
  H   H1555     1.0  0.31390  0.66220  0.87813  1.0000
  H   H1556     1.0  0.04771  0.50032  0.90921  1.0000
  C   C877      1.0  0.15135  0.72524  0.78505  1.0000
  S   S186      1.0  0.19473  0.73124  0.70265  1.0000
  H   H1557     1.0  0.23898  0.72982  0.74019  1.0000
  C   C878      1.0  0.15357  0.73307  0.75139  1.0000
  H   H1558     1.0  0.17044  0.48954  0.70361  1.0000
  H   H1559     1.0  0.19403  0.73315  0.54788  1.0000
  C   C879      1.0  0.19496  0.48628  0.85950  1.0000
  H   H1560     1.0  0.18133  0.48625  0.85690  1.0000
  H   H1561     1.0  0.29927  0.73219  0.84896  1.0000
  H   H1562     1.0  0.25129  0.73304  0.77731  1.0000
  H   H1563     1.0  0.25787  0.73157  0.67164  1.0000
  H   H1564     1.0  0.31621  0.68021  0.84277  1.0000
  H   H1565     1.0  0.31259  0.62448  0.78804  1.0000
  H   H1566     1.0  0.31657  0.69541  0.81058  1.0000
  Fe  Fe91      1.0  0.32153  0.54869  0.74351  1.0000
  H   H1567     1.0  0.29695  0.73322  0.69167  1.0000
  C   C880      1.0  0.06467  0.48624  0.85931  1.0000
  H   H1568     1.0  0.17612  0.48539  0.68004  1.0000
  Fe  Fe92      1.0  0.16305  0.82602  0.44299  1.0000
  S   S187      1.0  0.19092  0.82917  0.44551  1.0000
  H   H1569     1.0  0.99962  0.81883  0.33847  1.0000
  Fe  Fe93      1.0  0.16174  0.85588  0.40764  1.0000
  S   S188      1.0  0.18950  0.86135  0.40702  1.0000
  S   S189      1.0  0.14567  0.87261  0.38547  1.0000
  Fe  Fe94      1.0  0.19844  0.83000  0.41437  1.0000
  S   S190      1.0  0.22577  0.81612  0.39785  1.0000
  Fe  Fe95      1.0  0.17945  0.86026  0.43804  1.0000
  S   S191      1.0  0.18011  0.88579  0.44858  1.0000
  S   S192      1.0  0.17135  0.82471  0.41261  1.0000
  S   S193      1.0  0.15095  0.85680  0.43792  1.0000
  H   H1570     1.0  0.08409  0.79652  0.45547  1.0000
  C   C881      1.0  0.25083  0.77783  0.15652  1.0000
  C   C882      1.0  0.12201  0.78472  0.47008  1.0000
  C   C883      1.0  0.00908  0.90395  0.31132  1.0000
  C   C884      1.0  0.01223  0.79626  0.39213  1.0000
  H   H1571     1.0  0.16992  0.77700  0.32203  1.0000
  S   S194      1.0  0.11477  0.74843  0.44308  1.0000
  C   C885      1.0  0.21242  0.90297  0.38523  1.0000
  C   C886      1.0  0.08296  0.86532  0.42759  1.0000
  H   H1572     1.0  0.04738  0.80578  0.40633  1.0000
  Fe  Fe96      1.0  0.08273  0.83154  0.34670  1.0000
  S   S195      1.0  0.09464  0.80527  0.33560  1.0000
  S   S196      1.0  0.08955  0.82976  0.37446  1.0000
  Fe  Fe97      1.0  0.05705  0.84779  0.31889  1.0000
  S   S197      1.0  0.06673  0.82243  0.30572  1.0000
  S   S198      1.0  0.03337  0.87042  0.30895  1.0000
  Fe  Fe98      1.0  0.06523  0.80577  0.33508  1.0000
  S   S199      1.0  0.05587  0.77855  0.34811  1.0000
  Fe  Fe99      1.0  0.09548  0.82386  0.30715  1.0000
  S   S200      1.0  0.12047  0.81676  0.28410  1.0000
  S   S201      1.0  0.05303  0.83076  0.34814  1.0000
  S   S202      1.0  0.08612  0.85066  0.31808  1.0000
  H   H1573     1.0  0.25220  0.84037  0.41892  1.0000
  H   H1574     1.0  0.04439  0.77349  0.38728  1.0000
  H   H1575     1.0  0.04866  0.84109  0.43676  1.0000
  C   C887      1.0  0.01431  0.79299  0.45833  1.0000
  H   H1576     1.0  0.06706  0.79164  0.27112  1.0000
  H   H1577     1.0  0.17384  0.80750  0.27381  1.0000
  C   C888      1.0  0.12244  0.79460  0.27942  1.0000
  S   S203      1.0  0.17032  0.73419  0.22231  1.0000
  C   C889      1.0  0.02793  0.89246  0.33479  1.0000
  C   C890      1.0  0.11102  0.78258  0.29124  1.0000
  H   H1578     1.0  0.02247  0.90979  0.35501  1.0000
  C   C891      1.0  0.00971  0.76068  0.35005  1.0000
  H   H1579     1.0  0.10067  0.78703  0.30299  1.0000
  C   C892      1.0  0.02309  0.89030  0.31901  1.0000
  H   H1580     1.0  0.24339  0.90181  0.47509  1.0000
  C   C893      1.0  0.00943  0.82725  0.33887  1.0000
  H   H1581     1.0  0.03885  0.88212  0.34071  1.0000
  C   C894      1.0  0.01294  0.78593  0.32282  1.0000
  C   C895      1.0  0.02909  0.78808  0.32705  1.0000
  C   C896      1.0  0.03549  0.77658  0.34279  1.0000
  C   C897      1.0  0.02576  0.76293  0.35431  1.0000
  H   H1582     1.0  0.01977  0.79756  0.37716  1.0000
  H   H1583     1.0  0.03658  0.79867  0.31815  1.0000
  H   H1584     1.0  0.24739  0.78894  0.14431  1.0000
  C   C898      1.0  0.24084  0.79019  0.37533  1.0000
  N   N50       1.0  0.21785  0.77018  0.17299  1.0000
  C   C899      1.0  0.12325  0.76539  0.44866  1.0000
  H   H1585     1.0  0.20156  0.76488  0.44109  1.0000
  Fe  Fe100     1.0  0.24208  0.73389  0.30394  1.0000
  C   C900      1.0  0.18137  0.79088  0.21390  1.0000
  H   H1586     1.0  0.25190  0.79794  0.36934  1.0000
  H   H1587     1.0  0.99924  0.74726  0.29828  1.0000
  C   C901      1.0  0.25963  0.87413  0.41601  1.0000
  C   C902      1.0  0.12234  0.90317  0.44629  1.0000
  C   C903      1.0  0.18515  0.88988  0.46864  1.0000
  C   C904      1.0  0.18104  0.90842  0.47115  1.0000
  H   H1588     1.0  0.99266  0.83741  0.36309  1.0000
  H   H1589     1.0  0.21037  0.77927  0.32177  1.0000
  H   H1590     1.0  0.13826  0.76606  0.31289  1.0000
  H   H1591     1.0  0.17420  0.91960  0.46142  1.0000
  C   C905      1.0  0.19235  0.75200  0.12530  1.0000
  C   C906      1.0  0.13008  0.86089  0.38211  1.0000
  C   C907      1.0  0.12129  0.86795  0.36680  1.0000
  C   C908      1.0  0.10891  0.85846  0.36403  1.0000
  C   C909      1.0  0.10524  0.84201  0.37670  1.0000
  C   C910      1.0  0.11407  0.83504  0.39192  1.0000
  C   C911      1.0  0.12654  0.84434  0.39457  1.0000
  H   H1592     1.0  0.12404  0.88076  0.35709  1.0000
  H   H1593     1.0  0.10205  0.86398  0.35228  1.0000
  H   H1594     1.0  0.11137  0.82227  0.40161  1.0000
  H   H1595     1.0  0.13312  0.83886  0.40648  1.0000
  C   C912      1.0  0.01858  0.90809  0.34290  1.0000
  H   H1596     1.0  0.04666  0.78713  0.28882  1.0000
  C   C913      1.0  0.13693  0.79217  0.45797  1.0000
  C   C914      1.0  0.14507  0.78624  0.44102  1.0000
  C   C915      1.0  0.22605  0.79613  0.38964  1.0000
  H   H1597     1.0  0.01248  0.77758  0.43128  1.0000
  C   C916      1.0  0.21514  0.77256  0.15339  1.0000
  H   H1598     1.0  0.04914  0.84184  0.38339  1.0000
  H   H1599     1.0  0.13089  0.80020  0.37646  1.0000
  C   C917      1.0  0.11308  0.76466  0.28806  1.0000
  H   H1600     1.0  0.00845  0.76823  0.39251  1.0000
  C   C918      1.0  0.20930  0.79311  0.14295  1.0000
  H   H1601     1.0  0.29397  0.90062  0.39336  1.0000
  H   H1602     1.0  0.09829  0.89153  0.47672  1.0000
  H   H1603     1.0  0.04635  0.80601  0.38346  1.0000
  H   H1604     1.0  0.21118  0.78057  0.20774  1.0000
  C   C919      1.0  0.21338  0.79476  0.12176  1.0000
  H   H1605     1.0  0.07402  0.75118  0.39174  1.0000
  H   H1606     1.0  0.20401  0.76528  0.15377  1.0000
  H   H1607     1.0  0.22776  0.76562  0.14444  1.0000
  H   H1608     1.0  0.28480  0.76582  0.23665  1.0000
  C   C920      1.0  0.22730  0.76395  0.37653  1.0000
  H   H1609     1.0  0.18767  0.77496  0.18256  1.0000
  H   H1610     1.0  0.19717  0.79528  0.17793  1.0000
  H   H1611     1.0  0.22375  0.91261  0.46413  1.0000
  H   H1612     1.0  0.10443  0.75536  0.29752  1.0000
  H   H1613     1.0  0.02054  0.83219  0.38233  1.0000
  H   H1614     1.0  0.09995  0.88491  0.42663  1.0000
  H   H1615     1.0  0.19400  0.79817  0.14765  1.0000
  H   H1616     1.0  0.21655  0.80263  0.14587  1.0000
  H   H1617     1.0  0.13628  0.77626  0.38861  1.0000
  H   H1618     1.0  0.04410  0.86227  0.44542  1.0000
  H   H1619     1.0  0.16904  0.77692  0.38445  1.0000
  H   H1620     1.0  0.03937  0.79045  0.43698  1.0000
  C   C921      1.0  0.23914  0.84140  0.42987  1.0000
  H   H1621     1.0  0.20162  0.76199  0.39704  1.0000
  C   C922      1.0  0.19979  0.77995  0.18389  1.0000
  H   H1622     1.0  0.18216  0.80574  0.20752  1.0000
  C   C923      1.0  0.02427  0.84469  0.45864  1.0000
  H   H1623     1.0  0.25501  0.76441  0.15181  1.0000
  H   H1624     1.0  0.20891  0.80956  0.11474  1.0000
  H   H1625     1.0  0.22859  0.79009  0.11624  1.0000
  H   H1626     1.0  0.20561  0.78607  0.11823  1.0000
  H   H1627     1.0  0.27960  0.78130  0.14857  1.0000
  H   H1628     1.0  0.18140  0.75905  0.34623  1.0000
  C   C924      1.0  0.01540  0.79180  0.42469  1.0000
  C   C925      1.0  0.02561  0.82787  0.39563  1.0000
  C   C926      1.0  0.22732  0.89938  0.39669  1.0000
  H   H1629     1.0  0.19708  0.76332  0.21264  1.0000
  H   H1630     1.0  0.26477  0.79471  0.16551  1.0000
  C   C927      1.0  0.13591  0.78856  0.26425  1.0000
  C   C928      1.0  0.03875  0.77362  0.40241  1.0000
  C   C929      1.0  0.05559  0.76731  0.41209  1.0000
  C   C930      1.0  0.03731  0.80746  0.39746  1.0000
  C   C931      1.0  0.23381  0.77842  0.17348  1.0000
  H   H1631     1.0  0.99247  0.86347  0.32424  1.0000
  H   H1632     1.0  0.08206  0.80589  0.41382  1.0000
  H   H1633     1.0  0.14314  0.90875  0.45828  1.0000
  H   H1634     1.0  0.05050  0.76438  0.42743  1.0000
  H   H1635     1.0  0.14151  0.76697  0.33474  1.0000
  H   H1636     1.0  0.17986  0.74058  0.37815  1.0000
  H   H1637     1.0  0.01895  0.85105  0.47121  1.0000
  N   N51       1.0  0.16545  0.75122  0.31827  1.0000
  H   H1638     1.0  0.28734  0.88412  0.38432  1.0000
  H   H1639     1.0  0.27276  0.76959  0.17252  1.0000
  H   H1640     1.0  0.14788  0.76618  0.24897  1.0000
  C   C932      1.0  0.12612  0.75874  0.27269  1.0000
  H   H1641     1.0  0.16838  0.78814  0.21196  1.0000
  H   H1642     1.0  0.00132  0.80120  0.42524  1.0000
  H   H1643     1.0  0.18061  0.78851  0.22919  1.0000
  C   C933      1.0  0.26798  0.78110  0.16116  1.0000
  H   H1644     1.0  0.17697  0.80580  0.29701  1.0000
  H   H1645     1.0  0.19393  0.79161  0.28165  1.0000
  H   H1646     1.0  0.03079  0.75383  0.36641  1.0000
  H   H1647     1.0  0.10395  0.82311  0.46428  1.0000
  H   H1648     1.0  0.13772  0.79471  0.39869  1.0000
  H   H1649     1.0  0.29250  0.76162  0.20570  1.0000
  C   C934      1.0  0.99937  0.91925  0.31974  1.0000
  H   H1650     1.0  0.99381  0.74961  0.43490  1.0000
  C   C935      1.0  0.24051  0.82301  0.44444  1.0000
  H   H1651     1.0  0.30452  0.78070  0.17425  1.0000
  H   H1652     1.0  0.13162  0.92590  0.42403  1.0000
  H   H1653     1.0  0.04226  0.83822  0.40857  1.0000
  H   H1654     1.0  0.23415  0.87776  0.46589  1.0000
  H   H1655     1.0  0.21313  0.91609  0.37441  1.0000
  H   H1656     1.0  0.01318  0.82906  0.40729  1.0000
  H   H1657     1.0  0.15266  0.78919  0.29722  1.0000
  H   H1658     1.0  0.10288  0.79455  0.42310  1.0000
  H   H1659     1.0  0.16288  0.75932  0.46596  1.0000
  C   C936      1.0  0.00319  0.77227  0.33438  1.0000
  C   C937      1.0  0.02847  0.74172  0.29959  1.0000
  C   C938      1.0  0.17306  0.74799  0.35067  1.0000
  H   H1660     1.0  0.29724  0.87629  0.40507  1.0000
  C   C939      1.0  0.22693  0.88092  0.41156  1.0000
  H   H1661     1.0  0.06369  0.80799  0.44604  1.0000
  S   S204      1.0  0.22954  0.74575  0.11017  1.0000
  H   H1662     1.0  0.22452  0.91167  0.40311  1.0000
  C   C940      1.0  0.06812  0.74912  0.40707  1.0000
  H   H1663     1.0  0.25652  0.76513  0.26165  1.0000
  H   H1664     1.0  0.18321  0.78330  0.44969  1.0000
  C   C941      1.0  0.28791  0.88790  0.39735  1.0000
  H   H1665     1.0  0.24107  0.89839  0.38673  1.0000
  S   S205      1.0  0.22237  0.74871  0.28460  1.0000
  C   C942      1.0  0.04431  0.84703  0.44951  1.0000
  C   C943      1.0  0.11494  0.77180  0.46523  1.0000
  C   C944      1.0  0.23294  0.89185  0.43680  1.0000
  C   C945      1.0  0.16968  0.74119  0.30225  1.0000
  H   H1666     1.0  0.14878  0.90408  0.42604  1.0000
  C   C946      1.0  0.31117  0.75608  0.27025  1.0000
  H   H1667     1.0  0.12078  0.92383  0.46133  1.0000
  H   H1668     1.0  0.00248  0.74991  0.35891  1.0000
  H   H1669     1.0  0.99106  0.79187  0.36948  1.0000
  H   H1670     1.0  0.00233  0.80988  0.39314  1.0000
  H   H1671     1.0  0.01450  0.77776  0.46307  1.0000
  H   H1672     1.0  0.09723  0.85468  0.45009  1.0000
  H   H1673     1.0  0.25127  0.74058  0.17552  1.0000
  C   C947      1.0  0.19551  0.77224  0.45294  1.0000
  C   C948      1.0  0.07911  0.80627  0.44325  1.0000
  Fe  Fe101     1.0  0.08873  0.74118  0.46385  1.0000
  H   H1674     1.0  0.31427  0.75842  0.21135  1.0000
  H   H1675     1.0  0.18290  0.74395  0.29229  1.0000
  C   C949      1.0  0.31898  0.76548  0.25233  1.0000
  H   H1676     1.0  0.20857  0.74390  0.18236  1.0000
  C   C950      1.0  0.00337  0.73741  0.43055  1.0000
  H   H1677     1.0  0.19003  0.73446  0.32824  1.0000
  H   H1678     1.0  0.29250  0.77652  0.01313  1.0000
  C   C951      1.0  0.21046  0.74192  0.25655  1.0000
  C   C952      1.0  0.27840  0.75333  0.24034  1.0000
  H   H1679     1.0  0.26843  0.86377  0.42536  1.0000
  C   C953      1.0  0.30604  0.75160  0.20594  1.0000
  C   C954      1.0  0.06368  0.74853  0.30214  1.0000
  S   S206      1.0  0.06229  0.76226  0.46096  1.0000
  H   H1680     1.0  0.13342  0.73427  0.32308  1.0000
  H   H1681     1.0  0.15829  0.75407  0.35637  1.0000
  H   H1682     1.0  0.25983  0.74017  0.26425  1.0000
  C   C955      1.0  0.06714  0.76216  0.28280  1.0000
  C   C956      1.0  0.24134  0.88769  0.45442  1.0000
  C   C957      1.0  0.08474  0.82546  0.43924  1.0000
  C   C958      1.0  0.03703  0.84183  0.39544  1.0000
  C   C959      1.0  0.08287  0.85536  0.44836  1.0000
  H   H1683     1.0  0.05462  0.82318  0.47030  1.0000
  H   H1684     1.0  0.23080  0.86971  0.40339  1.0000
  H   H1685     1.0  0.07461  0.74849  0.30949  1.0000
  H   H1686     1.0  0.05047  0.75495  0.31076  1.0000
  C   C960      1.0  0.99992  0.78160  0.39623  1.0000
  H   H1687     1.0  0.26964  0.89630  0.42195  1.0000
  H   H1688     1.0  0.16944  0.77513  0.28195  1.0000
  H   H1689     1.0  0.06009  0.73778  0.41141  1.0000
  C   C961      1.0  0.23579  0.85849  0.43896  1.0000
  C   C962      1.0  0.18990  0.75844  0.47120  1.0000
  H   H1690     1.0  0.22216  0.79797  0.31963  1.0000
  C   C963      1.0  0.21626  0.78617  0.32946  1.0000
  H   H1691     1.0  0.08219  0.75917  0.27590  1.0000
  H   H1692     1.0  0.05896  0.76060  0.27335  1.0000
  H   H1693     1.0  0.12907  0.90642  0.41602  1.0000
  C   C964      1.0  0.26713  0.75199  0.26040  1.0000
  H   H1694     1.0  0.24495  0.85428  0.44930  1.0000
  N   N52       1.0  0.02601  0.79234  0.40462  1.0000
  C   C965      1.0  0.14462  0.75743  0.32486  1.0000
  H   H1695     1.0  0.21469  0.89124  0.37806  1.0000
  H   H1696     1.0  0.12105  0.83918  0.33167  1.0000
  C   C966      1.0  0.02455  0.79752  0.43787  1.0000
  N   N53       1.0  0.07810  0.83607  0.45496  1.0000
  C   C967      1.0  0.17883  0.79772  0.28612  1.0000
  H   H1697     1.0  0.09456  0.85764  0.41827  1.0000
  S   S207      1.0  0.27893  0.74610  0.11536  1.0000
  C   C968      1.0  0.06206  0.78255  0.28474  1.0000
  C   C969      1.0  0.21256  0.76988  0.39087  1.0000
  H   H1698     1.0  0.12501  0.86906  0.47778  1.0000
  H   H1699     1.0  0.25977  0.90382  0.40158  1.0000
  H   H1700     1.0  0.02819  0.85617  0.39410  1.0000
  H   H1701     1.0  0.15864  0.74681  0.29381  1.0000
  H   H1702     1.0  0.13522  0.82237  0.31773  1.0000
  H   H1703     1.0  0.26847  0.75571  0.23121  1.0000
  C   C970      1.0  0.99889  0.84344  0.34849  1.0000
  H   H1704     1.0  0.22884  0.79345  0.17440  1.0000
  H   H1705     1.0  0.25286  0.76979  0.35768  1.0000
  C   C971      1.0  0.13848  0.77254  0.43659  1.0000
  H   H1706     1.0  0.99958  0.80086  0.46016  1.0000
  C   C972      1.0  0.26832  0.89183  0.40962  1.0000
  H   H1707     1.0  0.06447  0.77785  0.40791  1.0000
  H   H1708     1.0  0.22802  0.82355  0.45613  1.0000
  H   H1709     1.0  0.20053  0.79017  0.40847  1.0000
  C   C973      1.0  0.21187  0.78593  0.39732  1.0000
  H   H1710     1.0  0.14485  0.79778  0.25510  1.0000
  H   H1711     1.0  0.10729  0.90918  0.44630  1.0000
  H   H1712     1.0  0.06974  0.86611  0.42357  1.0000
  S   S208      1.0  0.22714  0.74382  0.36883  1.0000
  H   H1713     1.0  0.13258  0.84707  0.30776  1.0000
  C   C974      1.0  0.17645  0.75040  0.13964  1.0000
  H   H1714     1.0  0.20274  0.74814  0.47416  1.0000
  H   H1715     1.0  0.15688  0.79156  0.43171  1.0000
  H   H1716     1.0  0.14517  0.76744  0.42385  1.0000
  C   C975      1.0  0.19857  0.77771  0.20514  1.0000
  H   H1717     1.0  0.06871  0.78436  0.29538  1.0000
  C   C976      1.0  0.13768  0.77067  0.26081  1.0000
  H   H1718     1.0  0.18929  0.76448  0.30792  1.0000
  C   C977      1.0  0.16757  0.78228  0.29355  1.0000
  H   H1719     1.0  0.22781  0.77583  0.33515  1.0000
  C   C978      1.0  0.17373  0.76855  0.31111  1.0000
  H   H1720     1.0  0.03081  0.76217  0.40804  1.0000
  H   H1721     1.0  0.21097  0.85150  0.36250  1.0000
  H   H1722     1.0  0.19633  0.78053  0.35508  1.0000
  H   H1723     1.0  0.07327  0.86507  0.45723  1.0000
  H   H1724     1.0  0.02364  0.82962  0.46289  1.0000
  H   H1725     1.0  0.19796  0.86292  0.34431  1.0000
  N   N54       1.0  0.17078  0.81806  0.35234  1.0000
  C   C979      1.0  0.16812  0.80663  0.37215  1.0000
  C   C980      1.0  0.17594  0.83606  0.35223  1.0000
  C   C981      1.0  0.15211  0.82317  0.34674  1.0000
  C   C982      1.0  0.18507  0.80773  0.33836  1.0000
  C   C983      1.0  0.20140  0.79295  0.34566  1.0000
  C   C984      1.0  0.16082  0.78838  0.37540  1.0000
  C   C985      1.0  0.15102  0.83677  0.32752  1.0000
  C   C986      1.0  0.19483  0.83422  0.35749  1.0000
  C   C987      1.0  0.19756  0.85328  0.35825  1.0000
  H   H1726     1.0  0.02406  0.81280  0.43408  1.0000
  C   C988      1.0  0.14020  0.79011  0.38532  1.0000
  C   C989      1.0  0.13392  0.83628  0.32080  1.0000
  H   H1727     1.0  0.15861  0.81547  0.38197  1.0000
  H   H1728     1.0  0.18136  0.80235  0.37719  1.0000
  H   H1729     1.0  0.17685  0.84540  0.33810  1.0000
  H   H1730     1.0  0.16473  0.84397  0.36182  1.0000
  H   H1731     1.0  0.14107  0.82966  0.35747  1.0000
  H   H1732     1.0  0.14779  0.81039  0.34627  1.0000
  H   H1733     1.0  0.17833  0.80011  0.33219  1.0000
  H   H1734     1.0  0.19121  0.81791  0.32621  1.0000
  H   H1735     1.0  0.23908  0.77144  0.18656  1.0000
  H   H1736     1.0  0.20824  0.79847  0.35362  1.0000
  H   H1737     1.0  0.16295  0.78371  0.36218  1.0000
  C   C990      1.0  0.24142  0.77423  0.36871  1.0000
  H   H1738     1.0  0.16357  0.83324  0.31655  1.0000
  H   H1739     1.0  0.14969  0.85137  0.32887  1.0000
  H   H1740     1.0  0.19572  0.82497  0.37139  1.0000
  H   H1741     1.0  0.20662  0.82878  0.34671  1.0000
  H   H1742     1.0  0.18603  0.85966  0.36867  1.0000
  H   H1743     1.0  0.31410  0.74250  0.12858  1.0000
  H   H1744     1.0  0.01676  0.83256  0.32435  1.0000
  C   C991      1.0  0.08738  0.79701  0.42632  1.0000
  H   H1745     1.0  0.22729  0.84263  0.42330  1.0000
  S   S209      1.0  0.25575  0.75065  0.31472  1.0000
  C   C992      1.0  0.22079  0.74960  0.18213  1.0000
  H   H1746     1.0  0.18114  0.74206  0.45708  1.0000
  C   C993      1.0  0.05751  0.83738  0.46326  1.0000
  C   C994      1.0  0.13366  0.91040  0.42695  1.0000
  H   H1747     1.0  0.21746  0.89466  0.44169  1.0000
  H   H1748     1.0  0.01506  0.85173  0.44852  1.0000
  H   H1749     1.0  0.02141  0.79683  0.46741  1.0000
  C   C995      1.0  0.12785  0.90889  0.46204  1.0000
  H   H1750     1.0  0.22113  0.86039  0.44734  1.0000
  H   H1751     1.0  0.00799  0.79487  0.31064  1.0000
  H   H1752     1.0  0.20339  0.75650  0.25453  1.0000
  H   H1753     1.0  0.26213  0.86789  0.40355  1.0000
  H   H1754     1.0  0.07937  0.83361  0.42657  1.0000
  H   H1755     1.0  0.19102  0.76155  0.11204  1.0000
  H   H1756     1.0  0.27214  0.74747  0.20399  1.0000
  H   H1757     1.0  0.08349  0.78324  0.42927  1.0000
  H   H1758     1.0  0.30634  0.74643  0.17865  1.0000
  H   H1759     1.0  0.02001  0.81801  0.34675  1.0000
  H   H1760     1.0  0.31182  0.76808  0.09507  1.0000
  C   C996      1.0  0.17512  0.74846  0.46962  1.0000
  H   H1761     1.0  0.25648  0.88126  0.45152  1.0000
  H   H1762     1.0  0.23586  0.90543  0.42802  1.0000
  H   H1763     1.0  0.20618  0.77912  0.45432  1.0000
  H   H1764     1.0  0.16294  0.75868  0.13735  1.0000
  C   C997      1.0  0.30619  0.76990  0.01712  1.0000
  H   H1765     1.0  0.19821  0.90453  0.39443  1.0000
  S   S210      1.0  0.32002  0.74481  0.06760  1.0000
  C   C998      1.0  0.08629  0.88520  0.42363  1.0000
  H   H1766     1.0  0.08669  0.89172  0.40857  1.0000
  H   H1767     1.0  0.29831  0.76283  0.27833  1.0000
  H   H1768     1.0  0.31189  0.77936  0.24651  1.0000
  S   S211      1.0  0.14557  0.80788  0.46522  1.0000
  H   H1769     1.0  0.02472  0.74253  0.31453  1.0000
  H   H1770     1.0  0.24132  0.81131  0.43774  1.0000
  H   H1771     1.0  0.10029  0.82318  0.43481  1.0000
  H   H1772     1.0  0.12433  0.88784  0.44832  1.0000
  H   H1773     1.0  0.08544  0.81108  0.47595  1.0000
  H   H1774     1.0  0.24707  0.91526  0.45135  1.0000
  H   H1775     1.0  0.21214  0.88108  0.41910  1.0000
  C   C999      1.0  0.31411  0.75140  0.01049  1.0000
  N   N55       1.0  0.23916  0.87665  0.42560  1.0000
  H   H1776     1.0  0.07487  0.89393  0.43220  1.0000
  H   H1777     1.0  0.99143  0.88276  0.35121  1.0000
  C   C1000     1.0  0.00404  0.92136  0.33561  1.0000
  H   H1778     1.0  0.22158  0.74741  0.19702  1.0000
  H   H1779     1.0  0.00929  0.85126  0.34884  1.0000
  H   H1780     1.0  0.00545  0.90250  0.29896  1.0000
  H   H1781     1.0  0.02956  0.75601  0.29127  1.0000
  H   H1782     1.0  0.01499  0.73586  0.28024  1.0000
  C   C1001     1.0  0.08860  0.82531  0.47023  1.0000
  H   H1783     1.0  0.07986  0.74469  0.41454  1.0000
  H   H1784     1.0  0.11199  0.75722  0.35318  1.0000
  H   H1785     1.0  0.25327  0.82013  0.45015  1.0000
  C   C1002     1.0  0.31529  0.75116  0.18515  1.0000
  C   C1003     1.0  0.23872  0.90547  0.46161  1.0000
  C   C1004     1.0  0.11297  0.74992  0.34190  1.0000
  C   C1005     1.0  0.17795  0.73839  0.15695  1.0000
  H   H1786     1.0  0.30410  0.73639  0.24625  1.0000
  S   S212      1.0  0.15757  0.73772  0.17468  1.0000
  S   S213      1.0  0.12721  0.73634  0.26913  1.0000
  H   H1787     1.0  0.24013  0.73805  0.15835  1.0000
  C   C1006     1.0  0.20995  0.74162  0.12810  1.0000
  H   H1788     1.0  0.30387  0.74225  0.01732  1.0000
  C   C1007     1.0  0.17478  0.73900  0.33394  1.0000
  C   C1008     1.0  0.13340  0.74176  0.33386  1.0000
  H   H1789     1.0  0.10623  0.75998  0.33079  1.0000
  C   C1009     1.0  0.01217  0.73650  0.29524  1.0000
  H   H1790     1.0  0.99291  0.77873  0.41124  1.0000
  S   S214      1.0  0.99216  0.94056  0.34638  1.0000
  H   H1791     1.0  0.10290  0.76702  0.47433  1.0000
  H   H1792     1.0  0.04473  0.73555  0.33735  1.0000
  C   C1010     1.0  0.22088  0.73438  0.27050  1.0000
  C   C1011     1.0  0.31811  0.77054  0.17387  1.0000
  H   H1793     1.0  0.30397  0.76743  0.03263  1.0000
  S   S215      1.0  0.02440  0.74172  0.45292  1.0000
  H   H1794     1.0  0.27630  0.74967  0.27036  1.0000
  H   H1795     1.0  0.99359  0.95543  0.41271  1.0000
  H   H1796     1.0  0.14625  0.87685  0.46986  1.0000
  H   H1797     1.0  0.20086  0.73632  0.23474  1.0000
  H   H1798     1.0  0.31586  0.77973  0.01063  1.0000
  H   H1799     1.0  0.98919  0.90079  0.37651  1.0000
  C   C1012     1.0  0.23886  0.73688  0.17349  1.0000
  C   C1013     1.0  0.32032  0.73817  0.27792  1.0000
  C   C1014     1.0  0.29394  0.73549  0.23842  1.0000
  H   H1800     1.0  0.10507  0.73848  0.34793  1.0000
  Fe  Fe102     1.0  0.04840  0.73774  0.46766  1.0000
  H   H1801     1.0  0.31524  0.75462  0.99511  1.0000
  H   H1802     1.0  0.05296  0.84537  0.47466  1.0000
  H   H1803     1.0  0.24496  0.73360  0.21894  1.0000
  C   C1015     1.0  0.18071  0.73359  0.36667  1.0000
  C   C1016     1.0  0.32125  0.77383  0.08270  1.0000
  H   H1804     1.0  0.18497  0.87468  0.54607  1.0000
  Fe  Fe103     1.0  0.05790  0.76013  0.49169  1.0000
  S   S216      1.0  0.04851  0.78757  0.50166  1.0000
  S   S217      1.0  0.13487  0.94019  0.57226  1.0000
  Fe  Fe104     1.0  0.08438  0.83522  0.60462  1.0000
  S   S218      1.0  0.06193  0.82803  0.59518  1.0000
  S   S219      1.0  0.08832  0.82384  0.63425  1.0000
  Fe  Fe105     1.0  0.09796  0.85818  0.56645  1.0000
  S   S220      1.0  0.07699  0.85284  0.55367  1.0000
  S   S221      1.0  0.12031  0.87288  0.54774  1.0000
  Fe  Fe106     1.0  0.05692  0.85838  0.58044  1.0000
  S   S222      1.0  0.02828  0.87643  0.57837  1.0000
  Fe  Fe107     1.0  0.08389  0.82327  0.56941  1.0000
  S   S223      1.0  0.09279  0.79725  0.55741  1.0000
  S   S224      1.0  0.07757  0.86594  0.59207  1.0000
  S   S225      1.0  0.10663  0.82819  0.58004  1.0000
  H   H1805     1.0  0.06248  0.93829  0.53797  1.0000
  C   C1017     1.0  0.03639  0.96933  0.54699  1.0000
  C   C1018     1.0  0.19414  0.87563  0.48126  1.0000
  Fe  Fe108     1.0  0.17969  0.77588  0.66694  1.0000
  S   S226      1.0  0.16361  0.75284  0.67695  1.0000
  S   S227      1.0  0.17259  0.80032  0.64336  1.0000
  Fe  Fe109     1.0  0.20831  0.75604  0.69128  1.0000
  H   H1806     1.0  0.10502  0.92943  0.49680  1.0000
  S   S228      1.0  0.23368  0.74961  0.70387  1.0000
  C   C1019     1.0  0.23207  0.96883  0.59456  1.0000
  H   H1807     1.0  0.30188  0.96226  0.76382  1.0000
  Fe  Fe110     1.0  0.16780  0.75213  0.70541  1.0000
  S   S229      1.0  0.14552  0.74813  0.73175  1.0000
  S   S230      1.0  0.20798  0.75669  0.66157  1.0000
  S   S231      1.0  0.18133  0.77716  0.69591  1.0000
  C   C1020     1.0  0.28603  0.74306  0.82486  1.0000
  H   H1808     1.0  0.08452  0.75471  0.57144  1.0000
  H   H1809     1.0  0.03645  0.80447  0.65954  1.0000
  H   H1810     1.0  0.10285  0.88619  0.60964  1.0000
  C   C1021     1.0  0.14104  0.87218  0.60931  1.0000
  H   H1811     1.0  0.19438  0.85806  0.62472  1.0000
  H   H1812     1.0  0.01234  0.94450  0.58743  1.0000
  H   H1813     1.0  0.12363  0.89207  0.62696  1.0000
  C   C1022     1.0  0.12886  0.90515  0.49482  1.0000
  H   H1814     1.0  0.04618  0.75172  0.53183  1.0000
  H   H1815     1.0  0.12676  0.86799  0.63932  1.0000
  C   C1023     1.0  0.12573  0.93826  0.62347  1.0000
  H   H1816     1.0  0.15560  0.84838  0.63394  1.0000
  H   H1817     1.0  0.05584  0.88222  0.65242  1.0000
  H   H1818     1.0  0.06315  0.75467  0.55395  1.0000
  S   S232      1.0  0.31608  0.75697  0.70297  1.0000
  H   H1819     1.0  0.23120  0.79011  0.68866  1.0000
  C   C1024     1.0  0.25992  0.75918  0.71565  1.0000
  C   C1025     1.0  0.04761  0.74054  0.54456  1.0000
  H   H1820     1.0  0.16251  0.84555  0.48482  1.0000
  H   H1821     1.0  0.17270  0.96676  0.60129  1.0000
  H   H1822     1.0  0.08444  0.84955  0.48349  1.0000
  H   H1823     1.0  0.25092  0.81125  0.69009  1.0000
  C   C1026     1.0  0.99887  0.85119  0.67895  1.0000
  C   C1027     1.0  0.99827  0.91678  0.61787  1.0000
  H   H1824     1.0  0.00434  0.86413  0.67555  1.0000
  C   C1028     1.0  0.03516  0.93551  0.55647  1.0000
  C   C1029     1.0  0.24210  0.78483  0.69662  1.0000
  H   H1825     1.0  0.04831  0.83654  0.64937  1.0000
  H   H1826     1.0  0.18320  0.92716  0.48735  1.0000
  H   H1827     1.0  0.00927  0.84056  0.70481  1.0000
  H   H1828     1.0  0.06118  0.90292  0.56925  1.0000
  C   C1030     1.0  0.18782  0.86754  0.56018  1.0000
  H   H1829     1.0  0.03520  0.85998  0.66791  1.0000
  C   C1031     1.0  0.17152  0.87467  0.57519  1.0000
  C   C1032     1.0  0.18045  0.89627  0.60876  1.0000
  H   H1830     1.0  0.02654  0.87698  0.64875  1.0000
  H   H1831     1.0  0.15518  0.90193  0.59838  1.0000
  C   C1033     1.0  0.24578  0.76587  0.70540  1.0000
  C   C1034     1.0  0.98944  0.91446  0.60488  1.0000
  H   H1832     1.0  0.00972  0.82027  0.64130  1.0000
  H   H1833     1.0  0.09747  0.95208  0.63210  1.0000
  H   H1834     1.0  0.20747  0.76474  0.76534  1.0000
  H   H1835     1.0  0.28526  0.76548  0.83835  1.0000
  H   H1836     1.0  0.17732  0.77544  0.75580  1.0000
  H   H1837     1.0  0.10602  0.86195  0.62195  1.0000
  H   H1838     1.0  0.05937  0.87565  0.63037  1.0000
  H   H1839     1.0  0.02640  0.83034  0.62274  1.0000
  H   H1840     1.0  0.19642  0.77017  0.62149  1.0000
  H   H1841     1.0  0.00754  0.96910  0.58094  1.0000
  C   C1035     1.0  0.11173  0.81757  0.63684  1.0000
  C   C1036     1.0  0.12600  0.82370  0.62230  1.0000
  C   C1037     1.0  0.14461  0.81843  0.62453  1.0000
  C   C1038     1.0  0.14910  0.80677  0.64117  1.0000
  C   C1039     1.0  0.13484  0.80069  0.65574  1.0000
  C   C1040     1.0  0.11617  0.80625  0.65364  1.0000
  H   H1842     1.0  0.12268  0.83261  0.60940  1.0000
  H   H1843     1.0  0.15561  0.82316  0.61327  1.0000
  H   H1844     1.0  0.13815  0.79186  0.66872  1.0000
  H   H1845     1.0  0.10520  0.80151  0.66497  1.0000
  C   C1041     1.0  0.01722  0.89230  0.59330  1.0000
  C   C1042     1.0  0.02616  0.89482  0.60610  1.0000
  C   C1043     1.0  0.01664  0.90689  0.61846  1.0000
  C   C1044     1.0  0.11073  0.95629  0.62389  1.0000
  H   H1846     1.0  0.15103  0.87152  0.50194  1.0000
  H   H1847     1.0  0.02394  0.82924  0.67547  1.0000
  H   H1848     1.0  0.04028  0.88729  0.60666  1.0000
  H   H1849     1.0  0.02354  0.90864  0.62848  1.0000
  C   C1045     1.0  0.01882  0.95649  0.57892  1.0000
  H   H1850     1.0  0.07715  0.73860  0.53926  1.0000
  H   H1851     1.0  0.15628  0.84377  0.55964  1.0000
  C   C1046     1.0  0.03746  0.86456  0.65244  1.0000
  H   H1852     1.0  0.04934  0.96715  0.55219  1.0000
  C   C1047     1.0  0.99582  0.84398  0.70016  1.0000
  H   H1853     1.0  0.06240  0.93620  0.56208  1.0000
  H   H1854     1.0  0.26317  0.74451  0.72216  1.0000
  C   C1048     1.0  0.13074  0.92127  0.56589  1.0000
  C   C1049     1.0  0.11434  0.91455  0.57454  1.0000
  C   C1050     1.0  0.11107  0.89946  0.56924  1.0000
  C   C1051     1.0  0.12414  0.89124  0.55523  1.0000
  C   C1052     1.0  0.14050  0.89797  0.54666  1.0000
  C   C1053     1.0  0.14385  0.91286  0.55208  1.0000
  H   H1855     1.0  0.10415  0.92104  0.58522  1.0000
  H   H1856     1.0  0.09833  0.89445  0.57575  1.0000
  H   H1857     1.0  0.15070  0.89163  0.53584  1.0000
  H   H1858     1.0  0.15671  0.91767  0.54556  1.0000
  C   C1054     1.0  0.06105  0.79060  0.51682  1.0000
  C   C1055     1.0  0.07807  0.77856  0.51935  1.0000
  C   C1056     1.0  0.08754  0.78065  0.53198  1.0000
  C   C1057     1.0  0.08036  0.79518  0.54178  1.0000
  C   C1058     1.0  0.06360  0.80764  0.53895  1.0000
  C   C1059     1.0  0.05392  0.80528  0.52653  1.0000
  H   H1859     1.0  0.08398  0.76760  0.51163  1.0000
  H   H1860     1.0  0.10057  0.77108  0.53399  1.0000
  H   H1861     1.0  0.05800  0.81892  0.54647  1.0000
  H   H1862     1.0  0.04080  0.81472  0.52458  1.0000
  C   C1060     1.0  0.30430  0.96177  0.77780  1.0000
  H   H1863     1.0  0.19988  0.83204  0.65183  1.0000
  H   H1864     1.0  0.02440  0.78700  0.64319  1.0000
  H   H1865     1.0  0.03209  0.93179  0.54445  1.0000
  C   C1061     1.0  0.08389  0.74529  0.60128  1.0000
  H   H1866     1.0  0.26382  0.75674  0.84492  1.0000
  H   H1867     1.0  0.17089  0.92000  0.62266  1.0000
  H   H1868     1.0  0.14436  0.90363  0.49118  1.0000
  H   H1869     1.0  0.19184  0.77679  0.73238  1.0000
  Fe  Fe111     1.0  0.18237  0.97296  0.52277  1.0000
  S   S233      1.0  0.28334  0.80371  0.70680  1.0000
  C   C1062     1.0  0.14057  0.86535  0.49909  1.0000
  C   C1063     1.0  0.16275  0.74165  0.50418  1.0000
  C   C1064     1.0  0.02272  0.82571  0.63829  1.0000
  H   H1870     1.0  0.20902  0.75428  0.60594  1.0000
  C   C1065     1.0  0.12453  0.93158  0.51155  1.0000
  S   S234      1.0  0.18798  0.92629  0.55803  1.0000
  H   H1871     1.0  0.30177  0.97640  0.77962  1.0000
  H   H1872     1.0  0.13945  0.94148  0.61536  1.0000
  C   C1066     1.0  0.17430  0.86443  0.59518  1.0000
  H   H1873     1.0  0.13364  0.74878  0.77070  1.0000
  C   C1067     1.0  0.03435  0.95705  0.58839  1.0000
  C   C1068     1.0  0.03818  0.80862  0.64408  1.0000
  S   S235      1.0  0.21046  0.95369  0.52435  1.0000
  H   H1874     1.0  0.12275  0.96787  0.59510  1.0000
  C   C1069     1.0  0.18397  0.84911  0.63105  1.0000
  H   H1875     1.0  0.30707  0.96622  0.60169  1.0000
  H   H1876     1.0  0.04610  0.94496  0.58688  1.0000
  C   C1070     1.0  0.99890  0.90226  0.59263  1.0000
  C   C1071     1.0  0.09366  0.88879  0.50636  1.0000
  H   H1877     1.0  0.17298  0.76440  0.73954  1.0000
  H   H1878     1.0  0.04120  0.96728  0.53228  1.0000
  H   H1879     1.0  0.19265  0.75283  0.56964  1.0000
  H   H1880     1.0  0.07492  0.73818  0.61386  1.0000
  H   H1881     1.0  0.20098  0.87074  0.56114  1.0000
  H   H1882     1.0  0.10595  0.78367  0.61968  1.0000
  H   H1883     1.0  0.03971  0.79524  0.62133  1.0000
  H   H1884     1.0  0.11578  0.78898  0.48331  1.0000
  H   H1885     1.0  0.08206  0.76573  0.61746  1.0000
  H   H1886     1.0  0.12570  0.89703  0.50940  1.0000
  C   C1072     1.0  0.21380  0.75395  0.75667  1.0000
  H   H1887     1.0  0.15510  0.83728  0.50970  1.0000
  H   H1888     1.0  0.09869  0.73844  0.60149  1.0000
  H   H1889     1.0  0.31688  0.94550  0.80909  1.0000
  H   H1890     1.0  0.12669  0.93520  0.48224  1.0000
  H   H1891     1.0  0.18885  0.86429  0.59559  1.0000
  H   H1892     1.0  0.09969  0.87356  0.50905  1.0000
  H   H1893     1.0  0.00212  0.87036  0.64438  1.0000
  H   H1894     1.0  0.18965  0.85221  0.56164  1.0000
  C   C1073     1.0  0.02714  0.95606  0.60944  1.0000
  C   C1074     1.0  0.05626  0.87062  0.64580  1.0000
  S   S236      1.0  0.08509  0.74010  0.49442  1.0000
  H   H1895     1.0  0.15192  0.89697  0.62302  1.0000
  H   H1896     1.0  0.26986  0.77158  0.82222  1.0000
  H   H1897     1.0  0.06723  0.77383  0.60067  1.0000
  C   C1075     1.0  0.24572  0.97853  0.59418  1.0000
  H   H1898     1.0  0.22235  0.76093  0.74354  1.0000
  H   H1899     1.0  0.05225  0.81191  0.63794  1.0000
  H   H1900     1.0  0.20258  0.74183  0.73964  1.0000
  H   H1901     1.0  0.06928  0.88467  0.49897  1.0000
  H   H1902     1.0  0.06771  0.85877  0.64979  1.0000
  H   H1903     1.0  0.18328  0.85205  0.65914  1.0000
  C   C1076     1.0  0.12477  0.87751  0.62575  1.0000
  H   H1904     1.0  0.25183  0.74737  0.75482  1.0000
  C   C1077     1.0  0.24240  0.74417  0.76879  1.0000
  H   H1905     1.0  0.19018  0.89331  0.59556  1.0000
  H   H1906     1.0  0.13271  0.78053  0.52069  1.0000
  C   C1078     1.0  0.07251  0.89110  0.50902  1.0000
  C   C1079     1.0  0.13347  0.87718  0.48124  1.0000
  C   C1080     1.0  0.23739  0.76193  0.77714  1.0000
  H   H1907     1.0  0.12895  0.86445  0.51149  1.0000
  H   H1908     1.0  0.05913  0.90438  0.54571  1.0000
  C   C1081     1.0  0.10853  0.96666  0.60380  1.0000
  H   H1909     1.0  0.19744  0.74539  0.62946  1.0000
  C   C1082     1.0  0.25429  0.76487  0.78252  1.0000
  H   H1910     1.0  0.17533  0.83169  0.65855  1.0000
  H   H1911     1.0  0.05075  0.96650  0.64153  1.0000
  H   H1912     1.0  0.12181  0.77594  0.63564  1.0000
  H   H1913     1.0  0.17039  0.88995  0.57309  1.0000
  H   H1914     1.0  0.02491  0.94180  0.61668  1.0000
  C   C1083     1.0  0.18564  0.84076  0.65141  1.0000
  H   H1915     1.0  0.11488  0.96495  0.63117  1.0000
  H   H1916     1.0  0.13979  0.92776  0.51126  1.0000
  H   H1917     1.0  0.27790  0.74713  0.68081  1.0000
  C   C1084     1.0  0.18410  0.76771  0.74433  1.0000
  H   H1918     1.0  0.08031  0.90763  0.54976  1.0000
  H   H1919     1.0  0.23294  0.77453  0.76654  1.0000
  H   H1920     1.0  0.22582  0.76104  0.78970  1.0000
  H   H1921     1.0  0.13857  0.75718  0.53421  1.0000
  H   H1922     1.0  0.99185  0.90029  0.58282  1.0000
  H   H1923     1.0  0.99830  0.97326  0.55338  1.0000
  C   C1085     1.0  0.26770  0.78982  0.70741  1.0000
  C   C1086     1.0  0.03756  0.84819  0.64371  1.0000
  H   H1924     1.0  0.17382  0.84949  0.59672  1.0000
  C   C1087     1.0  0.06498  0.74061  0.55108  1.0000
  H   H1925     1.0  0.01097  0.96079  0.53533  1.0000
  H   H1926     1.0  0.23835  0.97119  0.54791  1.0000
  H   H1927     1.0  0.14578  0.83082  0.54998  1.0000
  H   H1928     1.0  0.26608  0.76599  0.77011  1.0000
  H   H1929     1.0  0.25051  0.77804  0.78779  1.0000
  H   H1930     1.0  0.25889  0.75305  0.79370  1.0000
  H   H1931     1.0  0.04943  0.77995  0.64063  1.0000
  C   C1088     1.0  0.00722  0.95951  0.55083  1.0000
  H   H1932     1.0  0.03756  0.95929  0.61534  1.0000
  C   C1089     1.0  0.16108  0.89223  0.61029  1.0000
  H   H1933     1.0  0.27602  0.73913  0.81905  1.0000
  C   C1090     1.0  0.25441  0.98240  0.56049  1.0000
  C   C1091     1.0  0.25318  0.79680  0.69753  1.0000
  H   H1934     1.0  0.04309  0.85190  0.62829  1.0000
  C   C1092     1.0  0.19733  0.74960  0.75121  1.0000
  H   H1935     1.0  0.09469  0.88033  0.63464  1.0000
  C   C1093     1.0  0.31610  0.95993  0.58978  1.0000
  C   C1094     1.0  0.01197  0.83593  0.66838  1.0000
  N   N56       1.0  0.02472  0.95521  0.55850  1.0000
  H   H1936     1.0  0.30742  0.96071  0.57976  1.0000
  H   H1937     1.0  0.01369  0.96612  0.61242  1.0000
  C   C1095     1.0  0.27042  0.77119  0.71710  1.0000
  S   S237      1.0  0.17286  0.97164  0.55362  1.0000
  H   H1938     1.0  0.07290  0.97064  0.61076  1.0000
  H   H1939     1.0  0.18650  0.88788  0.62090  1.0000
  H   H1940     1.0  0.13750  0.88219  0.59643  1.0000
  H   H1941     1.0  0.20718  0.86905  0.50504  1.0000
  C   C1096     1.0  0.24028  0.97326  0.56082  1.0000
  H   H1942     1.0  0.15813  0.86786  0.64113  1.0000
  H   H1943     1.0  0.17488  0.74428  0.50800  1.0000
  C   C1097     1.0  0.17885  0.91683  0.60886  1.0000
  H   H1944     1.0  0.28094  0.76588  0.72547  1.0000
  C   C1098     1.0  0.08113  0.76552  0.60314  1.0000
  H   H1945     1.0  0.17175  0.92630  0.59773  1.0000
  C   C1099     1.0  0.19964  0.88006  0.49573  1.0000
  Fe  Fe112     1.0  0.19526  0.93079  0.52653  1.0000
  H   H1946     1.0  0.07067  0.83245  0.49648  1.0000
  H   H1947     1.0  0.11686  0.92450  0.52508  1.0000
  Fe  Fe113     1.0  0.16171  0.94703  0.55377  1.0000
  H   H1948     1.0  0.03012  0.92501  0.56898  1.0000
  H   H1949     1.0  0.12189  0.92871  0.61688  1.0000
  Fe  Fe114     1.0  0.31097  0.78457  0.71103  1.0000
  H   H1950     1.0  0.01212  0.86260  0.62327  1.0000
  H   H1951     1.0  0.18436  0.76650  0.48250  1.0000
  H   H1952     1.0  0.15870  0.87209  0.57277  1.0000
  N   N57       1.0  0.01921  0.84210  0.64756  1.0000
  C   C1100     1.0  0.07823  0.74435  0.58332  1.0000
  C   C1101     1.0  0.15020  0.84539  0.49673  1.0000
  C   C1102     1.0  0.10599  0.87641  0.62272  1.0000
  H   H1953     1.0  0.29712  0.74738  0.81285  1.0000
  C   C1103     1.0  0.03783  0.79170  0.63684  1.0000
  H   H1954     1.0  0.12715  0.93095  0.63797  1.0000
  S   S238      1.0  0.21218  0.95326  0.57944  1.0000
  H   H1955     1.0  0.14038  0.83821  0.49419  1.0000
  H   H1956     1.0  0.20309  0.74101  0.79092  1.0000
  H   H1957     1.0  0.09894  0.96722  0.57074  1.0000
  C   C1104     1.0  0.08452  0.83436  0.48751  1.0000
  S   S239      1.0  0.16812  0.95054  0.52251  1.0000
  N   N58       1.0  0.12288  0.89723  0.48152  1.0000
  H   H1958     1.0  0.19305  0.91974  0.60626  1.0000
  N   N59       1.0  0.16043  0.87223  0.61110  1.0000
  Fe  Fe115     1.0  0.20011  0.95125  0.55557  1.0000
  S   S240      1.0  0.20497  0.90385  0.51502  1.0000
  H   H1959     1.0  0.13387  0.75704  0.50300  1.0000
  H   H1960     1.0  0.06556  0.90616  0.50705  1.0000
  H   H1961     1.0  0.15127  0.77101  0.49183  1.0000
  C   C1105     1.0  0.27561  0.76023  0.83318  1.0000
  C   C1106     1.0  0.05025  0.98139  0.64118  1.0000
  C   C1107     1.0  0.05689  0.93130  0.55254  1.0000
  H   H1962     1.0  0.98967  0.83130  0.70439  1.0000
  C   C1108     1.0  0.06484  0.91028  0.55442  1.0000
  H   H1963     1.0  0.03954  0.97026  0.58227  1.0000
  H   H1964     1.0  0.06666  0.88399  0.52340  1.0000
  H   H1965     1.0  0.11986  0.94695  0.51053  1.0000
  H   H1966     1.0  0.07516  0.97951  0.57741  1.0000
  C   C1109     1.0  0.22924  0.96613  0.57792  1.0000
  H   H1967     1.0  0.10371  0.95680  0.59850  1.0000
  H   H1968     1.0  0.18798  0.83734  0.62358  1.0000
  C   C1110     1.0  0.12040  0.92614  0.49526  1.0000
  H   H1969     1.0  0.14052  0.85814  0.60767  1.0000
  H   H1970     1.0  0.00393  0.82473  0.67121  1.0000
  H   H1971     1.0  0.17098  0.82815  0.54477  1.0000
  H   H1972     1.0  0.98942  0.84477  0.62706  1.0000
  S   S241      1.0  0.04153  0.73752  0.49861  1.0000
  C   C1111     1.0  0.19586  0.89868  0.49801  1.0000
  C   C1112     1.0  0.16365  0.85977  0.62977  1.0000
  H   H1973     1.0  0.09224  0.77218  0.59297  1.0000
  H   H1974     1.0  0.09608  0.89506  0.51697  1.0000
  C   C1113     1.0  0.14363  0.76742  0.52157  1.0000
  C   C1114     1.0  0.00556  0.85779  0.63822  1.0000
  H   H1975     1.0  0.09437  0.91307  0.48342  1.0000
  C   C1115     1.0  0.14726  0.75978  0.50385  1.0000
  C   C1116     1.0  0.09918  0.82530  0.49947  1.0000
  H   H1976     1.0  0.10971  0.75975  0.63281  1.0000
  H   H1977     1.0  0.29413  0.95437  0.78870  1.0000
  C   C1117     1.0  0.99431  0.94513  0.55915  1.0000
  H   H1978     1.0  0.11313  0.82791  0.49145  1.0000
  N   N60       1.0  0.22605  0.73744  0.76691  1.0000
  H   H1979     1.0  0.10002  0.80998  0.50388  1.0000
  N   N61       1.0  0.16040  0.77849  0.58464  1.0000
  C   C1118     1.0  0.16190  0.76147  0.57702  1.0000
  C   C1119     1.0  0.14158  0.78276  0.59777  1.0000
  C   C1120     1.0  0.16153  0.79497  0.56821  1.0000
  C   C1121     1.0  0.17612  0.77633  0.59428  1.0000
  C   C1122     1.0  0.17862  0.75913  0.61053  1.0000
  C   C1123     1.0  0.18043  0.75538  0.56321  1.0000
  C   C1124     1.0  0.15917  0.81429  0.57308  1.0000
  C   C1125     1.0  0.13269  0.76595  0.60962  1.0000
  C   C1126     1.0  0.11651  0.77177  0.62535  1.0000
  C   C1127     1.0  0.19649  0.75721  0.61718  1.0000
  H   H1980     1.0  0.00164  0.93091  0.55682  1.0000
  C   C1128     1.0  0.15801  0.83015  0.55577  1.0000
  H   H1981     1.0  0.15014  0.76381  0.56986  1.0000
  H   H1982     1.0  0.16023  0.74901  0.58844  1.0000
  H   H1983     1.0  0.14241  0.79100  0.60758  1.0000
  H   H1984     1.0  0.13086  0.79176  0.58982  1.0000
  H   H1985     1.0  0.15078  0.79627  0.56008  1.0000
  H   H1986     1.0  0.17530  0.79284  0.55835  1.0000
  H   H1987     1.0  0.18966  0.77621  0.58393  1.0000
  H   H1988     1.0  0.17406  0.78868  0.60054  1.0000
  H   H1989     1.0  0.17965  0.74592  0.60629  1.0000
  H   H1990     1.0  0.16679  0.76085  0.62270  1.0000
  H   H1991     1.0  0.18215  0.76612  0.55005  1.0000
  H   H1992     1.0  0.07940  0.97722  0.64102  1.0000
  H   H1993     1.0  0.17130  0.81463  0.57848  1.0000
  H   H1994     1.0  0.14631  0.81743  0.58380  1.0000
  H   H1995     1.0  0.12720  0.76019  0.60058  1.0000
  H   H1996     1.0  0.14291  0.75459  0.61612  1.0000
  C   C1129     1.0  0.18611  0.91277  0.48588  1.0000
  H   H1997     1.0  0.22385  0.96309  0.60788  1.0000
  H   H1998     1.0  0.09537  0.83123  0.51225  1.0000
  H   H1999     1.0  0.18913  0.74112  0.76328  1.0000
  H   H2000     1.0  0.98926  0.94423  0.57440  1.0000
  H   H2001     1.0  0.06286  0.75015  0.58570  1.0000
  H   H2002     1.0  0.15654  0.77073  0.52299  1.0000
  C   C1130     1.0  0.10207  0.89826  0.48622  1.0000
  H   H2003     1.0  0.24794  0.98018  0.60714  1.0000
  H   H2004     1.0  0.11885  0.73532  0.57419  1.0000
  H   H2005     1.0  0.14932  0.97095  0.61526  1.0000
  C   C1131     1.0  0.16069  0.97783  0.60591  1.0000
  H   H2006     1.0  0.17100  0.97936  0.62896  1.0000
  C   C1132     1.0  0.08970  0.98125  0.57072  1.0000
  H   H2007     1.0  0.03483  0.74329  0.55557  1.0000
  H   H2008     1.0  0.14089  0.73988  0.48176  1.0000
  H   H2009     1.0  0.19741  0.86130  0.47956  1.0000
  S   S242      1.0  0.31779  0.77250  0.73952  1.0000
  C   C1133     1.0  0.14501  0.73677  0.76921  1.0000
  H   H2010     1.0  0.08509  0.98250  0.54327  1.0000
  C   C1134     1.0  0.18069  0.73721  0.55779  1.0000
  H   H2011     1.0  0.16892  0.73908  0.55090  1.0000
  H   H2012     1.0  0.29873  0.73517  0.66706  1.0000
  H   H2013     1.0  0.09062  0.73392  0.82282  1.0000
  N   N62       1.0  0.16898  0.73393  0.48653  1.0000
  H   H2014     1.0  0.32175  0.94494  0.59528  1.0000
  H   H2015     1.0  0.10154  0.73427  0.55218  1.0000
  Fe  Fe116     1.0  0.19187  0.73379  0.67354  1.0000
  C   C1135     1.0  0.28899  0.73418  0.68099  1.0000
  H   H2016     1.0  0.65405  0.04886  0.09472  1.0000
  H   H2017     1.0  0.60723  0.05291  0.09390  1.0000
  Fe  Fe117     1.0  0.59198  0.08156  0.00355  1.0000
  S   S243      1.0  0.58114  0.11160  0.99136  1.0000
  S   S244      1.0  0.57582  0.06866  0.03140  1.0000
  C   C1136     1.0  0.61810  0.18768  0.34691  1.0000
  H   H2018     1.0  0.64118  0.13841  0.27288  1.0000
  S   S245      1.0  0.61520  0.13961  0.99264  1.0000
  Fe  Fe118     1.0  0.61124  0.11420  0.98467  1.0000
  S   S246      1.0  0.62169  0.08447  0.99857  1.0000
  C   C1137     1.0  0.64961  0.16291  0.00794  1.0000
  S   S247      1.0  0.61936  0.99151  0.07162  1.0000
  C   C1138     1.0  0.61271  0.00370  0.16488  1.0000
  C   C1139     1.0  0.61419  0.17529  0.33604  1.0000
  H   H2019     1.0  0.60465  0.04061  0.12824  1.0000
  C   C1140     1.0  0.51274  0.05134  0.06664  1.0000
  H   H2020     1.0  0.56540  0.22833  0.39228  1.0000
  S   S248      1.0  0.56114  0.20666  0.46669  1.0000
  S   S249      1.0  0.64996  0.14089  0.36345  1.0000
  S   S250      1.0  0.65040  0.19993  0.40917  1.0000
  S   S251      1.0  0.63874  0.19751  0.28547  1.0000
  N   N63       1.0  0.63354  0.03304  0.09560  1.0000
  C   C1141     1.0  0.64944  0.15782  0.37585  1.0000
  H   H2021     1.0  0.64554  0.13774  0.07801  1.0000
  H   H2022     1.0  0.62439  0.09873  0.13493  1.0000
  H   H2023     1.0  0.62194  0.10242  0.22510  1.0000
  H   H2024     1.0  0.61989  0.13947  0.04387  1.0000
  H   H2025     1.0  0.62483  0.13262  0.25074  1.0000
  C   C1142     1.0  0.49725  0.06108  0.98189  1.0000
  H   H2026     1.0  0.62772  0.22937  0.37850  1.0000
  C   C1143     1.0  0.61611  0.02315  0.04409  1.0000
  S   S252      1.0  0.63999  0.06773  0.19770  1.0000
  H   H2027     1.0  0.52563  0.04777  0.98317  1.0000
  C   C1144     1.0  0.58051  0.03823  0.12045  1.0000
  N   N64       1.0  0.64681  0.14886  0.21406  1.0000
  H   H2028     1.0  0.63623  0.17857  0.21155  1.0000
  C   C1145     1.0  0.51361  0.06222  0.00678  1.0000
  H   H2029     1.0  0.64788  0.17351  0.01581  1.0000
  H   H2030     1.0  0.60513  0.01758  0.12499  1.0000
  C   C1146     1.0  0.59467  0.11838  0.04138  1.0000
  H   H2031     1.0  0.62461  0.21035  0.32404  1.0000
  C   C1147     1.0  0.61245  0.03768  0.09889  1.0000
  H   H2032     1.0  0.63278  0.00399  0.09875  1.0000
  H   H2033     1.0  0.61789  0.20724  0.22739  1.0000
  Fe  Fe119     1.0  0.62311  0.21669  0.42258  1.0000
  S   S253      1.0  0.59541  0.21679  0.41725  1.0000
  S   S254      1.0  0.65306  0.14582  0.30952  1.0000
  C   C1148     1.0  0.53165  0.09814  0.99047  1.0000
  H   H2034     1.0  0.57260  0.20309  0.39514  1.0000
  C   C1149     1.0  0.53002  0.11860  0.99092  1.0000
  C   C1150     1.0  0.63364  0.16670  0.20732  1.0000
  S   S255      1.0  0.61202  0.21780  0.45316  1.0000
  C   C1151     1.0  0.58817  0.01985  0.06814  1.0000
  C   C1152     1.0  0.51328  0.06395  0.04712  1.0000
  H   H2035     1.0  0.60121  0.13644  0.06317  1.0000
  C   C1153     1.0  0.64421  0.03815  0.12384  1.0000
  H   H2036     1.0  0.63609  0.16831  0.08868  1.0000
  H   H2037     1.0  0.65465  0.14508  0.12825  1.0000
  H   H2038     1.0  0.62330  0.15409  0.39490  1.0000
  H   H2039     1.0  0.51891  0.98889  0.16909  1.0000
  S   S256      1.0  0.59334  0.99704  0.16117  1.0000
  C   C1154     1.0  0.61518  0.12904  0.05655  1.0000
  C   C1155     1.0  0.59949  0.21938  0.36725  1.0000
  H   H2040     1.0  0.62624  0.10865  0.19977  1.0000
  C   C1156     1.0  0.62927  0.10860  0.10470  1.0000
  H   H2041     1.0  0.56031  0.06161  0.00377  1.0000
  C   C1157     1.0  0.64904  0.18440  0.39607  1.0000
  C   C1158     1.0  0.64690  0.14759  0.23430  1.0000
  H   H2042     1.0  0.60291  0.11409  0.21346  1.0000
  C   C1159     1.0  0.57950  0.21866  0.36637  1.0000
  H   H2043     1.0  0.57594  0.05365  0.11613  1.0000
  H   H2044     1.0  0.63792  0.14956  0.05706  1.0000
  H   H2045     1.0  0.64298  0.99615  0.00889  1.0000
  H   H2046     1.0  0.49978  0.06550  0.04319  1.0000
  H   H2047     1.0  0.60513  0.18210  0.18663  1.0000
  S   S257      1.0  0.64505  0.11461  0.15874  1.0000
  H   H2048     1.0  0.63358  0.06731  0.07026  1.0000
  H   H2049     1.0  0.61818  0.16033  0.34288  1.0000
  C   C1160     1.0  0.51590  0.06096  0.98609  1.0000
  C   C1161     1.0  0.60692  0.01286  0.06063  1.0000
  H   H2050     1.0  0.63209  0.03338  0.13400  1.0000
  C   C1162     1.0  0.63385  0.98776  0.02008  1.0000
  H   H2051     1.0  0.57310  0.03369  0.13513  1.0000
  H   H2052     1.0  0.61580  0.14233  0.20132  1.0000
  H   H2053     1.0  0.63308  0.18334  0.34760  1.0000
  H   H2054     1.0  0.59793  0.23071  0.37466  1.0000
  C   C1163     1.0  0.64088  0.03647  0.07461  1.0000
  H   H2055     1.0  0.54300  0.05611  0.03649  1.0000
  H   H2056     1.0  0.63795  0.09060  0.27912  1.0000
  H   H2057     1.0  0.64105  0.09649  0.10262  1.0000
  H   H2058     1.0  0.50097  0.05774  0.07688  1.0000
  C   C1164     1.0  0.64243  0.19955  0.26130  1.0000
  C   C1165     1.0  0.62720  0.20202  0.25317  1.0000
  C   C1166     1.0  0.62975  0.20506  0.23368  1.0000
  H   H2059     1.0  0.60490  0.11512  0.12678  1.0000
  H   H2060     1.0  0.65204  0.15970  0.23546  1.0000
  S   S258      1.0  0.57913  0.98961  0.11837  1.0000
  H   H2061     1.0  0.61339  0.20178  0.26195  1.0000
  C   C1167     1.0  0.61371  0.20868  0.33719  1.0000
  H   H2062     1.0  0.51065  0.03732  0.06672  1.0000
  H   H2063     1.0  0.63581  0.00914  0.11893  1.0000
  C   C1168     1.0  0.63576  0.14403  0.99588  1.0000
  C   C1169     1.0  0.63389  0.15724  0.00659  1.0000
  C   C1170     1.0  0.63107  0.99381  0.16005  1.0000
  H   H2064     1.0  0.64289  0.22068  0.33894  1.0000
  H   H2065     1.0  0.55271  0.21552  0.38491  1.0000
  H   H2066     1.0  0.63905  0.98440  0.03323  1.0000
  H   H2067     1.0  0.62010  0.16356  0.01347  1.0000
  H   H2068     1.0  0.63496  0.12032  0.10557  1.0000
  H   H2069     1.0  0.60777  0.03030  0.09056  1.0000
  H   H2070     1.0  0.52598  0.04964  0.07118  1.0000
  N   N65       1.0  0.53025  0.06523  0.01225  1.0000
  H   H2071     1.0  0.50113  0.07342  0.01013  1.0000
  C   C1171     1.0  0.60658  0.04017  0.03492  1.0000
  C   C1172     1.0  0.58789  0.04720  0.04248  1.0000
  C   C1173     1.0  0.57871  0.03707  0.05914  1.0000
  C   C1174     1.0  0.56684  0.21624  0.38591  1.0000
  C   C1175     1.0  0.54874  0.05710  0.00082  1.0000
  H   H2072     1.0  0.61374  0.04785  0.02204  1.0000
  H   H2073     1.0  0.56425  0.04247  0.06506  1.0000
  H   H2074     1.0  0.57300  0.23181  0.35773  1.0000
  H   H2075     1.0  0.59910  0.17848  0.33580  1.0000
  H   H2076     1.0  0.60453  0.12250  0.09314  1.0000
  H   H2077     1.0  0.50944  0.04895  0.01536  1.0000
  H   H2078     1.0  0.52055  0.09805  0.98357  1.0000
  H   H2079     1.0  0.59538  0.02677  0.17723  1.0000
  C   C1176     1.0  0.64620  0.11066  0.06284  1.0000
  C   C1177     1.0  0.62098  0.13214  0.21330  1.0000
  C   C1178     1.0  0.55391  0.03540  0.00419  1.0000
  H   H2080     1.0  0.60515  0.15936  0.07509  1.0000
  C   C1179     1.0  0.64272  0.01397  0.17301  1.0000
  N   N66       1.0  0.61300  0.22252  0.34863  1.0000
  C   C1180     1.0  0.52998  0.05576  0.03257  1.0000
  H   H2081     1.0  0.54014  0.11985  0.99851  1.0000
  C   C1181     1.0  0.63424  0.17503  0.40090  1.0000
  H   H2082     1.0  0.61853  0.05729  0.06261  1.0000
  H   H2083     1.0  0.57333  0.01327  0.99127  1.0000
  H   H2084     1.0  0.61248  0.18159  0.08961  1.0000
  C   C1182     1.0  0.56853  0.02873  0.98778  1.0000
  C   C1183     1.0  0.60162  0.03282  0.11931  1.0000
  H   H2085     1.0  0.61277  0.14802  0.09670  1.0000
  H   H2086     1.0  0.63066  0.01796  0.03831  1.0000
  C   C1184     1.0  0.63327  0.14124  0.07131  1.0000
  H   H2087     1.0  0.59399  0.10719  0.03473  1.0000
  C   C1185     1.0  0.61790  0.11313  0.21289  1.0000
  H   H2088     1.0  0.51540  0.09239  0.01832  1.0000
  H   H2089     1.0  0.62245  0.17742  0.32146  1.0000
  H   H2090     1.0  0.57974  0.20670  0.36036  1.0000
  H   H2091     1.0  0.58080  0.03530  0.98457  1.0000
  C   C1186     1.0  0.61637  0.10304  0.12363  1.0000
  C   C1187     1.0  0.64593  0.99882  0.16424  1.0000
  H   H2092     1.0  0.62434  0.10848  0.03845  1.0000
  C   C1188     1.0  0.63503  0.17237  0.18581  1.0000
  H   H2093     1.0  0.54943  0.06277  0.98565  1.0000
  H   H2094     1.0  0.61889  0.16624  0.21421  1.0000
  C   C1189     1.0  0.61863  0.11391  0.08856  1.0000
  H   H2095     1.0  0.51565  0.12466  0.99788  1.0000
  H   H2096     1.0  0.61028  0.09116  0.12374  1.0000
  N   N67       1.0  0.62837  0.12368  0.06983  1.0000
  H   H2097     1.0  0.54561  0.09342  0.98185  1.0000
  C   C1190     1.0  0.62816  0.14658  0.24862  1.0000
  C   C1191     1.0  0.63321  0.05616  0.06345  1.0000
  H   H2098     1.0  0.53995  0.08762  0.01711  1.0000
  H   H2099     1.0  0.64900  0.12367  0.03259  1.0000
  C   C1192     1.0  0.61220  0.11267  0.04959  1.0000
  C   C1193     1.0  0.61825  0.18747  0.18078  1.0000
  H   H2100     1.0  0.60968  0.18466  0.36132  1.0000
  C   C1194     1.0  0.62442  0.02425  0.17729  1.0000
  H   H2101     1.0  0.62007  0.19166  0.16529  1.0000
  H   H2102     1.0  0.58191  0.12048  0.05258  1.0000
  H   H2103     1.0  0.62412  0.03831  0.98778  1.0000
  C   C1195     1.0  0.63219  0.22004  0.35228  1.0000
  H   H2104     1.0  0.61942  0.99637  0.02222  1.0000
  C   C1196     1.0  0.61737  0.15477  0.08183  1.0000
  H   H2105     1.0  0.51465  0.07787  0.04818  1.0000
  C   C1197     1.0  0.63455  0.16160  0.39091  1.0000
  H   H2106     1.0  0.60514  0.20645  0.37686  1.0000
  H   H2107     1.0  0.62170  0.03591  0.18406  1.0000
  H   H2108     1.0  0.61714  0.20006  0.18628  1.0000
  C   C1198     1.0  0.52916  0.08585  0.01052  1.0000
  C   C1199     1.0  0.60951  0.01903  0.17339  1.0000
  H   H2109     1.0  0.57649  0.03130  0.11133  1.0000
  H   H2110     1.0  0.64914  0.12854  0.19751  1.0000
  H   H2111     1.0  0.55986  0.02971  0.01699  1.0000
  H   H2112     1.0  0.61584  0.10060  0.08746  1.0000
  C   C1200     1.0  0.63999  0.01247  0.10340  1.0000
  H   H2113     1.0  0.58373  0.23179  0.25634  1.0000
  H   H2114     1.0  0.61213  0.13620  0.22636  1.0000
  H   H2115     1.0  0.64335  0.09708  0.06255  1.0000
  H   H2116     1.0  0.64429  0.04904  0.03594  1.0000
  C   C1201     1.0  0.62396  0.17222  0.08179  1.0000
  C   C1202     1.0  0.65363  0.13618  0.98677  1.0000
  H   H2117     1.0  0.62807  0.18011  0.06723  1.0000
  H   H2118     1.0  0.61066  0.10014  0.06093  1.0000
  H   H2119     1.0  0.59486  0.13155  0.03060  1.0000
  H   H2120     1.0  0.58093  0.01200  0.08082  1.0000
  H   H2121     1.0  0.52988  0.04064  0.03486  1.0000
  C   C1203     1.0  0.64746  0.20609  0.22230  1.0000
  C   C1204     1.0  0.65140  0.09327  0.27091  1.0000
  H   H2122     1.0  0.61626  0.14700  0.27804  1.0000
  H   H2123     1.0  0.54148  0.02935  0.00629  1.0000
  C   C1205     1.0  0.64055  0.04560  0.10364  1.0000
  S   S259      1.0  0.64656  0.07447  0.24653  1.0000
  H   H2124     1.0  0.49119  0.04918  0.99127  1.0000
  H   H2125     1.0  0.61646  0.15768  0.24415  1.0000
  H   H2126     1.0  0.63776  0.02594  0.06863  1.0000
  H   H2127     1.0  0.63072  0.05946  0.10335  1.0000
  C   C1206     1.0  0.64199  0.13159  0.21161  1.0000
  H   H2128     1.0  0.62289  0.17765  0.41268  1.0000
  H   H2129     1.0  0.63651  0.20575  0.36060  1.0000
  H   H2130     1.0  0.61235  0.18601  0.98276  1.0000
  H   H2131     1.0  0.60956  0.01152  0.99165  1.0000
  C   C1207     1.0  0.62944  0.14890  0.26768  1.0000
  H   H2132     1.0  0.60038  0.21159  0.33237  1.0000
  H   H2133     1.0  0.65431  0.21706  0.11293  1.0000
  Fe  Fe120     1.0  0.58390  0.22067  0.44692  1.0000
  H   H2134     1.0  0.63165  0.16307  0.26667  1.0000
  H   H2135     1.0  0.64742  0.11902  0.22179  1.0000
  H   H2136     1.0  0.63601  0.16015  0.17984  1.0000
  H   H2137     1.0  0.48721  0.07447  0.98363  1.0000
  H   H2138     1.0  0.64771  0.17831  0.17896  1.0000
  C   C1208     1.0  0.64456  0.05979  0.04336  1.0000
  S   S260      1.0  0.65011  0.21151  0.19796  1.0000
  C   C1209     1.0  0.64889  0.05323  0.13079  1.0000
  H   H2139     1.0  0.63843  0.07375  0.03565  1.0000
  H   H2140     1.0  0.63663  0.06493  0.13241  1.0000
  H   H2141     1.0  0.65261  0.04725  0.14469  1.0000
  C   C1210     1.0  0.49695  0.99957  0.86902  1.0000
  H   H2142     1.0  0.42981  0.06966  0.87639  1.0000
  H   H2143     1.0  0.38102  0.08136  0.82926  1.0000
  S   S261      1.0  0.61739  0.10778  0.76013  1.0000
  C   C1211     1.0  0.34334  0.03910  0.85889  1.0000
  S   S262      1.0  0.58063  0.04263  0.75437  1.0000
  C   C1212     1.0  0.33938  0.99049  0.83242  1.0000
  C   C1213     1.0  0.61599  0.06028  0.88209  1.0000
  H   H2144     1.0  0.56718  0.07311  0.95529  1.0000
  N   N68       1.0  0.34545  0.07025  0.83439  1.0000
  H   H2145     1.0  0.33774  0.20473  0.56687  1.0000
  C   C1214     1.0  0.59357  0.19446  0.76187  1.0000
  Fe  Fe121     1.0  0.50119  0.07061  0.90651  1.0000
  S   S263      1.0  0.50038  0.04589  0.89575  1.0000
  S   S264      1.0  0.52159  0.06241  0.92610  1.0000
  Fe  Fe122     1.0  0.47123  0.09593  0.88555  1.0000
  S   S265      1.0  0.46870  0.07323  0.87320  1.0000
  S   S266      1.0  0.45073  0.12316  0.87858  1.0000
  Fe  Fe123     1.0  0.46930  0.05504  0.90166  1.0000
  S   S267      1.0  0.45066  0.03401  0.91555  1.0000
  Fe  Fe124     1.0  0.49989  0.06593  0.86822  1.0000
  S   S268      1.0  0.51876  0.05728  0.84222  1.0000
  S   S269      1.0  0.46972  0.07824  0.91485  1.0000
  S   S270      1.0  0.50280  0.09022  0.87821  1.0000
  H   H2146     1.0  0.57784  0.14040  0.56840  1.0000
  C   C1215     1.0  0.64224  0.98378  0.78663  1.0000
  H   H2147     1.0  0.42948  0.10385  0.92682  1.0000
  C   C1216     1.0  0.53334  0.21241  0.49752  1.0000
  C   C1217     1.0  0.33648  0.05135  0.81478  1.0000
  H   H2148     1.0  0.37927  0.03026  0.79945  1.0000
  H   H2149     1.0  0.45557  0.03229  0.76477  1.0000
  H   H2150     1.0  0.41554  0.06752  0.90969  1.0000
  Fe  Fe125     1.0  0.47566  0.20505  0.58504  1.0000
  S   S271      1.0  0.47970  0.17368  0.59543  1.0000
  C   C1218     1.0  0.41969  0.09546  0.90651  1.0000
  H   H2151     1.0  0.44801  0.08601  0.84087  1.0000
  H   H2152     1.0  0.53307  0.12685  0.97635  1.0000
  Fe  Fe126     1.0  0.39965  0.14210  0.79531  1.0000
  S   S272      1.0  0.37550  0.12857  0.81182  1.0000
  S   S273      1.0  0.42896  0.13161  0.80092  1.0000
  Fe  Fe127     1.0  0.37859  0.16512  0.76453  1.0000
  S   S274      1.0  0.35296  0.15360  0.77865  1.0000
  S   S275      1.0  0.37718  0.18462  0.73642  1.0000
  Fe  Fe128     1.0  0.35788  0.15753  0.80503  1.0000
  H   H2153     1.0  0.62693  0.00677  0.76884  1.0000
  Fe  Fe129     1.0  0.37255  0.12597  0.78403  1.0000
  S   S276      1.0  0.36860  0.09960  0.77874  1.0000
  S   S277      1.0  0.38225  0.17155  0.79061  1.0000
  S   S278      1.0  0.39802  0.13708  0.76786  1.0000
  Fe  Fe130     1.0  0.35027  0.12527  0.63344  1.0000
  S   S279      1.0  0.33662  0.15342  0.64042  1.0000
  H   H2154     1.0  0.33133  0.02132  0.59602  1.0000
  Fe  Fe131     1.0  0.38932  0.13190  0.63157  1.0000
  S   S280      1.0  0.37804  0.15992  0.63914  1.0000
  S   S281      1.0  0.42040  0.12105  0.62789  1.0000
  Fe  Fe132     1.0  0.35599  0.14631  0.66009  1.0000
  S   S282      1.0  0.34443  0.14719  0.69042  1.0000
  Fe  Fe133     1.0  0.36021  0.16370  0.61870  1.0000
  S   S283      1.0  0.35782  0.18938  0.59614  1.0000
  S   S284      1.0  0.36864  0.11764  0.65438  1.0000
  S   S285      1.0  0.37251  0.13629  0.60980  1.0000
  C   C1219     1.0  0.55526  0.09871  0.93825  1.0000
  C   C1220     1.0  0.60225  0.21881  0.68632  1.0000
  C   C1221     1.0  0.32468  0.14730  0.59235  1.0000
  H   H2155     1.0  0.56528  0.11558  0.85830  1.0000
  H   H2156     1.0  0.50214  0.18384  0.53049  1.0000
  C   C1222     1.0  0.50989  0.99273  0.89839  1.0000
  C   C1223     1.0  0.33674  0.09395  0.60565  1.0000
  H   H2157     1.0  0.34456  0.03378  0.74576  1.0000
  H   H2158     1.0  0.32680  0.12860  0.82210  1.0000
  H   H2159     1.0  0.63878  0.16067  0.76705  1.0000
  H   H2160     1.0  0.34854  0.10079  0.60077  1.0000
  C   C1224     1.0  0.34557  0.10059  0.77752  1.0000
  C   C1225     1.0  0.34191  0.08712  0.77020  1.0000
  N   N69       1.0  0.55065  0.17310  0.55238  1.0000
  H   H2161     1.0  0.35330  0.07651  0.76493  1.0000
  H   H2162     1.0  0.60243  0.21748  0.65779  1.0000
  C   C1226     1.0  0.36918  0.17414  0.72275  1.0000
  C   C1227     1.0  0.36907  0.15501  0.72795  1.0000
  C   C1228     1.0  0.36211  0.14672  0.71749  1.0000
  C   C1229     1.0  0.35546  0.15742  0.70158  1.0000
  C   C1230     1.0  0.35573  0.17654  0.69616  1.0000
  C   C1231     1.0  0.36263  0.18490  0.70673  1.0000
  H   H2163     1.0  0.37407  0.14656  0.74026  1.0000
  H   H2164     1.0  0.36153  0.13202  0.72201  1.0000
  H   H2165     1.0  0.35012  0.18497  0.68416  1.0000
  H   H2166     1.0  0.36256  0.19973  0.70273  1.0000
  Fe  Fe134     1.0  0.62416  0.07792  0.97057  1.0000
  C   C1232     1.0  0.50091  0.98503  0.88653  1.0000
  C   C1233     1.0  0.61546  0.18998  0.96722  1.0000
  H   H2167     1.0  0.34750  0.05382  0.80190  1.0000
  H   H2168     1.0  0.35988  0.13375  0.87688  1.0000
  H   H2169     1.0  0.56241  0.03245  0.97518  1.0000
  C   C1234     1.0  0.40030  0.05733  0.82108  1.0000
  C   C1235     1.0  0.46220  0.16017  0.60367  1.0000
  C   C1236     1.0  0.46803  0.14083  0.60964  1.0000
  C   C1237     1.0  0.45503  0.12920  0.61676  1.0000
  C   C1238     1.0  0.43592  0.13666  0.61793  1.0000
  C   C1239     1.0  0.42989  0.15606  0.61178  1.0000
  C   C1240     1.0  0.44304  0.16786  0.60473  1.0000
  H   H2170     1.0  0.48276  0.13475  0.60886  1.0000
  H   H2171     1.0  0.45985  0.11430  0.62142  1.0000
  H   H2172     1.0  0.41518  0.16195  0.61238  1.0000
  H   H2173     1.0  0.43840  0.18277  0.60004  1.0000
  H   H2174     1.0  0.58103  0.16877  0.54571  1.0000
  H   H2175     1.0  0.33021  0.99694  0.60494  1.0000
  H   H2176     1.0  0.32469  0.02143  0.53219  1.0000
  H   H2177     1.0  0.61095  0.17992  0.96186  1.0000
  H   H2178     1.0  0.55490  0.10799  0.88260  1.0000
  H   H2179     1.0  0.32732  0.06623  0.86184  1.0000
  C   C1241     1.0  0.65341  0.20970  0.89586  1.0000
  H   H2180     1.0  0.60727  0.20432  0.96298  1.0000
  C   C1242     1.0  0.33203  0.20453  0.81373  1.0000
  C   C1243     1.0  0.38122  0.06621  0.83160  1.0000
  C   C1244     1.0  0.45273  0.00318  0.77090  1.0000
  H   H2181     1.0  0.33174  0.03591  0.85471  1.0000
  C   C1245     1.0  0.62229  0.00682  0.96381  1.0000
  H   H2182     1.0  0.34382  0.99273  0.53918  1.0000
  H   H2183     1.0  0.34453  0.00841  0.62400  1.0000
  H   H2184     1.0  0.51044  0.18756  0.55876  1.0000
  H   H2185     1.0  0.64077  0.09640  0.90017  1.0000
  H   H2186     1.0  0.32423  0.16902  0.74291  1.0000
  H   H2187     1.0  0.47168  0.99332  0.91829  1.0000
  C   C1246     1.0  0.64099  0.19625  0.93825  1.0000
  C   C1247     1.0  0.56942  0.16919  0.53920  1.0000
  C   C1248     1.0  0.44467  0.12646  0.85681  1.0000
  C   C1249     1.0  0.42677  0.13629  0.85403  1.0000
  C   C1250     1.0  0.42159  0.13804  0.83697  1.0000
  C   C1251     1.0  0.43450  0.13038  0.82250  1.0000
  C   C1252     1.0  0.45248  0.12111  0.82517  1.0000
  C   C1253     1.0  0.45749  0.11890  0.84229  1.0000
  H   H2188     1.0  0.41686  0.14236  0.86514  1.0000
  H   H2189     1.0  0.40777  0.14547  0.83493  1.0000
  H   H2190     1.0  0.46244  0.11520  0.81407  1.0000
  H   H2191     1.0  0.47136  0.11145  0.84421  1.0000
  C   C1254     1.0  0.53446  0.07682  0.93020  1.0000
  C   C1255     1.0  0.53240  0.09594  0.92208  1.0000
  H   H2192     1.0  0.54105  0.12162  0.91983  1.0000
  H   H2193     1.0  0.51641  0.01370  0.92678  1.0000
  C   C1256     1.0  0.55740  0.07958  0.94620  1.0000
  C   C1257     1.0  0.54711  0.06870  0.94213  1.0000
  H   H2194     1.0  0.52270  0.10238  0.91286  1.0000
  H   H2195     1.0  0.61279  0.98653  0.79994  1.0000
  C   C1258     1.0  0.54984  0.21734  0.48585  1.0000
  H   H2196     1.0  0.54883  0.05392  0.94838  1.0000
  H   H2197     1.0  0.33453  0.04351  0.63445  1.0000
  C   C1259     1.0  0.52865  0.98467  0.92239  1.0000
  H   H2198     1.0  0.63738  0.00540  0.93558  1.0000
  C   C1260     1.0  0.63641  0.18924  0.95987  1.0000
  C   C1261     1.0  0.49661  0.01914  0.81980  1.0000
  C   C1262     1.0  0.51530  0.02078  0.81359  1.0000
  C   C1263     1.0  0.52189  0.03301  0.82008  1.0000
  C   C1264     1.0  0.50991  0.04322  0.83314  1.0000
  C   C1265     1.0  0.49112  0.04192  0.83893  1.0000
  C   C1266     1.0  0.48443  0.02999  0.83216  1.0000
  H   H2199     1.0  0.52464  0.01278  0.80362  1.0000
  H   H2200     1.0  0.53629  0.03437  0.81516  1.0000
  H   H2201     1.0  0.48174  0.04990  0.84873  1.0000
  C   C1267     1.0  0.32962  0.07716  0.68455  1.0000
  C   C1268     1.0  0.35068  0.00221  0.57837  1.0000
  C   C1269     1.0  0.43473  0.02876  0.87041  1.0000
  C   C1270     1.0  0.44478  0.03251  0.88162  1.0000
  C   C1271     1.0  0.43960  0.02761  0.90114  1.0000
  H   H2202     1.0  0.56278  0.18227  0.51139  1.0000
  S   S286      1.0  0.61140  0.07915  0.72615  1.0000
  H   H2203     1.0  0.43846  0.03298  0.85533  1.0000
  H   H2204     1.0  0.45632  0.03950  0.87515  1.0000
  C   C1272     1.0  0.32417  0.08989  0.69905  1.0000
  H   H2205     1.0  0.34704  0.20028  0.81229  1.0000
  C   C1273     1.0  0.57856  0.01896  0.76045  1.0000
  C   C1274     1.0  0.59383  0.00451  0.75627  1.0000
  C   C1275     1.0  0.34560  0.22978  0.75085  1.0000
  H   H2206     1.0  0.63311  0.18969  0.93215  1.0000
  C   C1276     1.0  0.55894  0.99589  0.77487  1.0000
  C   C1277     1.0  0.56110  0.01458  0.76965  1.0000
  H   H2207     1.0  0.32430  0.05456  0.52919  1.0000
  H   H2208     1.0  0.40322  0.01244  0.81774  1.0000
  H   H2209     1.0  0.54534  0.99275  0.78162  1.0000
  H   H2210     1.0  0.54921  0.02568  0.77281  1.0000
  H   H2211     1.0  0.52750  0.20222  0.49447  1.0000
  H   H2212     1.0  0.35425  0.22780  0.77668  1.0000
  H   H2213     1.0  0.61975  0.99633  0.85827  1.0000
  C   C1278     1.0  0.33996  0.14705  0.57452  1.0000
  H   H2214     1.0  0.61555  0.14099  0.77251  1.0000
  H   H2215     1.0  0.65210  0.03231  0.93168  1.0000
  C   C1279     1.0  0.62960  0.13692  0.76465  1.0000
  N   N70       1.0  0.60201  0.06893  0.89745  1.0000
  H   H2216     1.0  0.52385  0.99448  0.88943  1.0000
  Fe  Fe135     1.0  0.63994  0.06479  0.71274  1.0000
  H   H2217     1.0  0.40352  0.00685  0.90444  1.0000
  H   H2218     1.0  0.60087  0.15701  0.73591  1.0000
  H   H2219     1.0  0.59326  0.16528  0.71421  1.0000
  H   H2220     1.0  0.48661  0.01208  0.87297  1.0000
  C   C1280     1.0  0.36514  0.06311  0.82440  1.0000
  H   H2221     1.0  0.49947  0.05974  0.96715  1.0000
  H   H2222     1.0  0.62133  0.10766  0.91592  1.0000
  H   H2223     1.0  0.36701  0.06986  0.80927  1.0000
  H   H2224     1.0  0.34103  0.02409  0.65290  1.0000
  H   H2225     1.0  0.53978  0.15894  0.53750  1.0000
  C   C1281     1.0  0.34174  0.03090  0.87985  1.0000
  H   H2226     1.0  0.40192  0.04191  0.82397  1.0000
  S   S287      1.0  0.61625  0.10800  0.95608  1.0000
  H   H2227     1.0  0.32861  0.08060  0.81322  1.0000
  H   H2228     1.0  0.32236  0.04318  0.68564  1.0000
  H   H2229     1.0  0.60712  0.00788  0.74850  1.0000
  H   H2230     1.0  0.43625  0.08280  0.82459  1.0000
  N   N71       1.0  0.58073  0.04608  0.83185  1.0000
  C   C1282     1.0  0.57839  0.06012  0.81386  1.0000
  C   C1283     1.0  0.57513  0.02822  0.83193  1.0000
  C   C1284     1.0  0.56755  0.05441  0.84782  1.0000
  C   C1285     1.0  0.60023  0.04214  0.83526  1.0000
  C   C1286     1.0  0.61642  0.03536  0.81965  1.0000
  C   C1287     1.0  0.58301  0.07944  0.81178  1.0000
  C   C1288     1.0  0.56571  0.04119  0.86753  1.0000
  C   C1289     1.0  0.57880  0.02230  0.81289  1.0000
  C   C1290     1.0  0.57366  0.00336  0.81582  1.0000
  C   C1291     1.0  0.34176  0.06054  0.85473  1.0000
  C   C1292     1.0  0.57913  0.09241  0.79337  1.0000
  C   C1293     1.0  0.54942  0.04998  0.88148  1.0000
  H   H2231     1.0  0.56368  0.06264  0.81218  1.0000
  H   H2232     1.0  0.58723  0.05457  0.80146  1.0000
  H   H2233     1.0  0.58190  0.01619  0.84173  1.0000
  H   H2234     1.0  0.55973  0.02943  0.83740  1.0000
  H   H2235     1.0  0.55336  0.05984  0.84470  1.0000
  H   H2236     1.0  0.57189  0.06671  0.84941  1.0000
  H   H2237     1.0  0.60305  0.05482  0.83793  1.0000
  H   H2238     1.0  0.60155  0.03120  0.84824  1.0000
  H   H2239     1.0  0.61612  0.04533  0.80607  1.0000
  H   H2240     1.0  0.61569  0.02142  0.81827  1.0000
  H   H2241     1.0  0.57429  0.08662  0.82314  1.0000
  H   H2242     1.0  0.59800  0.07785  0.81175  1.0000
  H   H2243     1.0  0.57867  0.03844  0.87287  1.0000
  H   H2244     1.0  0.56296  0.02755  0.86746  1.0000
  H   H2245     1.0  0.57003  0.03259  0.80354  1.0000
  H   H2246     1.0  0.59356  0.02128  0.80535  1.0000
  H   H2247     1.0  0.51184  0.21654  0.52224  1.0000
  H   H2248     1.0  0.36058  0.01191  0.57204  1.0000
  C   C1294     1.0  0.63193  0.98439  0.85882  1.0000
  H   H2249     1.0  0.35699  0.12927  0.85572  1.0000
  C   C1295     1.0  0.60916  0.18912  0.74546  1.0000
  C   C1296     1.0  0.54522  0.00707  0.92811  1.0000
  H   H2250     1.0  0.56408  0.09509  0.79310  1.0000
  H   H2251     1.0  0.58294  0.10602  0.79186  1.0000
  H   H2252     1.0  0.58755  0.08613  0.78124  1.0000
  H   H2253     1.0  0.54833  0.04046  0.89545  1.0000
  H   H2254     1.0  0.55114  0.06361  0.88283  1.0000
  H   H2255     1.0  0.53620  0.05230  0.87678  1.0000
  N   N72       1.0  0.42035  0.16291  0.66912  1.0000
  C   C1297     1.0  0.44025  0.15473  0.66051  1.0000
  C   C1298     1.0  0.40848  0.14875  0.67205  1.0000
  C   C1299     1.0  0.41329  0.17984  0.65498  1.0000
  C   C1300     1.0  0.41861  0.16883  0.68718  1.0000
  C   C1301     1.0  0.43263  0.15720  0.69977  1.0000
  C   C1302     1.0  0.45381  0.16854  0.65333  1.0000
  C   C1303     1.0  0.39296  0.19066  0.66106  1.0000
  C   C1304     1.0  0.41264  0.13030  0.68650  1.0000
  C   C1305     1.0  0.40114  0.11655  0.68629  1.0000
  C   C1306     1.0  0.42640  0.16160  0.71934  1.0000
  C   C1307     1.0  0.47425  0.15819  0.65081  1.0000
  C   C1308     1.0  0.58712  0.02427  0.93207  1.0000
  H   H2256     1.0  0.44054  0.14898  0.64831  1.0000
  H   H2257     1.0  0.44645  0.14245  0.67032  1.0000
  H   H2258     1.0  0.39350  0.15465  0.67711  1.0000
  H   H2259     1.0  0.40955  0.14504  0.65844  1.0000
  H   H2260     1.0  0.41441  0.17576  0.64155  1.0000
  H   H2261     1.0  0.42209  0.19044  0.65154  1.0000
  H   H2262     1.0  0.42040  0.18355  0.68431  1.0000
  H   H2263     1.0  0.40415  0.16900  0.69578  1.0000
  H   H2264     1.0  0.44666  0.16058  0.69355  1.0000
  H   H2265     1.0  0.43428  0.14193  0.70148  1.0000
  C   C1309     1.0  0.34326  0.09092  0.83345  1.0000
  H   H2266     1.0  0.45135  0.17808  0.66302  1.0000
  H   H2267     1.0  0.39125  0.19555  0.67412  1.0000
  H   H2268     1.0  0.38265  0.18193  0.66333  1.0000
  H   H2269     1.0  0.42756  0.12321  0.68356  1.0000
  H   H2270     1.0  0.40862  0.13318  0.70085  1.0000
  H   H2271     1.0  0.38595  0.12289  0.68911  1.0000
  H   H2272     1.0  0.40518  0.11241  0.67249  1.0000
  H   H2273     1.0  0.40373  0.10378  0.69734  1.0000
  H   H2274     1.0  0.43711  0.15397  0.72775  1.0000
  H   H2275     1.0  0.42438  0.17686  0.71854  1.0000
  H   H2276     1.0  0.41304  0.15706  0.72666  1.0000
  H   H2277     1.0  0.51004  0.00389  0.86029  1.0000
  H   H2278     1.0  0.47722  0.14845  0.64119  1.0000
  H   H2279     1.0  0.54296  0.00074  0.94334  1.0000
  H   H2280     1.0  0.41821  0.99234  0.78461  1.0000
  H   H2281     1.0  0.58170  0.18766  0.76368  1.0000
  H   H2282     1.0  0.34692  0.01940  0.71070  1.0000
  H   H2283     1.0  0.64049  0.19818  0.96694  1.0000
  H   H2284     1.0  0.55897  0.99993  0.92092  1.0000
  C   C1310     1.0  0.56796  0.14954  0.57768  1.0000
  S   S288      1.0  0.59531  0.07224  0.97687  1.0000
  H   H2285     1.0  0.64204  0.20202  0.67563  1.0000
  C   C1311     1.0  0.64294  0.02768  0.94481  1.0000
  H   H2286     1.0  0.57503  0.19384  0.55683  1.0000
  H   H2287     1.0  0.32969  0.15248  0.60218  1.0000
  H   H2288     1.0  0.40194  0.06306  0.80575  1.0000
  H   H2289     1.0  0.53241  0.01224  0.90468  1.0000
  C   C1312     1.0  0.62080  0.07890  0.91632  1.0000
  C   C1313     1.0  0.62749  0.16389  0.81898  1.0000
  H   H2290     1.0  0.63044  0.17809  0.81635  1.0000
  H   H2291     1.0  0.56923  0.19782  0.52188  1.0000
  H   H2292     1.0  0.61070  0.04721  0.92068  1.0000
  H   H2293     1.0  0.61499  0.22477  0.68220  1.0000
  C   C1314     1.0  0.64274  0.14805  0.76161  1.0000
  C   C1315     1.0  0.60243  0.19621  0.72673  1.0000
  H   H2294     1.0  0.63169  0.16331  0.72255  1.0000
  S   S289      1.0  0.40624  0.01736  0.86400  1.0000
  H   H2295     1.0  0.64311  0.06011  0.88733  1.0000
  C   C1316     1.0  0.32347  0.22363  0.81108  1.0000
  H   H2296     1.0  0.42594  0.08010  0.93363  1.0000
  Fe  Fe136     1.0  0.58706  0.10253  0.96402  1.0000
  C   C1317     1.0  0.32353  0.08733  0.76965  1.0000
  C   C1318     1.0  0.59325  0.22426  0.66930  1.0000
  N   N73       1.0  0.49092  0.08081  0.77807  1.0000
  C   C1319     1.0  0.49933  0.07153  0.76144  1.0000
  C   C1320     1.0  0.47932  0.09986  0.77172  1.0000
  C   C1321     1.0  0.50680  0.08214  0.78585  1.0000
  C   C1322     1.0  0.47840  0.06950  0.79317  1.0000
  C   C1323     1.0  0.46122  0.06692  0.78733  1.0000
  C   C1324     1.0  0.50756  0.05014  0.76615  1.0000
  C   C1325     1.0  0.50148  0.09347  0.80152  1.0000
  C   C1326     1.0  0.49029  0.11445  0.75807  1.0000
  C   C1327     1.0  0.47700  0.13314  0.75280  1.0000
  C   C1328     1.0  0.45308  0.05052  0.80042  1.0000
  C   C1329     1.0  0.51845  0.04281  0.74852  1.0000
  C   C1330     1.0  0.51896  0.09676  0.80553  1.0000
  H   H2297     1.0  0.51077  0.07828  0.75189  1.0000
  H   H2298     1.0  0.48899  0.07376  0.75263  1.0000
  H   H2299     1.0  0.46884  0.09863  0.76446  1.0000
  H   H2300     1.0  0.47071  0.10595  0.78395  1.0000
  H   H2301     1.0  0.51768  0.08809  0.77442  1.0000
  H   H2302     1.0  0.51418  0.06793  0.79190  1.0000
  H   H2303     1.0  0.48662  0.05560  0.79870  1.0000
  H   H2304     1.0  0.47267  0.07621  0.80552  1.0000
  H   H2305     1.0  0.46475  0.06427  0.77298  1.0000
  H   H2306     1.0  0.45009  0.07985  0.78773  1.0000
  H   H2307     1.0  0.51724  0.04678  0.77580  1.0000
  H   H2308     1.0  0.49620  0.04225  0.77287  1.0000
  H   H2309     1.0  0.49382  0.08576  0.81469  1.0000
  H   H2310     1.0  0.49268  0.10746  0.79757  1.0000
  H   H2311     1.0  0.50061  0.11719  0.76446  1.0000
  H   H2312     1.0  0.49784  0.10950  0.74498  1.0000
  H   H2313     1.0  0.46935  0.13881  0.76552  1.0000
  H   H2314     1.0  0.48508  0.14345  0.74310  1.0000
  H   H2315     1.0  0.46667  0.13138  0.74572  1.0000
  H   H2316     1.0  0.46314  0.03715  0.79888  1.0000
  H   H2317     1.0  0.44986  0.05185  0.81522  1.0000
  H   H2318     1.0  0.44000  0.05011  0.79673  1.0000
  H   H2319     1.0  0.53076  0.04940  0.74185  1.0000
  H   H2320     1.0  0.52363  0.02742  0.75234  1.0000
  H   H2321     1.0  0.50936  0.04567  0.73833  1.0000
  H   H2322     1.0  0.52562  0.10660  0.79350  1.0000
  H   H2323     1.0  0.51503  0.10291  0.81818  1.0000
  H   H2324     1.0  0.52928  0.08339  0.80808  1.0000
  H   H2325     1.0  0.55995  0.18896  0.57978  1.0000
  H   H2326     1.0  0.46997  0.02876  0.83694  1.0000
  H   H2327     1.0  0.59215  0.22552  0.69739  1.0000
  H   H2328     1.0  0.41157  0.06038  0.82589  1.0000
  H   H2329     1.0  0.61368  0.17375  0.74855  1.0000
  S   S290      1.0  0.58319  0.98935  0.88636  1.0000
  H   H2330     1.0  0.48787  0.17366  0.55198  1.0000
  C   C1331     1.0  0.38780  0.20781  0.64594  1.0000
  H   H2331     1.0  0.58890  0.19204  0.72871  1.0000
  H   H2332     1.0  0.64095  0.02924  0.86906  1.0000
  H   H2333     1.0  0.37335  0.21542  0.65083  1.0000
  H   H2334     1.0  0.34072  0.01603  0.88287  1.0000
  C   C1332     1.0  0.41977  0.01965  0.87855  1.0000
  H   H2335     1.0  0.39749  0.21749  0.64289  1.0000
  H   H2336     1.0  0.57258  0.08186  0.90268  1.0000
  H   H2337     1.0  0.35210  0.00986  0.74295  1.0000
  C   C1333     1.0  0.42497  0.01792  0.90932  1.0000
  C   C1334     1.0  0.60557  0.15823  0.72051  1.0000
  C   C1335     1.0  0.43453  0.98692  0.82421  1.0000
  H   H2338     1.0  0.59343  0.19265  0.69641  1.0000
  H   H2339     1.0  0.39836  0.05193  0.68813  1.0000
  C   C1336     1.0  0.40613  0.22020  0.59373  1.0000
  C   C1337     1.0  0.33133  0.06812  0.82463  1.0000
  H   H2340     1.0  0.40606  0.09966  0.93481  1.0000
  H   H2341     1.0  0.33605  0.08988  0.70490  1.0000
  H   H2342     1.0  0.64808  0.15481  0.79575  1.0000
  H   H2343     1.0  0.59341  0.18911  0.49502  1.0000
  C   C1338     1.0  0.38709  0.01610  0.79733  1.0000
  H   H2344     1.0  0.58914  0.10604  0.87708  1.0000
  H   H2345     1.0  0.36395  0.03049  0.71373  1.0000
  H   H2346     1.0  0.49232  0.00194  0.93201  1.0000
  N   N74       1.0  0.40241  0.08495  0.88694  1.0000
  C   C1339     1.0  0.39298  0.06924  0.88832  1.0000
  C   C1340     1.0  0.42030  0.08325  0.87222  1.0000
  Fe  Fe137     1.0  0.60901  0.05059  0.74411  1.0000
  C   C1341     1.0  0.39007  0.10418  0.88283  1.0000
  C   C1342     1.0  0.37595  0.10687  0.87029  1.0000
  C   C1343     1.0  0.37665  0.06642  0.90552  1.0000
  C   C1344     1.0  0.41848  0.08507  0.85191  1.0000
  C   C1345     1.0  0.43751  0.07902  0.83947  1.0000
  C   C1346     1.0  0.36724  0.12761  0.86440  1.0000
  C   C1347     1.0  0.36517  0.05362  0.90338  1.0000
  H   H2347     1.0  0.40336  0.05569  0.88907  1.0000
  H   H2348     1.0  0.38769  0.07090  0.87555  1.0000
  H   H2349     1.0  0.53277  0.19452  0.56698  1.0000
  C   C1348     1.0  0.59173  0.98575  0.76171  1.0000
  H   H2350     1.0  0.50185  0.00713  0.89947  1.0000
  H   H2351     1.0  0.39889  0.11485  0.87625  1.0000
  H   H2352     1.0  0.36442  0.09950  0.87809  1.0000
  H   H2353     1.0  0.38249  0.10138  0.85739  1.0000
  H   H2354     1.0  0.63443  0.03898  0.89930  1.0000
  H   H2355     1.0  0.37817  0.13554  0.85588  1.0000
  H   H2356     1.0  0.36773  0.04793  0.82477  1.0000
  H   H2357     1.0  0.40927  0.07630  0.85110  1.0000
  H   H2358     1.0  0.41297  0.09995  0.84586  1.0000
  H   H2359     1.0  0.44265  0.06370  0.84345  1.0000
  H   H2360     1.0  0.47727  0.01522  0.76594  1.0000
  C   C1349     1.0  0.32889  0.02327  0.55967  1.0000
  H   H2361     1.0  0.54549  0.02204  0.92637  1.0000
  N   N75       1.0  0.33915  0.00317  0.56451  1.0000
  H   H2362     1.0  0.60065  0.13034  0.72415  1.0000
  S   S291      1.0  0.62206  0.98948  0.91068  1.0000
  C   C1350     1.0  0.63134  0.09425  0.91417  1.0000
  H   H2363     1.0  0.33593  0.14154  0.56428  1.0000
  H   H2364     1.0  0.37864  0.00571  0.80618  1.0000
  S   S292      1.0  0.49911  0.21735  0.58639  1.0000
  C   C1351     1.0  0.63449  0.12072  0.75729  1.0000
  H   H2365     1.0  0.64001  0.09014  0.92489  1.0000
  C   C1352     1.0  0.51564  0.17388  0.55446  1.0000
  H   H2366     1.0  0.59551  0.16461  0.50581  1.0000
  H   H2367     1.0  0.35102  0.06358  0.86219  1.0000
  H   H2368     1.0  0.43051  0.00160  0.82633  1.0000
  C   C1353     1.0  0.63537  0.03342  0.82424  1.0000
  S   S293      1.0  0.33134  0.16708  0.82508  1.0000
  H   H2369     1.0  0.36862  0.22019  0.60152  1.0000
  H   H2370     1.0  0.36142  0.99074  0.61294  1.0000
  H   H2371     1.0  0.32292  0.13278  0.59881  1.0000
  H   H2372     1.0  0.49112  0.99352  0.86051  1.0000
  H   H2373     1.0  0.37435  0.04004  0.90074  1.0000
  H   H2374     1.0  0.34257  0.16139  0.56810  1.0000
  H   H2375     1.0  0.35445  0.05079  0.91642  1.0000
  H   H2376     1.0  0.54399  0.20330  0.54405  1.0000
  H   H2377     1.0  0.61714  0.98940  0.82846  1.0000
  H   H2378     1.0  0.57379  0.04530  0.91207  1.0000
  C   C1354     1.0  0.33966  0.00681  0.59760  1.0000
  H   H2379     1.0  0.54531  0.14589  0.56835  1.0000
  S   S294      1.0  0.64726  0.05771  0.95606  1.0000
  H   H2380     1.0  0.54162  0.22182  0.57391  1.0000
  C   C1355     1.0  0.64748  0.04022  0.87041  1.0000
  H   H2381     1.0  0.64091  0.19125  0.71821  1.0000
  H   H2382     1.0  0.61010  0.05046  0.87781  1.0000
  C   C1356     1.0  0.33428  0.19925  0.59683  1.0000
  C   C1357     1.0  0.52955  0.00551  0.91979  1.0000
  C   C1358     1.0  0.40605  0.01191  0.80273  1.0000
  H   H2383     1.0  0.52152  0.07266  0.97600  1.0000
  C   C1359     1.0  0.58390  0.07753  0.89082  1.0000
  C   C1360     1.0  0.33689  0.99439  0.81393  1.0000
  C   C1361     1.0  0.65113  0.22905  0.88286  1.0000
  H   H2384     1.0  0.42793  0.09427  0.87125  1.0000
  C   C1362     1.0  0.57209  0.18321  0.52003  1.0000
  C   C1363     1.0  0.56406  0.13742  0.59739  1.0000
  S   S295      1.0  0.32728  0.99111  0.87028  1.0000
  N   N76       1.0  0.34167  0.05783  0.68935  1.0000
  H   H2385     1.0  0.62949  0.21308  0.70683  1.0000
  Fe  Fe138     1.0  0.39277  0.99231  0.87237  1.0000
  H   H2386     1.0  0.61624  0.09210  0.88816  1.0000
  H   H2387     1.0  0.60131  0.01745  0.93451  1.0000
  H   H2388     1.0  0.32838  0.02180  0.74225  1.0000
  H   H2389     1.0  0.61878  0.07124  0.86924  1.0000
  H   H2390     1.0  0.59349  0.09064  0.86119  1.0000
  H   H2391     1.0  0.53528  0.18369  0.53005  1.0000
  H   H2392     1.0  0.57740  0.13103  0.60217  1.0000
  H   H2393     1.0  0.60810  0.21415  0.50689  1.0000
  H   H2394     1.0  0.40285  0.20604  0.59717  1.0000
  H   H2395     1.0  0.57949  0.22014  0.67313  1.0000
  H   H2396     1.0  0.35214  0.09319  0.84187  1.0000
  H   H2397     1.0  0.57931  0.06705  0.88620  1.0000
  H   H2398     1.0  0.60224  0.18013  0.51626  1.0000
  C   C1364     1.0  0.54626  0.19234  0.55673  1.0000
  H   H2399     1.0  0.45370  0.00009  0.84389  1.0000
  C   C1365     1.0  0.64486  0.15026  0.81122  1.0000
  C   C1366     1.0  0.56469  0.10325  0.87013  1.0000
  C   C1367     1.0  0.32470  0.09575  0.62293  1.0000
  H   H2400     1.0  0.50640  0.15865  0.53900  1.0000
  H   H2401     1.0  0.62283  0.15893  0.83431  1.0000
  H   H2402     1.0  0.59901  0.21175  0.72460  1.0000
  H   H2403     1.0  0.58039  0.01335  0.93101  1.0000
  H   H2404     1.0  0.63633  0.02416  0.83816  1.0000
  C   C1368     1.0  0.62181  0.16903  0.71284  1.0000
  C   C1369     1.0  0.33268  0.03857  0.64989  1.0000
  H   H2405     1.0  0.61558  0.19100  0.68111  1.0000
  H   H2406     1.0  0.35391  0.05188  0.65091  1.0000
  S   S296      1.0  0.47545  0.21987  0.55504  1.0000
  H   H2407     1.0  0.33080  0.20739  0.76209  1.0000
  H   H2408     1.0  0.33063  0.06589  0.65430  1.0000
  H   H2409     1.0  0.38028  0.05984  0.84671  1.0000
  H   H2410     1.0  0.35437  0.03144  0.88424  1.0000
  H   H2411     1.0  0.55736  0.12598  0.59746  1.0000
  C   C1370     1.0  0.42026  0.09465  0.92674  1.0000
  H   H2412     1.0  0.32725  0.11584  0.67847  1.0000
  H   H2413     1.0  0.33895  0.03285  0.55518  1.0000
  C   C1371     1.0  0.54280  0.10681  0.92608  1.0000
  C   C1372     1.0  0.60690  0.19724  0.69320  1.0000
  H   H2414     1.0  0.33312  0.14468  0.75179  1.0000
  C   C1373     1.0  0.63339  0.19791  0.70654  1.0000
  H   H2415     1.0  0.55915  0.09296  0.86624  1.0000
  H   H2416     1.0  0.41423  0.11021  0.90010  1.0000
  H   H2417     1.0  0.46134  0.99015  0.76645  1.0000
  H   H2418     1.0  0.38829  0.20335  0.63294  1.0000
  H   H2419     1.0  0.43954  0.00721  0.76579  1.0000
  H   H2420     1.0  0.63926  0.20664  0.90197  1.0000
  C   C1374     1.0  0.41511  0.01386  0.89805  1.0000
  H   H2421     1.0  0.36485  0.06515  0.66704  1.0000
  C   C1375     1.0  0.36212  0.05841  0.68219  1.0000
  C   C1376     1.0  0.33703  0.04514  0.67956  1.0000
  H   H2422     1.0  0.35687  0.03177  0.85159  1.0000
  H   H2423     1.0  0.59639  0.09506  0.90677  1.0000
  S   S297      1.0  0.61034  0.98894  0.96666  1.0000
  H   H2424     1.0  0.35315  0.13781  0.57800  1.0000
  C   C1377     1.0  0.63885  0.03730  0.95938  1.0000
  H   H2425     1.0  0.61172  0.07705  0.93062  1.0000
  C   C1378     1.0  0.61170  0.13845  0.71665  1.0000
  N   N77       1.0  0.61614  0.19011  0.70986  1.0000
  H   H2426     1.0  0.62990  0.16487  0.69945  1.0000
  C   C1379     1.0  0.33709  0.04979  0.71015  1.0000
  H   H2427     1.0  0.55732  0.22647  0.55138  1.0000
  H   H2428     1.0  0.64502  0.99407  0.79305  1.0000
  H   H2429     1.0  0.64667  0.02717  0.81355  1.0000
  C   C1380     1.0  0.52445  0.22053  0.51316  1.0000
  C   C1381     1.0  0.34309  0.02360  0.73829  1.0000
  H   H2430     1.0  0.57888  0.03057  0.94419  1.0000
  C   C1382     1.0  0.50227  0.17241  0.54320  1.0000
  H   H2431     1.0  0.36722  0.07999  0.90765  1.0000
  H   H2432     1.0  0.39676  0.07490  0.69184  1.0000
  C   C1383     1.0  0.59208  0.17892  0.50868  1.0000
  C   C1384     1.0  0.33337  0.08336  0.59458  1.0000
  S   S298      1.0  0.56811  0.11284  0.94290  1.0000
  H   H2433     1.0  0.46684  0.02008  0.74592  1.0000
  H   H2434     1.0  0.55862  0.99697  0.86102  1.0000
  C   C1385     1.0  0.63547  0.04993  0.88626  1.0000
  S   S299      1.0  0.62096  0.05493  0.76623  1.0000
  Fe  Fe139     1.0  0.62570  0.08223  0.74722  1.0000
  H   H2435     1.0  0.34258  0.08214  0.58113  1.0000
  H   H2436     1.0  0.38231  0.05962  0.91837  1.0000
  H   H2437     1.0  0.64364  0.09086  0.86083  1.0000
  C   C1386     1.0  0.58424  0.09475  0.87415  1.0000
  H   H2438     1.0  0.43429  0.09108  0.89904  1.0000
  C   C1387     1.0  0.40770  0.08217  0.90554  1.0000
  H   H2439     1.0  0.61597  0.16489  0.81204  1.0000
  C   C1388     1.0  0.59790  0.05449  0.91522  1.0000
  H   H2440     1.0  0.58868  0.06158  0.92652  1.0000
  H   H2441     1.0  0.35793  0.06045  0.89163  1.0000
  H   H2442     1.0  0.65113  0.99912  0.75839  1.0000
  C   C1389     1.0  0.63458  0.01248  0.94699  1.0000
  H   H2443     1.0  0.56596  0.22058  0.57263  1.0000
  C   C1390     1.0  0.39135  0.06691  0.68482  1.0000
  C   C1391     1.0  0.56058  0.19695  0.56513  1.0000
  H   H2444     1.0  0.42097  0.01396  0.92442  1.0000
  H   H2445     1.0  0.57201  0.15495  0.53624  1.0000
  H   H2446     1.0  0.59624  0.03205  0.90236  1.0000
  C   C1392     1.0  0.60860  0.08441  0.90142  1.0000
  C   C1393     1.0  0.58834  0.03918  0.91401  1.0000
  H   H2447     1.0  0.36732  0.06447  0.70720  1.0000
  H   H2448     1.0  0.61410  0.13894  0.70142  1.0000
  N   N78       1.0  0.43682  0.98670  0.80380  1.0000
  H   H2449     1.0  0.51468  0.16257  0.56724  1.0000
  C   C1394     1.0  0.64805  0.19525  0.68821  1.0000
  H   H2450     1.0  0.32417  0.20877  0.73346  1.0000
  C   C1395     1.0  0.32704  0.22294  0.76003  1.0000
  H   H2451     1.0  0.32903  0.03847  0.88821  1.0000
  S   S300      1.0  0.64216  0.19523  0.77546  1.0000
  H   H2452     1.0  0.55474  0.14606  0.60741  1.0000
  H   H2453     1.0  0.57510  0.16032  0.57820  1.0000
  H   H2454     1.0  0.36417  0.08450  0.68812  1.0000
  H   H2455     1.0  0.33341  0.12445  0.79034  1.0000
  H   H2456     1.0  0.62475  0.13100  0.72161  1.0000
  C   C1396     1.0  0.37017  0.06931  0.69175  1.0000
  H   H2457     1.0  0.58851  0.20990  0.75955  1.0000
  H   H2458     1.0  0.45891  0.00190  0.94938  1.0000
  H   H2459     1.0  0.38155  0.10844  0.89607  1.0000
  H   H2460     1.0  0.59902  0.18971  0.77496  1.0000
  C   C1397     1.0  0.46075  0.98730  0.94777  1.0000
  H   H2461     1.0  0.32399  0.03967  0.79906  1.0000
  H   H2462     1.0  0.39493  0.07239  0.66944  1.0000
  S   S301      1.0  0.63659  0.03584  0.72906  1.0000
  H   H2463     1.0  0.39494  0.08409  0.91681  1.0000
  H   H2464     1.0  0.33870  0.05913  0.71843  1.0000
  H   H2465     1.0  0.34822  0.09813  0.81872  1.0000
  C   C1398     1.0  0.34886  0.03017  0.71707  1.0000
  C   C1399     1.0  0.55605  0.21772  0.56578  1.0000
  C   C1400     1.0  0.54968  0.15815  0.57024  1.0000
  H   H2466     1.0  0.63112  0.06564  0.91555  1.0000
  H   H2467     1.0  0.64944  0.05051  0.85687  1.0000
  H   H2468     1.0  0.47753  0.15016  0.66452  1.0000
  H   H2469     1.0  0.34863  0.99064  0.80288  1.0000
  H   H2470     1.0  0.62103  0.19536  0.74496  1.0000
  C   C1401     1.0  0.41757  0.99243  0.79937  1.0000
  C   C1402     1.0  0.53596  0.17226  0.54265  1.0000
  H   H2471     1.0  0.48348  0.16847  0.64459  1.0000
  H   H2472     1.0  0.37078  0.04396  0.68298  1.0000
  H   H2473     1.0  0.34613  0.03096  0.68176  1.0000
  H   H2474     1.0  0.41351  0.02318  0.79422  1.0000
  H   H2475     1.0  0.53857  0.16352  0.58172  1.0000
  H   H2476     1.0  0.62719  0.22563  0.62458  1.0000
  S   S302      1.0  0.32767  0.10905  0.63748  1.0000
  H   H2477     1.0  0.41946  0.22003  0.58312  1.0000
  H   H2478     1.0  0.45171  0.17726  0.63941  1.0000
  S   S303      1.0  0.48822  0.00375  0.81211  1.0000
  H   H2479     1.0  0.36223  0.01532  0.60394  1.0000
  H   H2480     1.0  0.64577  0.12232  0.84340  1.0000
  C   C1403     1.0  0.35287  0.00518  0.61033  1.0000
  H   H2481     1.0  0.44346  0.01425  0.79628  1.0000
  H   H2482     1.0  0.32207  0.04888  0.71461  1.0000
  H   H2483     1.0  0.63771  0.04737  0.82408  1.0000
  S   S304      1.0  0.36998  0.98479  0.89711  1.0000
  C   C1404     1.0  0.32802  0.20594  0.58007  1.0000
  C   C1405     1.0  0.44906  0.00033  0.79243  1.0000
  S   S305      1.0  0.65107  0.07287  0.68155  1.0000
  H   H2484     1.0  0.33645  0.08504  0.67095  1.0000
  C   C1406     1.0  0.35952  0.22204  0.76375  1.0000
  H   H2485     1.0  0.57754  0.99876  0.80230  1.0000
  H   H2486     1.0  0.65042  0.15709  0.94345  1.0000
  H   H2487     1.0  0.64122  0.13638  0.81442  1.0000
  C   C1407     1.0  0.32442  0.99553  0.84687  1.0000
  C   C1408     1.0  0.33911  0.05169  0.65799  1.0000
  C   C1409     1.0  0.33077  0.11421  0.78439  1.0000
  C   C1410     1.0  0.55736  0.23050  0.48979  1.0000
  Fe  Fe140     1.0  0.64869  0.04275  0.74987  1.0000
  H   H2488     1.0  0.58116  0.99264  0.82587  1.0000
  C   C1411     1.0  0.45230  0.98525  0.84910  1.0000
  Fe  Fe141     1.0  0.64217  0.22237  0.75418  1.0000
  H   H2489     1.0  0.36189  0.20652  0.76768  1.0000
  S   S306      1.0  0.37872  0.98987  0.85096  1.0000
  S   S307      1.0  0.65439  0.07029  0.73231  1.0000
  H   H2490     1.0  0.55839  0.00433  0.82129  1.0000
  H   H2491     1.0  0.38894  0.01580  0.78234  1.0000
  H   H2492     1.0  0.64386  0.17473  0.96435  1.0000
  S   S308      1.0  0.45314  0.22670  0.59787  1.0000
  H   H2493     1.0  0.46308  0.99576  0.79590  1.0000
  C   C1412     1.0  0.46377  0.01866  0.76135  1.0000
  H   H2494     1.0  0.64926  0.12704  0.69073  1.0000
  H   H2495     1.0  0.63471  0.98507  0.76033  1.0000
  H   H2496     1.0  0.38263  0.98944  0.51826  1.0000
  C   C1413     1.0  0.60763  0.22938  0.50164  1.0000
  H   H2497     1.0  0.34574  0.22304  0.63041  1.0000
  H   H2498     1.0  0.40817  0.22343  0.60643  1.0000
  C   C1414     1.0  0.49492  0.98670  0.93237  1.0000
  H   H2499     1.0  0.32671  0.19560  0.62692  1.0000
  H   H2500     1.0  0.34174  0.03787  0.82377  1.0000
  H   H2501     1.0  0.62217  0.23155  0.49581  1.0000
  C   C1415     1.0  0.62707  0.03119  0.97635  1.0000
  H   H2502     1.0  0.63433  0.21144  0.93572  1.0000
  H   H2503     1.0  0.38017  0.98967  0.55178  1.0000
  C   C1416     1.0  0.32313  0.10168  0.84057  1.0000
  H   H2504     1.0  0.46218  0.22049  0.51966  1.0000
  H   H2505     1.0  0.35611  0.01053  0.53659  1.0000
  H   H2506     1.0  0.37313  0.22602  0.75644  1.0000
  C   C1417     1.0  0.63842  0.99428  0.76739  1.0000
  H   H2507     1.0  0.35217  0.22485  0.73756  1.0000
  H   H2508     1.0  0.65225  0.10263  0.70156  1.0000
  H   H2509     1.0  0.65352  0.18015  0.68813  1.0000
  C   C1418     1.0  0.32242  0.12262  0.83726  1.0000
  H   H2510     1.0  0.33170  0.12524  0.84497  1.0000
  C   C1419     1.0  0.32474  0.99112  0.57259  1.0000
  H   H2511     1.0  0.64579  0.22864  0.87070  1.0000
  H   H2512     1.0  0.64504  0.98945  0.85157  1.0000
  H   H2513     1.0  0.32926  0.23081  0.72171  1.0000
  H   H2514     1.0  0.35329  0.23138  0.57606  1.0000
  C   C1420     1.0  0.35170  0.99792  0.54658  1.0000
  C   C1421     1.0  0.65263  0.11556  0.74714  1.0000
  H   H2515     1.0  0.65373  0.06199  0.77091  1.0000
  H   H2516     1.0  0.39063  0.23214  0.57220  1.0000
  H   H2517     1.0  0.44731  0.98562  0.94583  1.0000
  H   H2518     1.0  0.35956  0.98809  0.58165  1.0000
  H   H2519     1.0  0.63136  0.23322  0.64354  1.0000
  H   H2520     1.0  0.43927  0.98465  0.85998  1.0000
  C   C1422     1.0  0.37025  0.98334  0.54818  1.0000
  C   C1423     1.0  0.61890  0.01595  0.97857  1.0000
  H   H2521     1.0  0.32216  0.22571  0.77444  1.0000
  H   H2522     1.0  0.44947  0.23107  0.50103  1.0000
  H   H2523     1.0  0.43808  0.23236  0.52496  1.0000
  C   C1424     1.0  0.45151  0.23257  0.51451  1.0000
  C   C1425     1.0  0.47622  0.98342  0.93073  1.0000
  H   H2524     1.0  0.46876  0.44239  0.27306  1.0000
  H   H2525     1.0  0.58610  0.26489  0.24254  1.0000
  H   H2526     1.0  0.65294  0.26365  0.23248  1.0000
  S   S309      1.0  0.57806  0.25193  0.43873  1.0000
  H   H2527     1.0  0.49073  0.44382  0.20904  1.0000
  C   C1426     1.0  0.62231  0.41774  0.30289  1.0000
  H   H2528     1.0  0.61757  0.29386  0.47593  1.0000
  H   H2529     1.0  0.50553  0.28170  0.47336  1.0000
  H   H2530     1.0  0.60651  0.28032  0.22268  1.0000
  C   C1427     1.0  0.64687  0.30315  0.41933  1.0000
  C   C1428     1.0  0.52904  0.44589  0.22223  1.0000
  C   C1429     1.0  0.62119  0.26616  0.19180  1.0000
  S   S310      1.0  0.60825  0.27011  0.45829  1.0000
  H   H2531     1.0  0.59768  0.46955  0.31403  1.0000
  H   H2532     1.0  0.44658  0.29651  0.44695  1.0000
  H   H2533     1.0  0.64595  0.24734  0.44970  1.0000
  S   S311      1.0  0.53651  0.46733  0.28134  1.0000
  H   H2534     1.0  0.61104  0.31415  0.43865  1.0000
  Fe  Fe142     1.0  0.63339  0.34055  0.27286  1.0000
  S   S312      1.0  0.60726  0.33668  0.29485  1.0000
  H   H2535     1.0  0.32637  0.45145  0.45808  1.0000
  Fe  Fe143     1.0  0.63362  0.37720  0.28264  1.0000
  S   S313      1.0  0.60815  0.37573  0.30557  1.0000
  Fe  Fe144     1.0  0.62058  0.34522  0.31350  1.0000
  S   S314      1.0  0.62250  0.33195  0.34359  1.0000
  Fe  Fe145     1.0  0.59689  0.36771  0.28505  1.0000
  S   S315      1.0  0.56640  0.38008  0.28427  1.0000
  H   H2536     1.0  0.39223  0.47687  0.28628  1.0000
  S   S316      1.0  0.62188  0.37093  0.26117  1.0000
  C   C1430     1.0  0.63024  0.39852  0.44104  1.0000
  H   H2537     1.0  0.61350  0.45967  0.28428  1.0000
  H   H2538     1.0  0.52738  0.43380  0.21751  1.0000
  S   S317      1.0  0.58115  0.26500  0.38420  1.0000
  C   C1431     1.0  0.64136  0.36565  0.43490  1.0000
  C   C1432     1.0  0.58969  0.45278  0.43295  1.0000
  C   C1433     1.0  0.60653  0.24203  0.33780  1.0000
  H   H2539     1.0  0.65501  0.36377  0.34349  1.0000
  H   H2540     1.0  0.50974  0.23961  0.47523  1.0000
  H   H2541     1.0  0.59147  0.29521  0.24702  1.0000
  H   H2542     1.0  0.49814  0.47319  0.17252  1.0000
  C   C1434     1.0  0.65484  0.31199  0.23764  1.0000
  H   H2543     1.0  0.56536  0.41869  0.24425  1.0000
  S   S318      1.0  0.64538  0.47518  0.36021  1.0000
  C   C1435     1.0  0.63931  0.37802  0.44865  1.0000
  H   H2544     1.0  0.59382  0.24274  0.33273  1.0000
  C   C1436     1.0  0.50808  0.25440  0.46739  1.0000
  H   H2545     1.0  0.62668  0.24841  0.35859  1.0000
  S   S319      1.0  0.64722  0.34737  0.29232  1.0000
  H   H2546     1.0  0.61614  0.39778  0.44006  1.0000
  C   C1437     1.0  0.61983  0.32449  0.43661  1.0000
  H   H2547     1.0  0.64637  0.24180  0.23735  1.0000
  H   H2548     1.0  0.60153  0.43049  0.32394  1.0000
  C   C1438     1.0  0.56549  0.46362  0.33295  1.0000
  S   S320      1.0  0.36534  0.45566  0.44669  1.0000
  H   H2549     1.0  0.62741  0.36516  0.43323  1.0000
  H   H2550     1.0  0.64961  0.29699  0.43367  1.0000
  H   H2551     1.0  0.61529  0.24700  0.21796  1.0000
  H   H2552     1.0  0.54857  0.45831  0.31602  1.0000
  S   S321      1.0  0.64960  0.39993  0.27741  1.0000
  H   H2553     1.0  0.63933  0.24935  0.20985  1.0000
  H   H2554     1.0  0.62347  0.27424  0.29827  1.0000
  H   H2555     1.0  0.60664  0.47348  0.26296  1.0000
  C   C1439     1.0  0.62086  0.27214  0.22333  1.0000
  C   C1440     1.0  0.61262  0.26895  0.31015  1.0000
  C   C1441     1.0  0.61064  0.31356  0.35462  1.0000
  C   C1442     1.0  0.59997  0.30793  0.34546  1.0000
  C   C1443     1.0  0.59067  0.29317  0.35470  1.0000
  C   C1444     1.0  0.59208  0.28399  0.37308  1.0000
  C   C1445     1.0  0.60238  0.28993  0.38237  1.0000
  C   C1446     1.0  0.61171  0.30460  0.37312  1.0000
  H   H2556     1.0  0.59880  0.31493  0.33132  1.0000
  H   H2557     1.0  0.58243  0.28884  0.34758  1.0000
  H   H2558     1.0  0.60285  0.28350  0.39680  1.0000
  H   H2559     1.0  0.61955  0.30913  0.38043  1.0000
  H   H2560     1.0  0.62424  0.25513  0.18357  1.0000
  H   H2561     1.0  0.58482  0.26866  0.26555  1.0000
  H   H2562     1.0  0.64336  0.23754  0.27106  1.0000
  H   H2563     1.0  0.61010  0.30644  0.23277  1.0000
  C   C1447     1.0  0.60465  0.29880  0.24710  1.0000
  H   H2564     1.0  0.49035  0.47841  0.21130  1.0000
  H   H2565     1.0  0.65505  0.24375  0.37041  1.0000
  C   C1448     1.0  0.54443  0.44284  0.28359  1.0000
  C   C1449     1.0  0.53196  0.43084  0.28794  1.0000
  C   C1450     1.0  0.53883  0.41154  0.28842  1.0000
  C   C1451     1.0  0.55816  0.40408  0.28494  1.0000
  C   C1452     1.0  0.57059  0.41602  0.28122  1.0000
  C   C1453     1.0  0.56374  0.43534  0.28031  1.0000
  H   H2566     1.0  0.51705  0.43644  0.29054  1.0000
  H   H2567     1.0  0.52914  0.40237  0.29135  1.0000
  H   H2568     1.0  0.58552  0.41045  0.27840  1.0000
  H   H2569     1.0  0.57350  0.44452  0.27677  1.0000
  H   H2570     1.0  0.63034  0.37220  0.46198  1.0000
  S   S322      1.0  0.62105  0.44513  0.34257  1.0000
  C   C1454     1.0  0.58715  0.48157  0.30836  1.0000
  H   H2571     1.0  0.54111  0.47706  0.22146  1.0000
  C   C1455     1.0  0.62096  0.24952  0.32044  1.0000
  C   C1456     1.0  0.64747  0.31953  0.20682  1.0000
  H   H2572     1.0  0.60670  0.40072  0.47219  1.0000
  C   C1457     1.0  0.35368  0.43949  0.46423  1.0000
  C   C1458     1.0  0.46413  0.44533  0.25965  1.0000
  Fe  Fe146     1.0  0.64340  0.44759  0.35601  1.0000
  H   H2573     1.0  0.51352  0.47481  0.19817  1.0000
  S   S323      1.0  0.63654  0.47087  0.41562  1.0000
  H   H2574     1.0  0.55374  0.46492  0.34538  1.0000
  H   H2575     1.0  0.57795  0.42593  0.39677  1.0000
  C   C1459     1.0  0.64846  0.41475  0.45150  1.0000
  C   C1460     1.0  0.39848  0.48156  0.36344  1.0000
  C   C1461     1.0  0.60702  0.47392  0.27741  1.0000
  H   H2576     1.0  0.61071  0.42039  0.47776  1.0000
  H   H2577     1.0  0.51296  0.44468  0.19321  1.0000
  H   H2578     1.0  0.61078  0.33872  0.43531  1.0000
  H   H2579     1.0  0.63962  0.32869  0.19667  1.0000
  H   H2580     1.0  0.61535  0.23860  0.24814  1.0000
  C   C1462     1.0  0.51192  0.47443  0.23481  1.0000
  H   H2581     1.0  0.63024  0.28214  0.21573  1.0000
  H   H2582     1.0  0.57322  0.44741  0.31089  1.0000
  H   H2583     1.0  0.55324  0.42469  0.32662  1.0000
  H   H2584     1.0  0.42277  0.45984  0.36809  1.0000
  H   H2585     1.0  0.54462  0.43569  0.34651  1.0000
  H   H2586     1.0  0.64681  0.44456  0.44986  1.0000
  H   H2587     1.0  0.45342  0.31240  0.45662  1.0000
  C   C1463     1.0  0.61614  0.42787  0.31726  1.0000
  H   H2588     1.0  0.59401  0.30560  0.27484  1.0000
  H   H2589     1.0  0.62569  0.24004  0.31038  1.0000
  C   C1464     1.0  0.63536  0.32347  0.41902  1.0000
  H   H2590     1.0  0.60640  0.27363  0.19238  1.0000
  H   H2591     1.0  0.49743  0.25678  0.45905  1.0000
  S   S324      1.0  0.48188  0.47226  0.28271  1.0000
  C   C1465     1.0  0.59870  0.43262  0.44092  1.0000
  Fe  Fe147     1.0  0.60692  0.24901  0.44291  1.0000
  C   C1466     1.0  0.62462  0.25712  0.21150  1.0000
  C   C1467     1.0  0.65019  0.24883  0.26148  1.0000
  H   H2592     1.0  0.62719  0.43556  0.42821  1.0000
  C   C1468     1.0  0.65397  0.42076  0.29989  1.0000
  H   H2593     1.0  0.62866  0.32836  0.40673  1.0000
  C   C1469     1.0  0.62894  0.43407  0.32330  1.0000
  H   H2594     1.0  0.61233  0.41317  0.29820  1.0000
  C   C1470     1.0  0.64133  0.41378  0.29447  1.0000
  H   H2595     1.0  0.63724  0.29527  0.41750  1.0000
  C   C1471     1.0  0.49954  0.45337  0.19920  1.0000
  C   C1472     1.0  0.64955  0.43100  0.45991  1.0000
  C   C1473     1.0  0.62976  0.27051  0.46243  1.0000
  C   C1474     1.0  0.52667  0.25658  0.45379  1.0000
  C   C1475     1.0  0.57962  0.24227  0.26536  1.0000
  C   C1476     1.0  0.63022  0.28414  0.47153  1.0000
  C   C1477     1.0  0.55677  0.43295  0.33484  1.0000
  Fe  Fe148     1.0  0.64873  0.46009  0.38911  1.0000
  C   C1478     1.0  0.64628  0.25806  0.45657  1.0000
  C   C1479     1.0  0.59999  0.31234  0.26031  1.0000
  S   S325      1.0  0.33981  0.48167  0.40242  1.0000
  Fe  Fe149     1.0  0.59216  0.24803  0.40972  1.0000
  C   C1480     1.0  0.53941  0.43733  0.23862  1.0000
  H   H2596     1.0  0.64974  0.37106  0.42098  1.0000
  H   H2597     1.0  0.56917  0.42467  0.34058  1.0000
  H   H2598     1.0  0.64989  0.30185  0.38433  1.0000
  C   C1481     1.0  0.61962  0.28122  0.25295  1.0000
  H   H2599     1.0  0.50089  0.44402  0.25499  1.0000
  H   H2600     1.0  0.63498  0.33640  0.22787  1.0000
  C   C1482     1.0  0.49704  0.44769  0.24106  1.0000
  H   H2601     1.0  0.53101  0.24580  0.44508  1.0000
  H   H2602     1.0  0.58986  0.42786  0.45477  1.0000
  C   C1483     1.0  0.46509  0.28277  0.46629  1.0000
  C   C1484     1.0  0.50324  0.46736  0.20886  1.0000
  H   H2603     1.0  0.56737  0.43266  0.22083  1.0000
  H   H2604     1.0  0.51485  0.46894  0.24915  1.0000
  H   H2605     1.0  0.56429  0.24778  0.26717  1.0000
  H   H2606     1.0  0.46509  0.43185  0.25584  1.0000
  C   C1485     1.0  0.47600  0.45743  0.24405  1.0000
  Fe  Fe150     1.0  0.46612  0.47854  0.31070  1.0000
  H   H2607     1.0  0.61582  0.27636  0.26841  1.0000
  C   C1486     1.0  0.44940  0.29860  0.45984  1.0000
  N   N79       1.0  0.51032  0.45883  0.22672  1.0000
  C   C1487     1.0  0.48962  0.46376  0.18312  1.0000
  S   S326      1.0  0.44799  0.46037  0.33210  1.0000
  H   H2608     1.0  0.47053  0.45994  0.23121  1.0000
  H   H2609     1.0  0.58284  0.23525  0.27935  1.0000
  H   H2610     1.0  0.65335  0.37690  0.45102  1.0000
  H   H2611     1.0  0.39160  0.47962  0.37810  1.0000
  H   H2612     1.0  0.49837  0.43395  0.23754  1.0000
  C   C1488     1.0  0.64705  0.28563  0.47464  1.0000
  H   H2613     1.0  0.53854  0.45308  0.21019  1.0000
  S   S327      1.0  0.62066  0.24779  0.41304  1.0000
  N   N80       1.0  0.59836  0.38090  0.36906  1.0000
  C   C1489     1.0  0.61934  0.37433  0.36511  1.0000
  C   C1490     1.0  0.59012  0.36864  0.38697  1.0000
  C   C1491     1.0  0.59112  0.37978  0.35273  1.0000
  C   C1492     1.0  0.59276  0.40097  0.37141  1.0000
  C   C1493     1.0  0.60180  0.40583  0.38520  1.0000
  C   C1494     1.0  0.63033  0.38606  0.34774  1.0000
  C   C1495     1.0  0.56961  0.38209  0.35587  1.0000
  C   C1496     1.0  0.59296  0.34768  0.38648  1.0000
  C   C1497     1.0  0.58211  0.33715  0.40445  1.0000
  C   C1498     1.0  0.59261  0.42547  0.38884  1.0000
  C   C1499     1.0  0.64351  0.25488  0.24263  1.0000
  C   C1500     1.0  0.56409  0.38129  0.33812  1.0000
  H   H2614     1.0  0.62325  0.35983  0.36264  1.0000
  H   H2615     1.0  0.62499  0.37352  0.37751  1.0000
  H   H2616     1.0  0.59636  0.36873  0.39863  1.0000
  H   H2617     1.0  0.57489  0.37432  0.39144  1.0000
  H   H2618     1.0  0.59780  0.36630  0.34820  1.0000
  H   H2619     1.0  0.59523  0.39076  0.34030  1.0000
  H   H2620     1.0  0.59603  0.41076  0.35769  1.0000
  H   H2621     1.0  0.57733  0.40490  0.37623  1.0000
  H   H2622     1.0  0.61692  0.40552  0.37930  1.0000
  H   H2623     1.0  0.60041  0.39592  0.39893  1.0000
  H   H2624     1.0  0.62643  0.38567  0.33475  1.0000
  H   H2625     1.0  0.62761  0.40080  0.34902  1.0000
  H   H2626     1.0  0.56215  0.39563  0.35980  1.0000
  H   H2627     1.0  0.56445  0.37075  0.36713  1.0000
  H   H2628     1.0  0.58826  0.34580  0.37457  1.0000
  H   H2629     1.0  0.60794  0.34084  0.38523  1.0000
  H   H2630     1.0  0.58486  0.32210  0.40397  1.0000
  H   H2631     1.0  0.58649  0.33822  0.41692  1.0000
  H   H2632     1.0  0.56684  0.34285  0.40584  1.0000
  H   H2633     1.0  0.52535  0.27065  0.44435  1.0000
  H   H2634     1.0  0.60049  0.42941  0.39713  1.0000
  H   H2635     1.0  0.59266  0.43597  0.37546  1.0000
  N   N81       1.0  0.62896  0.41274  0.45231  1.0000
  C   C1501     1.0  0.56104  0.45127  0.32203  1.0000
  H   H2636     1.0  0.48748  0.45350  0.17617  1.0000
  H   H2637     1.0  0.57035  0.36739  0.33436  1.0000
  H   H2638     1.0  0.54864  0.38348  0.34047  1.0000
  H   H2639     1.0  0.56882  0.39232  0.32613  1.0000
  H   H2640     1.0  0.55609  0.41278  0.22758  1.0000
  H   H2641     1.0  0.60065  0.26840  0.30462  1.0000
  H   H2642     1.0  0.43632  0.29873  0.47083  1.0000
  H   H2643     1.0  0.60185  0.25238  0.34706  1.0000
  H   H2644     1.0  0.32228  0.47575  0.36317  1.0000
  C   C1502     1.0  0.65139  0.37845  0.34540  1.0000
  C   C1503     1.0  0.41608  0.47037  0.35777  1.0000
  H   H2645     1.0  0.54230  0.44834  0.24398  1.0000
  H   H2646     1.0  0.63339  0.25089  0.32466  1.0000
  H   H2647     1.0  0.64415  0.33339  0.41814  1.0000
  H   H2648     1.0  0.61272  0.31696  0.26030  1.0000
  H   H2649     1.0  0.63798  0.40289  0.42636  1.0000
  H   H2650     1.0  0.46039  0.26947  0.46887  1.0000
  H   H2651     1.0  0.65438  0.32371  0.38381  1.0000
  H   H2652     1.0  0.57801  0.45520  0.33849  1.0000
  H   H2653     1.0  0.59856  0.42406  0.43115  1.0000
  H   H2654     1.0  0.63052  0.27620  0.18447  1.0000
  C   C1504     1.0  0.58992  0.25837  0.25631  1.0000
  C   C1505     1.0  0.58714  0.48002  0.28829  1.0000
  H   H2655     1.0  0.45382  0.47781  0.35839  1.0000
  H   H2656     1.0  0.57891  0.47002  0.28824  1.0000
  C   C1506     1.0  0.55817  0.42462  0.23234  1.0000
  H   H2657     1.0  0.45963  0.47661  0.38024  1.0000
  H   H2658     1.0  0.62598  0.32163  0.44911  1.0000
  C   C1507     1.0  0.33445  0.44066  0.46707  1.0000
  H   H2659     1.0  0.58958  0.32494  0.25559  1.0000
  C   C1508     1.0  0.61125  0.25119  0.25430  1.0000
  H   H2660     1.0  0.63254  0.28665  0.25030  1.0000
  H   H2661     1.0  0.47571  0.47215  0.18848  1.0000
  H   H2662     1.0  0.59797  0.45798  0.41886  1.0000
  H   H2663     1.0  0.61790  0.44259  0.45009  1.0000
  H   H2664     1.0  0.53101  0.42871  0.25034  1.0000
  H   H2665     1.0  0.64862  0.35120  0.44034  1.0000
  N   N82       1.0  0.62336  0.26501  0.24333  1.0000
  H   H2666     1.0  0.61367  0.24591  0.26881  1.0000
  H   H2667     1.0  0.47750  0.28312  0.45456  1.0000
  H   H2668     1.0  0.60782  0.27899  0.31968  1.0000
  S   S328      1.0  0.64347  0.43342  0.38604  1.0000
  Fe  Fe151     1.0  0.35082  0.48070  0.42771  1.0000
  H   H2669     1.0  0.58883  0.46220  0.44233  1.0000
  H   H2670     1.0  0.57531  0.45341  0.43156  1.0000
  H   H2671     1.0  0.53778  0.25464  0.46156  1.0000
  S   S329      1.0  0.65195  0.31605  0.26022  1.0000
  Fe  Fe152     1.0  0.50566  0.48037  0.28882  1.0000
  C   C1509     1.0  0.61895  0.43138  0.44264  1.0000
  N   N83       1.0  0.56864  0.48288  0.32233  1.0000
  H   H2672     1.0  0.37891  0.42432  0.47380  1.0000
  C   C1510     1.0  0.36401  0.42542  0.47602  1.0000
  C   C1511     1.0  0.64780  0.43082  0.31432  1.0000
  C   C1512     1.0  0.61806  0.40756  0.47213  1.0000
  C   C1513     1.0  0.64483  0.32392  0.22445  1.0000
  H   H2673     1.0  0.64710  0.26061  0.26871  1.0000
  H   H2674     1.0  0.65010  0.26677  0.41584  1.0000
  H   H2675     1.0  0.47369  0.47115  0.24782  1.0000
  H   H2676     1.0  0.63905  0.43204  0.47315  1.0000
  H   H2677     1.0  0.39404  0.44991  0.47489  1.0000
  H   H2678     1.0  0.44926  0.45284  0.26181  1.0000
  H   H2679     1.0  0.58350  0.47033  0.35619  1.0000
  C   C1514     1.0  0.42526  0.47315  0.33886  1.0000
  C   C1515     1.0  0.65437  0.23432  0.36170  1.0000
  C   C1516     1.0  0.63397  0.23385  0.36341  1.0000
  H   H2680     1.0  0.37321  0.23523  0.61323  1.0000
  H   H2681     1.0  0.52866  0.29297  0.70388  1.0000
  H   H2682     1.0  0.57652  0.32961  0.47994  1.0000
  C   C1517     1.0  0.34113  0.44811  0.52408  1.0000
  H   H2683     1.0  0.51669  0.29206  0.72761  1.0000
  H   H2684     1.0  0.53708  0.33450  0.71432  1.0000
  C   C1518     1.0  0.37324  0.46814  0.70431  1.0000
  H   H2685     1.0  0.58528  0.28728  0.55772  1.0000
  C   C1519     1.0  0.50271  0.26772  0.48135  1.0000
  C   C1520     1.0  0.33847  0.23803  0.62868  1.0000
  H   H2686     1.0  0.48993  0.36939  0.61807  1.0000
  N   N84       1.0  0.41346  0.43485  0.56447  1.0000
  H   H2687     1.0  0.51255  0.33183  0.60818  1.0000
  H   H2688     1.0  0.32897  0.32764  0.81634  1.0000
  S   S330      1.0  0.61564  0.32978  0.51753  1.0000
  Fe  Fe153     1.0  0.42413  0.40172  0.63598  1.0000
  S   S331      1.0  0.45202  0.40940  0.62313  1.0000
  S   S332      1.0  0.41915  0.37922  0.62429  1.0000
  Fe  Fe154     1.0  0.41299  0.43037  0.66085  1.0000
  S   S333      1.0  0.43997  0.44055  0.64946  1.0000
  S   S334      1.0  0.38903  0.44112  0.68333  1.0000
  Fe  Fe155     1.0  0.43629  0.43905  0.62152  1.0000
  S   S335      1.0  0.44505  0.45796  0.59385  1.0000
  Fe  Fe156     1.0  0.45349  0.40998  0.65200  1.0000
  S   S336      1.0  0.48166  0.39999  0.66002  1.0000
  S   S337      1.0  0.40816  0.43152  0.63237  1.0000
  S   S338      1.0  0.42683  0.39965  0.66541  1.0000
  Fe  Fe157     1.0  0.37546  0.35498  0.54619  1.0000
  C   C1521     1.0  0.59209  0.31058  0.69506  1.0000
  S   S339      1.0  0.40662  0.34462  0.53871  1.0000
  S   S340      1.0  0.61457  0.23724  0.74581  1.0000
  S   S341      1.0  0.56129  0.26744  0.60272  1.0000
  Fe  Fe158     1.0  0.34782  0.37850  0.57174  1.0000
  H   H2689     1.0  0.32625  0.25946  0.60724  1.0000
  S   S342      1.0  0.36350  0.38584  0.54222  1.0000
  S   S343      1.0  0.35336  0.34913  0.53519  1.0000
  Fe  Fe159     1.0  0.58752  0.28618  0.64873  1.0000
  S   S344      1.0  0.57275  0.31587  0.65037  1.0000
  S   S345      1.0  0.61362  0.27140  0.66004  1.0000
  Fe  Fe160     1.0  0.56511  0.28404  0.62155  1.0000
  S   S346      1.0  0.54877  0.31341  0.62076  1.0000
  H   H2690     1.0  0.48582  0.30433  0.50088  1.0000
  Fe  Fe161     1.0  0.57604  0.32045  0.61924  1.0000
  S   S347      1.0  0.58608  0.34539  0.59949  1.0000
  Fe  Fe162     1.0  0.54677  0.30612  0.65179  1.0000
  S   S348      1.0  0.51853  0.31353  0.67041  1.0000
  S   S349      1.0  0.59274  0.29167  0.61732  1.0000
  S   S350      1.0  0.56118  0.27584  0.65288  1.0000
  H   H2691     1.0  0.43113  0.26791  0.59164  1.0000
  C   C1522     1.0  0.49291  0.29135  0.50923  1.0000
  H   H2692     1.0  0.43085  0.40971  0.59462  1.0000
  H   H2693     1.0  0.60707  0.27935  0.57822  1.0000
  C   C1523     1.0  0.59940  0.27929  0.55270  1.0000
  C   C1524     1.0  0.37404  0.45671  0.60255  1.0000
  C   C1525     1.0  0.52515  0.26858  0.62322  1.0000
  Fe  Fe163     1.0  0.47654  0.24036  0.59660  1.0000
  H   H2694     1.0  0.52911  0.27412  0.63305  1.0000
  C   C1526     1.0  0.41248  0.32008  0.54396  1.0000
  C   C1527     1.0  0.43110  0.31092  0.54406  1.0000
  C   C1528     1.0  0.43584  0.29129  0.54870  1.0000
  C   C1529     1.0  0.42214  0.28076  0.55253  1.0000
  C   C1530     1.0  0.40363  0.28993  0.55194  1.0000
  C   C1531     1.0  0.39872  0.30956  0.54804  1.0000
  H   H2695     1.0  0.44178  0.31904  0.54063  1.0000
  H   H2696     1.0  0.45011  0.28433  0.54896  1.0000
  H   H2697     1.0  0.39305  0.28186  0.55453  1.0000
  H   H2698     1.0  0.38433  0.31653  0.54789  1.0000
  C   C1532     1.0  0.49155  0.37590  0.66295  1.0000
  C   C1533     1.0  0.51065  0.36983  0.66310  1.0000
  C   C1534     1.0  0.51916  0.35077  0.66470  1.0000
  C   C1535     1.0  0.50835  0.33757  0.66720  1.0000
  C   C1536     1.0  0.48910  0.34356  0.66771  1.0000
  C   C1537     1.0  0.48079  0.36274  0.66511  1.0000
  H   H2699     1.0  0.51889  0.37995  0.66186  1.0000
  H   H2700     1.0  0.53397  0.34625  0.66445  1.0000
  H   H2701     1.0  0.48067  0.33338  0.66975  1.0000
  H   H2702     1.0  0.46601  0.36732  0.66516  1.0000
  C   C1538     1.0  0.39910  0.38493  0.61467  1.0000
  C   C1539     1.0  0.38417  0.39956  0.61919  1.0000
  C   C1540     1.0  0.36824  0.40360  0.61150  1.0000
  C   C1541     1.0  0.36715  0.39302  0.59930  1.0000
  C   C1542     1.0  0.38225  0.37866  0.59451  1.0000
  C   C1543     1.0  0.39809  0.37457  0.60225  1.0000
  H   H2703     1.0  0.38466  0.40742  0.62899  1.0000
  H   H2704     1.0  0.35657  0.41468  0.61531  1.0000
  H   H2705     1.0  0.38169  0.37060  0.58491  1.0000
  H   H2706     1.0  0.40954  0.36335  0.59859  1.0000
  C   C1544     1.0  0.60711  0.33482  0.54004  1.0000
  C   C1545     1.0  0.59089  0.32903  0.55138  1.0000
  C   C1546     1.0  0.58455  0.33196  0.56977  1.0000
  C   C1547     1.0  0.59381  0.34168  0.57651  1.0000
  C   C1548     1.0  0.60945  0.34834  0.56486  1.0000
  C   C1549     1.0  0.61636  0.34452  0.54682  1.0000
  H   H2707     1.0  0.58343  0.32189  0.54614  1.0000
  H   H2708     1.0  0.57240  0.32687  0.57867  1.0000
  H   H2709     1.0  0.61666  0.35583  0.57005  1.0000
  H   H2710     1.0  0.62882  0.34911  0.53818  1.0000
  H   H2711     1.0  0.51428  0.25955  0.72671  1.0000
  H   H2712     1.0  0.32637  0.34663  0.82763  1.0000
  H   H2713     1.0  0.36332  0.40193  0.49960  1.0000
  H   H2714     1.0  0.53133  0.39944  0.57201  1.0000
  H   H2715     1.0  0.40021  0.46728  0.48328  1.0000
  H   H2716     1.0  0.57112  0.27640  0.77141  1.0000
  H   H2717     1.0  0.52656  0.37811  0.54587  1.0000
  H   H2718     1.0  0.45629  0.28911  0.49404  1.0000
  H   H2719     1.0  0.36536  0.24979  0.56390  1.0000
  H   H2720     1.0  0.59333  0.25345  0.55085  1.0000
  H   H2721     1.0  0.64437  0.24487  0.71318  1.0000
  H   H2722     1.0  0.34783  0.25752  0.53822  1.0000
  H   H2723     1.0  0.46933  0.27798  0.51993  1.0000
  H   H2724     1.0  0.55446  0.26586  0.71640  1.0000
  H   H2725     1.0  0.44210  0.42364  0.55180  1.0000
  H   H2726     1.0  0.41397  0.46733  0.67169  1.0000
  H   H2727     1.0  0.46321  0.39416  0.56472  1.0000
  C   C1550     1.0  0.36623  0.29347  0.60202  1.0000
  H   H2728     1.0  0.45875  0.38505  0.58970  1.0000
  C   C1551     1.0  0.61454  0.24726  0.72199  1.0000
  C   C1552     1.0  0.50694  0.26543  0.62671  1.0000
  H   H2729     1.0  0.40639  0.27319  0.60087  1.0000
  C   C1553     1.0  0.61358  0.26271  0.68400  1.0000
  C   C1554     1.0  0.59699  0.26078  0.69715  1.0000
  C   C1555     1.0  0.59748  0.25308  0.71612  1.0000
  N   N85       1.0  0.48313  0.26978  0.49344  1.0000
  C   C1556     1.0  0.32286  0.44823  0.53941  1.0000
  H   H2730     1.0  0.58391  0.26480  0.69254  1.0000
  H   H2731     1.0  0.58468  0.25128  0.72626  1.0000
  H   H2732     1.0  0.58386  0.23687  0.52296  1.0000
  C   C1557     1.0  0.33534  0.25420  0.54904  1.0000
  C   C1558     1.0  0.36350  0.47532  0.64760  1.0000
  H   H2733     1.0  0.37820  0.29455  0.58984  1.0000
  H   H2734     1.0  0.51938  0.36391  0.62644  1.0000
  H   H2735     1.0  0.35254  0.43855  0.53078  1.0000
  C   C1559     1.0  0.38259  0.45096  0.58371  1.0000
  H   H2736     1.0  0.50399  0.33585  0.63168  1.0000
  C   C1560     1.0  0.32216  0.47500  0.49375  1.0000
  C   C1561     1.0  0.38079  0.45150  0.50396  1.0000
  H   H2737     1.0  0.64860  0.28826  0.63937  1.0000
  H   H2738     1.0  0.53559  0.24205  0.72366  1.0000
  C   C1562     1.0  0.63926  0.30310  0.56977  1.0000
  S   S351      1.0  0.36115  0.34786  0.57631  1.0000
  H   H2739     1.0  0.53257  0.35407  0.60720  1.0000
  H   H2740     1.0  0.59951  0.32225  0.69199  1.0000
  H   H2741     1.0  0.41037  0.47423  0.56370  1.0000
  H   H2742     1.0  0.50776  0.32356  0.73821  1.0000
  C   C1563     1.0  0.53828  0.37012  0.57092  1.0000
  S   S352      1.0  0.52214  0.24316  0.53713  1.0000
  C   C1564     1.0  0.63115  0.24919  0.70879  1.0000
  H   H2743     1.0  0.56257  0.27478  0.74293  1.0000
  H   H2744     1.0  0.56997  0.32176  0.71624  1.0000
  H   H2745     1.0  0.48998  0.43019  0.62355  1.0000
  H   H2746     1.0  0.49541  0.39892  0.60407  1.0000
  H   H2747     1.0  0.48198  0.43292  0.60231  1.0000
  H   H2748     1.0  0.51465  0.42347  0.58540  1.0000
  C   C1565     1.0  0.51143  0.41961  0.60093  1.0000
  C   C1566     1.0  0.52919  0.25707  0.71926  1.0000
  C   C1567     1.0  0.56236  0.38955  0.62420  1.0000
  H   H2749     1.0  0.50128  0.32097  0.71788  1.0000
  C   C1568     1.0  0.49387  0.43344  0.60799  1.0000
  H   H2750     1.0  0.50220  0.35421  0.70294  1.0000
  C   C1569     1.0  0.50172  0.25824  0.61404  1.0000
  H   H2751     1.0  0.64107  0.23959  0.89043  1.0000
  H   H2752     1.0  0.57299  0.29439  0.73918  1.0000
  H   H2753     1.0  0.59980  0.25839  0.57884  1.0000
  N   N86       1.0  0.34611  0.46698  0.51510  1.0000
  H   H2754     1.0  0.42793  0.40273  0.54656  1.0000
  H   H2755     1.0  0.56532  0.30395  0.50471  1.0000
  C   C1570     1.0  0.58061  0.30288  0.49955  1.0000
  H   H2756     1.0  0.35384  0.30417  0.59839  1.0000
  C   C1571     1.0  0.50211  0.36118  0.60966  1.0000
  N   N87       1.0  0.58870  0.27312  0.52504  1.0000
  C   C1572     1.0  0.59123  0.29283  0.51560  1.0000
  C   C1573     1.0  0.59902  0.26543  0.54097  1.0000
  Fe  Fe164     1.0  0.33775  0.34444  0.56529  1.0000
  C   C1574     1.0  0.56837  0.27194  0.53172  1.0000
  C   C1575     1.0  0.55600  0.28513  0.54481  1.0000
  H   H2757     1.0  0.51071  0.24950  0.58762  1.0000
  H   H2758     1.0  0.50030  0.36478  0.59501  1.0000
  H   H2759     1.0  0.61406  0.25962  0.53550  1.0000
  C   C1576     1.0  0.53529  0.28604  0.54636  1.0000
  S   S353      1.0  0.47895  0.25417  0.61846  1.0000
  H   H2760     1.0  0.36984  0.29664  0.61398  1.0000
  H   H2761     1.0  0.60640  0.29290  0.51002  1.0000
  H   H2762     1.0  0.58670  0.30217  0.52572  1.0000
  H   H2763     1.0  0.33671  0.35853  0.50137  1.0000
  N   N88       1.0  0.35487  0.24904  0.59368  1.0000
  H   H2764     1.0  0.42273  0.44805  0.53556  1.0000
  H   H2765     1.0  0.56187  0.27427  0.51950  1.0000
  H   H2766     1.0  0.56692  0.25757  0.53963  1.0000
  H   H2767     1.0  0.55824  0.29965  0.53976  1.0000
  H   H2768     1.0  0.55886  0.27971  0.55912  1.0000
  Fe  Fe165     1.0  0.64716  0.32406  0.50885  1.0000
  H   H2769     1.0  0.36282  0.47803  0.63264  1.0000
  H   H2770     1.0  0.48719  0.24016  0.50548  1.0000
  H   H2771     1.0  0.60828  0.28941  0.54411  1.0000
  C   C1577     1.0  0.53297  0.25720  0.59451  1.0000
  H   H2772     1.0  0.53182  0.27202  0.55265  1.0000
  H   H2773     1.0  0.52667  0.29592  0.55536  1.0000
  H   H2774     1.0  0.53171  0.29110  0.53233  1.0000
  H   H2775     1.0  0.39915  0.38961  0.55283  1.0000
  H   H2776     1.0  0.41123  0.39291  0.52863  1.0000
  H   H2777     1.0  0.55448  0.24862  0.50846  1.0000
  C   C1578     1.0  0.53977  0.26927  0.72394  1.0000
  H   H2778     1.0  0.34490  0.27910  0.58759  1.0000
  H   H2779     1.0  0.43258  0.48066  0.75600  1.0000
  S   S354      1.0  0.47561  0.25808  0.56805  1.0000
  H   H2780     1.0  0.58984  0.26562  0.49890  1.0000
  C   C1579     1.0  0.39721  0.45298  0.48716  1.0000
  C   C1580     1.0  0.64663  0.24442  0.61578  1.0000
  H   H2781     1.0  0.41086  0.44826  0.58731  1.0000
  H   H2782     1.0  0.62827  0.31179  0.57872  1.0000
  C   C1581     1.0  0.43639  0.40707  0.58024  1.0000
  H   H2783     1.0  0.37422  0.26398  0.61228  1.0000
  Fe  Fe166     1.0  0.33992  0.37954  0.53410  1.0000
  H   H2784     1.0  0.63743  0.40292  0.49083  1.0000
  C   C1582     1.0  0.54041  0.37488  0.54965  1.0000
  H   H2785     1.0  0.45985  0.46746  0.77997  1.0000
  C   C1583     1.0  0.35067  0.47436  0.52969  1.0000
  H   H2786     1.0  0.32261  0.26289  0.54409  1.0000
  H   H2787     1.0  0.56582  0.32968  0.69285  1.0000
  C   C1584     1.0  0.46454  0.47634  0.76609  1.0000
  H   H2788     1.0  0.57867  0.33126  0.50260  1.0000
  S   S355      1.0  0.32286  0.37457  0.56354  1.0000
  C   C1585     1.0  0.51469  0.25448  0.59776  1.0000
  H   H2789     1.0  0.41781  0.42264  0.53065  1.0000
  H   H2790     1.0  0.34976  0.47300  0.65657  1.0000
  H   H2791     1.0  0.54727  0.38705  0.54333  1.0000
  H   H2792     1.0  0.59409  0.30583  0.68185  1.0000
  C   C1586     1.0  0.33599  0.41385  0.49348  1.0000
  C   C1587     1.0  0.58396  0.32280  0.49158  1.0000
  H   H2793     1.0  0.55657  0.29949  0.77124  1.0000
  H   H2794     1.0  0.49859  0.30728  0.52633  1.0000
  H   H2795     1.0  0.54277  0.31620  0.74222  1.0000
  C   C1588     1.0  0.59744  0.26114  0.51055  1.0000
  C   C1589     1.0  0.59813  0.23978  0.51760  1.0000
  H   H2796     1.0  0.50851  0.35715  0.72326  1.0000
  H   H2797     1.0  0.47642  0.24673  0.48609  1.0000
  C   C1590     1.0  0.35316  0.24637  0.57513  1.0000
  H   H2798     1.0  0.50521  0.39614  0.62351  1.0000
  H   H2799     1.0  0.64421  0.24840  0.60135  1.0000
  C   C1591     1.0  0.46971  0.28560  0.48392  1.0000
  C   C1592     1.0  0.63066  0.25682  0.68983  1.0000
  C   C1593     1.0  0.50956  0.32814  0.72277  1.0000
  C   C1594     1.0  0.52053  0.36540  0.61123  1.0000
  C   C1595     1.0  0.41462  0.41213  0.54372  1.0000
  C   C1596     1.0  0.53825  0.26424  0.60721  1.0000
  C   C1597     1.0  0.35763  0.26871  0.59084  1.0000
  H   H2800     1.0  0.64357  0.25825  0.67966  1.0000
  H   H2801     1.0  0.55418  0.37462  0.59857  1.0000
  C   C1598     1.0  0.53216  0.23347  0.51720  1.0000
  C   C1599     1.0  0.45714  0.39798  0.57860  1.0000
  H   H2802     1.0  0.61206  0.26292  0.50405  1.0000
  H   H2803     1.0  0.63286  0.30029  0.55947  1.0000
  C   C1600     1.0  0.41338  0.45188  0.54863  1.0000
  C   C1601     1.0  0.62936  0.39479  0.48694  1.0000
  H   H2804     1.0  0.38993  0.42914  0.55747  1.0000
  H   H2805     1.0  0.53208  0.35747  0.57639  1.0000
  C   C1602     1.0  0.35520  0.41273  0.49066  1.0000
  N   N89       1.0  0.44308  0.31529  0.60087  1.0000
  C   C1603     1.0  0.44084  0.32694  0.58175  1.0000
  C   C1604     1.0  0.44052  0.29585  0.60220  1.0000
  C   C1605     1.0  0.42865  0.32472  0.61542  1.0000
  C   C1606     1.0  0.46224  0.31381  0.60408  1.0000
  C   C1607     1.0  0.47898  0.30526  0.58975  1.0000
  C   C1608     1.0  0.44746  0.34581  0.57610  1.0000
  C   C1609     1.0  0.42675  0.31356  0.63598  1.0000
  C   C1610     1.0  0.42091  0.29441  0.60089  1.0000
  C   C1611     1.0  0.42017  0.27401  0.60266  1.0000
  C   C1612     1.0  0.49744  0.30765  0.59236  1.0000
  C   C1613     1.0  0.44112  0.35799  0.55840  1.0000
  C   C1614     1.0  0.41177  0.32477  0.64915  1.0000
  H   H2806     1.0  0.42589  0.33024  0.58068  1.0000
  H   H2807     1.0  0.44835  0.31887  0.57065  1.0000
  H   H2808     1.0  0.45060  0.28960  0.59070  1.0000
  H   H2809     1.0  0.44408  0.28629  0.61532  1.0000
  H   H2810     1.0  0.41456  0.32848  0.61196  1.0000
  H   H2811     1.0  0.43179  0.33829  0.61536  1.0000
  H   H2812     1.0  0.46408  0.32772  0.60477  1.0000
  H   H2813     1.0  0.46387  0.30468  0.61798  1.0000
  H   H2814     1.0  0.47789  0.31171  0.57503  1.0000
  H   H2815     1.0  0.47970  0.29004  0.59184  1.0000
  H   H2816     1.0  0.44191  0.35398  0.58729  1.0000
  H   H2817     1.0  0.46294  0.34331  0.57322  1.0000
  H   H2818     1.0  0.44005  0.31059  0.64074  1.0000
  H   H2819     1.0  0.42266  0.30008  0.63766  1.0000
  H   H2820     1.0  0.40979  0.29988  0.61215  1.0000
  H   H2821     1.0  0.41763  0.30238  0.58717  1.0000
  H   H2822     1.0  0.40248  0.42728  0.59423  1.0000
  H   H2823     1.0  0.33064  0.23612  0.60441  1.0000
  H   H2824     1.0  0.62267  0.26223  0.56544  1.0000
  H   H2825     1.0  0.49894  0.32242  0.58681  1.0000
  H   H2826     1.0  0.49821  0.30358  0.60739  1.0000
  H   H2827     1.0  0.50930  0.29849  0.58476  1.0000
  H   H2828     1.0  0.42560  0.36197  0.56104  1.0000
  H   H2829     1.0  0.44675  0.37097  0.55418  1.0000
  H   H2830     1.0  0.44624  0.35041  0.54669  1.0000
  H   H2831     1.0  0.39795  0.32783  0.64532  1.0000
  H   H2832     1.0  0.41059  0.31659  0.66379  1.0000
  H   H2833     1.0  0.41553  0.33821  0.64850  1.0000
  H   H2834     1.0  0.38459  0.45482  0.51569  1.0000
  H   H2835     1.0  0.43996  0.43531  0.56982  1.0000
  H   H2836     1.0  0.47528  0.29865  0.47935  1.0000
  H   H2837     1.0  0.53092  0.32603  0.69757  1.0000
  H   H2838     1.0  0.56919  0.28817  0.71114  1.0000
  H   H2839     1.0  0.63956  0.38283  0.48187  1.0000
  H   H2840     1.0  0.39926  0.45729  0.54525  1.0000
  C   C1615     1.0  0.50119  0.34912  0.71826  1.0000
  C   C1616     1.0  0.45741  0.25104  0.51206  1.0000
  C   C1617     1.0  0.57130  0.31724  0.70307  1.0000
  H   H2841     1.0  0.53902  0.26522  0.73928  1.0000
  H   H2842     1.0  0.56352  0.40395  0.61625  1.0000
  S   S356      1.0  0.34687  0.39784  0.59025  1.0000
  H   H2843     1.0  0.35947  0.46473  0.60267  1.0000
  H   H2844     1.0  0.55855  0.30103  0.69235  1.0000
  H   H2845     1.0  0.54934  0.36270  0.54374  1.0000
  H   H2846     1.0  0.52305  0.42149  0.60612  1.0000
  C   C1618     1.0  0.61642  0.38685  0.50486  1.0000
  H   H2847     1.0  0.52990  0.26018  0.70391  1.0000
  H   H2848     1.0  0.34342  0.24525  0.74779  1.0000
  C   C1619     1.0  0.55829  0.28591  0.76729  1.0000
  S   S357      1.0  0.42775  0.25617  0.55775  1.0000
  H   H2849     1.0  0.32892  0.32293  0.84110  1.0000
  H   H2850     1.0  0.58523  0.29543  0.48781  1.0000
  C   C1620     1.0  0.60780  0.26908  0.56982  1.0000
  H   H2851     1.0  0.63707  0.27094  0.62461  1.0000
  C   C1621     1.0  0.52574  0.38672  0.57989  1.0000
  H   H2852     1.0  0.48771  0.33811  0.61737  1.0000
  H   H2853     1.0  0.37386  0.44210  0.58196  1.0000
  N   N90       1.0  0.52438  0.38434  0.60063  1.0000
  H   H2854     1.0  0.49693  0.26853  0.63924  1.0000
  H   H2855     1.0  0.46492  0.40767  0.58051  1.0000
  H   H2856     1.0  0.53242  0.39551  0.63024  1.0000
  C   C1622     1.0  0.33563  0.25842  0.56760  1.0000
  H   H2857     1.0  0.55251  0.36645  0.57384  1.0000
  C   C1623     1.0  0.62943  0.23769  0.62884  1.0000
  H   H2858     1.0  0.54339  0.37100  0.63227  1.0000
  H   H2859     1.0  0.54613  0.27944  0.77510  1.0000
  N   N91       1.0  0.54134  0.30422  0.71963  1.0000
  C   C1624     1.0  0.64733  0.28465  0.58183  1.0000
  C   C1625     1.0  0.54282  0.38608  0.60331  1.0000
  H   H2860     1.0  0.40080  0.41047  0.57308  1.0000
  C   C1626     1.0  0.43348  0.42583  0.56575  1.0000
  H   H2861     1.0  0.57443  0.37933  0.61816  1.0000
  C   C1627     1.0  0.50851  0.39919  0.60792  1.0000
  H   H2862     1.0  0.59851  0.29882  0.70528  1.0000
  H   H2863     1.0  0.54695  0.39917  0.59424  1.0000
  H   H2864     1.0  0.33564  0.27355  0.56490  1.0000
  H   H2865     1.0  0.49641  0.44792  0.60329  1.0000
  C   C1628     1.0  0.54393  0.38527  0.62366  1.0000
  C   C1629     1.0  0.53047  0.32362  0.71283  1.0000
  H   H2866     1.0  0.42929  0.39677  0.57852  1.0000
  H   H2867     1.0  0.48617  0.35180  0.72527  1.0000
  C   C1630     1.0  0.36194  0.27384  0.60749  1.0000
  H   H2868     1.0  0.56294  0.38848  0.63896  1.0000
  C   C1631     1.0  0.56019  0.28872  0.74618  1.0000
  C   C1632     1.0  0.40311  0.44008  0.58294  1.0000
  H   H2869     1.0  0.53005  0.29812  0.74952  1.0000
  H   H2870     1.0  0.40217  0.47650  0.76342  1.0000
  C   C1633     1.0  0.50160  0.34048  0.61719  1.0000
  C   C1634     1.0  0.54274  0.30237  0.73964  1.0000
  H   H2871     1.0  0.51164  0.38941  0.57671  1.0000
  H   H2872     1.0  0.42233  0.26556  0.61664  1.0000
  H   H2873     1.0  0.36886  0.27178  0.57833  1.0000
  C   C1635     1.0  0.53088  0.29029  0.71840  1.0000
  C   C1636     1.0  0.56017  0.30173  0.70636  1.0000
  H   H2874     1.0  0.47698  0.29924  0.53560  1.0000
  C   C1637     1.0  0.47679  0.25140  0.49865  1.0000
  C   C1638     1.0  0.40391  0.42164  0.56046  1.0000
  H   H2875     1.0  0.44637  0.26253  0.50678  1.0000
  H   H2876     1.0  0.59912  0.32261  0.48608  1.0000
  H   H2877     1.0  0.64545  0.29737  0.60444  1.0000
  H   H2878     1.0  0.35913  0.45882  0.48858  1.0000
  C   C1639     1.0  0.40305  0.40030  0.54007  1.0000
  H   H2879     1.0  0.49123  0.26221  0.52025  1.0000
  H   H2880     1.0  0.39017  0.40942  0.53576  1.0000
  H   H2881     1.0  0.62482  0.37879  0.51548  1.0000
  H   H2882     1.0  0.34957  0.27400  0.61926  1.0000
  H   H2883     1.0  0.63547  0.27773  0.58929  1.0000
  H   H2884     1.0  0.37909  0.43672  0.50801  1.0000
  H   H2885     1.0  0.36236  0.46018  0.71064  1.0000
  H   H2886     1.0  0.43420  0.46410  0.55428  1.0000
  H   H2887     1.0  0.50793  0.28838  0.50231  1.0000
  H   H2888     1.0  0.49905  0.28295  0.53718  1.0000
  C   C1640     1.0  0.40233  0.47208  0.68236  1.0000
  C   C1641     1.0  0.38838  0.46169  0.69054  1.0000
  S   S358      1.0  0.32453  0.39805  0.51170  1.0000
  C   C1642     1.0  0.65058  0.26079  0.62191  1.0000
  H   H2889     1.0  0.37417  0.46236  0.65061  1.0000
  H   H2890     1.0  0.38227  0.46570  0.60494  1.0000
  H   H2891     1.0  0.65037  0.31104  0.56192  1.0000
  C   C1643     1.0  0.54852  0.23855  0.50542  1.0000
  C   C1644     1.0  0.41983  0.46846  0.55167  1.0000
  H   H2892     1.0  0.38164  0.46392  0.57270  1.0000
  C   C1645     1.0  0.32566  0.42781  0.48161  1.0000
  H   H2893     1.0  0.36555  0.47856  0.49097  1.0000
  H   H2894     1.0  0.45799  0.25236  0.52611  1.0000
  H   H2895     1.0  0.32325  0.45482  0.55070  1.0000
  C   C1646     1.0  0.32275  0.33285  0.82954  1.0000
  H   H2896     1.0  0.60918  0.37718  0.50209  1.0000
  H   H2897     1.0  0.37368  0.44414  0.61413  1.0000
  C   C1647     1.0  0.33697  0.24615  0.60788  1.0000
  H   H2898     1.0  0.51329  0.26196  0.49032  1.0000
  H   H2899     1.0  0.33210  0.35038  0.48309  1.0000
  H   H2900     1.0  0.40972  0.47667  0.61418  1.0000
  H   H2901     1.0  0.35973  0.46315  0.53813  1.0000
  H   H2902     1.0  0.42922  0.47952  0.52177  1.0000
  Fe  Fe167     1.0  0.45437  0.24250  0.56801  1.0000
  C   C1648     1.0  0.39055  0.23505  0.58583  1.0000
  H   H2903     1.0  0.34635  0.24557  0.63349  1.0000
  C   C1649     1.0  0.48371  0.27458  0.51141  1.0000
  C   C1650     1.0  0.43154  0.48075  0.58949  1.0000
  C   C1651     1.0  0.36255  0.46469  0.49892  1.0000
  H   H2904     1.0  0.60590  0.39829  0.51073  1.0000
  H   H2905     1.0  0.64709  0.29618  0.48178  1.0000
  C   C1652     1.0  0.49177  0.29539  0.52829  1.0000
  H   H2906     1.0  0.33188  0.42001  0.55515  1.0000
  C   C1653     1.0  0.32549  0.35737  0.49512  1.0000
  H   H2907     1.0  0.34015  0.44104  0.51332  1.0000
  H   H2908     1.0  0.40988  0.44272  0.49072  1.0000
  H   H2909     1.0  0.65405  0.25473  0.63600  1.0000
  H   H2910     1.0  0.39405  0.24893  0.58341  1.0000
  H   H2911     1.0  0.61676  0.24908  0.62815  1.0000
  H   H2912     1.0  0.36903  0.47264  0.77557  1.0000
  C   C1654     1.0  0.37134  0.23443  0.59948  1.0000
  H   H2913     1.0  0.59100  0.23969  0.66412  1.0000
  H   H2914     1.0  0.54302  0.25389  0.58211  1.0000
  S   S359      1.0  0.32611  0.31788  0.57450  1.0000
  H   H2915     1.0  0.33507  0.23923  0.55083  1.0000
  H   H2916     1.0  0.46631  0.46863  0.75491  1.0000
  H   H2917     1.0  0.37893  0.47631  0.79315  1.0000
  Fe  Fe168     1.0  0.49679  0.23423  0.55764  1.0000
  H   H2918     1.0  0.33769  0.47857  0.54002  1.0000
  H   H2919     1.0  0.47834  0.47911  0.76568  1.0000
  H   H2920     1.0  0.33266  0.47424  0.48044  1.0000
  H   H2921     1.0  0.33196  0.23405  0.80745  1.0000
  C   C1655     1.0  0.33004  0.48090  0.50775  1.0000
  H   H2922     1.0  0.57009  0.23434  0.48086  1.0000
  H   H2923     1.0  0.32250  0.25564  0.57759  1.0000
  C   C1656     1.0  0.37433  0.48296  0.77973  1.0000
  H   H2924     1.0  0.60612  0.23376  0.52890  1.0000
  H   H2925     1.0  0.59971  0.23445  0.49023  1.0000
  S   S360      1.0  0.62810  0.63491  0.15867  1.0000
  H   H2926     1.0  0.44589  0.51015  0.37860  1.0000
  C   C1657     1.0  0.38164  0.71016  0.03997  1.0000
  H   H2927     1.0  0.43874  0.64323  0.23015  1.0000
  Fe  Fe169     1.0  0.62490  0.66214  0.13763  1.0000
  S   S361      1.0  0.59732  0.67709  0.12926  1.0000
  H   H2928     1.0  0.36477  0.60048  0.27586  1.0000
  H   H2929     1.0  0.35135  0.68853  0.22012  1.0000
  H   H2930     1.0  0.34546  0.63399  0.13477  1.0000
  S   S362      1.0  0.63872  0.68667  0.30518  1.0000
  H   H2931     1.0  0.52348  0.51967  0.29944  1.0000
  H   H2932     1.0  0.49499  0.55705  0.40350  1.0000
  H   H2933     1.0  0.51439  0.69155  0.12777  1.0000
  H   H2934     1.0  0.62158  0.55688  0.40711  1.0000
  H   H2935     1.0  0.34233  0.56735  0.30963  1.0000
  H   H2936     1.0  0.42340  0.48861  0.31092  1.0000
  H   H2937     1.0  0.35383  0.70194  0.23551  1.0000
  H   H2938     1.0  0.50057  0.68951  0.98451  1.0000
  H   H2939     1.0  0.64272  0.65840  0.25950  1.0000
  H   H2940     1.0  0.44901  0.58780  0.35603  1.0000
  H   H2941     1.0  0.62234  0.66647  0.09547  1.0000
  H   H2942     1.0  0.45378  0.53769  0.35590  1.0000
  C   C1658     1.0  0.54061  0.56529  0.45125  1.0000
  H   H2943     1.0  0.37425  0.53661  0.12433  1.0000
  C   C1659     1.0  0.33277  0.49355  0.33689  1.0000
  S   S363      1.0  0.58770  0.69423  0.04514  1.0000
  H   H2944     1.0  0.42898  0.49745  0.37859  1.0000
  C   C1660     1.0  0.34792  0.51874  0.19916  1.0000
  H   H2945     1.0  0.32876  0.50074  0.20570  1.0000
  S   S364      1.0  0.35283  0.60317  0.17094  1.0000
  Fe  Fe170     1.0  0.34430  0.52283  0.42158  1.0000
  H   H2946     1.0  0.45669  0.49794  0.47575  1.0000
  S   S365      1.0  0.34695  0.54780  0.43068  1.0000
  S   S366      1.0  0.46330  0.51377  0.24395  1.0000
  H   H2947     1.0  0.37742  0.70210  0.08549  1.0000
  H   H2948     1.0  0.45534  0.72431  0.99514  1.0000
  Fe  Fe171     1.0  0.56310  0.56114  0.39662  1.0000
  S   S367      1.0  0.57155  0.56104  0.36599  1.0000
  S   S368      1.0  0.58288  0.55040  0.41616  1.0000
  Fe  Fe172     1.0  0.52285  0.58116  0.39528  1.0000
  S   S369      1.0  0.52807  0.58317  0.36424  1.0000
  S   S370      1.0  0.49383  0.59366  0.41015  1.0000
  Fe  Fe173     1.0  0.54367  0.55346  0.37047  1.0000
  S   S371      1.0  0.54047  0.52928  0.36042  1.0000
  Fe  Fe174     1.0  0.55534  0.59078  0.36264  1.0000
  S   S372      1.0  0.56513  0.61475  0.34024  1.0000
  S   S373      1.0  0.53673  0.55084  0.40163  1.0000
  S   S374      1.0  0.54873  0.59144  0.39314  1.0000
  S   S375      1.0  0.49706  0.51085  0.27587  1.0000
  H   H2949     1.0  0.41709  0.70617  0.98867  1.0000
  S   S376      1.0  0.45449  0.50871  0.29956  1.0000
  C   C1661     1.0  0.42361  0.59505  0.19902  1.0000
  H   H2950     1.0  0.45343  0.54775  0.27051  1.0000
  H   H2951     1.0  0.45062  0.51605  0.34068  1.0000
  Fe  Fe175     1.0  0.48035  0.51382  0.30455  1.0000
  S   S377      1.0  0.47792  0.53943  0.31569  1.0000
  H   H2952     1.0  0.33807  0.56679  0.36583  1.0000
  C   C1662     1.0  0.41863  0.52438  0.43616  1.0000
  H   H2953     1.0  0.35359  0.54849  0.28460  1.0000
  H   H2954     1.0  0.34333  0.52928  0.27444  1.0000
  C   C1663     1.0  0.48884  0.55118  0.39516  1.0000
  C   C1664     1.0  0.56199  0.61142  0.47073  1.0000
  H   H2955     1.0  0.36099  0.64696  0.09277  1.0000
  Fe  Fe176     1.0  0.39426  0.71351  0.20005  1.0000
  S   S378      1.0  0.39626  0.68361  0.21599  1.0000
  H   H2956     1.0  0.43003  0.54325  0.41119  1.0000
  H   H2957     1.0  0.59381  0.61749  0.12067  1.0000
  H   H2958     1.0  0.63739  0.60367  0.06033  1.0000
  H   H2959     1.0  0.34268  0.52347  0.21267  1.0000
  Fe  Fe177     1.0  0.37646  0.60358  0.18334  1.0000
  S   S379      1.0  0.39273  0.62646  0.16995  1.0000
  H   H2960     1.0  0.57551  0.61924  0.26862  1.0000
  S   S380      1.0  0.36680  0.55456  0.15451  1.0000
  H   H2961     1.0  0.62156  0.59336  0.22570  1.0000
  H   H2962     1.0  0.32620  0.65840  0.25032  1.0000
  H   H2963     1.0  0.62294  0.62743  0.26813  1.0000
  H   H2964     1.0  0.37060  0.58200  0.26307  1.0000
  C   C1665     1.0  0.39398  0.66847  0.20306  1.0000
  C   C1666     1.0  0.39869  0.67254  0.18348  1.0000
  C   C1667     1.0  0.39801  0.65967  0.17342  1.0000
  C   C1668     1.0  0.39210  0.64293  0.18285  1.0000
  C   C1669     1.0  0.38663  0.63927  0.20239  1.0000
  C   C1670     1.0  0.38789  0.65184  0.21250  1.0000
  H   H2965     1.0  0.40335  0.68536  0.17609  1.0000
  H   H2966     1.0  0.40219  0.66268  0.15831  1.0000
  H   H2967     1.0  0.38179  0.62662  0.20970  1.0000
  H   H2968     1.0  0.38407  0.64873  0.22765  1.0000
  C   C1671     1.0  0.43956  0.52394  0.24351  1.0000
  C   C1672     1.0  0.43394  0.53001  0.22628  1.0000
  H   H2969     1.0  0.36541  0.60624  0.25107  1.0000
  C   C1673     1.0  0.59745  0.52823  0.41525  1.0000
  C   C1674     1.0  0.60738  0.51973  0.42947  1.0000
  H   H2970     1.0  0.43668  0.64401  0.20669  1.0000
  H   H2971     1.0  0.34466  0.71611  0.27363  1.0000
  H   H2972     1.0  0.60578  0.52672  0.44073  1.0000
  C   C1675     1.0  0.64059  0.70973  0.02027  1.0000
  H   H2973     1.0  0.33210  0.65211  0.12035  1.0000
  C   C1676     1.0  0.52155  0.53270  0.34978  1.0000
  C   C1677     1.0  0.51284  0.55059  0.34159  1.0000
  C   C1678     1.0  0.49901  0.55264  0.33158  1.0000
  C   C1679     1.0  0.49405  0.53681  0.32957  1.0000
  C   C1680     1.0  0.50222  0.51903  0.33841  1.0000
  C   C1681     1.0  0.51587  0.51698  0.34855  1.0000
  H   H2974     1.0  0.51718  0.56279  0.34240  1.0000
  H   H2975     1.0  0.49263  0.56647  0.32486  1.0000
  H   H2976     1.0  0.49814  0.50681  0.33739  1.0000
  H   H2977     1.0  0.52220  0.50314  0.35524  1.0000
  H   H2978     1.0  0.37144  0.70401  0.98459  1.0000
  H   H2979     1.0  0.61703  0.60937  0.09019  1.0000
  H   H2980     1.0  0.62504  0.60166  0.30650  1.0000
  H   H2981     1.0  0.33456  0.63355  0.25073  1.0000
  H   H2982     1.0  0.38088  0.69516  0.04534  1.0000
  C   C1682     1.0  0.35203  0.71932  0.15801  1.0000
  H   H2983     1.0  0.34653  0.48373  0.33495  1.0000
  C   C1683     1.0  0.46881  0.56567  0.46979  1.0000
  C   C1684     1.0  0.45874  0.58218  0.46054  1.0000
  C   C1685     1.0  0.46641  0.59049  0.44210  1.0000
  C   C1686     1.0  0.48407  0.58224  0.43277  1.0000
  C   C1687     1.0  0.49371  0.56526  0.44173  1.0000
  C   C1688     1.0  0.48611  0.55705  0.46021  1.0000
  H   H2984     1.0  0.44537  0.58893  0.46784  1.0000
  H   H2985     1.0  0.45881  0.60356  0.43518  1.0000
  H   H2986     1.0  0.50720  0.55867  0.43461  1.0000
  C   C1689     1.0  0.37272  0.50366  0.28075  1.0000
  H   H2987     1.0  0.60831  0.62970  0.28995  1.0000
  C   C1690     1.0  0.59964  0.51913  0.40064  1.0000
  H   H2988     1.0  0.35527  0.61685  0.09077  1.0000
  C   C1691     1.0  0.46724  0.71739  0.16343  1.0000
  C   C1692     1.0  0.59117  0.63997  0.25296  1.0000
  C   C1693     1.0  0.39248  0.49198  0.28100  1.0000
  Fe  Fe178     1.0  0.64383  0.64783  0.17142  1.0000
  Fe  Fe179     1.0  0.37056  0.56931  0.21438  1.0000
  H   H2989     1.0  0.56476  0.60035  0.29487  1.0000
  H   H2990     1.0  0.39905  0.49659  0.29001  1.0000
  H   H2991     1.0  0.64700  0.64088  0.08381  1.0000
  H   H2992     1.0  0.32884  0.53946  0.31436  1.0000
  H   H2993     1.0  0.36039  0.55235  0.32161  1.0000
  S   S381      1.0  0.49078  0.48398  0.31795  1.0000
  C   C1694     1.0  0.35899  0.54101  0.44902  1.0000
  H   H2994     1.0  0.58088  0.73087  0.09422  1.0000
  C   C1695     1.0  0.52591  0.69571  0.09827  1.0000
  C   C1696     1.0  0.60219  0.73097  0.06853  1.0000
  H   H2995     1.0  0.44219  0.57141  0.37734  1.0000
  C   C1697     1.0  0.42628  0.52640  0.25996  1.0000
  H   H2996     1.0  0.48899  0.70868  0.11045  1.0000
  S   S382      1.0  0.36024  0.60022  0.21291  1.0000
  H   H2997     1.0  0.58372  0.51104  0.35532  1.0000
  H   H2998     1.0  0.39211  0.58034  0.44982  1.0000
  H   H2999     1.0  0.43157  0.58703  0.26087  1.0000
  C   C1698     1.0  0.58715  0.61953  0.33872  1.0000
  C   C1699     1.0  0.60005  0.60702  0.34875  1.0000
  C   C1700     1.0  0.61776  0.61089  0.34662  1.0000
  C   C1701     1.0  0.62269  0.62728  0.33453  1.0000
  C   C1702     1.0  0.60980  0.63974  0.32448  1.0000
  C   C1703     1.0  0.59211  0.63584  0.32655  1.0000
  H   H3000     1.0  0.59637  0.59441  0.35814  1.0000
  H   H3001     1.0  0.62765  0.60124  0.35446  1.0000
  H   H3002     1.0  0.61345  0.65241  0.31515  1.0000
  H   H3003     1.0  0.58221  0.64557  0.31875  1.0000
  H   H3004     1.0  0.44171  0.72066  0.01810  1.0000
  C   C1704     1.0  0.47421  0.54036  0.40805  1.0000
  C   C1705     1.0  0.40757  0.53488  0.25915  1.0000
  C   C1706     1.0  0.59498  0.68184  0.10578  1.0000
  C   C1707     1.0  0.57822  0.69282  0.10094  1.0000
  C   C1708     1.0  0.57590  0.69684  0.08236  1.0000
  C   C1709     1.0  0.59016  0.68954  0.06858  1.0000
  C   C1710     1.0  0.60690  0.67854  0.07343  1.0000
  C   C1711     1.0  0.60939  0.67484  0.09191  1.0000
  H   H3005     1.0  0.56705  0.69837  0.11158  1.0000
  H   H3006     1.0  0.56309  0.70557  0.07869  1.0000
  C   C1712     1.0  0.54503  0.54413  0.45886  1.0000
  H   H3007     1.0  0.40122  0.49392  0.26657  1.0000
  H   H3008     1.0  0.57026  0.66372  0.26181  1.0000
  C   C1713     1.0  0.63586  0.54899  0.37073  1.0000
  C   C1714     1.0  0.64260  0.52736  0.34963  1.0000
  H   H3009     1.0  0.34455  0.67215  0.47634  1.0000
  H   H3010     1.0  0.36665  0.56378  0.38309  1.0000
  H   H3011     1.0  0.55652  0.62678  0.46730  1.0000
  C   C1715     1.0  0.34270  0.53007  0.31106  1.0000
  H   H3012     1.0  0.43526  0.56653  0.44803  1.0000
  C   C1716     1.0  0.44590  0.61585  0.22257  1.0000
  H   H3013     1.0  0.36722  0.49946  0.27060  1.0000
  C   C1717     1.0  0.56911  0.49333  0.33663  1.0000
  H   H3014     1.0  0.33380  0.63301  0.09745  1.0000
  S   S383      1.0  0.53565  0.71813  0.03511  1.0000
  C   C1718     1.0  0.55145  0.51436  0.30488  1.0000
  H   H3015     1.0  0.49390  0.54420  0.46728  1.0000
  H   H3016     1.0  0.46289  0.57918  0.23649  1.0000
  H   H3017     1.0  0.45172  0.71969  0.12944  1.0000
  C   C1719     1.0  0.33267  0.51241  0.19416  1.0000
  C   C1720     1.0  0.53762  0.52211  0.29186  1.0000
  H   H3018     1.0  0.38149  0.50204  0.47506  1.0000
  H   H3019     1.0  0.63477  0.70391  0.11292  1.0000
  H   H3020     1.0  0.56234  0.65078  0.24945  1.0000
  H   H3021     1.0  0.32777  0.67594  0.13859  1.0000
  H   H3022     1.0  0.37092  0.62720  0.10932  1.0000
  H   H3023     1.0  0.55545  0.49490  0.34679  1.0000
  H   H3024     1.0  0.57115  0.50781  0.32981  1.0000
  C   C1721     1.0  0.33216  0.55650  0.11220  1.0000
  H   H3025     1.0  0.61715  0.63429  0.05751  1.0000
  H   H3026     1.0  0.43868  0.53966  0.47407  1.0000
  C   C1722     1.0  0.63566  0.63614  0.03053  1.0000
  H   H3027     1.0  0.54669  0.52241  0.31621  1.0000
  H   H3028     1.0  0.56538  0.51701  0.29691  1.0000
  C   C1723     1.0  0.62171  0.52424  0.33003  1.0000
  H   H3029     1.0  0.59197  0.52565  0.38961  1.0000
  H   H3030     1.0  0.59312  0.49410  0.30639  1.0000
  H   H3031     1.0  0.33046  0.71718  0.20614  1.0000
  H   H3032     1.0  0.52581  0.61966  0.46912  1.0000
  H   H3033     1.0  0.53759  0.50966  0.22374  1.0000
  C   C1724     1.0  0.33615  0.65322  0.16086  1.0000
  H   H3034     1.0  0.55535  0.53711  0.44808  1.0000
  H   H3035     1.0  0.63068  0.57780  0.40191  1.0000
  C   C1725     1.0  0.61093  0.59782  0.26312  1.0000
  H   H3036     1.0  0.53041  0.49548  0.24644  1.0000
  H   H3037     1.0  0.40717  0.53442  0.44307  1.0000
  H   H3038     1.0  0.54227  0.51529  0.27960  1.0000
  C   C1726     1.0  0.32705  0.50389  0.31789  1.0000
  H   H3039     1.0  0.63393  0.62220  0.11651  1.0000
  H   H3040     1.0  0.61374  0.49455  0.38906  1.0000
  C   C1727     1.0  0.35285  0.55625  0.13844  1.0000
  H   H3041     1.0  0.62670  0.49558  0.44056  1.0000
  C   C1728     1.0  0.46140  0.55876  0.26238  1.0000
  H   H3042     1.0  0.53933  0.68594  0.10031  1.0000
  H   H3043     1.0  0.36669  0.56659  0.29866  1.0000
  H   H3044     1.0  0.46952  0.53374  0.39916  1.0000
  H   H3045     1.0  0.62490  0.55887  0.36361  1.0000
  H   H3046     1.0  0.36610  0.67231  0.09733  1.0000
  C   C1729     1.0  0.34536  0.72532  0.99001  1.0000
  C   C1730     1.0  0.45323  0.53063  0.44768  1.0000
  S   S384      1.0  0.38866  0.57280  0.18541  1.0000
  C   C1731     1.0  0.35024  0.54563  0.11173  1.0000
  C   C1732     1.0  0.42874  0.70747  0.99423  1.0000
  H   H3047     1.0  0.46536  0.53586  0.44857  1.0000
  H   H3048     1.0  0.42623  0.58275  0.41723  1.0000
  H   H3049     1.0  0.58595  0.56287  0.31443  1.0000
  S   S385      1.0  0.34596  0.56621  0.20511  1.0000
  C   C1733     1.0  0.64212  0.65075  0.23426  1.0000
  C   C1734     1.0  0.62611  0.56846  0.39570  1.0000
  H   H3050     1.0  0.33356  0.50365  0.34478  1.0000
  C   C1735     1.0  0.40193  0.54089  0.24196  1.0000
  C   C1736     1.0  0.40344  0.59164  0.23947  1.0000
  S   S386      1.0  0.36865  0.51042  0.35684  1.0000
  H   H3051     1.0  0.38375  0.71564  0.05131  1.0000
  H   H3052     1.0  0.61808  0.67320  0.06277  1.0000
  H   H3053     1.0  0.46362  0.56483  0.36066  1.0000
  H   H3054     1.0  0.45532  0.55865  0.23645  1.0000
  H   H3055     1.0  0.42862  0.52297  0.46922  1.0000
  H   H3056     1.0  0.34898  0.64394  0.16510  1.0000
  C   C1737     1.0  0.40221  0.58785  0.43894  1.0000
  H   H3057     1.0  0.39868  0.58749  0.27031  1.0000
  C   C1738     1.0  0.35646  0.55811  0.30775  1.0000
  H   H3058     1.0  0.59497  0.63336  0.24064  1.0000
  H   H3059     1.0  0.35270  0.71220  0.08667  1.0000
  S   S387      1.0  0.63818  0.67588  0.15224  1.0000
  H   H3060     1.0  0.37115  0.53358  0.29733  1.0000
  N   N92       1.0  0.35469  0.66039  0.12637  1.0000
  C   C1739     1.0  0.35557  0.67648  0.10959  1.0000
  C   C1740     1.0  0.34118  0.66791  0.14271  1.0000
  C   C1741     1.0  0.37349  0.65176  0.13158  1.0000
  C   C1742     1.0  0.39108  0.65195  0.11530  1.0000
  C   C1743     1.0  0.35951  0.69442  0.11281  1.0000
  H   H3061     1.0  0.35186  0.71921  0.04612  1.0000
  C   C1744     1.0  0.40867  0.63972  0.12175  1.0000
  C   C1745     1.0  0.36423  0.70828  0.09437  1.0000
  H   H3062     1.0  0.40986  0.56775  0.42150  1.0000
  H   H3063     1.0  0.50030  0.54163  0.38753  1.0000
  H   H3064     1.0  0.34691  0.67797  0.14685  1.0000
  H   H3065     1.0  0.37578  0.65892  0.14164  1.0000
  H   H3066     1.0  0.37374  0.63698  0.13930  1.0000
  H   H3067     1.0  0.39359  0.66640  0.10982  1.0000
  H   H3068     1.0  0.38960  0.64691  0.10345  1.0000
  H   H3069     1.0  0.65049  0.63677  0.02388  1.0000
  H   H3070     1.0  0.37118  0.69096  0.12022  1.0000
  H   H3071     1.0  0.34220  0.68055  0.10468  1.0000
  C   C1746     1.0  0.60429  0.62399  0.12302  1.0000
  H   H3072     1.0  0.42083  0.63990  0.10972  1.0000
  H   H3073     1.0  0.41165  0.64510  0.13270  1.0000
  H   H3074     1.0  0.40697  0.62499  0.12744  1.0000
  C   C1747     1.0  0.64013  0.68245  0.23692  1.0000
  H   H3075     1.0  0.36014  0.50693  0.20051  1.0000
  H   H3076     1.0  0.33242  0.70254  0.17556  1.0000
  C   C1748     1.0  0.45387  0.56923  0.24478  1.0000
  C   C1749     1.0  0.64764  0.70911  0.06632  1.0000
  C   C1750     1.0  0.63234  0.63380  0.05175  1.0000
  C   C1751     1.0  0.63111  0.60566  0.29128  1.0000
  H   H3077     1.0  0.43036  0.52176  0.27331  1.0000
  C   C1752     1.0  0.63326  0.59162  0.23265  1.0000
  Fe  Fe180     1.0  0.33746  0.59759  0.20080  1.0000
  C   C1753     1.0  0.41518  0.53846  0.22548  1.0000
  C   C1754     1.0  0.61584  0.61917  0.28116  1.0000
  H   H3078     1.0  0.33203  0.72997  0.22211  1.0000
  H   H3079     1.0  0.55107  0.54089  0.47148  1.0000
  H   H3080     1.0  0.57885  0.63308  0.28269  1.0000
  S   S388      1.0  0.37833  0.55181  0.24166  1.0000
  C   C1755     1.0  0.62744  0.60372  0.24734  1.0000
  H   H3081     1.0  0.63780  0.71370  0.07873  1.0000
  C   C1756     1.0  0.61196  0.50159  0.40029  1.0000
  H   H3082     1.0  0.33554  0.69888  0.04854  1.0000
  C   C1757     1.0  0.55220  0.49320  0.31339  1.0000
  H   H3083     1.0  0.48261  0.56280  0.38472  1.0000
  H   H3084     1.0  0.41099  0.54302  0.21214  1.0000
  H   H3085     1.0  0.63585  0.64591  0.05464  1.0000
  H   H3086     1.0  0.61570  0.54602  0.34535  1.0000
  C   C1758     1.0  0.43198  0.58407  0.21636  1.0000
  H   H3087     1.0  0.33375  0.50904  0.27987  1.0000
  H   H3088     1.0  0.50837  0.72689  0.14348  1.0000
  H   H3089     1.0  0.52403  0.49287  0.20896  1.0000
  C   C1759     1.0  0.35776  0.63651  0.10588  1.0000
  C   C1760     1.0  0.39279  0.59714  0.25847  1.0000
  H   H3090     1.0  0.35269  0.53037  0.18803  1.0000
  C   C1761     1.0  0.62163  0.49305  0.41478  1.0000
  H   H3091     1.0  0.39338  0.61165  0.25838  1.0000
  H   H3092     1.0  0.39435  0.59864  0.42911  1.0000
  C   C1762     1.0  0.46231  0.70063  0.17879  1.0000
  H   H3093     1.0  0.49831  0.48458  0.23675  1.0000
  H   H3094     1.0  0.42886  0.69770  0.00804  1.0000
  S   S389      1.0  0.33265  0.52774  0.39621  1.0000
  C   C1763     1.0  0.57360  0.57453  0.31317  1.0000
  H   H3095     1.0  0.60011  0.59658  0.25630  1.0000
  C   C1764     1.0  0.58618  0.62536  0.27118  1.0000
  H   H3096     1.0  0.64413  0.68766  0.00543  1.0000
  H   H3097     1.0  0.47580  0.70100  0.14208  1.0000
  H   H3098     1.0  0.49409  0.70243  0.15166  1.0000
  H   H3099     1.0  0.55375  0.57045  0.44764  1.0000
  H   H3100     1.0  0.44413  0.52818  0.21347  1.0000
  C   C1765     1.0  0.64154  0.66343  0.24504  1.0000
  H   H3101     1.0  0.58111  0.58275  0.28319  1.0000
  H   H3102     1.0  0.63359  0.51678  0.32067  1.0000
  H   H3103     1.0  0.36314  0.51147  0.45024  1.0000
  C   C1766     1.0  0.57441  0.65609  0.25016  1.0000
  S   S390      1.0  0.36917  0.50145  0.41182  1.0000
  H   H3104     1.0  0.43256  0.57165  0.18469  1.0000
  H   H3105     1.0  0.60511  0.58644  0.30063  1.0000
  C   C1767     1.0  0.36036  0.54532  0.12484  1.0000
  H   H3106     1.0  0.45578  0.69204  0.17358  1.0000
  H   H3107     1.0  0.47498  0.69179  0.18377  1.0000
  H   H3108     1.0  0.45211  0.70575  0.19086  1.0000
  C   C1768     1.0  0.57779  0.58942  0.29541  1.0000
  C   C1769     1.0  0.45736  0.55356  0.41812  1.0000
  H   H3109     1.0  0.35709  0.56929  0.45124  1.0000
  H   H3110     1.0  0.53664  0.53744  0.28673  1.0000
  H   H3111     1.0  0.58884  0.60659  0.30673  1.0000
  C   C1770     1.0  0.52520  0.57525  0.46566  1.0000
  N   N93       1.0  0.52026  0.59647  0.46121  1.0000
  C   C1771     1.0  0.52302  0.60389  0.44029  1.0000
  C   C1772     1.0  0.49972  0.60259  0.46961  1.0000
  C   C1773     1.0  0.53136  0.60438  0.46993  1.0000
  C   C1774     1.0  0.55272  0.60118  0.46199  1.0000
  C   C1775     1.0  0.51723  0.62545  0.43373  1.0000
  H   H3112     1.0  0.39745  0.53684  0.27189  1.0000
  C   C1776     1.0  0.37213  0.59640  0.26230  1.0000
  C   C1777     1.0  0.52243  0.63142  0.41241  1.0000
  H   H3113     1.0  0.33506  0.63961  0.21682  1.0000
  H   H3114     1.0  0.51490  0.59745  0.43439  1.0000
  H   H3115     1.0  0.53776  0.59962  0.43310  1.0000
  H   H3116     1.0  0.49099  0.59915  0.46174  1.0000
  H   H3117     1.0  0.49583  0.61805  0.46823  1.0000
  H   H3118     1.0  0.53884  0.49202  0.32383  1.0000
  H   H3119     1.0  0.42130  0.50712  0.41610  1.0000
  H   H3120     1.0  0.55614  0.60641  0.44662  1.0000
  H   H3121     1.0  0.44208  0.70347  0.98429  1.0000
  H   H3122     1.0  0.50185  0.63023  0.43792  1.0000
  H   H3123     1.0  0.52427  0.63294  0.43965  1.0000
  S   S391      1.0  0.64130  0.64025  0.20282  1.0000
  H   H3124     1.0  0.47063  0.49059  0.35899  1.0000
  H   H3125     1.0  0.45484  0.60959  0.23302  1.0000
  H   H3126     1.0  0.35038  0.69582  0.98759  1.0000
  H   H3127     1.0  0.51757  0.64680  0.40809  1.0000
  H   H3128     1.0  0.53784  0.62796  0.40733  1.0000
  H   H3129     1.0  0.51567  0.62438  0.40567  1.0000
  H   H3130     1.0  0.36920  0.54253  0.37531  1.0000
  H   H3131     1.0  0.56960  0.58080  0.32574  1.0000
  C   C1778     1.0  0.58340  0.49620  0.36229  1.0000
  C   C1779     1.0  0.35677  0.54220  0.29868  1.0000
  H   H3132     1.0  0.43007  0.56943  0.21923  1.0000
  C   C1780     1.0  0.32346  0.70584  0.04183  1.0000
  C   C1781     1.0  0.44509  0.63698  0.21758  1.0000
  H   H3133     1.0  0.46298  0.56223  0.42423  1.0000
  H   H3134     1.0  0.35642  0.53719  0.10123  1.0000
  H   H3135     1.0  0.37225  0.72165  0.00482  1.0000
  C   C1782     1.0  0.41028  0.51642  0.42442  1.0000
  C   C1783     1.0  0.36562  0.52203  0.45599  1.0000
  N   N94       1.0  0.42678  0.53547  0.35260  1.0000
  C   C1784     1.0  0.42418  0.54594  0.33317  1.0000
  C   C1785     1.0  0.43865  0.54434  0.35965  1.0000
  C   C1786     1.0  0.43726  0.51572  0.35134  1.0000
  C   C1787     1.0  0.40832  0.53431  0.36619  1.0000
  C   C1788     1.0  0.39479  0.55321  0.36846  1.0000
  C   C1789     1.0  0.41208  0.53870  0.32420  1.0000
  C   C1790     1.0  0.44164  0.50280  0.37007  1.0000
  C   C1791     1.0  0.43801  0.56564  0.35223  1.0000
  C   C1792     1.0  0.44890  0.57278  0.36225  1.0000
  C   C1793     1.0  0.37609  0.55010  0.38135  1.0000
  C   C1794     1.0  0.40959  0.55121  0.30517  1.0000
  H   H3136     1.0  0.65327  0.50286  0.38132  1.0000
  H   H3137     1.0  0.43809  0.54583  0.32341  1.0000
  H   H3138     1.0  0.41767  0.56091  0.33292  1.0000
  H   H3139     1.0  0.43515  0.54174  0.37524  1.0000
  C   C1795     1.0  0.63815  0.68886  0.21822  1.0000
  H   H3140     1.0  0.41805  0.55299  0.45330  1.0000
  H   H3141     1.0  0.42926  0.50833  0.34637  1.0000
  H   H3142     1.0  0.40090  0.52537  0.36246  1.0000
  H   H3143     1.0  0.41062  0.52697  0.38046  1.0000
  H   H3144     1.0  0.39180  0.56176  0.35484  1.0000
  H   H3145     1.0  0.40080  0.56119  0.37490  1.0000
  H   H3146     1.0  0.41894  0.52454  0.32169  1.0000
  H   H3147     1.0  0.39793  0.53834  0.33319  1.0000
  H   H3148     1.0  0.62037  0.70044  0.01090  1.0000
  H   H3149     1.0  0.47730  0.72582  0.00956  1.0000
  H   H3150     1.0  0.44464  0.56841  0.33705  1.0000
  H   H3151     1.0  0.42350  0.57395  0.35416  1.0000
  N   N95       1.0  0.42409  0.59177  0.23398  1.0000
  H   H3152     1.0  0.63208  0.62433  0.02702  1.0000
  C   C1796     1.0  0.41713  0.57424  0.42823  1.0000
  H   H3153     1.0  0.37811  0.54188  0.39543  1.0000
  H   H3154     1.0  0.40115  0.54544  0.29903  1.0000
  H   H3155     1.0  0.40218  0.56565  0.30673  1.0000
  H   H3156     1.0  0.42339  0.55163  0.29542  1.0000
  H   H3157     1.0  0.60093  0.63935  0.11754  1.0000
  H   H3158     1.0  0.34694  0.70177  0.12153  1.0000
  H   H3159     1.0  0.60330  0.62155  0.13834  1.0000
  C   C1797     1.0  0.51643  0.70360  0.11590  1.0000
  H   H3160     1.0  0.63684  0.68111  0.19311  1.0000
  H   H3161     1.0  0.42555  0.56745  0.25691  1.0000
  H   H3162     1.0  0.52619  0.71087  0.11840  1.0000
  C   C1798     1.0  0.34662  0.64588  0.12252  1.0000
  Fe  Fe181     1.0  0.47199  0.50307  0.27194  1.0000
  H   H3163     1.0  0.59537  0.49032  0.36937  1.0000
  H   H3164     1.0  0.45256  0.61052  0.20956  1.0000
  H   H3165     1.0  0.61911  0.63293  0.08724  1.0000
  H   H3166     1.0  0.63677  0.59268  0.28567  1.0000
  C   C1799     1.0  0.64398  0.61504  0.06081  1.0000
  C   C1800     1.0  0.45595  0.73163  0.11838  1.0000
  C   C1801     1.0  0.33480  0.56750  0.13891  1.0000
  H   H3167     1.0  0.42488  0.60992  0.19542  1.0000
  H   H3168     1.0  0.39379  0.71136  0.02806  1.0000
  H   H3169     1.0  0.40276  0.52797  0.41489  1.0000
  H   H3170     1.0  0.57733  0.60863  0.46505  1.0000
  H   H3171     1.0  0.39600  0.60139  0.22878  1.0000
  H   H3172     1.0  0.45945  0.63970  0.21197  1.0000
  C   C1802     1.0  0.64885  0.72610  0.04967  1.0000
  C   C1803     1.0  0.34534  0.69280  0.23382  1.0000
  H   H3173     1.0  0.51690  0.68787  0.09533  1.0000
  H   H3174     1.0  0.36284  0.71238  0.16582  1.0000
  C   C1804     1.0  0.62589  0.61808  0.09213  1.0000
  H   H3175     1.0  0.40125  0.57756  0.23996  1.0000
  C   C1805     1.0  0.48148  0.71101  0.14636  1.0000
  N   N96       1.0  0.44310  0.54409  0.43303  1.0000
  H   H3176     1.0  0.57024  0.49575  0.37310  1.0000
  H   H3177     1.0  0.64522  0.59611  0.22173  1.0000
  C   C1806     1.0  0.49744  0.71705  0.11350  1.0000
  C   C1807     1.0  0.38994  0.49531  0.35013  1.0000
  S   S392      1.0  0.64174  0.69820  0.24961  1.0000
  H   H3178     1.0  0.39225  0.50825  0.32087  1.0000
  H   H3179     1.0  0.46055  0.56853  0.27138  1.0000
  C   C1808     1.0  0.36123  0.71600  0.01636  1.0000
  C   C1809     1.0  0.42609  0.61174  0.23095  1.0000
  H   H3180     1.0  0.42134  0.61664  0.24438  1.0000
  H   H3181     1.0  0.41665  0.62125  0.22183  1.0000
  C   C1810     1.0  0.43303  0.57917  0.24985  1.0000
  H   H3182     1.0  0.56172  0.56872  0.31278  1.0000
  H   H3183     1.0  0.45087  0.56346  0.40681  1.0000
  H   H3184     1.0  0.60274  0.64628  0.25306  1.0000
  C   C1811     1.0  0.43373  0.58652  0.18190  1.0000
  H   H3185     1.0  0.61647  0.58324  0.27016  1.0000
  H   H3186     1.0  0.40866  0.59451  0.20151  1.0000
  C   C1812     1.0  0.41651  0.48665  0.32556  1.0000
  Fe  Fe182     1.0  0.36312  0.57209  0.17579  1.0000
  H   H3187     1.0  0.40876  0.59504  0.44575  1.0000
  H   H3188     1.0  0.33717  0.69499  0.01722  1.0000
  H   H3189     1.0  0.55913  0.58607  0.46544  1.0000
  H   H3190     1.0  0.62379  0.61841  0.24000  1.0000
  C   C1813     1.0  0.62404  0.61546  0.11355  1.0000
  C   C1814     1.0  0.33443  0.65123  0.22353  1.0000
  H   H3191     1.0  0.47628  0.55180  0.25829  1.0000
  H   H3192     1.0  0.63987  0.60217  0.25315  1.0000
  H   H3193     1.0  0.42727  0.59438  0.16977  1.0000
  C   C1815     1.0  0.44189  0.73014  0.00407  1.0000
  N   N97       1.0  0.60210  0.61015  0.27732  1.0000
  H   H3194     1.0  0.53574  0.56759  0.43807  1.0000
  H   H3195     1.0  0.44873  0.58734  0.17812  1.0000
  C   C1816     1.0  0.59405  0.59822  0.29564  1.0000
  H   H3196     1.0  0.44731  0.58304  0.21191  1.0000
  H   H3197     1.0  0.57826  0.66612  0.23682  1.0000
  H   H3198     1.0  0.45399  0.72570  0.15945  1.0000
  H   H3199     1.0  0.37381  0.51846  0.27525  1.0000
  H   H3200     1.0  0.63808  0.72541  0.13994  1.0000
  N   N98       1.0  0.48677  0.72627  0.12976  1.0000
  C   C1817     1.0  0.44194  0.52689  0.46821  1.0000
  C   C1818     1.0  0.33494  0.71350  0.16331  1.0000
  H   H3201     1.0  0.62839  0.53872  0.38146  1.0000
  C   C1819     1.0  0.52691  0.50153  0.23244  1.0000
  H   H3202     1.0  0.61308  0.72653  0.02886  1.0000
  H   H3203     1.0  0.62682  0.60035  0.12028  1.0000
  H   H3204     1.0  0.53219  0.53833  0.46246  1.0000
  H   H3205     1.0  0.62664  0.64941  0.02469  1.0000
  H   H3206     1.0  0.48128  0.52917  0.41819  1.0000
  C   C1820     1.0  0.63828  0.67614  0.20752  1.0000
  Fe  Fe183     1.0  0.35588  0.50439  0.38778  1.0000
  H   H3207     1.0  0.61404  0.57671  0.38932  1.0000
  H   H3208     1.0  0.52885  0.70722  0.08598  1.0000
  C   C1821     1.0  0.52686  0.48600  0.22307  1.0000
  C   C1822     1.0  0.62577  0.71987  0.03490  1.0000
  C   C1823     1.0  0.63348  0.69440  0.01623  1.0000
  C   C1824     1.0  0.42851  0.55913  0.44159  1.0000
  H   H3209     1.0  0.60967  0.71758  0.07574  1.0000
  C   C1825     1.0  0.61924  0.50212  0.42936  1.0000
  H   H3210     1.0  0.59372  0.72762  0.06044  1.0000
  C   C1826     1.0  0.62822  0.53800  0.33721  1.0000
  S   S393      1.0  0.41099  0.72351  0.17149  1.0000
  H   H3211     1.0  0.34730  0.52457  0.32460  1.0000
  C   C1827     1.0  0.36352  0.72139  0.03395  1.0000
  C   C1828     1.0  0.43484  0.53378  0.42376  1.0000
  H   H3212     1.0  0.61067  0.53190  0.32204  1.0000
  H   H3213     1.0  0.51280  0.56947  0.46696  1.0000
  H   H3214     1.0  0.63764  0.57663  0.23915  1.0000
  N   N99       1.0  0.64555  0.61367  0.08062  1.0000
  H   H3215     1.0  0.44574  0.52229  0.41835  1.0000
  C   C1829     1.0  0.37219  0.54919  0.47104  1.0000
  H   H3216     1.0  0.33372  0.66980  0.18118  1.0000
  H   H3217     1.0  0.36542  0.70048  0.01812  1.0000
  H   H3218     1.0  0.62135  0.70875  0.04686  1.0000
  H   H3219     1.0  0.42388  0.51251  0.44695  1.0000
  N   N100      1.0  0.34102  0.51418  0.30347  1.0000
  H   H3220     1.0  0.32992  0.49835  0.14384  1.0000
  H   H3221     1.0  0.36609  0.72123  0.09732  1.0000
  C   C1830     1.0  0.51276  0.71265  0.98352  1.0000
  Fe  Fe184     1.0  0.56514  0.71879  0.03578  1.0000
  H   H3222     1.0  0.32893  0.55536  0.35307  1.0000
  C   C1831     1.0  0.35960  0.50045  0.30047  1.0000
  S   S394      1.0  0.64520  0.63140  0.33207  1.0000
  C   C1832     1.0  0.64049  0.65698  0.21552  1.0000
  H   H3223     1.0  0.55157  0.48665  0.30215  1.0000
  H   H3224     1.0  0.52015  0.70518  0.99459  1.0000
  C   C1833     1.0  0.45741  0.48595  0.36665  1.0000
  H   H3225     1.0  0.51302  0.51126  0.23398  1.0000
  H   H3226     1.0  0.63429  0.54781  0.32478  1.0000
  C   C1834     1.0  0.32992  0.70901  0.02025  1.0000
  H   H3227     1.0  0.40010  0.50799  0.43376  1.0000
  H   H3228     1.0  0.61610  0.70838  0.13292  1.0000
  H   H3229     1.0  0.64526  0.58411  0.08848  1.0000
  C   C1835     1.0  0.62195  0.71394  0.11799  1.0000
  C   C1836     1.0  0.37580  0.51667  0.47018  1.0000
  H   H3230     1.0  0.36752  0.49974  0.31119  1.0000
  C   C1837     1.0  0.36229  0.55460  0.45655  1.0000
  H   H3231     1.0  0.61589  0.51373  0.34193  1.0000
  H   H3232     1.0  0.45937  0.51685  0.44356  1.0000
  H   H3233     1.0  0.33889  0.50697  0.18111  1.0000
  H   H3234     1.0  0.41216  0.73128  0.00539  1.0000
  H   H3235     1.0  0.35821  0.73255  0.24188  1.0000
  N   N101      1.0  0.34233  0.72302  0.01100  1.0000
  C   C1838     1.0  0.42602  0.72766  0.99615  1.0000
  H   H3236     1.0  0.63686  0.70362  0.21191  1.0000
  C   C1839     1.0  0.33737  0.72984  0.26765  1.0000
  H   H3237     1.0  0.63073  0.68349  0.02910  1.0000
  H   H3238     1.0  0.35737  0.48595  0.30272  1.0000
  H   H3239     1.0  0.58096  0.49382  0.28036  1.0000
  H   H3240     1.0  0.64380  0.71965  0.00672  1.0000
  C   C1840     1.0  0.39882  0.49761  0.33118  1.0000
  H   H3241     1.0  0.34885  0.65319  0.22156  1.0000
  H   H3242     1.0  0.46228  0.72679  0.10502  1.0000
  H   H3243     1.0  0.61133  0.71506  0.10991  1.0000
  C   C1841     1.0  0.33385  0.52121  0.28550  1.0000
  H   H3244     1.0  0.50027  0.72792  0.10060  1.0000
  H   H3245     1.0  0.63515  0.51798  0.36155  1.0000
  H   H3246     1.0  0.64195  0.62860  0.29387  1.0000
  H   H3247     1.0  0.34642  0.68008  0.24518  1.0000
  S   S395      1.0  0.36666  0.72859  0.19300  1.0000
  C   C1842     1.0  0.62605  0.73319  0.11579  1.0000
  H   H3248     1.0  0.32730  0.64463  0.15886  1.0000
  H   H3249     1.0  0.47313  0.72567  0.16961  1.0000
  H   H3250     1.0  0.64745  0.57272  0.37097  1.0000
  H   H3251     1.0  0.34273  0.61353  0.11483  1.0000
  C   C1843     1.0  0.64229  0.56062  0.38100  1.0000
  H   H3252     1.0  0.65149  0.51938  0.39531  1.0000
  C   C1844     1.0  0.34667  0.62423  0.10207  1.0000
  H   H3253     1.0  0.64433  0.63599  0.24035  1.0000
  H   H3254     1.0  0.64317  0.69775  0.06304  1.0000
  H   H3255     1.0  0.32887  0.57608  0.14929  1.0000
  C   C1845     1.0  0.64728  0.61503  0.28928  1.0000
  S   S396      1.0  0.65124  0.65305  0.11734  1.0000
  C   C1846     1.0  0.64268  0.73179  0.12484  1.0000
  C   C1847     1.0  0.58468  0.48462  0.34806  1.0000
  C   C1848     1.0  0.37900  0.53020  0.47779  1.0000
  C   C1849     1.0  0.35715  0.70805  0.98172  1.0000
  H   H3256     1.0  0.33650  0.57710  0.34182  1.0000
  S   S397      1.0  0.32661  0.50223  0.43884  1.0000
  C   C1850     1.0  0.32485  0.66270  0.17704  1.0000
  H   H3257     1.0  0.32387  0.49339  0.31192  1.0000
  H   H3258     1.0  0.33403  0.58802  0.27828  1.0000
  C   C1851     1.0  0.32576  0.64665  0.24442  1.0000
  H   H3259     1.0  0.33176  0.72884  0.98562  1.0000
  H   H3260     1.0  0.65356  0.55206  0.38832  1.0000
  N   N102      1.0  0.65101  0.53932  0.35687  1.0000
  H   H3261     1.0  0.64748  0.56489  0.33561  1.0000
  H   H3262     1.0  0.65376  0.51770  0.34174  1.0000
  C   C1852     1.0  0.32953  0.56915  0.35524  1.0000
  H   H3263     1.0  0.37455  0.55967  0.47698  1.0000
  H   H3264     1.0  0.65501  0.61763  0.27450  1.0000
  H   H3265     1.0  0.33705  0.55720  0.00735  1.0000
  H   H3266     1.0  0.32620  0.66439  0.21650  1.0000
  C   C1853     1.0  0.32490  0.70301  0.23497  1.0000
  H   H3267     1.0  0.59871  0.48402  0.33860  1.0000
  Fe  Fe185     1.0  0.65406  0.68563  0.27549  1.0000
  H   H3268     1.0  0.34341  0.53602  0.99817  1.0000
  C   C1854     1.0  0.32334  0.72139  0.21971  1.0000
  H   H3269     1.0  0.32256  0.64887  0.28030  1.0000
  C   C1855     1.0  0.32441  0.56753  0.12584  1.0000
  H   H3270     1.0  0.32382  0.57438  0.26919  1.0000
  Fe  Fe186     1.0  0.65493  0.65711  0.31238  1.0000
  H   H3271     1.0  0.32465  0.51816  0.12533  1.0000
  H   H3272     1.0  0.32498  0.52857  0.15350  1.0000
  C   C1856     1.0  0.65418  0.59369  0.08854  1.0000
  H   H3273     1.0  0.65456  0.72102  0.11931  1.0000
  C   C1857     1.0  0.33407  0.55011  0.99767  1.0000
  H   H3274     1.0  0.65370  0.70301  0.02535  1.0000
  H   H3275     1.0  0.65468  0.59193  0.10344  1.0000
  H   H3276     1.0  0.61581  0.48389  0.27655  1.0000
  H   H3277     1.0  0.33720  0.55853  0.98319  1.0000
  C   C1858     1.0  0.36161  0.66254  0.69846  1.0000
  S   S398      1.0  0.35152  0.65434  0.61536  1.0000
  H   H3278     1.0  0.46153  0.66521  0.94109  1.0000
  H   H3279     1.0  0.41424  0.49876  0.73412  1.0000
  H   H3280     1.0  0.32968  0.63810  0.65461  1.0000
  H   H3281     1.0  0.52060  0.68202  0.89648  1.0000
  Fe  Fe187     1.0  0.34430  0.66748  0.58725  1.0000
  S   S399      1.0  0.36575  0.66923  0.56018  1.0000
  Fe  Fe188     1.0  0.32949  0.67785  0.62582  1.0000
  Fe  Fe189     1.0  0.32775  0.64029  0.61990  1.0000
  H   H3282     1.0  0.33094  0.59487  0.84322  1.0000
  H   H3283     1.0  0.32237  0.65376  0.81359  1.0000
  H   H3284     1.0  0.34162  0.50818  0.64775  1.0000
  Fe  Fe190     1.0  0.37445  0.65979  0.81769  1.0000
  S   S400      1.0  0.39823  0.63978  0.82932  1.0000
  S   S401      1.0  0.37899  0.68572  0.79599  1.0000
  Fe  Fe191     1.0  0.34512  0.63927  0.84387  1.0000
  S   S402      1.0  0.36647  0.61759  0.85799  1.0000
  H   H3285     1.0  0.44628  0.50259  0.72483  1.0000
  Fe  Fe192     1.0  0.37904  0.64186  0.85740  1.0000
  S   S403      1.0  0.38551  0.64639  0.88354  1.0000
  Fe  Fe193     1.0  0.38359  0.61757  0.82865  1.0000
  S   S404      1.0  0.39864  0.59205  0.81603  1.0000
  S   S405      1.0  0.35616  0.66334  0.84559  1.0000
  S   S406      1.0  0.36147  0.63764  0.81474  1.0000
  Fe  Fe194     1.0  0.34942  0.57419  0.72651  1.0000
  S   S407      1.0  0.37312  0.55260  0.73627  1.0000
  S   S408      1.0  0.35197  0.60353  0.71137  1.0000
  H   H3286     1.0  0.34406  0.60236  0.58661  1.0000
  H   H3287     1.0  0.37451  0.59031  0.61118  1.0000
  Fe  Fe195     1.0  0.35258  0.54622  0.76316  1.0000
  S   S409      1.0  0.35861  0.54089  0.79194  1.0000
  C   C1859     1.0  0.32527  0.54645  0.64333  1.0000
  S   S410      1.0  0.33959  0.55497  0.71490  1.0000
  Fe  Fe196     1.0  0.43409  0.71647  0.91097  1.0000
  H   H3288     1.0  0.43126  0.67215  0.93044  1.0000
  S   S411      1.0  0.43333  0.70273  0.88770  1.0000
  Fe  Fe197     1.0  0.45732  0.71757  0.93844  1.0000
  H   H3289     1.0  0.38613  0.51805  0.76580  1.0000
  S   S412      1.0  0.47902  0.70141  0.95574  1.0000
  H   H3290     1.0  0.36026  0.51369  0.62916  1.0000
  H   H3291     1.0  0.37092  0.48797  0.54729  1.0000
  C   C1860     1.0  0.38173  0.64527  0.67304  1.0000
  S   S413      1.0  0.32977  0.56960  0.75423  1.0000
  S   S414      1.0  0.43201  0.70556  0.94210  1.0000
  H   H3292     1.0  0.38537  0.71094  0.71410  1.0000
  Fe  Fe198     1.0  0.39090  0.58473  0.51316  1.0000
  S   S415      1.0  0.41391  0.57700  0.52910  1.0000
  S   S416      1.0  0.37366  0.61402  0.50721  1.0000
  Fe  Fe199     1.0  0.39699  0.54562  0.50631  1.0000
  S   S417      1.0  0.42014  0.53492  0.52184  1.0000
  Fe  Fe200     1.0  0.40190  0.55128  0.54305  1.0000
  S   S418      1.0  0.39582  0.53921  0.57427  1.0000
  Fe  Fe201     1.0  0.43006  0.56126  0.50628  1.0000
  S   S419      1.0  0.37769  0.56014  0.52868  1.0000
  C   C1861     1.0  0.40978  0.51688  0.58038  1.0000
  H   H3293     1.0  0.38587  0.49380  0.75095  1.0000
  H   H3294     1.0  0.33537  0.57722  0.81803  1.0000
  H   H3295     1.0  0.49502  0.57856  0.49329  1.0000
  H   H3296     1.0  0.32494  0.68356  0.77344  1.0000
  H   H3297     1.0  0.43209  0.52107  0.55626  1.0000
  H   H3298     1.0  0.40285  0.55578  0.65775  1.0000
  H   H3299     1.0  0.32220  0.53432  0.63998  1.0000
  H   H3300     1.0  0.40673  0.71487  0.77227  1.0000
  H   H3301     1.0  0.35119  0.57923  0.65823  1.0000
  C   C1862     1.0  0.38908  0.60517  0.62799  1.0000
  H   H3302     1.0  0.42684  0.71372  0.78129  1.0000
  C   C1863     1.0  0.35296  0.58805  0.58864  1.0000
  S   S420      1.0  0.46085  0.72636  0.90708  1.0000
  H   H3303     1.0  0.34815  0.50341  0.54729  1.0000
  C   C1864     1.0  0.33601  0.62466  0.66194  1.0000
  C   C1865     1.0  0.34811  0.59146  0.66405  1.0000
  H   H3304     1.0  0.43381  0.65143  0.94870  1.0000
  H   H3305     1.0  0.33909  0.69345  0.71193  1.0000
  H   H3306     1.0  0.35742  0.67536  0.68789  1.0000
  H   H3307     1.0  0.37440  0.48775  0.51371  1.0000
  H   H3308     1.0  0.36078  0.57710  0.68759  1.0000
  C   C1866     1.0  0.39987  0.61138  0.60763  1.0000
  H   H3309     1.0  0.41148  0.58199  0.57636  1.0000
  H   H3310     1.0  0.35109  0.64977  0.49124  1.0000
  C   C1867     1.0  0.39786  0.66316  0.88414  1.0000
  C   C1868     1.0  0.39634  0.66792  0.90133  1.0000
  C   C1869     1.0  0.40654  0.68052  0.90259  1.0000
  C   C1870     1.0  0.41882  0.68810  0.88674  1.0000
  C   C1871     1.0  0.42022  0.68348  0.86953  1.0000
  C   C1872     1.0  0.40968  0.67123  0.86817  1.0000
  H   H3311     1.0  0.38721  0.66179  0.91375  1.0000
  H   H3312     1.0  0.40504  0.68416  0.91586  1.0000
  H   H3313     1.0  0.42964  0.68927  0.85716  1.0000
  H   H3314     1.0  0.41105  0.66765  0.85488  1.0000
  C   C1873     1.0  0.38546  0.57950  0.80964  1.0000
  C   C1874     1.0  0.38137  0.58437  0.79170  1.0000
  C   C1875     1.0  0.37280  0.57290  0.78606  1.0000
  C   C1876     1.0  0.36838  0.55647  0.79838  1.0000
  C   C1877     1.0  0.37227  0.55181  0.81632  1.0000
  C   C1878     1.0  0.38082  0.56318  0.82188  1.0000
  H   H3315     1.0  0.38533  0.59671  0.78201  1.0000
  H   H3316     1.0  0.36994  0.57660  0.77214  1.0000
  H   H3317     1.0  0.36895  0.53915  0.82591  1.0000
  H   H3318     1.0  0.38418  0.55915  0.83561  1.0000
  C   C1879     1.0  0.41668  0.51132  0.73735  1.0000
  H   H3319     1.0  0.41300  0.63710  0.53906  1.0000
  S   S421      1.0  0.32879  0.68748  0.65194  1.0000
  H   H3320     1.0  0.42883  0.50841  0.69987  1.0000
  H   H3321     1.0  0.36701  0.61268  0.59762  1.0000
  H   H3322     1.0  0.36272  0.49519  0.78194  1.0000
  H   H3323     1.0  0.32191  0.63121  0.56035  1.0000
  H   H3324     1.0  0.35221  0.65304  0.69951  1.0000
  H   H3325     1.0  0.39619  0.50199  0.78399  1.0000
  C   C1880     1.0  0.33411  0.69212  0.77392  1.0000
  C   C1881     1.0  0.34833  0.68445  0.78403  1.0000
  C   C1882     1.0  0.36081  0.69520  0.78393  1.0000
  C   C1883     1.0  0.33905  0.66041  0.48675  1.0000
  C   C1884     1.0  0.33649  0.60058  0.82823  1.0000
  C   C1885     1.0  0.43075  0.49153  0.76416  1.0000
  H   H3326     1.0  0.34986  0.67012  0.79144  1.0000
  H   H3327     1.0  0.44467  0.50893  0.49528  1.0000
  H   H3328     1.0  0.43938  0.52721  0.72581  1.0000
  C   C1886     1.0  0.36761  0.65353  0.54591  1.0000
  C   C1887     1.0  0.36097  0.63686  0.55309  1.0000
  C   C1888     1.0  0.36332  0.62435  0.54139  1.0000
  C   C1889     1.0  0.37221  0.62851  0.52250  1.0000
  C   C1890     1.0  0.37852  0.64530  0.51530  1.0000
  C   C1891     1.0  0.37644  0.65763  0.52700  1.0000
  H   H3329     1.0  0.35436  0.63343  0.56770  1.0000
  H   H3330     1.0  0.35795  0.61163  0.54683  1.0000
  H   H3331     1.0  0.36797  0.48925  0.66695  1.0000
  H   H3332     1.0  0.38161  0.67047  0.52135  1.0000
  H   H3333     1.0  0.40565  0.49045  0.53182  1.0000
  H   H3334     1.0  0.33729  0.63560  0.68503  1.0000
  C   C1892     1.0  0.34051  0.62330  0.67911  1.0000
  C   C1893     1.0  0.34870  0.60595  0.68879  1.0000
  H   H3335     1.0  0.39637  0.63976  0.66631  1.0000
  H   H3336     1.0  0.35048  0.58019  0.57936  1.0000
  C   C1894     1.0  0.38704  0.69974  0.72679  1.0000
  C   C1895     1.0  0.49210  0.71328  0.96325  1.0000
  H   H3337     1.0  0.39797  0.56461  0.60981  1.0000
  C   C1896     1.0  0.41455  0.48634  0.60152  1.0000
  C   C1897     1.0  0.33839  0.70541  0.65422  1.0000
  C   C1898     1.0  0.33490  0.70920  0.67210  1.0000
  H   H3338     1.0  0.40355  0.53128  0.66765  1.0000
  H   H3339     1.0  0.37288  0.69043  0.70233  1.0000
  H   H3340     1.0  0.32333  0.56324  0.61538  1.0000
  C   C1899     1.0  0.35876  0.71378  0.77408  1.0000
  C   C1900     1.0  0.38163  0.65280  0.68990  1.0000
  H   H3341     1.0  0.41010  0.60670  0.64208  1.0000
  H   H3342     1.0  0.33015  0.73210  0.80197  1.0000
  C   C1901     1.0  0.37765  0.59934  0.59706  1.0000
  H   H3343     1.0  0.37513  0.65653  0.66254  1.0000
  H   H3344     1.0  0.42137  0.62925  0.57838  1.0000
  H   H3345     1.0  0.39689  0.61301  0.56272  1.0000
  C   C1902     1.0  0.41492  0.52677  0.78292  1.0000
  C   C1903     1.0  0.52052  0.68660  0.92321  1.0000
  N   N103      1.0  0.41620  0.50845  0.75799  1.0000
  H   H3346     1.0  0.38510  0.64877  0.50062  1.0000
  C   C1904     1.0  0.41131  0.71689  0.78423  1.0000
  Fe  Fe202     1.0  0.36209  0.53268  0.72661  1.0000
  N   N104      1.0  0.39707  0.60328  0.59248  1.0000
  H   H3347     1.0  0.34767  0.55716  0.64539  1.0000
  C   C1905     1.0  0.36015  0.49154  0.52228  1.0000
  C   C1906     1.0  0.35602  0.51057  0.64476  1.0000
  C   C1907     1.0  0.38607  0.49517  0.70163  1.0000
  H   H3348     1.0  0.46377  0.59860  0.48919  1.0000
  H   H3349     1.0  0.39255  0.62807  0.63826  1.0000
  H   H3350     1.0  0.32354  0.66208  0.54595  1.0000
  C   C1908     1.0  0.43499  0.51531  0.72350  1.0000
  H   H3351     1.0  0.49193  0.66791  0.93162  1.0000
  H   H3352     1.0  0.51705  0.68008  0.93836  1.0000
  H   H3353     1.0  0.38376  0.52827  0.63390  1.0000
  H   H3354     1.0  0.32311  0.62070  0.75482  1.0000
  H   H3355     1.0  0.49784  0.63873  0.92351  1.0000
  H   H3356     1.0  0.35193  0.59713  0.82568  1.0000
  H   H3357     1.0  0.40605  0.70688  0.79702  1.0000
  H   H3358     1.0  0.45099  0.48915  0.56396  1.0000
  H   H3359     1.0  0.49687  0.60254  0.89834  1.0000
  H   H3360     1.0  0.42548  0.53923  0.61092  1.0000
  H   H3361     1.0  0.46763  0.59501  0.51240  1.0000
  H   H3362     1.0  0.38739  0.63064  0.57616  1.0000
  H   H3363     1.0  0.44081  0.55474  0.59702  1.0000
  H   H3364     1.0  0.42457  0.54907  0.58680  1.0000
  C   C1909     1.0  0.37356  0.67885  0.71501  1.0000
  H   H3365     1.0  0.36792  0.69981  0.95483  1.0000
  S   S422      1.0  0.39191  0.52286  0.49542  1.0000
  H   H3366     1.0  0.42149  0.53296  0.70088  1.0000
  H   H3367     1.0  0.39111  0.58976  0.63254  1.0000
  H   H3368     1.0  0.33555  0.59881  0.80072  1.0000
  H   H3369     1.0  0.33953  0.72563  0.68902  1.0000
  H   H3370     1.0  0.33177  0.65406  0.47985  1.0000
  C   C1910     1.0  0.42193  0.54291  0.78550  1.0000
  C   C1911     1.0  0.35321  0.59021  0.68084  1.0000
  H   H3371     1.0  0.43732  0.64931  0.92476  1.0000
  C   C1912     1.0  0.33930  0.60861  0.65469  1.0000
  H   H3372     1.0  0.38547  0.70646  0.73866  1.0000
  H   H3373     1.0  0.33431  0.49439  0.50026  1.0000
  C   C1913     1.0  0.45044  0.49488  0.76299  1.0000
  H   H3374     1.0  0.35331  0.54619  0.62605  1.0000
  C   C1914     1.0  0.41835  0.52626  0.76188  1.0000
  C   C1915     1.0  0.32759  0.71330  0.82994  1.0000
  C   C1916     1.0  0.41684  0.64097  0.55050  1.0000
  C   C1917     1.0  0.49304  0.59403  0.49071  1.0000
  H   H3375     1.0  0.39046  0.50870  0.60610  1.0000
  C   C1918     1.0  0.34936  0.71566  0.63917  1.0000
  H   H3376     1.0  0.38793  0.67010  0.71261  1.0000
  H   H3377     1.0  0.37123  0.54824  0.66744  1.0000
  C   C1919     1.0  0.38028  0.54549  0.65389  1.0000
  H   H3378     1.0  0.32346  0.67261  0.70526  1.0000
  C   C1920     1.0  0.37223  0.68789  0.73153  1.0000
  H   H3379     1.0  0.37486  0.67702  0.74412  1.0000
  H   H3380     1.0  0.38747  0.64091  0.70036  1.0000
  C   C1921     1.0  0.34822  0.52501  0.67316  1.0000
  C   C1922     1.0  0.40053  0.54271  0.65551  1.0000
  H   H3381     1.0  0.37407  0.63366  0.67760  1.0000
  H   H3382     1.0  0.32474  0.69158  0.86654  1.0000
  C   C1923     1.0  0.42697  0.51137  0.56870  1.0000
  H   H3383     1.0  0.39535  0.62698  0.60456  1.0000
  C   C1924     1.0  0.33219  0.71065  0.76397  1.0000
  C   C1925     1.0  0.36217  0.64940  0.73175  1.0000
  H   H3384     1.0  0.43072  0.64487  0.54512  1.0000
  H   H3385     1.0  0.37748  0.55811  0.64272  1.0000
  H   H3386     1.0  0.39102  0.66297  0.68487  1.0000
  C   C1926     1.0  0.41764  0.62460  0.56738  1.0000
  H   H3387     1.0  0.41839  0.54348  0.80058  1.0000
  N   N105      1.0  0.48890  0.66503  0.90493  1.0000
  C   C1927     1.0  0.49505  0.67481  0.91651  1.0000
  C   C1928     1.0  0.46791  0.66733  0.91063  1.0000
  C   C1929     1.0  0.49856  0.64465  0.90827  1.0000
  C   C1930     1.0  0.49404  0.67331  0.88424  1.0000
  C   C1931     1.0  0.48807  0.69489  0.87835  1.0000
  C   C1932     1.0  0.40119  0.48870  0.68793  1.0000
  C   C1933     1.0  0.49140  0.63170  0.90015  1.0000
  C   C1934     1.0  0.46008  0.65763  0.93100  1.0000
  C   C1935     1.0  0.36210  0.49889  0.53849  1.0000
  C   C1936     1.0  0.49344  0.70153  0.85711  1.0000
  C   C1937     1.0  0.39507  0.61252  0.64194  1.0000
  C   C1938     1.0  0.50226  0.61149  0.90428  1.0000
  C   C1939     1.0  0.34651  0.54461  0.64124  1.0000
  H   H3388     1.0  0.32630  0.70148  0.68372  1.0000
  H   H3389     1.0  0.46113  0.68240  0.90947  1.0000
  H   H3390     1.0  0.46245  0.66262  0.90074  1.0000
  H   H3391     1.0  0.33199  0.61601  0.82531  1.0000
  H   H3392     1.0  0.51379  0.64316  0.90200  1.0000
  H   H3393     1.0  0.50938  0.66935  0.87879  1.0000
  H   H3394     1.0  0.48755  0.66734  0.87621  1.0000
  H   H3395     1.0  0.49482  0.70216  0.88481  1.0000
  H   H3396     1.0  0.47274  0.69945  0.88250  1.0000
  H   H3397     1.0  0.40643  0.65339  0.55457  1.0000
  H   H3398     1.0  0.43235  0.52935  0.75495  1.0000
  H   H3399     1.0  0.49312  0.63632  0.88472  1.0000
  H   H3400     1.0  0.47640  0.63159  0.90631  1.0000
  H   H3401     1.0  0.32539  0.65612  0.72685  1.0000
  H   H3402     1.0  0.36227  0.72028  0.80957  1.0000
  H   H3403     1.0  0.46943  0.61712  0.49629  1.0000
  H   H3404     1.0  0.42177  0.51348  0.79107  1.0000
  H   H3405     1.0  0.40131  0.69085  0.72436  1.0000
  H   H3406     1.0  0.48892  0.71702  0.85338  1.0000
  H   H3407     1.0  0.50883  0.69773  0.85207  1.0000
  H   H3408     1.0  0.48636  0.69525  0.84995  1.0000
  C   C1940     1.0  0.32370  0.67122  0.72019  1.0000
  C   C1941     1.0  0.37357  0.58908  0.58384  1.0000
  S   S423      1.0  0.46109  0.55635  0.49371  1.0000
  H   H3409     1.0  0.50052  0.60598  0.91965  1.0000
  C   C1942     1.0  0.47221  0.60173  0.49749  1.0000
  H   H3410     1.0  0.43734  0.54094  0.78055  1.0000
  H   H3411     1.0  0.42908  0.61313  0.56274  1.0000
  H   H3412     1.0  0.53564  0.68691  0.91927  1.0000
  H   H3413     1.0  0.40834  0.53850  0.75565  1.0000
  H   H3414     1.0  0.37390  0.61109  0.62894  1.0000
  H   H3415     1.0  0.33797  0.70116  0.82500  1.0000
  H   H3416     1.0  0.37706  0.59594  0.56895  1.0000
  H   H3417     1.0  0.51240  0.70127  0.92088  1.0000
  H   H3418     1.0  0.39974  0.52889  0.78915  1.0000
  H   H3419     1.0  0.38459  0.51565  0.65722  1.0000
  H   H3420     1.0  0.41500  0.60858  0.60780  1.0000
  H   H3421     1.0  0.41514  0.55649  0.77768  1.0000
  C   C1943     1.0  0.39702  0.50510  0.76860  1.0000
  H   H3422     1.0  0.33060  0.64276  0.52397  1.0000
  N   N106      1.0  0.35917  0.66744  0.71722  1.0000
  C   C1944     1.0  0.35239  0.73269  0.81421  1.0000
  H   H3423     1.0  0.34896  0.58073  0.60343  1.0000
  H   H3424     1.0  0.41508  0.57155  0.61777  1.0000
  C   C1945     1.0  0.42655  0.55199  0.59969  1.0000
  H   H3425     1.0  0.35846  0.69732  0.73477  1.0000
  H   H3426     1.0  0.36836  0.72219  0.77394  1.0000
  H   H3427     1.0  0.33674  0.68262  0.73572  1.0000
  C   C1946     1.0  0.33987  0.67943  0.72158  1.0000
  H   H3428     1.0  0.35362  0.66124  0.75732  1.0000
  C   C1947     1.0  0.35143  0.64977  0.75229  1.0000
  C   C1948     1.0  0.35756  0.63144  0.76569  1.0000
  H   H3429     1.0  0.35810  0.63796  0.72798  1.0000
  H   H3430     1.0  0.33618  0.65172  0.75353  1.0000
  C   C1949     1.0  0.37678  0.52825  0.64888  1.0000
  H   H3431     1.0  0.36647  0.72418  0.95372  1.0000
  H   H3432     1.0  0.35573  0.61928  0.76125  1.0000
  H   H3433     1.0  0.37245  0.62959  0.76620  1.0000
  H   H3434     1.0  0.34896  0.63178  0.78004  1.0000
  C   C1950     1.0  0.43777  0.49336  0.57320  1.0000
  C   C1951     1.0  0.34426  0.72159  0.76440  1.0000
  H   H3435     1.0  0.45600  0.50344  0.74936  1.0000
  S   S424      1.0  0.34310  0.52444  0.75459  1.0000
  H   H3436     1.0  0.38670  0.60826  0.65623  1.0000
  H   H3437     1.0  0.41037  0.53913  0.64262  1.0000
  C   C1952     1.0  0.40369  0.50445  0.59698  1.0000
  H   H3438     1.0  0.51737  0.61060  0.89783  1.0000
  S   S425      1.0  0.38522  0.51649  0.70748  1.0000
  H   H3439     1.0  0.38183  0.57453  0.58539  1.0000
  H   H3440     1.0  0.35918  0.51791  0.68147  1.0000
  H   H3441     1.0  0.42177  0.73139  0.80627  1.0000
  C   C1953     1.0  0.43260  0.52019  0.70323  1.0000
  H   H3442     1.0  0.35217  0.71282  0.62531  1.0000
  C   C1954     1.0  0.51614  0.67539  0.91140  1.0000
  C   C1955     1.0  0.39876  0.61800  0.57450  1.0000
  H   H3443     1.0  0.37732  0.64430  0.73188  1.0000
  H   H3444     1.0  0.40504  0.52296  0.73341  1.0000
  C   C1956     1.0  0.41201  0.58612  0.58928  1.0000
  H   H3445     1.0  0.33807  0.49867  0.68270  1.0000
  H   H3446     1.0  0.42549  0.49558  0.53676  1.0000
  C   C1957     1.0  0.41172  0.56873  0.60553  1.0000
  H   H3447     1.0  0.42614  0.58923  0.58654  1.0000
  N   N107      1.0  0.35652  0.52694  0.65236  1.0000
  H   H3448     1.0  0.42589  0.48468  0.77904  1.0000
  H   H3449     1.0  0.35194  0.50322  0.51352  1.0000
  C   C1958     1.0  0.35660  0.72979  0.64214  1.0000
  H   H3450     1.0  0.34306  0.53913  0.67671  1.0000
  S   S426      1.0  0.33282  0.60993  0.63377  1.0000
  H   H3451     1.0  0.48676  0.68939  0.91597  1.0000
  H   H3452     1.0  0.33261  0.51270  0.71071  1.0000
  C   C1959     1.0  0.43936  0.65765  0.93386  1.0000
  H   H3453     1.0  0.44994  0.50234  0.77397  1.0000
  C   C1960     1.0  0.51473  0.73095  0.97450  1.0000
  H   H3454     1.0  0.52480  0.66103  0.91408  1.0000
  H   H3455     1.0  0.36883  0.51120  0.53289  1.0000
  S   S427      1.0  0.40804  0.57099  0.48917  1.0000
  H   H3456     1.0  0.55946  0.60645  0.48620  1.0000
  C   C1961     1.0  0.34216  0.72311  0.67508  1.0000
  H   H3457     1.0  0.46734  0.64284  0.93463  1.0000
  H   H3458     1.0  0.52963  0.59817  0.48518  1.0000
  S   S428      1.0  0.32462  0.69274  0.59705  1.0000
  H   H3459     1.0  0.44591  0.52289  0.69353  1.0000
  H   H3460     1.0  0.34544  0.71568  0.95665  1.0000
  C   C1962     1.0  0.33216  0.73143  0.81612  1.0000
  H   H3461     1.0  0.50068  0.59742  0.49955  1.0000
  H   H3462     1.0  0.33072  0.71399  0.84320  1.0000
  C   C1963     1.0  0.35931  0.71226  0.96044  1.0000
  C   C1964     1.0  0.33228  0.51391  0.68165  1.0000
  C   C1965     1.0  0.50165  0.70381  0.97777  1.0000
  C   C1966     1.0  0.36882  0.49171  0.65171  1.0000
  H   H3463     1.0  0.36042  0.48964  0.72051  1.0000
  H   H3464     1.0  0.33366  0.67418  0.50949  1.0000
  H   H3465     1.0  0.39792  0.73299  0.81703  1.0000
  C   C1967     1.0  0.39066  0.48900  0.76443  1.0000
  C   C1968     1.0  0.32967  0.59253  0.81541  1.0000
  H   H3466     1.0  0.46618  0.51515  0.48105  1.0000
  H   H3467     1.0  0.33069  0.69194  0.54579  1.0000
  H   H3468     1.0  0.38362  0.49182  0.64440  1.0000
  H   H3469     1.0  0.41208  0.49660  0.68147  1.0000
  C   C1969     1.0  0.45315  0.51123  0.48076  1.0000
  C   C1970     1.0  0.32564  0.66771  0.50351  1.0000
  S   S429      1.0  0.32222  0.65143  0.59102  1.0000
  H   H3470     1.0  0.32276  0.61731  0.54399  1.0000
  C   C1971     1.0  0.49365  0.73174  0.95461  1.0000
  C   C1972     1.0  0.37207  0.48484  0.70986  1.0000
  C   C1973     1.0  0.41999  0.48440  0.53439  1.0000
  C   C1974     1.0  0.32245  0.51694  0.70140  1.0000
  H   H3471     1.0  0.52902  0.56994  0.47963  1.0000
  Fe  Fe203     1.0  0.61080  0.94083  0.12897  1.0000
  S   S430      1.0  0.58532  0.95097  0.14974  1.0000
  S   S431      1.0  0.62699  0.91113  0.13534  1.0000
  C   C1975     1.0  0.45086  0.78040  0.98303  1.0000
  H   H3472     1.0  0.45559  0.86117  0.02016  1.0000
  H   H3473     1.0  0.32753  0.77560  0.17954  1.0000
  C   C1976     1.0  0.63686  0.92879  0.01910  1.0000
  Fe  Fe204     1.0  0.57157  0.96127  0.12490  1.0000
  S   S432      1.0  0.54260  0.95794  0.12448  1.0000
  S   S433      1.0  0.62205  0.96698  0.12251  1.0000
  S   S434      1.0  0.59654  0.94972  0.10461  1.0000
  C   C1977     1.0  0.64165  0.76644  0.02781  1.0000
  H   H3474     1.0  0.36780  0.83849  0.08689  1.0000
  C   C1978     1.0  0.63275  0.76627  0.12248  1.0000
  Fe  Fe205     1.0  0.37923  0.86458  0.01390  1.0000
  Fe  Fe206     1.0  0.40700  0.83416  0.03399  1.0000
  S   S435      1.0  0.39508  0.81102  0.03152  1.0000
  S   S436      1.0  0.43086  0.82433  0.04902  1.0000
  Fe  Fe207     1.0  0.39334  0.82746  0.00250  1.0000
  Fe  Fe208     1.0  0.36730  0.82946  0.04027  1.0000
  S   S437      1.0  0.40816  0.84888  0.00399  1.0000
  S   S438      1.0  0.37942  0.85182  0.04430  1.0000
  S   S439      1.0  0.57316  0.78663  0.01128  1.0000
  C   C1979     1.0  0.33591  0.75700  0.24200  1.0000
  Fe  Fe209     1.0  0.50058  0.86795  0.12544  1.0000
  S   S440      1.0  0.50520  0.85803  0.09864  1.0000
  S   S441      1.0  0.52425  0.87879  0.13001  1.0000
  Fe  Fe210     1.0  0.46642  0.84948  0.14316  1.0000
  S   S442      1.0  0.46910  0.83799  0.11808  1.0000
  S   S443      1.0  0.44167  0.84235  0.16582  1.0000
  Fe  Fe211     1.0  0.49977  0.83074  0.11718  1.0000
  S   S444      1.0  0.51966  0.80378  0.11235  1.0000
  Fe  Fe212     1.0  0.47401  0.86627  0.10185  1.0000
  S   S445      1.0  0.45913  0.88062  0.07803  1.0000
  S   S446      1.0  0.49689  0.83977  0.14385  1.0000
  S   S447      1.0  0.46947  0.87860  0.12713  1.0000
  H   H3475     1.0  0.35137  0.79586  0.23820  1.0000
  H   H3476     1.0  0.50864  0.75153  0.16043  1.0000
  Fe  Fe213     1.0  0.56052  0.76075  0.02055  1.0000
  C   C1980     1.0  0.44080  0.81890  0.16774  1.0000
  H   H3477     1.0  0.39921  0.93347  0.01619  1.0000
  H   H3478     1.0  0.41191  0.82507  0.16576  1.0000
  H   H3479     1.0  0.33144  0.74158  0.03062  1.0000
  C   C1981     1.0  0.49678  0.79463  0.09466  1.0000
  C   C1982     1.0  0.51398  0.79011  0.10005  1.0000
  C   C1983     1.0  0.52715  0.77421  0.09566  1.0000
  C   C1984     1.0  0.52329  0.76295  0.08578  1.0000
  H   H3480     1.0  0.54040  0.77058  0.09994  1.0000
  H   H3481     1.0  0.53334  0.75042  0.08300  1.0000
  C   C1985     1.0  0.43703  0.83995  0.05865  1.0000
  C   C1986     1.0  0.42801  0.85881  0.05654  1.0000
  C   C1987     1.0  0.43448  0.87122  0.06303  1.0000
  C   C1988     1.0  0.44997  0.86479  0.07153  1.0000
  C   C1989     1.0  0.45849  0.84580  0.07417  1.0000
  C   C1990     1.0  0.45180  0.83338  0.06808  1.0000
  H   H3482     1.0  0.41618  0.86378  0.04984  1.0000
  H   H3483     1.0  0.42748  0.88576  0.06162  1.0000
  H   H3484     1.0  0.47070  0.84074  0.08026  1.0000
  H   H3485     1.0  0.45848  0.81872  0.07029  1.0000
  H   H3486     1.0  0.39143  0.77391  0.10787  1.0000
  H   H3487     1.0  0.38922  0.79071  0.13181  1.0000
  C   C1991     1.0  0.58632  0.78891  0.05913  1.0000
  C   C1992     1.0  0.57764  0.78524  0.04663  1.0000
  C   C1993     1.0  0.58267  0.79236  0.02741  1.0000
  C   C1994     1.0  0.59560  0.80414  0.02091  1.0000
  H   H3488     1.0  0.57803  0.75225  0.07716  1.0000
  H   H3489     1.0  0.56712  0.77682  0.05186  1.0000
  H   H3490     1.0  0.58274  0.93725  0.01646  1.0000
  H   H3491     1.0  0.42854  0.74003  0.11137  1.0000
  H   H3492     1.0  0.36666  0.77820  0.09066  1.0000
  H   H3493     1.0  0.35103  0.79912  0.27789  1.0000
  C   C1995     1.0  0.38995  0.80254  0.09005  1.0000
  Fe  Fe214     1.0  0.54072  0.73747  0.00670  1.0000
  H   H3494     1.0  0.45375  0.76371  0.01902  1.0000
  N   N108      1.0  0.61796  0.94132  0.02413  1.0000
  H   H3495     1.0  0.55390  0.94570  0.18126  1.0000
  H   H3496     1.0  0.47854  0.75264  0.15345  1.0000
  C   C1996     1.0  0.53795  0.93618  0.12432  1.0000
  C   C1997     1.0  0.55170  0.91975  0.12566  1.0000
  C   C1998     1.0  0.54716  0.90241  0.12736  1.0000
  C   C1999     1.0  0.52910  0.90131  0.12681  1.0000
  C   C2000     1.0  0.51549  0.91784  0.12471  1.0000
  C   C2001     1.0  0.51986  0.93516  0.12370  1.0000
  H   H3497     1.0  0.56574  0.92034  0.12583  1.0000
  H   H3498     1.0  0.55767  0.88974  0.12944  1.0000
  H   H3499     1.0  0.50148  0.91721  0.12443  1.0000
  H   H3500     1.0  0.50911  0.94781  0.12263  1.0000
  C   C2002     1.0  0.63633  0.90901  0.08111  1.0000
  H   H3501     1.0  0.51176  0.92754  0.18220  1.0000
  C   C2003     1.0  0.63485  0.91494  0.09750  1.0000
  C   C2004     1.0  0.63215  0.90258  0.11482  1.0000
  C   C2005     1.0  0.63234  0.88382  0.11562  1.0000
  C   C2006     1.0  0.63398  0.87780  0.09908  1.0000
  C   C2007     1.0  0.63712  0.78570  0.12055  1.0000
  H   H3502     1.0  0.53294  0.91665  0.24635  1.0000
  Fe  Fe215     1.0  0.38347  0.74046  0.16536  1.0000
  N   N109      1.0  0.51081  0.82583  0.02594  1.0000
  C   C2008     1.0  0.50750  0.84688  0.01995  1.0000
  C   C2009     1.0  0.52543  0.81744  0.01085  1.0000
  C   C2010     1.0  0.49250  0.81990  0.02911  1.0000
  C   C2011     1.0  0.51782  0.81905  0.04397  1.0000
  C   C2012     1.0  0.53529  0.82600  0.04411  1.0000
  C   C2013     1.0  0.49445  0.85786  0.03484  1.0000
  C   C2014     1.0  0.49377  0.79872  0.03116  1.0000
  C   C2015     1.0  0.63521  0.89065  0.08193  1.0000
  H   H3503     1.0  0.44176  0.74673  0.22132  1.0000
  C   C2016     1.0  0.54020  0.81956  0.06336  1.0000
  C   C2017     1.0  0.49251  0.87897  0.02752  1.0000
  C   C2018     1.0  0.47444  0.79386  0.03715  1.0000
  H   H3504     1.0  0.50103  0.85164  0.00747  1.0000
  H   H3505     1.0  0.52099  0.85168  0.01517  1.0000
  H   H3506     1.0  0.53861  0.82245  0.00825  1.0000
  H   H3507     1.0  0.52951  0.80201  0.01559  1.0000
  H   H3508     1.0  0.48492  0.82755  0.01770  1.0000
  H   H3509     1.0  0.48301  0.82385  0.04204  1.0000
  H   H3510     1.0  0.50654  0.82274  0.05609  1.0000
  H   H3511     1.0  0.52167  0.80347  0.04739  1.0000
  H   H3512     1.0  0.53303  0.84149  0.04062  1.0000
  H   H3513     1.0  0.54763  0.82031  0.03398  1.0000
  H   H3514     1.0  0.48026  0.85482  0.03837  1.0000
  H   H3515     1.0  0.49979  0.85421  0.04791  1.0000
  H   H3516     1.0  0.50197  0.79021  0.04172  1.0000
  H   H3517     1.0  0.50047  0.79450  0.01759  1.0000
  H   H3518     1.0  0.62701  0.95330  0.04246  1.0000
  H   H3519     1.0  0.51583  0.93096  0.21061  1.0000
  H   H3520     1.0  0.45686  0.91823  0.04557  1.0000
  C   C2019     1.0  0.61566  0.74340  0.05502  1.0000
  C   C2020     1.0  0.37372  0.84265  0.09670  1.0000
  H   H3521     1.0  0.54228  0.80410  0.06793  1.0000
  H   H3522     1.0  0.55341  0.82362  0.06262  1.0000
  H   H3523     1.0  0.50633  0.88289  0.02419  1.0000
  H   H3524     1.0  0.48643  0.88358  0.01483  1.0000
  H   H3525     1.0  0.48306  0.88638  0.03849  1.0000
  S   S448      1.0  0.37491  0.74379  0.13826  1.0000
  H   H3526     1.0  0.46723  0.79715  0.05104  1.0000
  H   H3527     1.0  0.46577  0.80164  0.02669  1.0000
  H   H3528     1.0  0.42700  0.82214  0.11021  1.0000
  H   H3529     1.0  0.61480  0.92419  0.05211  1.0000
  H   H3530     1.0  0.40458  0.90329  0.04297  1.0000
  H   H3531     1.0  0.37092  0.90535  0.05621  1.0000
  H   H3532     1.0  0.60832  0.79843  0.13208  1.0000
  C   C2021     1.0  0.62119  0.95792  0.02951  1.0000
  C   C2022     1.0  0.37567  0.91505  0.04293  1.0000
  C   C2023     1.0  0.34509  0.73915  0.24970  1.0000
  C   C2024     1.0  0.44243  0.79522  0.12104  1.0000
  H   H3533     1.0  0.64770  0.78905  0.10757  1.0000
  C   C2025     1.0  0.39516  0.90616  0.03324  1.0000
  C   C2026     1.0  0.45671  0.80479  0.16974  1.0000
  C   C2027     1.0  0.64480  0.78118  0.00970  1.0000
  C   C2028     1.0  0.39331  0.83052  0.09851  1.0000
  H   H3534     1.0  0.41250  0.76168  0.00413  1.0000
  H   H3535     1.0  0.36243  0.79013  0.12076  1.0000
  H   H3536     1.0  0.37467  0.76235  0.99787  1.0000
  S   S449      1.0  0.37037  0.89576  0.00331  1.0000
  H   H3537     1.0  0.58030  0.95234  0.04032  1.0000
  C   C2029     1.0  0.42416  0.81415  0.16761  1.0000
  S   S450      1.0  0.34613  0.81859  0.06530  1.0000
  C   C2030     1.0  0.60003  0.79976  0.05253  1.0000
  H   H3538     1.0  0.42890  0.78072  0.21581  1.0000
  H   H3539     1.0  0.41086  0.79170  0.16891  1.0000
  S   S451      1.0  0.52932  0.74254  0.98027  1.0000
  C   C2031     1.0  0.39387  0.78086  0.09283  1.0000
  H   H3540     1.0  0.52896  0.82621  0.07384  1.0000
  C   C2032     1.0  0.50748  0.89372  0.18029  1.0000
  H   H3541     1.0  0.32219  0.79701  0.09375  1.0000
  C   C2033     1.0  0.38283  0.77063  0.98629  1.0000
  N   N110      1.0  0.64911  0.74975  0.12274  1.0000
  C   C2034     1.0  0.47554  0.74090  0.00938  1.0000
  H   H3542     1.0  0.42402  0.79954  0.23786  1.0000
  H   H3543     1.0  0.48284  0.73679  0.03653  1.0000
  H   H3544     1.0  0.49817  0.77543  0.15123  1.0000
  H   H3545     1.0  0.35232  0.73735  0.98264  1.0000
  H   H3546     1.0  0.35508  0.79480  0.03830  1.0000
  H   H3547     1.0  0.35587  0.80142  0.19066  1.0000
  C   C2035     1.0  0.42771  0.82729  0.22412  1.0000
  C   C2036     1.0  0.35888  0.79410  0.24946  1.0000
  C   C2037     1.0  0.35046  0.80248  0.14475  1.0000
  H   H3548     1.0  0.44170  0.75835  0.10409  1.0000
  H   H3549     1.0  0.38458  0.86549  0.07574  1.0000
  H   H3550     1.0  0.62183  0.76377  0.13552  1.0000
  H   H3551     1.0  0.48650  0.80681  0.09810  1.0000
  H   H3552     1.0  0.64905  0.81934  0.14970  1.0000
  H   H3553     1.0  0.62872  0.73971  0.10070  1.0000
  H   H3554     1.0  0.37586  0.92843  0.04626  1.0000
  N   N111      1.0  0.53908  0.92310  0.18825  1.0000
  H   H3555     1.0  0.60286  0.91887  0.03801  1.0000
  H   H3556     1.0  0.65478  0.76222  0.03307  1.0000
  N   N112      1.0  0.39066  0.79845  0.22701  1.0000
  H   H3557     1.0  0.44897  0.80152  0.12871  1.0000
  H   H3558     1.0  0.37913  0.86858  0.09960  1.0000
  H   H3559     1.0  0.39216  0.91929  0.00540  1.0000
  H   H3560     1.0  0.42754  0.88620  0.02286  1.0000
  H   H3561     1.0  0.39424  0.89249  0.03105  1.0000
  H   H3562     1.0  0.41938  0.84154  0.21977  1.0000
  H   H3563     1.0  0.42562  0.73681  0.98218  1.0000
  H   H3564     1.0  0.47960  0.78667  0.08067  1.0000
  H   H3565     1.0  0.64604  0.93631  0.00713  1.0000
  N   N113      1.0  0.42210  0.91309  0.00391  1.0000
  H   H3566     1.0  0.64725  0.76902  0.28899  1.0000
  H   H3567     1.0  0.40310  0.83378  0.08478  1.0000
  N   N114      1.0  0.57021  0.86316  0.08315  1.0000
  C   C2038     1.0  0.55004  0.87171  0.08210  1.0000
  C   C2039     1.0  0.57353  0.84236  0.08443  1.0000
  C   C2040     1.0  0.57376  0.86730  0.10018  1.0000
  C   C2041     1.0  0.58339  0.87142  0.06608  1.0000
  C   C2042     1.0  0.58078  0.86974  0.04694  1.0000
  C   C2043     1.0  0.54502  0.89341  0.07664  1.0000
  C   C2044     1.0  0.59249  0.85663  0.10598  1.0000
  C   C2045     1.0  0.56171  0.83155  0.10202  1.0000
  C   C2046     1.0  0.56740  0.81043  0.10318  1.0000
  C   C2047     1.0  0.58952  0.88395  0.03078  1.0000
  C   C2048     1.0  0.52405  0.90059  0.07755  1.0000
  C   C2049     1.0  0.59405  0.86185  0.12359  1.0000
  H   H3568     1.0  0.54078  0.86754  0.09587  1.0000
  H   H3569     1.0  0.54550  0.86593  0.07237  1.0000
  H   H3570     1.0  0.57038  0.83958  0.07202  1.0000
  H   H3571     1.0  0.58861  0.83578  0.08363  1.0000
  H   H3572     1.0  0.56231  0.86443  0.11257  1.0000
  H   H3573     1.0  0.57346  0.88250  0.09802  1.0000
  H   H3574     1.0  0.58264  0.88637  0.06583  1.0000
  H   H3575     1.0  0.59814  0.86453  0.06677  1.0000
  H   H3576     1.0  0.56592  0.87216  0.04629  1.0000
  H   H3577     1.0  0.58756  0.85541  0.04447  1.0000
  H   H3578     1.0  0.54900  0.89982  0.08620  1.0000
  H   H3579     1.0  0.55227  0.89850  0.06209  1.0000
  H   H3580     1.0  0.60453  0.86008  0.09464  1.0000
  H   H3581     1.0  0.59360  0.84126  0.10925  1.0000
  H   H3582     1.0  0.56334  0.83412  0.11517  1.0000
  H   H3583     1.0  0.54664  0.83584  0.10154  1.0000
  H   H3584     1.0  0.55897  0.80316  0.11609  1.0000
  H   H3585     1.0  0.56473  0.80687  0.09099  1.0000
  H   H3586     1.0  0.58239  0.80525  0.10370  1.0000
  H   H3587     1.0  0.51973  0.83687  0.98481  1.0000
  H   H3588     1.0  0.44798  0.93942  0.03016  1.0000
  C   C2050     1.0  0.33982  0.77261  0.05146  1.0000
  H   H3589     1.0  0.51933  0.89477  0.06801  1.0000
  H   H3590     1.0  0.51600  0.89667  0.09207  1.0000
  H   H3591     1.0  0.52096  0.91611  0.07331  1.0000
  H   H3592     1.0  0.59389  0.87706  0.12094  1.0000
  H   H3593     1.0  0.58230  0.85843  0.13540  1.0000
  H   H3594     1.0  0.60735  0.85381  0.12775  1.0000
  H   H3595     1.0  0.48501  0.76603  0.13026  1.0000
  H   H3596     1.0  0.35521  0.81500  0.11551  1.0000
  C   C2051     1.0  0.36240  0.80314  0.12494  1.0000
  C   C2052     1.0  0.52551  0.91759  0.18037  1.0000
  H   H3597     1.0  0.62096  0.74997  0.06356  1.0000
  C   C2053     1.0  0.60434  0.80779  0.03342  1.0000
  H   H3598     1.0  0.38014  0.79237  0.00119  1.0000
  H   H3599     1.0  0.58309  0.92041  0.07536  1.0000
  H   H3600     1.0  0.48915  0.75718  0.01933  1.0000
  S   S452      1.0  0.36430  0.84397  0.01078  1.0000
  H   H3601     1.0  0.59933  0.80999  0.00607  1.0000
  H   H3602     1.0  0.42221  0.77399  0.01451  1.0000
  H   H3603     1.0  0.63219  0.78584  0.00351  1.0000
  H   H3604     1.0  0.63038  0.87426  0.12907  1.0000
  H   H3605     1.0  0.38213  0.81469  0.13259  1.0000
  C   C2054     1.0  0.42818  0.89202  0.00772  1.0000
  H   H3606     1.0  0.36413  0.77891  0.25435  1.0000
  H   H3607     1.0  0.61918  0.95041  0.99429  1.0000
  S   S453      1.0  0.63002  0.84771  0.03894  1.0000
  C   C2055     1.0  0.33930  0.79787  0.06590  1.0000
  C   C2056     1.0  0.63101  0.86760  0.98787  1.0000
  H   H3608     1.0  0.50965  0.74114  0.12070  1.0000
  H   H3609     1.0  0.43772  0.82297  0.21155  1.0000
  C   C2057     1.0  0.45583  0.78598  0.17233  1.0000
  H   H3610     1.0  0.41815  0.88580  0.00407  1.0000
  H   H3611     1.0  0.46260  0.77955  0.98956  1.0000
  C   C2058     1.0  0.40107  0.77922  0.23481  1.0000
  C   C2059     1.0  0.33343  0.74208  0.01553  1.0000
  C   C2060     1.0  0.37071  0.81545  0.20202  1.0000
  N   N115      1.0  0.44149  0.74997  0.00493  1.0000
  S   S454      1.0  0.53108  0.76335  0.01861  1.0000
  H   H3612     1.0  0.58108  0.93437  0.98533  1.0000
  S   S455      1.0  0.39698  0.73636  0.21239  1.0000
  C   C2061     1.0  0.38277  0.80456  0.12400  1.0000
  S   S456      1.0  0.38510  0.76571  0.17456  1.0000
  C   C2062     1.0  0.60851  0.94836  0.00760  1.0000
  C   C2063     1.0  0.38313  0.79720  0.21095  1.0000
  H   H3613     1.0  0.63539  0.92927  0.09678  1.0000
  C   C2064     1.0  0.42348  0.79530  0.16960  1.0000
  H   H3614     1.0  0.60641  0.75509  0.04725  1.0000
  H   H3615     1.0  0.46714  0.92193  0.02087  1.0000
  C   C2065     1.0  0.43495  0.92232  0.00901  1.0000
  C   C2066     1.0  0.43979  0.91437  0.02858  1.0000
  C   C2067     1.0  0.45380  0.92416  0.03135  1.0000
  H   H3616     1.0  0.44839  0.92196  0.99847  1.0000
  H   H3617     1.0  0.42883  0.93747  0.00844  1.0000
  H   H3618     1.0  0.65021  0.75552  0.27173  1.0000
  H   H3619     1.0  0.42712  0.91678  0.03970  1.0000
  H   H3620     1.0  0.58897  0.88131  0.01722  1.0000
  H   H3621     1.0  0.42008  0.75197  0.04396  1.0000
  H   H3622     1.0  0.46801  0.77512  0.17461  1.0000
  C   C2068     1.0  0.54258  0.94200  0.17705  1.0000
  C   C2069     1.0  0.63723  0.91071  0.01298  1.0000
  S   S457      1.0  0.55696  0.74336  0.04963  1.0000
  H   H3623     1.0  0.35514  0.82575  0.17982  1.0000
  C   C2070     1.0  0.38159  0.77465  0.08357  1.0000
  C   C2071     1.0  0.53203  0.93151  0.23883  1.0000
  H   H3624     1.0  0.40472  0.77899  0.24818  1.0000
  H   H3625     1.0  0.34303  0.75196  0.00837  1.0000
  H   H3626     1.0  0.61306  0.74170  0.12281  1.0000
  H   H3627     1.0  0.62664  0.85610  0.99870  1.0000
  H   H3628     1.0  0.54030  0.94781  0.21146  1.0000
  H   H3629     1.0  0.34394  0.75342  0.11980  1.0000
  H   H3630     1.0  0.34973  0.81527  0.14969  1.0000
  H   H3631     1.0  0.48066  0.74816  0.99488  1.0000
  H   H3632     1.0  0.36056  0.87172  0.08761  1.0000
  H   H3633     1.0  0.51580  0.95728  0.16950  1.0000
  H   H3634     1.0  0.39512  0.82679  0.21599  1.0000
  H   H3635     1.0  0.38976  0.77293  0.03804  1.0000
  H   H3636     1.0  0.36549  0.91773  0.03386  1.0000
  H   H3637     1.0  0.65107  0.78021  0.26446  1.0000
  H   H3638     1.0  0.61445  0.80229  0.10676  1.0000
  C   C2072     1.0  0.34448  0.80117  0.26581  1.0000
  H   H3639     1.0  0.47586  0.77863  0.03853  1.0000
  C   C2073     1.0  0.40205  0.91887  0.01412  1.0000
  N   N116      1.0  0.39480  0.80959  0.10468  1.0000
  H   H3640     1.0  0.63046  0.77317  0.03818  1.0000
  H   H3641     1.0  0.63354  0.86349  0.09968  1.0000
  H   H3642     1.0  0.41321  0.80967  0.20650  1.0000
  H   H3643     1.0  0.62458  0.75471  0.01687  1.0000
  H   H3644     1.0  0.54784  0.94156  0.16199  1.0000
  C   C2074     1.0  0.61958  0.80121  0.11951  1.0000
  C   C2075     1.0  0.37462  0.86336  0.08947  1.0000
  H   H3645     1.0  0.47449  0.75098  0.11154  1.0000
  H   H3646     1.0  0.44627  0.89923  0.03053  1.0000
  H   H3647     1.0  0.61481  0.81632  0.02818  1.0000
  H   H3648     1.0  0.36404  0.73646  0.03062  1.0000
  H   H3649     1.0  0.64225  0.78624  0.13275  1.0000
  H   H3650     1.0  0.64893  0.96199  0.01242  1.0000
  C   C2076     1.0  0.55754  0.90918  0.18700  1.0000
  C   C2077     1.0  0.41493  0.81329  0.23346  1.0000
  C   C2078     1.0  0.54100  0.93275  0.21803  1.0000
  H   H3651     1.0  0.44006  0.78139  0.12975  1.0000
  C   C2079     1.0  0.49955  0.73649  0.13376  1.0000
  C   C2080     1.0  0.65285  0.82693  0.13497  1.0000
  C   C2081     1.0  0.56683  0.90435  0.16748  1.0000
  C   C2082     1.0  0.58579  0.89092  0.16770  1.0000
  H   H3652     1.0  0.51713  0.93892  0.24070  1.0000
  H   H3653     1.0  0.33821  0.81625  0.26150  1.0000
  Fe  Fe216     1.0  0.63470  0.81898  0.05693  1.0000
  H   H3654     1.0  0.62582  0.76787  0.11079  1.0000
  H   H3655     1.0  0.43470  0.75499  0.24294  1.0000
  H   H3656     1.0  0.56795  0.91452  0.19100  1.0000
  H   H3657     1.0  0.55611  0.89579  0.19727  1.0000
  S   S458      1.0  0.43873  0.75731  0.17616  1.0000
  Fe  Fe217     1.0  0.37048  0.75224  0.20297  1.0000
  H   H3658     1.0  0.41531  0.73447  0.03487  1.0000
  H   H3659     1.0  0.63351  0.91424  0.99905  1.0000
  H   H3660     1.0  0.38561  0.75924  0.08478  1.0000
  C   C2083     1.0  0.43819  0.74628  0.11544  1.0000
  S   S459      1.0  0.64608  0.82729  0.07753  1.0000
  H   H3661     1.0  0.36406  0.84155  0.11063  1.0000
  C   C2084     1.0  0.44810  0.88408  0.99720  1.0000
  H   H3662     1.0  0.63809  0.91883  0.06783  1.0000
  C   C2085     1.0  0.52145  0.89770  0.18924  1.0000
  H   H3663     1.0  0.56935  0.91707  0.15677  1.0000
  H   H3664     1.0  0.59552  0.89734  0.17146  1.0000
  H   H3665     1.0  0.58420  0.87752  0.17782  1.0000
  H   H3666     1.0  0.59211  0.88787  0.15351  1.0000
  C   C2086     1.0  0.34158  0.74210  0.13180  1.0000
  S   S460      1.0  0.34525  0.76887  0.21947  1.0000
  H   H3667     1.0  0.44467  0.85505  0.00480  1.0000
  C   C2087     1.0  0.63650  0.74931  0.02423  1.0000
  H   H3668     1.0  0.51746  0.95911  0.19219  1.0000
  C   C2088     1.0  0.45456  0.86328  0.00536  1.0000
  C   C2089     1.0  0.32714  0.79020  0.08193  1.0000
  H   H3669     1.0  0.38319  0.78165  0.06854  1.0000
  H   H3670     1.0  0.39766  0.83601  0.10857  1.0000
  C   C2090     1.0  0.38606  0.78748  0.98823  1.0000
  H   H3671     1.0  0.50483  0.87941  0.18678  1.0000
  C   C2091     1.0  0.44702  0.76072  0.98513  1.0000
  H   H3672     1.0  0.60769  0.96786  0.03300  1.0000
  H   H3673     1.0  0.35810  0.82019  0.21241  1.0000
  H   H3674     1.0  0.55592  0.92564  0.21691  1.0000
  C   C2092     1.0  0.59033  0.94302  0.98649  1.0000
  H   H3675     1.0  0.62979  0.97383  0.00075  1.0000
  H   H3676     1.0  0.53437  0.88672  0.18734  1.0000
  H   H3677     1.0  0.46961  0.80837  0.16978  1.0000
  C   C2093     1.0  0.34575  0.78894  0.05071  1.0000
  H   H3678     1.0  0.60266  0.92129  0.00681  1.0000
  H   H3679     1.0  0.50650  0.81870  0.99247  1.0000
  H   H3680     1.0  0.45227  0.79326  0.10758  1.0000
  C   C2094     1.0  0.40336  0.81234  0.21980  1.0000
  S   S461      1.0  0.61226  0.80195  0.06838  1.0000
  C   C2095     1.0  0.50450  0.76142  0.14778  1.0000
  H   H3681     1.0  0.40875  0.77566  0.08650  1.0000
  C   C2096     1.0  0.35506  0.73417  0.14275  1.0000
  C   C2097     1.0  0.42221  0.75959  0.01350  1.0000
  H   H3682     1.0  0.37528  0.78574  0.21520  1.0000
  C   C2098     1.0  0.42954  0.75264  0.23150  1.0000
  C   C2099     1.0  0.49286  0.78320  0.08486  1.0000
  C   C2100     1.0  0.50625  0.76749  0.08018  1.0000
  H   H3683     1.0  0.35628  0.78988  0.15453  1.0000
  C   C2101     1.0  0.41903  0.77108  0.22148  1.0000
  H   H3684     1.0  0.41523  0.76816  0.20956  1.0000
  S   S462      1.0  0.57090  0.73620  0.00644  1.0000
  C   C2102     1.0  0.37503  0.80502  0.24245  1.0000
  C   C2103     1.0  0.36415  0.81256  0.18577  1.0000
  C   C2104     1.0  0.53080  0.92365  0.20863  1.0000
  C   C2105     1.0  0.58818  0.94273  0.05077  1.0000
  H   H3685     1.0  0.58169  0.89841  0.03177  1.0000
  C   C2106     1.0  0.57551  0.93031  0.06476  1.0000
  H   H3686     1.0  0.41674  0.78541  0.11064  1.0000
  H   H3687     1.0  0.39480  0.79307  0.19949  1.0000
  H   H3688     1.0  0.42399  0.80269  0.09083  1.0000
  H   H3689     1.0  0.37861  0.82687  0.19625  1.0000
  C   C2107     1.0  0.60644  0.93082  0.04117  1.0000
  H   H3690     1.0  0.64200  0.83989  0.13259  1.0000
  H   H3691     1.0  0.39797  0.80792  0.07583  1.0000
  H   H3692     1.0  0.51718  0.76276  0.13649  1.0000
  C   C2108     1.0  0.42391  0.80813  0.11751  1.0000
  H   H3693     1.0  0.53932  0.97767  0.15443  1.0000
  H   H3694     1.0  0.65305  0.81784  0.12555  1.0000
  H   H3695     1.0  0.38066  0.80411  0.25489  1.0000
  Fe  Fe218     1.0  0.64394  0.85529  0.05766  1.0000
  C   C2109     1.0  0.41507  0.80079  0.10527  1.0000
  H   H3696     1.0  0.36874  0.82012  0.23810  1.0000
  H   H3697     1.0  0.41439  0.80932  0.13128  1.0000
  H   H3698     1.0  0.58266  0.78301  0.07394  1.0000
  H   H3699     1.0  0.63378  0.98191  0.15364  1.0000
  C   C2110     1.0  0.59582  0.93626  0.00552  1.0000
  H   H3700     1.0  0.40558  0.81785  0.24617  1.0000
  H   H3701     1.0  0.64728  0.76891  0.08500  1.0000
  Fe  Fe219     1.0  0.41137  0.74788  0.18300  1.0000
  C   C2111     1.0  0.43923  0.78116  0.17237  1.0000
  H   H3702     1.0  0.49398  0.90396  0.18230  1.0000
  H   H3703     1.0  0.55799  0.89754  0.16299  1.0000
  H   H3704     1.0  0.64401  0.92472  0.03113  1.0000
  H   H3705     1.0  0.60435  0.88285  0.03097  1.0000
  H   H3706     1.0  0.37630  0.80869  0.17451  1.0000
  H   H3707     1.0  0.37514  0.80821  0.08901  1.0000
  H   H3708     1.0  0.39195  0.76884  0.23859  1.0000
  H   H3709     1.0  0.43584  0.82787  0.23409  1.0000
  H   H3710     1.0  0.53029  0.91886  0.16493  1.0000
  H   H3711     1.0  0.51530  0.89629  0.20445  1.0000
  S   S463      1.0  0.50178  0.75357  0.06729  1.0000
  Fe  Fe220     1.0  0.52805  0.74426  0.04673  1.0000
  H   H3712     1.0  0.51313  0.89444  0.16508  1.0000
  H   H3713     1.0  0.62287  0.81487  0.11877  1.0000
  H   H3714     1.0  0.62760  0.90229  0.02323  1.0000
  Fe  Fe221     1.0  0.59543  0.97813  0.14133  1.0000
  H   H3715     1.0  0.43083  0.75124  0.12860  1.0000
  H   H3716     1.0  0.38523  0.75542  0.02871  1.0000
  H   H3717     1.0  0.53951  0.93821  0.24517  1.0000
  H   H3718     1.0  0.41953  0.94997  0.98215  1.0000
  H   H3719     1.0  0.59160  0.95131  0.05877  1.0000
  Fe  Fe222     1.0  0.60530  0.97699  0.10001  1.0000
  H   H3720     1.0  0.58283  0.95792  0.98464  1.0000
  H   H3721     1.0  0.57062  0.92231  0.05733  1.0000
  H   H3722     1.0  0.53068  0.90920  0.21710  1.0000
  C   C2112     1.0  0.48811  0.74239  0.02144  1.0000
  H   H3723     1.0  0.45077  0.74096  0.03112  1.0000
  H   H3724     1.0  0.59598  0.74684  0.09062  1.0000
  H   H3725     1.0  0.34462  0.76597  0.03955  1.0000
  H   H3726     1.0  0.59946  0.96257  0.00799  1.0000
  H   H3727     1.0  0.33604  0.80169  0.14477  1.0000
  H   H3728     1.0  0.56310  0.93914  0.07221  1.0000
  C   C2113     1.0  0.41348  0.74975  0.03349  1.0000
  H   H3729     1.0  0.46855  0.85787  0.99717  1.0000
  C   C2114     1.0  0.32746  0.76508  0.06740  1.0000
  C   C2115     1.0  0.52539  0.95855  0.17771  1.0000
  H   H3730     1.0  0.45854  0.89148  0.99808  1.0000
  C   C2116     1.0  0.46987  0.74001  0.12381  1.0000
  C   C2117     1.0  0.58854  0.74093  0.08350  1.0000
  C   C2118     1.0  0.39249  0.75769  0.03859  1.0000
  H   H3731     1.0  0.46167  0.74774  0.13498  1.0000
  H   H3732     1.0  0.32923  0.74178  0.18374  1.0000
  H   H3733     1.0  0.43828  0.78972  0.98954  1.0000
  C   C2119     1.0  0.45478  0.74946  0.01681  1.0000
  C   C2120     1.0  0.63419  0.96979  0.01435  1.0000
  S   S464      1.0  0.63370  0.88489  0.06156  1.0000
  H   H3734     1.0  0.38650  0.75065  0.05298  1.0000
  C   C2121     1.0  0.49037  0.75465  0.14144  1.0000
  C   C2122     1.0  0.52024  0.82184  0.99144  1.0000
  H   H3735     1.0  0.64773  0.79360  0.01270  1.0000
  H   H3736     1.0  0.33311  0.79316  0.27038  1.0000
  H   H3737     1.0  0.42038  0.74228  0.23742  1.0000
  C   C2123     1.0  0.53143  0.97729  0.16912  1.0000
  H   H3738     1.0  0.53531  0.79516  0.98381  1.0000
  H   H3739     1.0  0.54042  0.97967  0.17735  1.0000
  H   H3740     1.0  0.64550  0.74672  0.15269  1.0000
  C   C2124     1.0  0.64998  0.86829  0.98198  1.0000
  H   H3741     1.0  0.64871  0.74354  0.01397  1.0000
  N   N117      1.0  0.63172  0.73428  0.04132  1.0000
  H   H3742     1.0  0.60321  0.88023  0.98304  1.0000
  C   C2125     1.0  0.42287  0.91970  0.98309  1.0000
  H   H3743     1.0  0.50238  0.73419  0.01709  1.0000
  H   H3744     1.0  0.65227  0.73686  0.05502  1.0000
  H   H3745     1.0  0.44818  0.88551  0.98221  1.0000
  H   H3746     1.0  0.39888  0.94348  0.98075  1.0000
  H   H3747     1.0  0.35977  0.93218  0.98055  1.0000
  C   C2126     1.0  0.61776  0.88124  0.97896  1.0000
  C   C2127     1.0  0.32464  0.73596  0.13682  1.0000
  H   H3748     1.0  0.32470  0.76970  0.15905  1.0000
  C   C2128     1.0  0.37735  0.90488  0.97914  1.0000
  C   C2129     1.0  0.65482  0.76703  0.27468  1.0000
  Fe  Fe223     1.0  0.32478  0.74527  0.73034  1.0000
  S   S465      1.0  0.34008  0.78943  0.69689  1.0000
  H   H3749     1.0  0.37397  0.80870  0.67792  1.0000
  C   C2130     1.0  0.33219  0.97009  0.58003  1.0000
  S   S466      1.0  0.35485  0.74626  0.71791  1.0000
  Fe  Fe224     1.0  0.34743  0.77481  0.72499  1.0000
  S   S467      1.0  0.36919  0.77754  0.73947  1.0000
  Fe  Fe225     1.0  0.34548  0.76051  0.69116  1.0000
  H   H3750     1.0  0.32347  0.93283  0.83812  1.0000
  N   N118      1.0  0.40591  0.75989  0.80588  1.0000
  S   S468      1.0  0.62217  0.94771  0.90380  1.0000
  Fe  Fe226     1.0  0.40534  0.85780  0.80881  1.0000
  S   S469      1.0  0.40952  0.87436  0.77926  1.0000
  S   S470      1.0  0.38700  0.86926  0.83352  1.0000
  Fe  Fe227     1.0  0.43378  0.82390  0.79864  1.0000
  S   S471      1.0  0.44068  0.83761  0.76817  1.0000
  S   S472      1.0  0.44782  0.79461  0.81038  1.0000
  Fe  Fe228     1.0  0.44025  0.86308  0.77877  1.0000
  S   S473      1.0  0.46288  0.88050  0.76780  1.0000
  Fe  Fe229     1.0  0.40941  0.84745  0.77163  1.0000
  S   S474      1.0  0.39151  0.84840  0.75138  1.0000
  S   S475      1.0  0.43577  0.84832  0.80877  1.0000
  S   S476      1.0  0.40271  0.83195  0.80149  1.0000
  Fe  Fe230     1.0  0.39275  0.95967  0.85539  1.0000
  S   S477      1.0  0.40936  0.96306  0.87404  1.0000
  S   S478      1.0  0.40657  0.94618  0.83069  1.0000
  H   H3751     1.0  0.44480  0.79122  0.95508  1.0000
  C   C2131     1.0  0.41940  0.94667  0.95501  1.0000
  H   H3752     1.0  0.64527  0.94135  0.79087  1.0000
  Fe  Fe231     1.0  0.61432  0.93915  0.93520  1.0000
  Fe  Fe232     1.0  0.38595  0.95479  0.89772  1.0000
  S   S479      1.0  0.39973  0.93023  0.91774  1.0000
  H   H3753     1.0  0.41637  0.83157  0.93547  1.0000
  S   S480      1.0  0.37021  0.94985  0.87883  1.0000
  Fe  Fe233     1.0  0.53018  0.94651  0.84109  1.0000
  S   S481      1.0  0.54097  0.92731  0.82074  1.0000
  S   S482      1.0  0.53802  0.93841  0.86942  1.0000
  Fe  Fe234     1.0  0.51153  0.93421  0.81600  1.0000
  S   S483      1.0  0.49366  0.91243  0.82137  1.0000
  S   S484      1.0  0.50059  0.95173  0.83803  1.0000
  H   H3754     1.0  0.46694  0.75930  0.76685  1.0000
  C   C2132     1.0  0.40346  0.75318  0.69965  1.0000
  H   H3755     1.0  0.43672  0.75594  0.82503  1.0000
  C   C2133     1.0  0.35400  0.81861  0.95191  1.0000
  H   H3756     1.0  0.44899  0.86744  0.94476  1.0000
  H   H3757     1.0  0.38401  0.94499  0.80225  1.0000
  C   C2134     1.0  0.40511  0.79125  0.95680  1.0000
  C   C2135     1.0  0.37610  0.93146  0.95250  1.0000
  H   H3758     1.0  0.41405  0.79887  0.94540  1.0000
  C   C2136     1.0  0.55171  0.95228  0.87288  1.0000
  C   C2137     1.0  0.40132  0.77499  0.95466  1.0000
  C   C2138     1.0  0.38970  0.92058  0.94099  1.0000
  C   C2139     1.0  0.35089  0.92006  0.80076  1.0000
  H   H3759     1.0  0.40947  0.84026  0.66045  1.0000
  C   C2140     1.0  0.42212  0.83733  0.92063  1.0000
  C   C2141     1.0  0.34944  0.94207  0.82066  1.0000
  C   C2142     1.0  0.39700  0.90185  0.94857  1.0000
  H   H3760     1.0  0.34575  0.83393  0.67671  1.0000
  H   H3761     1.0  0.40753  0.89336  0.93976  1.0000
  C   C2143     1.0  0.44625  0.79090  0.83456  1.0000
  C   C2144     1.0  0.45613  0.77427  0.84393  1.0000
  C   C2145     1.0  0.45518  0.77140  0.86323  1.0000
  C   C2146     1.0  0.44486  0.78542  0.87301  1.0000
  C   C2147     1.0  0.43498  0.80199  0.86363  1.0000
  C   C2148     1.0  0.43537  0.80456  0.84453  1.0000
  H   H3762     1.0  0.46445  0.76359  0.83628  1.0000
  H   H3763     1.0  0.42687  0.81278  0.87115  1.0000
  H   H3764     1.0  0.42722  0.81714  0.83755  1.0000
  C   C2149     1.0  0.47130  0.88966  0.78260  1.0000
  C   C2150     1.0  0.48631  0.89901  0.77506  1.0000
  C   C2151     1.0  0.49331  0.90635  0.78654  1.0000
  C   C2152     1.0  0.48533  0.90436  0.80570  1.0000
  C   C2153     1.0  0.47034  0.89511  0.81311  1.0000
  C   C2154     1.0  0.46329  0.88787  0.80171  1.0000
  H   H3765     1.0  0.49259  0.90053  0.76027  1.0000
  H   H3766     1.0  0.50492  0.91338  0.78057  1.0000
  H   H3767     1.0  0.46397  0.89378  0.82777  1.0000
  H   H3768     1.0  0.45153  0.88110  0.80768  1.0000
  C   C2155     1.0  0.39310  0.89009  0.83328  1.0000
  C   C2156     1.0  0.40741  0.89676  0.81920  1.0000
  C   C2157     1.0  0.41169  0.91384  0.81867  1.0000
  C   C2158     1.0  0.40173  0.92426  0.83229  1.0000
  C   C2159     1.0  0.38778  0.91730  0.84661  1.0000
  C   C2160     1.0  0.38338  0.90030  0.84708  1.0000
  H   H3769     1.0  0.41515  0.88889  0.80857  1.0000
  H   H3770     1.0  0.42259  0.91903  0.80757  1.0000
  H   H3771     1.0  0.37992  0.92517  0.85703  1.0000
  H   H3772     1.0  0.37223  0.89525  0.85794  1.0000
  C   C2161     1.0  0.37439  0.79744  0.74351  1.0000
  C   C2162     1.0  0.39057  0.79507  0.75033  1.0000
  C   C2163     1.0  0.39563  0.81045  0.75343  1.0000
  C   C2164     1.0  0.38468  0.82845  0.74942  1.0000
  C   C2165     1.0  0.36854  0.83083  0.74252  1.0000
  C   C2166     1.0  0.36329  0.81537  0.73976  1.0000
  H   H3773     1.0  0.39935  0.78127  0.75294  1.0000
  H   H3774     1.0  0.40825  0.80852  0.75841  1.0000
  H   H3775     1.0  0.36005  0.84472  0.73930  1.0000
  H   H3776     1.0  0.35077  0.81736  0.73459  1.0000
  H   H3777     1.0  0.37056  0.94597  0.94684  1.0000
  H   H3778     1.0  0.36958  0.83711  0.70241  1.0000
  C   C2167     1.0  0.37009  0.92365  0.97159  1.0000
  H   H3779     1.0  0.37570  0.76330  0.81295  1.0000
  H   H3780     1.0  0.42410  0.80409  0.66424  1.0000
  H   H3781     1.0  0.46152  0.96481  0.79836  1.0000
  H   H3782     1.0  0.48764  0.98081  0.89440  1.0000
  H   H3783     1.0  0.52558  0.86630  0.83178  1.0000
  C   C2168     1.0  0.62332  0.89588  0.96445  1.0000
  H   H3784     1.0  0.38136  0.77637  0.69327  1.0000
  N   N119      1.0  0.45780  0.92025  0.89454  1.0000
  C   C2169     1.0  0.44741  0.91292  0.88449  1.0000
  C   C2170     1.0  0.45491  0.91069  0.91512  1.0000
  C   C2171     1.0  0.44943  0.94088  0.89336  1.0000
  C   C2172     1.0  0.47831  0.91828  0.88546  1.0000
  C   C2173     1.0  0.48926  0.89836  0.88322  1.0000
  C   C2174     1.0  0.44908  0.92131  0.86325  1.0000
  C   C2175     1.0  0.57429  0.98137  0.77115  1.0000
  C   C2176     1.0  0.45230  0.89012  0.92041  1.0000
  C   C2177     1.0  0.45140  0.88194  0.94131  1.0000
  C   C2178     1.0  0.50915  0.89880  0.87180  1.0000
  C   C2179     1.0  0.43837  0.91223  0.85495  1.0000
  H   H3785     1.0  0.41015  0.87043  0.89302  1.0000
  H   H3786     1.0  0.43223  0.91524  0.89122  1.0000
  H   H3787     1.0  0.45209  0.89756  0.88575  1.0000
  H   H3788     1.0  0.46662  0.91119  0.92114  1.0000
  H   H3789     1.0  0.44197  0.91837  0.92329  1.0000
  H   H3790     1.0  0.43402  0.94289  0.89870  1.0000
  H   H3791     1.0  0.45162  0.94878  0.87860  1.0000
  H   H3792     1.0  0.48021  0.92778  0.87138  1.0000
  H   H3793     1.0  0.48575  0.92306  0.89358  1.0000
  H   H3794     1.0  0.48256  0.89200  0.87581  1.0000
  H   H3795     1.0  0.49041  0.88927  0.89716  1.0000
  H   H3796     1.0  0.44296  0.93646  0.86059  1.0000
  H   H3797     1.0  0.46386  0.91900  0.85555  1.0000
  H   H3798     1.0  0.53135  0.81422  0.96426  1.0000
  C   C2180     1.0  0.52772  0.85274  0.84203  1.0000
  H   H3799     1.0  0.43887  0.88954  0.91748  1.0000
  H   H3800     1.0  0.46376  0.88096  0.91243  1.0000
  H   H3801     1.0  0.41522  0.77571  0.77800  1.0000
  H   H3802     1.0  0.46473  0.88150  0.94505  1.0000
  H   H3803     1.0  0.43964  0.89045  0.94983  1.0000
  H   H3804     1.0  0.51678  0.90490  0.87857  1.0000
  H   H3805     1.0  0.51693  0.88435  0.87070  1.0000
  H   H3806     1.0  0.50888  0.90723  0.85738  1.0000
  H   H3807     1.0  0.43998  0.91826  0.83969  1.0000
  H   H3808     1.0  0.44393  0.89693  0.85695  1.0000
  H   H3809     1.0  0.42326  0.91493  0.86163  1.0000
  H   H3810     1.0  0.45858  0.80386  0.96116  1.0000
  H   H3811     1.0  0.37020  0.86532  0.91331  1.0000
  H   H3812     1.0  0.35880  0.80403  0.94961  1.0000
  H   H3813     1.0  0.41110  0.74102  0.86194  1.0000
  C   C2181     1.0  0.62917  0.97722  0.82901  1.0000
  H   H3814     1.0  0.34457  0.95201  0.85448  1.0000
  H   H3815     1.0  0.37307  0.89899  0.89956  1.0000
  H   H3816     1.0  0.35283  0.98322  0.83547  1.0000
  H   H3817     1.0  0.46279  0.75853  0.87043  1.0000
  H   H3818     1.0  0.43529  0.81664  0.68157  1.0000
  H   H3819     1.0  0.40358  0.80200  0.65890  1.0000
  C   C2182     1.0  0.56321  0.94472  0.88597  1.0000
  C   C2183     1.0  0.36180  0.94931  0.78673  1.0000
  C   C2184     1.0  0.45316  0.76851  0.77100  1.0000
  H   H3820     1.0  0.42041  0.78241  0.69218  1.0000
  S   S485      1.0  0.59181  0.96491  0.93820  1.0000
  C   C2185     1.0  0.59979  0.95030  0.81624  1.0000
  H   H3821     1.0  0.41609  0.82159  0.62712  1.0000
  H   H3822     1.0  0.41870  0.76305  0.85609  1.0000
  C   C2186     1.0  0.41898  0.83107  0.63449  1.0000
  H   H3823     1.0  0.47163  0.95253  0.89701  1.0000
  H   H3824     1.0  0.39204  0.89498  0.91138  1.0000
  H   H3825     1.0  0.37484  0.84359  0.67746  1.0000
  C   C2187     1.0  0.52245  0.92636  0.93383  1.0000
  S   S486      1.0  0.39077  0.74156  0.96786  1.0000
  H   H3826     1.0  0.54901  0.81308  0.97671  1.0000
  N   N120      1.0  0.34731  0.94038  0.80186  1.0000
  H   H3827     1.0  0.40134  0.77373  0.67433  1.0000
  C   C2188     1.0  0.50377  0.78240  0.86165  1.0000
  H   H3828     1.0  0.41517  0.93746  0.94837  1.0000
  H   H3829     1.0  0.38273  0.80228  0.87351  1.0000
  H   H3830     1.0  0.37488  0.81113  0.90419  1.0000
  H   H3831     1.0  0.65462  0.95867  0.97830  1.0000
  C   C2189     1.0  0.39473  0.87408  0.89521  1.0000
  H   H3832     1.0  0.33847  0.82182  0.95568  1.0000
  H   H3833     1.0  0.40685  0.77062  0.94144  1.0000
  H   H3834     1.0  0.62279  0.96642  0.79035  1.0000
  H   H3835     1.0  0.37174  0.80472  0.70254  1.0000
  H   H3836     1.0  0.59079  0.92673  0.83755  1.0000
  H   H3837     1.0  0.42631  0.95873  0.78970  1.0000
  C   C2190     1.0  0.42226  0.74864  0.85342  1.0000
  C   C2191     1.0  0.39560  0.95219  0.77293  1.0000
  H   H3838     1.0  0.64197  0.95749  0.85174  1.0000
  C   C2192     1.0  0.33690  0.90843  0.81433  1.0000
  C   C2193     1.0  0.56023  0.98232  0.86777  1.0000
  H   H3839     1.0  0.39828  0.81693  0.71137  1.0000
  H   H3840     1.0  0.40961  0.74657  0.77412  1.0000
  H   H3841     1.0  0.59984  0.96530  0.83641  1.0000
  H   H3842     1.0  0.39939  0.80843  0.89422  1.0000
  C   C2194     1.0  0.57165  0.97478  0.88089  1.0000
  H   H3843     1.0  0.41646  0.84557  0.62602  1.0000
  C   C2195     1.0  0.57320  0.95592  0.88993  1.0000
  H   H3844     1.0  0.42766  0.84248  0.69888  1.0000
  H   H3845     1.0  0.57398  0.94877  0.83718  1.0000
  C   C2196     1.0  0.36855  0.83359  0.68944  1.0000
  H   H3846     1.0  0.34449  0.92724  0.85990  1.0000
  Fe  Fe235     1.0  0.64217  0.96214  0.90895  1.0000
  H   H3847     1.0  0.44614  0.97959  0.89020  1.0000
  C   C2197     1.0  0.39069  0.89395  0.96750  1.0000
  H   H3848     1.0  0.40603  0.77518  0.82637  1.0000
  H   H3849     1.0  0.53444  0.92327  0.92210  1.0000
  H   H3850     1.0  0.53240  0.85506  0.85379  1.0000
  H   H3851     1.0  0.39313  0.96717  0.53104  1.0000
  C   C2198     1.0  0.34102  0.88883  0.81024  1.0000
  H   H3852     1.0  0.36024  0.93018  0.82594  1.0000
  H   H3853     1.0  0.39551  0.90367  0.88642  1.0000
  H   H3854     1.0  0.56427  0.93021  0.89319  1.0000
  H   H3855     1.0  0.60301  0.94160  0.97509  1.0000
  H   H3856     1.0  0.44904  0.93685  0.77166  1.0000
  C   C2199     1.0  0.40495  0.78729  0.69538  1.0000
  H   H3857     1.0  0.38715  0.83031  0.94068  1.0000
  H   H3858     1.0  0.51599  0.80352  0.84065  1.0000
  H   H3859     1.0  0.52557  0.91658  0.94694  1.0000
  C   C2200     1.0  0.44300  0.82858  0.91659  1.0000
  H   H3860     1.0  0.36477  0.91250  0.80393  1.0000
  Fe  Fe236     1.0  0.60156  0.97455  0.90724  1.0000
  S   S487      1.0  0.60656  0.91207  0.95276  1.0000
  H   H3861     1.0  0.60915  0.94148  0.80652  1.0000
  H   H3862     1.0  0.49840  0.79554  0.83437  1.0000
  H   H3863     1.0  0.38716  0.92704  0.78947  1.0000
  H   H3864     1.0  0.43882  0.74602  0.77834  1.0000
  H   H3865     1.0  0.32628  0.93726  0.77681  1.0000
  H   H3866     1.0  0.36778  0.82530  0.87244  1.0000
  Fe  Fe237     1.0  0.50774  0.97568  0.81474  1.0000
  H   H3867     1.0  0.41895  0.74901  0.69618  1.0000
  H   H3868     1.0  0.41025  0.94602  0.77446  1.0000
  C   C2201     1.0  0.42474  0.74915  0.83257  1.0000
  C   C2202     1.0  0.58469  0.93975  0.82841  1.0000
  H   H3869     1.0  0.43584  0.76286  0.97731  1.0000
  H   H3870     1.0  0.35453  0.83159  0.92293  1.0000
  C   C2203     1.0  0.38556  0.86025  0.91205  1.0000
  H   H3871     1.0  0.52808  0.95719  0.90621  1.0000
  S   S488      1.0  0.51641  0.95899  0.79229  1.0000
  H   H3872     1.0  0.58186  0.95000  0.90021  1.0000
  H   H3873     1.0  0.51438  0.77067  0.85637  1.0000
  H   H3874     1.0  0.34115  0.85194  0.68986  1.0000
  C   C2204     1.0  0.45188  0.97687  0.83298  1.0000
  H   H3875     1.0  0.43157  0.80007  0.70364  1.0000
  C   C2205     1.0  0.39773  0.79745  0.97359  1.0000
  H   H3876     1.0  0.45155  0.96183  0.83847  1.0000
  H   H3877     1.0  0.39258  0.96738  0.77293  1.0000
  C   C2206     1.0  0.40575  0.81902  0.69640  1.0000
  Fe  Fe238     1.0  0.44197  0.75352  0.91243  1.0000
  H   H3878     1.0  0.42069  0.85259  0.91905  1.0000
  H   H3879     1.0  0.44666  0.82413  0.70588  1.0000
  H   H3880     1.0  0.60358  0.97462  0.75845  1.0000
  C   C2207     1.0  0.38237  0.94226  0.78916  1.0000
  H   H3881     1.0  0.39080  0.87402  0.88213  1.0000
  C   C2208     1.0  0.50211  0.79966  0.84571  1.0000
  C   C2209     1.0  0.41439  0.94076  0.97637  1.0000
  H   H3882     1.0  0.64604  0.94010  0.83169  1.0000
  H   H3883     1.0  0.44259  0.97064  0.77181  1.0000
  H   H3884     1.0  0.59269  0.96322  0.80774  1.0000
  H   H3885     1.0  0.46823  0.94272  0.77716  1.0000
  H   H3886     1.0  0.32333  0.74392  0.82143  1.0000
  C   C2210     1.0  0.33155  0.94357  0.83653  1.0000
  C   C2211     1.0  0.44515  0.97078  0.90454  1.0000
  C   C2212     1.0  0.38841  0.89411  0.89840  1.0000
  H   H3887     1.0  0.39164  0.83511  0.65186  1.0000
  C   C2213     1.0  0.45708  0.95109  0.90407  1.0000
  S   S489      1.0  0.44097  0.74559  0.94326  1.0000
  H   H3888     1.0  0.49018  0.77786  0.86724  1.0000
  H   H3889     1.0  0.34258  0.73608  0.75714  1.0000
  S   S490      1.0  0.44468  0.78275  0.89675  1.0000
  H   H3890     1.0  0.53249  0.94785  0.93919  1.0000
  H   H3891     1.0  0.50413  0.95683  0.91385  1.0000
  H   H3892     1.0  0.44986  0.83172  0.92633  1.0000
  Fe  Fe239     1.0  0.54487  0.95372  0.79900  1.0000
  H   H3893     1.0  0.50969  0.92390  0.93113  1.0000
  C   C2214     1.0  0.55035  0.97110  0.86372  1.0000
  H   H3894     1.0  0.51460  0.83287  0.82593  1.0000
  H   H3895     1.0  0.35478  0.95487  0.81919  1.0000
  C   C2215     1.0  0.51955  0.94658  0.93584  1.0000
  H   H3896     1.0  0.43549  0.74117  0.85808  1.0000
  C   C2216     1.0  0.40691  0.76055  0.82537  1.0000
  C   C2217     1.0  0.38664  0.77048  0.80291  1.0000
  C   C2218     1.0  0.34775  0.83704  0.68950  1.0000
  H   H3897     1.0  0.38839  0.86195  0.92515  1.0000
  H   H3898     1.0  0.50652  0.75455  0.95298  1.0000
  H   H3899     1.0  0.41195  0.96129  0.95046  1.0000
  C   C2219     1.0  0.61053  0.95547  0.82837  1.0000
  H   H3900     1.0  0.47731  0.96884  0.92968  1.0000
  H   H3901     1.0  0.51063  0.97257  0.88180  1.0000
  H   H3902     1.0  0.44969  0.83430  0.90196  1.0000
  H   H3903     1.0  0.43392  0.82695  0.63554  1.0000
  H   H3904     1.0  0.53893  0.84241  0.83515  1.0000
  H   H3905     1.0  0.39428  0.95031  0.75931  1.0000
  H   H3906     1.0  0.64655  0.90811  0.94776  1.0000
  C   C2220     1.0  0.39104  0.76412  0.96963  1.0000
  H   H3907     1.0  0.39630  0.87947  0.97312  1.0000
  C   C2221     1.0  0.38137  0.79132  0.80461  1.0000
  C   C2222     1.0  0.36257  0.80106  0.79925  1.0000
  H   H3908     1.0  0.34041  0.96333  0.56820  1.0000
  S   S491      1.0  0.63660  0.95061  0.93993  1.0000
  H   H3909     1.0  0.34056  0.82816  0.70209  1.0000
  H   H3910     1.0  0.39207  0.79906  0.79522  1.0000
  H   H3911     1.0  0.38002  0.79256  0.81921  1.0000
  N   N121      1.0  0.62760  0.96377  0.81816  1.0000
  H   H3912     1.0  0.35119  0.79436  0.80890  1.0000
  H   H3913     1.0  0.35941  0.81603  0.80016  1.0000
  C   C2223     1.0  0.33635  0.94154  0.85540  1.0000
  H   H3914     1.0  0.36489  0.73788  0.63048  1.0000
  C   C2224     1.0  0.43146  0.82759  0.70604  1.0000
  C   C2225     1.0  0.40621  0.83033  0.65396  1.0000
  H   H3915     1.0  0.50765  0.94896  0.94778  1.0000
  N   N122      1.0  0.39944  0.80777  0.68638  1.0000
  H   H3916     1.0  0.35937  0.81959  0.96385  1.0000
  C   C2226     1.0  0.44103  0.96051  0.78537  1.0000
  H   H3917     1.0  0.38740  0.81315  0.92860  1.0000
  C   C2227     1.0  0.51572  0.96051  0.91750  1.0000
  C   C2228     1.0  0.40884  0.81016  0.66589  1.0000
  H   H3918     1.0  0.46412  0.97739  0.96073  1.0000
  H   H3919     1.0  0.44209  0.95647  0.81393  1.0000
  H   H3920     1.0  0.40179  0.83427  0.69080  1.0000
  C   C2229     1.0  0.64219  0.89697  0.95905  1.0000
  S   S492      1.0  0.36117  0.75179  0.66388  1.0000
  H   H3921     1.0  0.35828  0.96480  0.78550  1.0000
  C   C2230     1.0  0.39685  0.77330  0.68959  1.0000
  C   C2231     1.0  0.37968  0.97719  0.52962  1.0000
  H   H3922     1.0  0.54115  0.97724  0.85402  1.0000
  H   H3923     1.0  0.45183  0.93097  0.79552  1.0000
  H   H3924     1.0  0.52935  0.97800  0.93724  1.0000
  H   H3925     1.0  0.35537  0.84676  0.93729  1.0000
  C   C2232     1.0  0.32829  0.95107  0.79828  1.0000
  H   H3926     1.0  0.36180  0.94693  0.77284  1.0000
  H   H3927     1.0  0.43757  0.91701  0.97507  1.0000
  N   N123      1.0  0.48507  0.83446  0.83867  1.0000
  C   C2233     1.0  0.50267  0.84218  0.83331  1.0000
  C   C2234     1.0  0.47980  0.83296  0.82122  1.0000
  C   C2235     1.0  0.46954  0.84828  0.84802  1.0000
  C   C2236     1.0  0.48676  0.81591  0.85241  1.0000
  H   H3928     1.0  0.39256  0.82271  0.86230  1.0000
  C   C2237     1.0  0.50950  0.84558  0.84948  1.0000
  C   C2238     1.0  0.44979  0.84361  0.85373  1.0000
  C   C2239     1.0  0.49587  0.82864  0.80429  1.0000
  C   C2240     1.0  0.48839  0.82507  0.78898  1.0000
  C   C2241     1.0  0.43443  0.86105  0.85599  1.0000
  H   H3929     1.0  0.50064  0.85583  0.82304  1.0000
  C   C2242     1.0  0.45333  0.94162  0.78225  1.0000
  H   H3930     1.0  0.47105  0.82224  0.82470  1.0000
  H   H3931     1.0  0.47106  0.84647  0.81539  1.0000
  H   H3932     1.0  0.46878  0.86238  0.83872  1.0000
  H   H3933     1.0  0.47237  0.84965  0.86120  1.0000
  H   H3934     1.0  0.48873  0.81751  0.86590  1.0000
  H   H3935     1.0  0.47343  0.81086  0.85613  1.0000
  C   C2243     1.0  0.42696  0.81464  0.69614  1.0000
  H   H3936     1.0  0.49923  0.85642  0.85641  1.0000
  H   H3937     1.0  0.51215  0.83243  0.86006  1.0000
  H   H3938     1.0  0.44851  0.83333  0.86731  1.0000
  H   H3939     1.0  0.44704  0.83741  0.84337  1.0000
  H   H3940     1.0  0.50269  0.84086  0.79796  1.0000
  H   H3941     1.0  0.50669  0.81625  0.80837  1.0000
  H   H3942     1.0  0.47790  0.83747  0.78398  1.0000
  H   H3943     1.0  0.50004  0.82244  0.77687  1.0000
  H   H3944     1.0  0.48183  0.81264  0.79430  1.0000
  H   H3945     1.0  0.50818  0.78543  0.87321  1.0000
  H   H3946     1.0  0.43523  0.87176  0.84269  1.0000
  H   H3947     1.0  0.42051  0.85731  0.85952  1.0000
  H   H3948     1.0  0.43575  0.86704  0.86732  1.0000
  N   N124      1.0  0.39111  0.83994  0.91060  1.0000
  C   C2244     1.0  0.38444  0.83788  0.89429  1.0000
  C   C2245     1.0  0.41208  0.83308  0.90730  1.0000
  C   C2246     1.0  0.38247  0.82833  0.92875  1.0000
  C   C2247     1.0  0.36080  0.83253  0.93421  1.0000
  C   C2248     1.0  0.38552  0.81748  0.89290  1.0000
  H   H3949     1.0  0.42276  0.98018  0.83298  1.0000
  C   C2249     1.0  0.38190  0.81698  0.87413  1.0000
  H   H3950     1.0  0.39270  0.84453  0.88082  1.0000
  H   H3951     1.0  0.36975  0.84566  0.89440  1.0000
  H   H3952     1.0  0.41881  0.83880  0.89269  1.0000
  H   H3953     1.0  0.41574  0.81760  0.90862  1.0000
  H   H3954     1.0  0.44742  0.77551  0.75825  1.0000
  H   H3955     1.0  0.44519  0.81311  0.91874  1.0000
  C   C2250     1.0  0.32438  0.95161  0.77904  1.0000
  H   H3956     1.0  0.63657  0.92545  0.81196  1.0000
  H   H3957     1.0  0.33117  0.88053  0.82046  1.0000
  H   H3958     1.0  0.39755  0.74353  0.69516  1.0000
  C   C2251     1.0  0.44600  0.96698  0.80094  1.0000
  H   H3959     1.0  0.37062  0.97009  0.52572  1.0000
  H   H3960     1.0  0.39856  0.75171  0.71508  1.0000
  H   H3961     1.0  0.40077  0.78529  0.71092  1.0000
  H   H3962     1.0  0.61427  0.94282  0.83928  1.0000
  H   H3963     1.0  0.38509  0.77060  0.78867  1.0000
  H   H3964     1.0  0.33371  0.95935  0.76742  1.0000
  Fe  Fe240     1.0  0.61466  0.97681  0.94136  1.0000
  S   S493      1.0  0.57192  0.95775  0.77837  1.0000
  C   C2252     1.0  0.37834  0.81285  0.68892  1.0000
  H   H3965     1.0  0.45700  0.94355  0.91877  1.0000
  C   C2253     1.0  0.62542  0.97500  0.79882  1.0000
  H   H3966     1.0  0.35539  0.74542  0.80363  1.0000
  H   H3967     1.0  0.35180  0.91878  0.78622  1.0000
  S   S494      1.0  0.53624  0.97211  0.81987  1.0000
  H   H3968     1.0  0.42370  0.82587  0.72088  1.0000
  H   H3969     1.0  0.64205  0.98294  0.82260  1.0000
  H   H3970     1.0  0.61687  0.96430  0.85805  1.0000
  H   H3971     1.0  0.39464  0.75582  0.83572  1.0000
  H   H3972     1.0  0.34094  0.96794  0.59033  1.0000
  C   C2254     1.0  0.53489  0.81038  0.97829  1.0000
  H   H3973     1.0  0.35551  0.88139  0.81153  1.0000
  H   H3974     1.0  0.57772  0.93587  0.81925  1.0000
  H   H3975     1.0  0.36292  0.80049  0.78466  1.0000
  C   C2255     1.0  0.45620  0.78969  0.96235  1.0000
  H   H3976     1.0  0.36806  0.97065  0.55909  1.0000
  H   H3977     1.0  0.40906  0.98195  0.80792  1.0000
  H   H3978     1.0  0.42259  0.78123  0.79572  1.0000
  H   H3979     1.0  0.45010  0.97762  0.91299  1.0000
  C   C2256     1.0  0.42039  0.76927  0.79117  1.0000
  H   H3980     1.0  0.44648  0.74954  0.79728  1.0000
  S   S495      1.0  0.41557  0.74451  0.91425  1.0000
  C   C2257     1.0  0.50508  0.74042  0.96006  1.0000
  H   H3981     1.0  0.45538  0.77933  0.77716  1.0000
  H   H3982     1.0  0.43467  0.94599  0.95007  1.0000
  H   H3983     1.0  0.48646  0.73918  0.94337  1.0000
  Fe  Fe241     1.0  0.41575  0.73451  0.94488  1.0000
  H   H3984     1.0  0.32224  0.95757  0.83342  1.0000
  C   C2258     1.0  0.62984  0.96927  0.85000  1.0000
  H   H3985     1.0  0.46923  0.78124  0.95532  1.0000
  H   H3986     1.0  0.43025  0.97022  0.91093  1.0000
  C   C2259     1.0  0.43990  0.75682  0.78521  1.0000
  H   H3987     1.0  0.33833  0.90657  0.82895  1.0000
  H   H3988     1.0  0.42826  0.73441  0.83102  1.0000
  H   H3989     1.0  0.45961  0.75249  0.97716  1.0000
  H   H3990     1.0  0.54188  0.97805  0.91374  1.0000
  C   C2260     1.0  0.64512  0.94861  0.81742  1.0000
  Fe  Fe242     1.0  0.35678  0.98040  0.87533  1.0000
  S   S496      1.0  0.40403  0.81739  0.97555  1.0000
  H   H3991     1.0  0.33933  0.88966  0.79589  1.0000
  H   H3992     1.0  0.38824  0.73999  0.78784  1.0000
  N   N125      1.0  0.51191  0.98109  0.91765  1.0000
  C   C2261     1.0  0.40766  0.73982  0.80488  1.0000
  H   H3993     1.0  0.63273  0.97849  0.87367  1.0000
  H   H3994     1.0  0.32329  0.94399  0.86618  1.0000
  H   H3995     1.0  0.41536  0.91153  0.97835  1.0000
  H   H3996     1.0  0.46523  0.97737  0.82269  1.0000
  H   H3997     1.0  0.49736  0.97971  0.94666  1.0000
  H   H3998     1.0  0.32621  0.96588  0.79952  1.0000
  H   H3999     1.0  0.46445  0.97736  0.85545  1.0000
  C   C2262     1.0  0.64706  0.93436  0.80530  1.0000
  C   C2263     1.0  0.40357  0.73703  0.78685  1.0000
  H   H4000     1.0  0.32227  0.91505  0.81312  1.0000
  H   H4001     1.0  0.65511  0.97282  0.78432  1.0000
  H   H4002     1.0  0.35473  0.73358  0.82780  1.0000
  C   C2264     1.0  0.35280  0.73369  0.66010  1.0000
  H   H4003     1.0  0.79636  0.06776  0.38141  1.0000
  H   H4004     1.0  0.82303  0.07282  0.14413  1.0000
  H   H4005     1.0  0.75456  0.18398  0.21814  1.0000
  C   C2265     1.0  0.74495  0.05957  0.13349  1.0000
  H   H4006     1.0  0.80458  0.21485  0.11510  1.0000
  C   C2266     1.0  0.89641  0.00068  0.29816  1.0000
  H   H4007     1.0  0.71198  0.02930  0.24659  1.0000
  Fe  Fe243     1.0  0.93349  0.09170  0.43012  1.0000
  S   S497      1.0  0.92240  0.06616  0.43353  1.0000
  S   S498      1.0  0.91825  0.11833  0.41358  1.0000
  H   H4008     1.0  0.81018  0.04979  0.47334  1.0000
  S   S499      1.0  0.70108  0.19203  0.02994  1.0000
  Fe  Fe244     1.0  0.95227  0.05110  0.43031  1.0000
  S   S500      1.0  0.96501  0.02869  0.41333  1.0000
  C   C2267     1.0  0.75830  0.07095  0.13480  1.0000
  S   S501      1.0  0.96394  0.07695  0.42481  1.0000
  Fe  Fe245     1.0  0.81769  0.13361  0.33322  1.0000
  S   S502      1.0  0.82319  0.15535  0.30685  1.0000
  S   S503      1.0  0.79046  0.12353  0.34485  1.0000
  Fe  Fe246     1.0  0.85792  0.12519  0.33907  1.0000
  S   S504      1.0  0.86670  0.14607  0.31306  1.0000
  S   S505      1.0  0.87877  0.10474  0.35535  1.0000
  Fe  Fe247     1.0  0.83918  0.16451  0.32259  1.0000
  S   S506      1.0  0.83761  0.19430  0.32332  1.0000
  Fe  Fe248     1.0  0.85006  0.13509  0.29968  1.0000
  S   S507      1.0  0.86139  0.12719  0.27182  1.0000
  S   S508      1.0  0.83146  0.14446  0.34988  1.0000
  S   S509      1.0  0.84348  0.11251  0.32462  1.0000
  S   S510      1.0  0.80810  0.05969  0.21924  1.0000
  S   S511      1.0  0.85921  0.03813  0.19352  1.0000
  Fe  Fe249     1.0  0.81240  0.06748  0.24423  1.0000
  S   S512      1.0  0.80230  0.09701  0.24915  1.0000
  Fe  Fe250     1.0  0.82658  0.16942  0.09851  1.0000
  S   S513      1.0  0.83877  0.16211  0.12409  1.0000
  S   S514      1.0  0.83513  0.19060  0.07224  1.0000
  Fe  Fe251     1.0  0.80162  0.14125  0.11498  1.0000
  S   S515      1.0  0.81111  0.13184  0.14218  1.0000
  S   S516      1.0  0.78133  0.12735  0.10982  1.0000
  Fe  Fe252     1.0  0.80927  0.16223  0.14004  1.0000
  S   S517      1.0  0.79703  0.17483  0.16548  1.0000
  Fe  Fe253     1.0  0.83974  0.13225  0.12421  1.0000
  S   S518      1.0  0.86566  0.11032  0.12863  1.0000
  S   S519      1.0  0.79677  0.17192  0.11447  1.0000
  S   S520      1.0  0.83041  0.13936  0.09701  1.0000
  H   H4009     1.0  0.78319  0.05083  0.38185  1.0000
  H   H4010     1.0  0.79673  0.02868  0.16210  1.0000
  C   C2268     1.0  0.74517  0.18297  0.25941  1.0000
  C   C2269     1.0  0.66280  0.20320  0.23043  1.0000
  H   H4011     1.0  0.75711  0.11314  0.27228  1.0000
  S   S521      1.0  0.85964  0.20188  0.18566  1.0000
  H   H4012     1.0  0.78730  0.06362  0.34747  1.0000
  C   C2270     1.0  0.79744  0.05308  0.38049  1.0000
  H   H4013     1.0  0.81069  0.03427  0.36186  1.0000
  H   H4014     1.0  0.73248  0.11686  0.28305  1.0000
  H   H4015     1.0  0.74044  0.20675  0.08992  1.0000
  C   C2271     1.0  0.81420  0.18133  0.17256  1.0000
  C   C2272     1.0  0.83287  0.17191  0.16883  1.0000
  C   C2273     1.0  0.84663  0.17791  0.17359  1.0000
  C   C2274     1.0  0.84188  0.19369  0.18152  1.0000
  C   C2275     1.0  0.82320  0.20303  0.18542  1.0000
  C   C2276     1.0  0.80931  0.19651  0.18141  1.0000
  H   H4016     1.0  0.83667  0.15986  0.16251  1.0000
  H   H4017     1.0  0.86102  0.17053  0.17093  1.0000
  H   H4018     1.0  0.72759  0.18479  0.20219  1.0000
  C   C2277     1.0  0.93204  0.17660  0.04566  1.0000
  C   C2278     1.0  0.77548  0.13803  0.08794  1.0000
  C   C2279     1.0  0.78353  0.15286  0.07630  1.0000
  C   C2280     1.0  0.77727  0.16264  0.05982  1.0000
  C   C2281     1.0  0.76270  0.15787  0.05517  1.0000
  C   C2282     1.0  0.75531  0.14245  0.06632  1.0000
  C   C2283     1.0  0.76182  0.13244  0.08260  1.0000
  H   H4019     1.0  0.79418  0.15718  0.08025  1.0000
  H   H4020     1.0  0.78299  0.17453  0.05126  1.0000
  H   H4021     1.0  0.74428  0.13848  0.06264  1.0000
  H   H4022     1.0  0.75574  0.12082  0.09139  1.0000
  C   C2284     1.0  0.86006  0.05797  0.17510  1.0000
  C   C2285     1.0  0.84447  0.07265  0.17343  1.0000
  C   C2286     1.0  0.84588  0.08865  0.15897  1.0000
  C   C2287     1.0  0.86287  0.09002  0.14614  1.0000
  C   C2288     1.0  0.87835  0.07524  0.14774  1.0000
  C   C2289     1.0  0.87691  0.05923  0.16207  1.0000
  H   H4023     1.0  0.83138  0.07175  0.18331  1.0000
  H   H4024     1.0  0.83392  0.09998  0.15802  1.0000
  H   H4025     1.0  0.89154  0.07617  0.13793  1.0000
  H   H4026     1.0  0.88900  0.04792  0.16326  1.0000
  H   H4027     1.0  0.75354  0.18688  0.34934  1.0000
  C   C2290     1.0  0.81842  0.10539  0.25605  1.0000
  C   C2291     1.0  0.83623  0.09452  0.25700  1.0000
  C   C2292     1.0  0.84941  0.10140  0.26161  1.0000
  C   C2293     1.0  0.84458  0.11897  0.26616  1.0000
  C   C2294     1.0  0.82651  0.12975  0.26598  1.0000
  C   C2295     1.0  0.81354  0.12309  0.26056  1.0000
  H   H4028     1.0  0.84007  0.08085  0.25400  1.0000
  H   H4029     1.0  0.86336  0.09303  0.26181  1.0000
  H   H4030     1.0  0.82271  0.14337  0.26960  1.0000
  H   H4031     1.0  0.79970  0.13153  0.26017  1.0000
  C   C2296     1.0  0.84079  0.21062  0.30186  1.0000
  S   S522      1.0  0.67211  0.09009  0.19661  1.0000
  Fe  Fe254     1.0  0.72300  0.16894  0.04169  1.0000
  H   H4032     1.0  0.72210  0.19158  0.23363  1.0000
  H   H4033     1.0  0.73758  0.23043  0.98935  1.0000
  C   C2297     1.0  0.84175  0.20632  0.28464  1.0000
  N   N126      1.0  0.90434  0.14671  0.08951  1.0000
  H   H4034     1.0  0.69913  0.13153  0.18149  1.0000
  H   H4035     1.0  0.90860  0.20350  0.30077  1.0000
  H   H4036     1.0  0.84055  0.19252  0.28420  1.0000
  C   C2298     1.0  0.77244  0.13660  0.33310  1.0000
  C   C2299     1.0  0.75699  0.12899  0.33463  1.0000
  C   C2300     1.0  0.74229  0.13948  0.32572  1.0000
  C   C2301     1.0  0.74286  0.15774  0.31553  1.0000
  C   C2302     1.0  0.75831  0.16530  0.31400  1.0000
  C   C2303     1.0  0.77304  0.15478  0.32273  1.0000
  H   H4037     1.0  0.75638  0.11498  0.34272  1.0000
  H   H4038     1.0  0.80164  0.11773  0.21086  1.0000
  H   H4039     1.0  0.75877  0.17949  0.30631  1.0000
  H   H4040     1.0  0.78458  0.16101  0.32187  1.0000
  C   C2304     1.0  0.90749  0.11501  0.39695  1.0000
  C   C2305     1.0  0.89233  0.12860  0.39113  1.0000
  C   C2306     1.0  0.88330  0.12576  0.37833  1.0000
  C   C2307     1.0  0.88969  0.10952  0.37099  1.0000
  C   C2308     1.0  0.90506  0.09623  0.37651  1.0000
  C   C2309     1.0  0.91383  0.09887  0.38950  1.0000
  H   H4041     1.0  0.88730  0.14109  0.39689  1.0000
  H   H4042     1.0  0.87128  0.13594  0.37436  1.0000
  H   H4043     1.0  0.91026  0.08376  0.37070  1.0000
  H   H4044     1.0  0.92570  0.08848  0.39356  1.0000
  C   C2310     1.0  0.94988  0.01853  0.40691  1.0000
  C   C2311     1.0  0.93132  0.01925  0.41665  1.0000
  Fe  Fe255     1.0  0.69861  0.16121  0.30752  1.0000
  H   H4045     1.0  0.88243  0.21180  0.28432  1.0000
  H   H4046     1.0  0.76927  0.14031  0.24936  1.0000
  H   H4047     1.0  0.92591  0.02654  0.42809  1.0000
  C   C2312     1.0  0.91996  0.00987  0.41204  1.0000
  H   H4048     1.0  0.74515  0.01469  0.22692  1.0000
  S   S523      1.0  0.67971  0.06482  0.16559  1.0000
  S   S524      1.0  0.82604  0.01599  0.23841  1.0000
  H   H4049     1.0  0.72456  0.03331  0.20492  1.0000
  C   C2313     1.0  0.87885  0.02583  0.46132  1.0000
  H   H4050     1.0  0.66000  0.99074  0.16093  1.0000
  C   C2314     1.0  0.72592  0.21581  0.26150  1.0000
  C   C2315     1.0  0.74964  0.17237  0.22941  1.0000
  H   H4051     1.0  0.90003  0.04203  0.45403  1.0000
  C   C2316     1.0  0.74513  0.12304  0.27888  1.0000
  C   C2317     1.0  0.95692  0.00858  0.39244  1.0000
  C   C2318     1.0  0.71269  0.15533  0.38317  1.0000
  H   H4052     1.0  0.85443  0.20671  0.13656  1.0000
  C   C2319     1.0  0.87263  0.20554  0.09161  1.0000
  C   C2320     1.0  0.85649  0.20047  0.09063  1.0000
  C   C2321     1.0  0.85338  0.20033  0.07331  1.0000
  C   C2322     1.0  0.86566  0.20690  0.05682  1.0000
  C   C2323     1.0  0.88181  0.21213  0.05780  1.0000
  H   H4053     1.0  0.86754  0.07627  0.47263  1.0000
  H   H4054     1.0  0.84667  0.19628  0.10333  1.0000
  H   H4055     1.0  0.86318  0.20711  0.04333  1.0000
  Fe  Fe256     1.0  0.84991  0.23056  0.19233  1.0000
  H   H4056     1.0  0.80335  0.04347  0.39236  1.0000
  Fe  Fe257     1.0  0.83648  0.04107  0.21928  1.0000
  N   N127      1.0  0.72488  0.16152  0.13198  1.0000
  C   C2324     1.0  0.72642  0.14492  0.12375  1.0000
  C   C2325     1.0  0.73435  0.17620  0.11755  1.0000
  C   C2326     1.0  0.73548  0.15468  0.14764  1.0000
  C   C2327     1.0  0.70485  0.16979  0.14012  1.0000
  C   C2328     1.0  0.69040  0.17326  0.12781  1.0000
  C   C2329     1.0  0.71815  0.12833  0.13733  1.0000
  H   H4057     1.0  0.81733  0.10429  0.47139  1.0000
  C   C2330     1.0  0.73298  0.17937  0.09686  1.0000
  C   C2331     1.0  0.74439  0.19375  0.08440  1.0000
  S   S525      1.0  0.84182  0.05070  0.24255  1.0000
  C   C2332     1.0  0.71685  0.11431  0.12667  1.0000
  H   H4058     1.0  0.80472  0.06031  0.12742  1.0000
  H   H4059     1.0  0.74136  0.13924  0.11810  1.0000
  H   H4060     1.0  0.71973  0.14917  0.11148  1.0000
  H   H4061     1.0  0.72906  0.19014  0.12151  1.0000
  H   H4062     1.0  0.74969  0.17265  0.11715  1.0000
  H   H4063     1.0  0.75007  0.14752  0.14221  1.0000
  H   H4064     1.0  0.72920  0.14398  0.15895  1.0000
  H   H4065     1.0  0.69977  0.16074  0.15377  1.0000
  H   H4066     1.0  0.70387  0.18350  0.14357  1.0000
  H   H4067     1.0  0.69091  0.16074  0.12258  1.0000
  H   H4068     1.0  0.69275  0.18496  0.11576  1.0000
  H   H4069     1.0  0.72723  0.12062  0.14745  1.0000
  H   H4070     1.0  0.70388  0.13317  0.14529  1.0000
  H   H4071     1.0  0.65680  0.13477  0.23960  1.0000
  C   C2333     1.0  0.71624  0.14124  0.37031  1.0000
  H   H4072     1.0  0.73885  0.16635  0.09146  1.0000
  H   H4073     1.0  0.71839  0.18443  0.09513  1.0000
  H   H4074     1.0  0.77677  0.16692  0.37937  1.0000
  C   C2334     1.0  0.76592  0.14123  0.99412  1.0000
  H   H4075     1.0  0.74964  0.19205  0.37227  1.0000
  H   H4076     1.0  0.71138  0.10235  0.13674  1.0000
  H   H4077     1.0  0.70717  0.12104  0.11695  1.0000
  H   H4078     1.0  0.73083  0.10884  0.11850  1.0000
  C   C2335     1.0  0.74153  0.14186  0.26525  1.0000
  H   H4079     1.0  0.83206  0.19341  0.00809  1.0000
  H   H4080     1.0  0.81849  0.16533  0.02586  1.0000
  C   C2336     1.0  0.77646  0.17470  0.24074  1.0000
  C   C2337     1.0  0.79104  0.16441  0.22603  1.0000
  C   C2338     1.0  0.81042  0.16814  0.22407  1.0000
  H   H4081     1.0  0.75081  0.18009  0.27228  1.0000
  H   H4082     1.0  0.78251  0.17223  0.25333  1.0000
  H   H4083     1.0  0.77570  0.18978  0.23422  1.0000
  H   H4084     1.0  0.75572  0.20892  0.25228  1.0000
  H   H4085     1.0  0.78715  0.16961  0.21213  1.0000
  H   H4086     1.0  0.79234  0.14905  0.22965  1.0000
  H   H4087     1.0  0.75287  0.04685  0.12801  1.0000
  C   C2339     1.0  0.73434  0.03961  0.20802  1.0000
  H   H4088     1.0  0.82041  0.16240  0.21230  1.0000
  H   H4089     1.0  0.80992  0.18340  0.22128  1.0000
  H   H4090     1.0  0.81572  0.16139  0.23708  1.0000
  H   H4091     1.0  0.67904  0.12061  0.21195  1.0000
  C   C2340     1.0  0.68248  0.13456  0.20922  1.0000
  S   S526      1.0  0.70602  0.16358  0.07102  1.0000
  H   H4092     1.0  0.93105  0.21917  0.14885  1.0000
  H   H4093     1.0  0.74158  0.05391  0.30189  1.0000
  H   H4094     1.0  0.79152  0.08334  0.12228  1.0000
  H   H4095     1.0  0.88772  0.00860  0.22262  1.0000
  C   C2341     1.0  0.77362  0.08754  0.15712  1.0000
  H   H4096     1.0  0.84272  0.01658  0.43246  1.0000
  H   H4097     1.0  0.77114  0.12462  0.15950  1.0000
  H   H4098     1.0  0.78746  0.22560  0.99247  1.0000
  H   H4099     1.0  0.91922  0.20248  0.37574  1.0000
  H   H4100     1.0  0.87672  0.20100  0.31957  1.0000
  C   C2342     1.0  0.66388  0.16763  0.37077  1.0000
  C   C2343     1.0  0.86318  0.19125  0.35896  1.0000
  S   S527      1.0  0.70094  0.21703  0.17100  1.0000
  C   C2344     1.0  0.74691  0.06937  0.25967  1.0000
  C   C2345     1.0  0.92458  0.98443  0.46478  1.0000
  H   H4101     1.0  0.72844  0.08221  0.28133  1.0000
  H   H4102     1.0  0.71192  0.18642  0.43486  1.0000
  C   C2346     1.0  0.66428  0.09838  0.12916  1.0000
  H   H4103     1.0  0.67550  0.16464  0.35937  1.0000
  C   C2347     1.0  0.84246  0.22846  0.30226  1.0000
  C   C2348     1.0  0.90201  0.19497  0.34035  1.0000
  H   H4104     1.0  0.73855  0.19661  0.99928  1.0000
  H   H4105     1.0  0.92294  0.16672  0.32569  1.0000
  H   H4106     1.0  0.85797  0.20157  0.34713  1.0000
  H   H4107     1.0  0.73117  0.13413  0.36777  1.0000
  C   C2349     1.0  0.88960  0.03630  0.46512  1.0000
  C   C2350     1.0  0.66133  0.00466  0.09766  1.0000
  H   H4108     1.0  0.90257  0.01740  0.27031  1.0000
  C   C2351     1.0  0.90991  0.16294  0.33522  1.0000
  N   N128      1.0  0.89445  0.18011  0.33659  1.0000
  C   C2352     1.0  0.81523  0.02682  0.17976  1.0000
  C   C2353     1.0  0.79869  0.07326  0.13311  1.0000
  H   H4109     1.0  0.87927  0.16595  0.09980  1.0000
  C   C2354     1.0  0.71395  0.18537  0.38842  1.0000
  C   C2355     1.0  0.67625  0.09055  0.24352  1.0000
  H   H4110     1.0  0.69322  0.07195  0.29031  1.0000
  H   H4111     1.0  0.72468  0.20486  0.32002  1.0000
  N   N129      1.0  0.72156  0.17226  0.37489  1.0000
  H   H4112     1.0  0.93939  0.14873  0.06126  1.0000
  H   H4113     1.0  0.69033  0.05886  0.26974  1.0000
  C   C2356     1.0  0.89184  0.01176  0.28130  1.0000
  C   C2357     1.0  0.87354  0.01533  0.27842  1.0000
  N   N130      1.0  0.86844  0.04394  0.37999  1.0000
  C   C2358     1.0  0.85581  0.03321  0.39574  1.0000
  C   C2359     1.0  0.85706  0.06158  0.37008  1.0000
  C   C2360     1.0  0.87805  0.03145  0.36608  1.0000
  C   C2361     1.0  0.88335  0.04857  0.38672  1.0000
  C   C2362     1.0  0.87639  0.06025  0.40213  1.0000
  C   C2363     1.0  0.86564  0.01540  0.40789  1.0000
  C   C2364     1.0  0.89059  0.04027  0.34775  1.0000
  C   C2365     1.0  0.83937  0.07183  0.38226  1.0000
  C   C2366     1.0  0.83017  0.09017  0.37094  1.0000
  C   C2367     1.0  0.89193  0.05882  0.41199  1.0000
  C   C2368     1.0  0.85144  0.00641  0.42374  1.0000
  C   C2369     1.0  0.89795  0.02683  0.33423  1.0000
  H   H4114     1.0  0.84573  0.02910  0.39002  1.0000
  H   H4115     1.0  0.84706  0.04198  0.40578  1.0000
  H   H4116     1.0  0.86605  0.07188  0.36253  1.0000
  H   H4117     1.0  0.85207  0.05855  0.35888  1.0000
  H   H4118     1.0  0.86750  0.02633  0.36203  1.0000
  H   H4119     1.0  0.88736  0.01874  0.37246  1.0000
  H   H4120     1.0  0.89338  0.03555  0.39145  1.0000
  H   H4121     1.0  0.89212  0.05687  0.37496  1.0000
  H   H4122     1.0  0.86466  0.05566  0.41315  1.0000
  H   H4123     1.0  0.87190  0.07524  0.39562  1.0000
  H   H4124     1.0  0.87347  0.00473  0.39953  1.0000
  H   H4125     1.0  0.87534  0.01888  0.41448  1.0000
  H   H4126     1.0  0.90295  0.04319  0.35080  1.0000
  H   H4127     1.0  0.88287  0.05353  0.34037  1.0000
  H   H4128     1.0  0.82874  0.06299  0.38781  1.0000
  H   H4129     1.0  0.84264  0.07512  0.39426  1.0000
  H   H4130     1.0  0.81717  0.09667  0.37983  1.0000
  H   H4131     1.0  0.83972  0.10015  0.36605  1.0000
  H   H4132     1.0  0.82642  0.08767  0.35874  1.0000
  H   H4133     1.0  0.89492  0.04469  0.42093  1.0000
  H   H4134     1.0  0.90499  0.06139  0.40175  1.0000
  H   H4135     1.0  0.88745  0.06926  0.42101  1.0000
  H   H4136     1.0  0.69729  0.15983  0.38780  1.0000
  H   H4137     1.0  0.82331  0.01287  0.17716  1.0000
  H   H4138     1.0  0.88624  0.02374  0.33016  1.0000
  H   H4139     1.0  0.90707  0.03324  0.32131  1.0000
  H   H4140     1.0  0.90639  0.01350  0.34073  1.0000
  C   C2370     1.0  0.69917  0.03707  0.25458  1.0000
  N   N131      1.0  0.81244  0.05912  0.32591  1.0000
  C   C2371     1.0  0.80155  0.07213  0.31179  1.0000
  C   C2372     1.0  0.81336  0.03922  0.32500  1.0000
  C   C2373     1.0  0.80258  0.06297  0.34509  1.0000
  C   C2374     1.0  0.83208  0.06232  0.32169  1.0000
  C   C2375     1.0  0.84415  0.05930  0.30225  1.0000
  C   C2376     1.0  0.80228  0.09315  0.30797  1.0000
  C   C2377     1.0  0.81001  0.04906  0.36192  1.0000
  C   C2378     1.0  0.79464  0.03235  0.33230  1.0000
  H   H4141     1.0  0.67552  0.22975  0.25055  1.0000
  C   C2379     1.0  0.86315  0.06441  0.29885  1.0000
  C   C2380     1.0  0.78569  0.10567  0.29989  1.0000
  H   H4142     1.0  0.78659  0.07104  0.31636  1.0000
  H   H4143     1.0  0.80624  0.06785  0.29799  1.0000
  H   H4144     1.0  0.81833  0.03746  0.31023  1.0000
  H   H4145     1.0  0.80351  0.07707  0.34612  1.0000
  H   H4146     1.0  0.83192  0.07665  0.32307  1.0000
  H   H4147     1.0  0.83994  0.05261  0.33214  1.0000
  H   H4148     1.0  0.83718  0.06793  0.29077  1.0000
  H   H4149     1.0  0.84683  0.04440  0.30138  1.0000
  H   H4150     1.0  0.80200  0.09766  0.32075  1.0000
  H   H4151     1.0  0.81540  0.09581  0.29788  1.0000
  H   H4152     1.0  0.82423  0.05041  0.36167  1.0000
  H   H4153     1.0  0.78850  0.03326  0.34712  1.0000
  H   H4154     1.0  0.78427  0.04091  0.32385  1.0000
  H   H4155     1.0  0.78019  0.14248  0.01517  1.0000
  H   H4156     1.0  0.87091  0.05575  0.30980  1.0000
  H   H4157     1.0  0.87163  0.06173  0.28503  1.0000
  H   H4158     1.0  0.86139  0.07949  0.29877  1.0000
  H   H4159     1.0  0.78682  0.12057  0.29682  1.0000
  H   H4160     1.0  0.78535  0.10196  0.28679  1.0000
  H   H4161     1.0  0.77238  0.10404  0.31009  1.0000
  H   H4162     1.0  0.92225  0.17877  0.35781  1.0000
  C   C2381     1.0  0.74610  0.02906  0.22033  1.0000
  H   H4163     1.0  0.83973  0.17733  0.36570  1.0000
  S   S528      1.0  0.75277  0.17211  0.03638  1.0000
  H   H4164     1.0  0.73039  0.13356  0.32706  1.0000
  C   C2382     1.0  0.75130  0.02888  0.28993  1.0000
  C   C2383     1.0  0.81123  0.22888  0.00208  1.0000
  H   H4165     1.0  0.84477  0.22374  0.15100  1.0000
  N   N132      1.0  0.75721  0.17012  0.24661  1.0000
  H   H4166     1.0  0.76443  0.08543  0.23697  1.0000
  C   C2384     1.0  0.88729  0.18774  0.31868  1.0000
  C   C2385     1.0  0.92137  0.12977  0.32965  1.0000
  H   H4167     1.0  0.70469  0.14847  0.19116  1.0000
  C   C2386     1.0  0.89778  0.16233  0.11798  1.0000
  H   H4168     1.0  0.75915  0.08602  0.16466  1.0000
  C   C2387     1.0  0.79416  0.05684  0.16690  1.0000
  H   H4169     1.0  0.73711  0.13932  0.25344  1.0000
  C   C2388     1.0  0.67908  0.10553  0.26719  1.0000
  C   C2389     1.0  0.84647  0.18414  0.37269  1.0000
  C   C2390     1.0  0.91372  0.20670  0.36270  1.0000
  H   H4170     1.0  0.89265  0.14267  0.33800  1.0000
  C   C2391     1.0  0.87709  0.00092  0.23235  1.0000
  H   H4171     1.0  0.83595  0.19611  0.37759  1.0000
  C   C2392     1.0  0.74980  0.08734  0.24518  1.0000
  H   H4172     1.0  0.69993  0.10191  0.24203  1.0000
  H   H4173     1.0  0.73120  0.03712  0.26545  1.0000
  H   H4174     1.0  0.74720  0.09927  0.25211  1.0000
  H   H4175     1.0  0.72249  0.17525  0.16566  1.0000
  H   H4176     1.0  0.93450  0.13313  0.32006  1.0000
  H   H4177     1.0  0.92372  0.12433  0.34416  1.0000
  H   H4178     1.0  0.70657  0.17822  0.21720  1.0000
  C   C2393     1.0  0.71171  0.21023  0.32973  1.0000
  C   C2394     1.0  0.67046  0.17852  0.13893  1.0000
  Fe  Fe258     1.0  0.66032  0.17403  0.29715  1.0000
  C   C2395     1.0  0.70069  0.13466  0.19445  1.0000
  C   C2396     1.0  0.86411  0.99711  0.30947  1.0000
  H   H4179     1.0  0.73085  0.18018  0.26449  1.0000
  H   H4180     1.0  0.77675  0.00991  0.29631  1.0000
  C   C2397     1.0  0.72207  0.17487  0.21490  1.0000
  H   H4181     1.0  0.72636  0.20791  0.35110  1.0000
  H   H4182     1.0  0.91761  0.11855  0.32531  1.0000
  C   C2398     1.0  0.66936  0.14230  0.98765  1.0000
  H   H4183     1.0  0.97133  0.00784  0.38496  1.0000
  N   N133      1.0  0.85997  0.11270  0.20018  1.0000
  C   C2399     1.0  0.87090  0.09594  0.21154  1.0000
  C   C2400     1.0  0.85647  0.12989  0.20829  1.0000
  C   C2401     1.0  0.84111  0.10851  0.20175  1.0000
  C   C2402     1.0  0.86943  0.11623  0.17972  1.0000
  C   C2403     1.0  0.88995  0.11862  0.17492  1.0000
  C   C2404     1.0  0.87561  0.07725  0.20479  1.0000
  C   C2405     1.0  0.82720  0.12443  0.19172  1.0000
  C   C2406     1.0  0.87227  0.13240  0.21628  1.0000
  C   C2407     1.0  0.86760  0.15155  0.22147  1.0000
  C   C2408     1.0  0.89982  0.11513  0.15534  1.0000
  C   C2409     1.0  0.88803  0.06187  0.21641  1.0000
  C   C2410     1.0  0.80810  0.11942  0.19569  1.0000
  H   H4184     1.0  0.86309  0.09338  0.22627  1.0000
  H   H4185     1.0  0.88430  0.09854  0.21241  1.0000
  H   H4186     1.0  0.85288  0.14279  0.19767  1.0000
  H   H4187     1.0  0.84406  0.13004  0.22021  1.0000
  H   H4188     1.0  0.83414  0.10470  0.21676  1.0000
  H   H4189     1.0  0.84266  0.09617  0.19581  1.0000
  H   H4190     1.0  0.86875  0.10489  0.17328  1.0000
  H   H4191     1.0  0.86169  0.12919  0.17184  1.0000
  H   H4192     1.0  0.89842  0.10884  0.18469  1.0000
  H   H4193     1.0  0.89012  0.13320  0.17514  1.0000
  H   H4194     1.0  0.86271  0.07222  0.20636  1.0000
  H   H4195     1.0  0.88316  0.07880  0.18994  1.0000
  H   H4196     1.0  0.83243  0.12694  0.17631  1.0000
  H   H4197     1.0  0.82493  0.13769  0.19638  1.0000
  H   H4198     1.0  0.87390  0.12165  0.22928  1.0000
  H   H4199     1.0  0.88586  0.13115  0.20620  1.0000
  H   H4200     1.0  0.87871  0.15274  0.22787  1.0000
  H   H4201     1.0  0.86667  0.16296  0.20884  1.0000
  H   H4202     1.0  0.85412  0.15336  0.23184  1.0000
  H   H4203     1.0  0.91381  0.11876  0.15140  1.0000
  H   H4204     1.0  0.90166  0.10013  0.15510  1.0000
  H   H4205     1.0  0.89154  0.12370  0.14482  1.0000
  H   H4206     1.0  0.90181  0.06548  0.21436  1.0000
  H   H4207     1.0  0.88126  0.05983  0.23154  1.0000
  H   H4208     1.0  0.89035  0.04846  0.21188  1.0000
  H   H4209     1.0  0.79877  0.13096  0.18793  1.0000
  H   H4210     1.0  0.80938  0.10629  0.19108  1.0000
  H   H4211     1.0  0.85395  0.08255  0.44538  1.0000
  H   H4212     1.0  0.76553  0.14887  0.27003  1.0000
  Fe  Fe259     1.0  0.69363  0.06584  0.18780  1.0000
  H   H4213     1.0  0.93435  0.12032  0.07252  1.0000
  H   H4214     1.0  0.82402  0.02927  0.33250  1.0000
  H   H4215     1.0  0.76931  0.21632  0.20901  1.0000
  Fe  Fe260     1.0  0.79786  0.03536  0.24002  1.0000
  S   S529      1.0  0.79952  0.04484  0.26508  1.0000
  H   H4216     1.0  0.72720  0.16030  0.21269  1.0000
  C   C2411     1.0  0.68627  0.09975  0.25007  1.0000
  H   H4217     1.0  0.68305  0.13680  0.97995  1.0000
  C   C2412     1.0  0.75921  0.03696  0.22393  1.0000
  C   C2413     1.0  0.73563  0.05812  0.19938  1.0000
  H   H4218     1.0  0.80461  0.02471  0.19305  1.0000
  H   H4219     1.0  0.71206  0.12364  0.19987  1.0000
  H   H4220     1.0  0.74812  0.12506  0.29170  1.0000
  H   H4221     1.0  0.70146  0.21026  0.35896  1.0000
  H   H4222     1.0  0.71955  0.19836  0.38306  1.0000
  H   H4223     1.0  0.71780  0.14696  0.39596  1.0000
  Fe  Fe261     1.0  0.96121  0.07136  0.45625  1.0000
  H   H4224     1.0  0.95953  0.98450  0.44489  1.0000
  H   H4225     1.0  0.72992  0.15108  0.27296  1.0000
  H   H4226     1.0  0.92771  0.01286  0.46294  1.0000
  C   C2414     1.0  0.75936  0.15016  0.25779  1.0000
  H   H4227     1.0  0.74285  0.20774  0.23608  1.0000
  H   H4228     1.0  0.70964  0.06196  0.24993  1.0000
  H   H4229     1.0  0.91993  0.15286  0.05002  1.0000
  S   S530      1.0  0.69362  0.11418  0.27617  1.0000
  H   H4230     1.0  0.76652  0.07516  0.12046  1.0000
  S   S531      1.0  0.91984  0.99548  0.30068  1.0000
  H   H4231     1.0  0.88356  0.16561  0.36468  1.0000
  C   C2415     1.0  0.94522  0.10262  0.09613  1.0000
  H   H4232     1.0  0.79482  0.20337  0.18492  1.0000
  H   H4233     1.0  0.68510  0.08502  0.33593  1.0000
  C   C2416     1.0  0.65884  0.08710  0.25396  1.0000
  N   N134      1.0  0.78482  0.06940  0.15139  1.0000
  C   C2417     1.0  0.80129  0.22934  0.08749  1.0000
  C   C2418     1.0  0.94605  0.21836  0.10974  1.0000
  S   S532      1.0  0.77357  0.02366  0.23963  1.0000
  C   C2419     1.0  0.74832  0.06616  0.20345  1.0000
  C   C2420     1.0  0.76029  0.05553  0.21543  1.0000
  H   H4234     1.0  0.79566  0.09627  0.16527  1.0000
  C   C2421     1.0  0.74341  0.20430  0.25108  1.0000
  H   H4235     1.0  0.91887  0.10629  0.08884  1.0000
  H   H4236     1.0  0.66877  0.19105  0.14474  1.0000
  H   H4237     1.0  0.83498  0.07001  0.11079  1.0000
  H   H4238     1.0  0.66944  0.16396  0.20271  1.0000
  Fe  Fe262     1.0  0.82871  0.02751  0.26180  1.0000
  H   H4239     1.0  0.74874  0.08069  0.19744  1.0000
  C   C2422     1.0  0.70380  0.07110  0.31417  1.0000
  Fe  Fe263     1.0  0.68344  0.18532  0.05905  1.0000
  H   H4240     1.0  0.72099  0.16788  0.24434  1.0000
  N   N135      1.0  0.72140  0.05514  0.28584  1.0000
  H   H4241     1.0  0.67624  0.08953  0.31504  1.0000
  C   C2423     1.0  0.68415  0.07858  0.32472  1.0000
  H   H4242     1.0  0.91175  0.20354  0.13585  1.0000
  H   H4243     1.0  0.86112  0.09992  0.47449  1.0000
  H   H4244     1.0  0.70245  0.17914  0.35594  1.0000
  H   H4245     1.0  0.75698  0.13216  0.99320  1.0000
  C   C2424     1.0  0.79497  0.22712  0.10867  1.0000
  H   H4246     1.0  0.77011  0.06182  0.21836  1.0000
  C   C2425     1.0  0.92889  0.11519  0.08759  1.0000
  H   H4247     1.0  0.88247  0.14333  0.11445  1.0000
  H   H4248     1.0  0.71973  0.22461  0.98157  1.0000
  H   H4249     1.0  0.80429  0.19869  0.04531  1.0000
  C   C2426     1.0  0.90210  0.19211  0.30043  1.0000
  S   S533      1.0  0.72406  0.17214  0.30568  1.0000
  H   H4250     1.0  0.87025  0.02377  0.26532  1.0000
  S   S534      1.0  0.68001  0.04403  0.20945  1.0000
  H   H4251     1.0  0.72616  0.21303  0.27661  1.0000
  S   S535      1.0  0.73362  0.22334  0.19952  1.0000
  H   H4252     1.0  0.74017  0.09078  0.23540  1.0000
  H   H4253     1.0  0.88102  0.02358  0.44731  1.0000
  H   H4254     1.0  0.70859  0.11806  0.39297  1.0000
  H   H4255     1.0  0.88268  0.16539  0.06198  1.0000
  H   H4256     1.0  0.94679  0.99582  0.47017  1.0000
  C   C2427     1.0  0.72794  0.17692  0.23192  1.0000
  C   C2428     1.0  0.89418  0.13872  0.07980  1.0000
  H   H4257     1.0  0.88804  0.12707  0.08987  1.0000
  H   H4258     1.0  0.90394  0.13229  0.06835  1.0000
  Fe  Fe264     1.0  0.68250  0.13457  0.29565  1.0000
  H   H4259     1.0  0.68235  0.10980  0.02283  1.0000
  H   H4260     1.0  0.74825  0.05839  0.25202  1.0000
  H   H4261     1.0  0.71713  0.08038  0.26469  1.0000
  H   H4262     1.0  0.71585  0.20476  0.41440  1.0000
  H   H4263     1.0  0.95173  0.09087  0.08872  1.0000
  H   H4264     1.0  0.67654  0.20382  0.22164  1.0000
  S   S536      1.0  0.72272  0.07109  0.18237  1.0000
  H   H4265     1.0  0.75547  0.15957  0.22339  1.0000
  C   C2429     1.0  0.87810  0.15264  0.07116  1.0000
  H   H4266     1.0  0.86608  0.15684  0.08237  1.0000
  H   H4267     1.0  0.89885  0.18433  0.37112  1.0000
  C   C2430     1.0  0.66630  0.15032  0.20275  1.0000
  C   C2431     1.0  0.67677  0.21516  0.08864  1.0000
  H   H4268     1.0  0.80372  0.06370  0.17032  1.0000
  C   C2432     1.0  0.80286  0.22073  0.99012  1.0000
  C   C2433     1.0  0.79748  0.01189  0.33115  1.0000
  H   H4269     1.0  0.91330  0.17961  0.29822  1.0000
  C   C2434     1.0  0.87097  0.14371  0.05927  1.0000
  H   H4270     1.0  0.86655  0.13055  0.06763  1.0000
  H   H4271     1.0  0.85872  0.15359  0.05434  1.0000
  H   H4272     1.0  0.75918  0.20569  0.16847  1.0000
  H   H4273     1.0  0.90391  0.20138  0.27036  1.0000
  C   C2435     1.0  0.75555  0.16209  0.99130  1.0000
  H   H4274     1.0  0.72728  0.15872  0.97978  1.0000
  H   H4275     1.0  0.91960  0.18691  0.04157  1.0000
  H   H4276     1.0  0.90174  0.17491  0.07296  1.0000
  H   H4277     1.0  0.88200  0.14063  0.04684  1.0000
  H   H4278     1.0  0.86781  0.98829  0.37834  1.0000
  H   H4279     1.0  0.77622  0.21416  0.05619  1.0000
  C   C2436     1.0  0.71761  0.17751  0.40851  1.0000
  H   H4280     1.0  0.93842  0.19278  0.10897  1.0000
  C   C2437     1.0  0.75433  0.18077  0.36423  1.0000
  C   C2438     1.0  0.66736  0.15583  0.99809  1.0000
  C   C2439     1.0  0.66815  0.21964  0.10624  1.0000
  H   H4281     1.0  0.91367  0.15656  0.34913  1.0000
  H   H4282     1.0  0.71084  0.08313  0.30835  1.0000
  H   H4283     1.0  0.65627  0.02611  0.12427  1.0000
  H   H4284     1.0  0.71137  0.06102  0.32462  1.0000
  H   H4285     1.0  0.73601  0.05531  0.14746  1.0000
  H   H4286     1.0  0.84480  0.21683  0.25462  1.0000
  H   H4287     1.0  0.68245  0.08538  0.23079  1.0000
  C   C2440     1.0  0.90547  0.14706  0.32883  1.0000
  S   S537      1.0  0.67141  0.16458  0.05172  1.0000
  C   C2441     1.0  0.71618  0.18165  0.35617  1.0000
  S   S538      1.0  0.66196  0.01907  0.17866  1.0000
  H   H4288     1.0  0.87960  0.17804  0.31664  1.0000
  H   H4289     1.0  0.92150  0.18937  0.16619  1.0000
  S   S539      1.0  0.69432  0.13207  0.32082  1.0000
  Fe  Fe265     1.0  0.69558  0.14355  0.06125  1.0000
  H   H4290     1.0  0.94025  0.09664  0.11120  1.0000
  H   H4291     1.0  0.87539  0.20489  0.10507  1.0000
  H   H4292     1.0  0.88489  0.09178  0.44048  1.0000
  H   H4293     1.0  0.90585  0.00995  0.42002  1.0000
  C   C2442     1.0  0.85465  0.09479  0.45046  1.0000
  H   H4294     1.0  0.66475  0.00210  0.08321  1.0000
  H   H4295     1.0  0.69233  0.02702  0.26621  1.0000
  H   H4296     1.0  0.80203  0.01037  0.31633  1.0000
  S   S540      1.0  0.71491  0.14652  0.03323  1.0000
  H   H4297     1.0  0.68932  0.04416  0.24509  1.0000
  H   H4298     1.0  0.66048  0.18180  0.12954  1.0000
  S   S541      1.0  0.85286  0.00408  0.47089  1.0000
  H   H4299     1.0  0.66699  0.16661  0.15049  1.0000
  H   H4300     1.0  0.88560  0.98528  0.32545  1.0000
  H   H4301     1.0  0.68351  0.09811  0.04666  1.0000
  H   H4302     1.0  0.74958  0.08379  0.13954  1.0000
  H   H4303     1.0  0.90300  0.17518  0.10998  1.0000
  C   C2443     1.0  0.91288  0.16263  0.07661  1.0000
  H   H4304     1.0  0.80704  0.13857  0.46906  1.0000
  H   H4305     1.0  0.70112  0.21593  0.06621  1.0000
  H   H4306     1.0  0.82504  0.03463  0.18134  1.0000
  H   H4307     1.0  0.77918  0.13924  0.98356  1.0000
  S   S542      1.0  0.95160  0.04441  0.46096  1.0000
  C   C2444     1.0  0.67833  0.11523  0.09902  1.0000
  H   H4308     1.0  0.75801  0.13529  0.02466  1.0000
  S   S543      1.0  0.83712  0.01022  0.28874  1.0000
  C   C2445     1.0  0.93144  0.99867  0.47171  1.0000
  H   H4309     1.0  0.94466  0.20750  0.08631  1.0000
  H   H4310     1.0  0.93875  0.18304  0.05305  1.0000
  Fe  Fe266     1.0  0.69130  0.16886  0.02393  1.0000
  Fe  Fe267     1.0  0.66374  0.04500  0.18785  1.0000
  S   S544      1.0  0.68885  0.16294  0.28153  1.0000
  H   H4311     1.0  0.90350  0.15164  0.31419  1.0000
  C   C2446     1.0  0.82678  0.22262  0.13318  1.0000
  H   H4312     1.0  0.75815  0.06534  0.26770  1.0000
  H   H4313     1.0  0.87107  0.16619  0.34783  1.0000
  C   C2447     1.0  0.92634  0.23153  0.11068  1.0000
  S   S545      1.0  0.69165  0.11482  0.07640  1.0000
  H   H4314     1.0  0.68517  0.13654  0.22222  1.0000
  H   H4315     1.0  0.95603  0.11066  0.09469  1.0000
  C   C2448     1.0  0.89009  0.15434  0.10532  1.0000
  C   C2449     1.0  0.85973  0.00768  0.29237  1.0000
  C   C2450     1.0  0.84597  0.22100  0.13701  1.0000
  C   C2451     1.0  0.71811  0.04268  0.27489  1.0000
  H   H4316     1.0  0.76217  0.05440  0.16217  1.0000
  H   H4317     1.0  0.67110  0.22976  0.12931  1.0000
  H   H4318     1.0  0.91409  0.19840  0.32896  1.0000
  C   C2452     1.0  0.94552  0.99943  0.38768  1.0000
  H   H4319     1.0  0.79757  0.19693  0.02526  1.0000
  C   C2453     1.0  0.71410  0.20325  0.35000  1.0000
  C   C2454     1.0  0.76575  0.02106  0.30220  1.0000
  H   H4320     1.0  0.67489  0.18820  0.37693  1.0000
  C   C2455     1.0  0.91710  0.22632  0.14571  1.0000
  C   C2456     1.0  0.87839  0.17478  0.35220  1.0000
  Fe  Fe268     1.0  0.92266  0.06169  0.46386  1.0000
  H   H4321     1.0  0.75413  0.11394  0.17815  1.0000
  H   H4322     1.0  0.82900  0.22329  0.11797  1.0000
  C   C2457     1.0  0.74248  0.16552  0.37229  1.0000
  H   H4323     1.0  0.91263  0.12433  0.11233  1.0000
  H   H4324     1.0  0.90932  0.15204  0.12377  1.0000
  H   H4325     1.0  0.77250  0.03232  0.30237  1.0000
  C   C2458     1.0  0.88242  0.16777  0.13449  1.0000
  H   H4326     1.0  0.78413  0.00700  0.33726  1.0000
  C   C2459     1.0  0.70377  0.05174  0.26214  1.0000
  H   H4327     1.0  0.94214  0.17342  0.03271  1.0000
  C   C2460     1.0  0.91899  0.13144  0.09802  1.0000
  C   C2461     1.0  0.90684  0.19674  0.16568  1.0000
  H   H4328     1.0  0.83783  0.19504  0.02909  1.0000
  S   S546      1.0  0.67061  0.17559  0.32156  1.0000
  C   C2462     1.0  0.73650  0.16998  0.15738  1.0000
  H   H4329     1.0  0.85341  0.23112  0.12620  1.0000
  H   H4330     1.0  0.85096  0.17394  0.38503  1.0000
  H   H4331     1.0  0.86879  0.19873  0.36630  1.0000
  H   H4332     1.0  0.77971  0.08567  0.18452  1.0000
  H   H4333     1.0  0.88629  0.18775  0.28220  1.0000
  H   H4334     1.0  0.87738  0.15529  0.14378  1.0000
  C   C2463     1.0  0.89309  0.19863  0.28334  1.0000
  H   H4335     1.0  0.74561  0.01697  0.28938  1.0000
  C   C2464     1.0  0.92700  0.00004  0.39744  1.0000
  C   C2465     1.0  0.73527  0.04414  0.29795  1.0000
  C   C2466     1.0  0.82758  0.19110  0.02356  1.0000
  H   H4336     1.0  0.91647  0.22359  0.10952  1.0000
  H   H4337     1.0  0.75874  0.03428  0.27566  1.0000
  S   S547      1.0  0.66514  0.20502  0.07771  1.0000
  H   H4338     1.0  0.92096  0.16767  0.08386  1.0000
  C   C2467     1.0  0.72767  0.07239  0.27312  1.0000
  H   H4339     1.0  0.92996  0.13762  0.10001  1.0000
  H   H4340     1.0  0.69394  0.19684  0.42153  1.0000
  H   H4341     1.0  0.74759  0.15577  0.36244  1.0000
  C   C2468     1.0  0.90921  0.18973  0.35883  1.0000
  H   H4342     1.0  0.65929  0.05957  0.04324  1.0000
  H   H4343     1.0  0.71348  0.03014  0.28477  1.0000
  C   C2469     1.0  0.92639  0.15861  0.05818  1.0000
  H   H4344     1.0  0.75953  0.18807  0.08393  1.0000
  S   S548      1.0  0.68664  0.16548  0.99672  1.0000
  C   C2470     1.0  0.88562  0.21074  0.07527  1.0000
  H   H4345     1.0  0.71093  0.16537  0.41569  1.0000
  H   H4346     1.0  0.89138  0.20834  0.34005  1.0000
  H   H4347     1.0  0.77179  0.09888  0.14450  1.0000
  H   H4348     1.0  0.78329  0.18350  0.35805  1.0000
  C   C2471     1.0  0.77495  0.17248  0.36470  1.0000
  H   H4349     1.0  0.87036  0.17783  0.12945  1.0000
  C   C2472     1.0  0.70932  0.19234  0.42049  1.0000
  H   H4350     1.0  0.71236  0.14815  0.35663  1.0000
  H   H4351     1.0  0.77898  0.04664  0.14288  1.0000
  H   H4352     1.0  0.67214  0.19754  0.25625  1.0000
  H   H4353     1.0  0.87132  0.10481  0.42320  1.0000
  H   H4354     1.0  0.69852  0.19009  0.38984  1.0000
  H   H4355     1.0  0.74218  0.16300  0.00196  1.0000
  H   H4356     1.0  0.77597  0.22542  0.02233  1.0000
  S   S549      1.0  0.93170  0.08838  0.46105  1.0000
  H   H4357     1.0  0.72628  0.17525  0.34480  1.0000
  H   H4358     1.0  0.80947  0.09592  0.13648  1.0000
  H   H4359     1.0  0.66962  0.01471  0.09776  1.0000
  H   H4360     1.0  0.81944  0.21515  0.19168  1.0000
  H   H4361     1.0  0.88789  0.17445  0.14274  1.0000
  C   C2473     1.0  0.94802  0.20216  0.10036  1.0000
  H   H4362     1.0  0.78052  0.16100  0.35685  1.0000
  C   C2474     1.0  0.70296  0.06160  0.29858  1.0000
  Fe  Fe269     1.0  0.66539  0.14658  0.33324  1.0000
  H   H4363     1.0  0.71312  0.21227  0.26004  1.0000
  H   H4364     1.0  0.78339  0.05424  0.18000  1.0000
  H   H4365     1.0  0.84222  0.10602  0.44822  1.0000
  H   H4366     1.0  0.86712  0.01048  0.24107  1.0000
  H   H4367     1.0  0.76390  0.16975  0.99541  1.0000
  C   C2475     1.0  0.75662  0.21269  0.15424  1.0000
  C   C2476     1.0  0.77087  0.13422  0.01343  1.0000
  H   H4368     1.0  0.72797  0.03629  0.31135  1.0000
  H   H4369     1.0  0.74633  0.15700  0.38565  1.0000
  C   C2477     1.0  0.84413  0.22007  0.26790  1.0000
  H   H4370     1.0  0.84004  0.09017  0.11532  1.0000
  C   C2478     1.0  0.80757  0.20245  0.02971  1.0000
  H   H4371     1.0  0.84229  0.00101  0.41809  1.0000
  H   H4372     1.0  0.82489  0.16694  0.04669  1.0000
  C   C2479     1.0  0.75005  0.16223  0.17066  1.0000
  C   C2480     1.0  0.70482  0.12604  0.37944  1.0000
  H   H4373     1.0  0.89175  0.21625  0.04508  1.0000
  H   H4374     1.0  0.79948  0.21704  0.08329  1.0000
  H   H4375     1.0  0.74196  0.19715  0.06993  1.0000
  C   C2481     1.0  0.78086  0.09511  0.17045  1.0000
  H   H4376     1.0  0.84276  0.16220  0.02640  1.0000
  H   H4377     1.0  0.70770  0.11615  0.36998  1.0000
  H   H4378     1.0  0.67639  0.06709  0.33123  1.0000
  S   S550      1.0  0.90760  0.21237  0.07739  1.0000
  H   H4379     1.0  0.73283  0.17320  0.40822  1.0000
  H   H4380     1.0  0.69590  0.04961  0.30567  1.0000
  C   C2482     1.0  0.87186  0.10214  0.43822  1.0000
  H   H4381     1.0  0.94942  0.21206  0.12368  1.0000
  H   H4382     1.0  0.68960  0.13229  0.38193  1.0000
  H   H4383     1.0  0.74143  0.18206  0.14714  1.0000
  C   C2483     1.0  0.76920  0.11439  0.17303  1.0000
  H   H4384     1.0  0.74545  0.15053  0.18186  1.0000
  H   H4385     1.0  0.76434  0.20332  0.14436  1.0000
  H   H4386     1.0  0.67323  0.14523  0.09579  1.0000
  H   H4387     1.0  0.68059  0.08536  0.10623  1.0000
  C   C2484     1.0  0.67496  0.09840  0.11100  1.0000
  C   C2485     1.0  0.67080  0.13214  0.10509  1.0000
  H   H4388     1.0  0.77376  0.11912  0.18345  1.0000
  H   H4389     1.0  0.80817  0.00281  0.33905  1.0000
  H   H4390     1.0  0.75066  0.17345  0.17727  1.0000
  H   H4391     1.0  0.66729  0.15026  0.18782  1.0000
  H   H4392     1.0  0.96261  0.19392  0.09878  1.0000
  H   H4393     1.0  0.98048  0.10413  0.47610  1.0000
  H   H4394     1.0  0.73567  0.06822  0.12386  1.0000
  H   H4395     1.0  0.79132  0.21475  0.14522  1.0000
  Fe  Fe270     1.0  0.67188  0.22882  0.18490  1.0000
  H   H4396     1.0  0.85907  0.99460  0.43292  1.0000
  H   H4397     1.0  0.77822  0.11929  0.01507  1.0000
  C   C2486     1.0  0.77133  0.05938  0.14847  1.0000
  H   H4398     1.0  0.89108  0.21786  0.14739  1.0000
  H   H4399     1.0  0.69980  0.20554  0.32771  1.0000
  H   H4400     1.0  0.82139  0.09326  0.10350  1.0000
  H   H4401     1.0  0.76441  0.15734  0.16281  1.0000
  C   C2487     1.0  0.81498  0.08172  0.13356  1.0000
  H   H4402     1.0  0.90076  0.20355  0.17791  1.0000
  C   C2488     1.0  0.82841  0.17011  0.03111  1.0000
  H   H4403     1.0  0.89863  0.18619  0.16674  1.0000
  C   C2489     1.0  0.80578  0.03746  0.16338  1.0000
  H   H4404     1.0  0.82166  0.20978  0.14116  1.0000
  H   H4405     1.0  0.80614  0.20521  0.99345  1.0000
  C   C2490     1.0  0.90600  0.21127  0.14737  1.0000
  H   H4406     1.0  0.65590  0.10659  0.29088  1.0000
  H   H4407     1.0  0.75911  0.01495  0.31671  1.0000
  C   C2491     1.0  0.88236  0.99367  0.31238  1.0000
  C   C2492     1.0  0.82864  0.08386  0.11458  1.0000
  H   H4408     1.0  0.81691  0.03896  0.15049  1.0000
  C   C2493     1.0  0.66023  0.13208  0.12341  1.0000
  H   H4409     1.0  0.87239  0.11547  0.44143  1.0000
  C   C2494     1.0  0.85600  0.08887  0.47139  1.0000
  C   C2495     1.0  0.69450  0.21894  0.07993  1.0000
  H   H4410     1.0  0.74146  0.21513  0.15467  1.0000
  C   C2496     1.0  0.66765  0.98612  0.11065  1.0000
  H   H4411     1.0  0.95683  0.22662  0.10154  1.0000
  H   H4412     1.0  0.71680  0.23073  0.08157  1.0000
  H   H4413     1.0  0.92450  0.21234  0.35097  1.0000
  C   C2497     1.0  0.70350  0.22709  0.08877  1.0000
  H   H4414     1.0  0.84173  0.23187  0.31546  1.0000
  C   C2498     1.0  0.78387  0.22874  0.14806  1.0000
  H   H4415     1.0  0.90092  0.21787  0.36459  1.0000
  H   H4416     1.0  0.70893  0.22577  0.32613  1.0000
  C   C2499     1.0  0.88664  0.98351  0.24465  1.0000
  Fe  Fe271     1.0  0.92241  0.23184  0.05371  1.0000
  C   C2500     1.0  0.86574  0.01768  0.47575  1.0000
  C   C2501     1.0  0.67763  0.22688  0.11552  1.0000
  H   H4417     1.0  0.78097  0.22352  0.11268  1.0000
  S   S551      1.0  0.91261  0.98813  0.39209  1.0000
  N   N136      1.0  0.80477  0.22343  0.02307  1.0000
  C   C2502     1.0  0.66032  0.19958  0.24998  1.0000
  H   H4418     1.0  0.95122  0.99167  0.37661  1.0000
  H   H4419     1.0  0.78446  0.22782  0.16282  1.0000
  C   C2503     1.0  0.73507  0.22294  0.97974  1.0000
  C   C2504     1.0  0.78417  0.23179  0.02822  1.0000
  C   C2505     1.0  0.67415  0.10354  0.03650  1.0000
  C   C2506     1.0  0.65765  0.11849  0.04332  1.0000
  H   H4420     1.0  0.82909  0.07387  0.46641  1.0000
  H   H4421     1.0  0.81403  0.22440  0.04752  1.0000
  C   C2507     1.0  0.76289  0.23138  0.14788  1.0000
  C   C2508     1.0  0.76551  0.23112  0.20322  1.0000
  S   S552      1.0  0.95282  0.23091  0.05062  1.0000
  Fe  Fe272     1.0  0.65762  0.06865  0.21718  1.0000
  H   H4422     1.0  0.91873  0.99262  0.45234  1.0000
  C   C2509     1.0  0.66150  0.10243  0.27754  1.0000
  C   C2510     1.0  0.66367  0.18078  0.38087  1.0000
  H   H4423     1.0  0.83134  0.22583  0.02666  1.0000
  H   H4424     1.0  0.66235  0.22016  0.36675  1.0000
  H   H4425     1.0  0.75947  0.20133  0.98286  1.0000
  C   C2511     1.0  0.77541  0.22921  0.04950  1.0000
  S   S553      1.0  0.97606  0.22632  0.99807  1.0000
  H   H4426     1.0  0.86943  0.99696  0.22385  1.0000
  H   H4427     1.0  0.84612  0.99518  0.37034  1.0000
  H   H4428     1.0  0.72538  0.23095  0.25543  1.0000
  S   S554      1.0  0.98443  0.06513  0.47269  1.0000
  C   C2512     1.0  0.74438  0.20223  0.98432  1.0000
  H   H4429     1.0  0.66478  0.98798  0.12530  1.0000
  H   H4430     1.0  0.66913  0.09181  0.03455  1.0000
  C   C2513     1.0  0.69543  0.23055  0.10682  1.0000
  H   H4431     1.0  0.66099  0.05862  0.12098  1.0000
  H   H4432     1.0  0.85347  0.99119  0.32034  1.0000
  C   C2514     1.0  0.65725  0.11511  0.13554  1.0000
  H   H4433     1.0  0.66112  0.08545  0.13811  1.0000
  H   H4434     1.0  0.83826  0.12406  0.47665  1.0000
  H   H4435     1.0  0.89498  0.98818  0.25191  1.0000
  H   H4436     1.0  0.82677  0.22512  0.99793  1.0000
  H   H4437     1.0  0.81633  0.23004  0.08311  1.0000
  H   H4438     1.0  0.66346  0.13024  0.04404  1.0000
  Fe  Fe273     1.0  0.65678  0.08734  0.17653  1.0000
  H   H4439     1.0  0.65580  0.10704  0.07271  1.0000
  H   H4440     1.0  0.65640  0.03445  0.07124  1.0000
  C   C2515     1.0  0.81613  0.23059  0.03223  1.0000
  S   S555      1.0  0.94654  0.98354  0.34237  1.0000
  H   H4441     1.0  0.74660  0.23250  0.04716  1.0000
  Fe  Fe274     1.0  0.66068  0.20530  0.78782  1.0000
  S   S556      1.0  0.67044  0.02432  0.76557  1.0000
  H   H4442     1.0  0.84522  0.99620  0.71517  1.0000
  C   C2516     1.0  0.66199  0.15013  0.81889  1.0000
  C   C2517     1.0  0.69365  0.08915  0.95969  1.0000
  H   H4443     1.0  0.72996  0.99771  0.60450  1.0000
  Fe  Fe275     1.0  0.70713  0.06138  0.82898  1.0000
  S   S557      1.0  0.70761  0.06924  0.85530  1.0000
  S   S558      1.0  0.68093  0.07167  0.81778  1.0000
  Fe  Fe276     1.0  0.74774  0.04115  0.82351  1.0000
  S   S559      1.0  0.75172  0.04682  0.84973  1.0000
  S   S560      1.0  0.76912  0.02670  0.80217  1.0000
  Fe  Fe277     1.0  0.72336  0.03957  0.86249  1.0000
  S   S561      1.0  0.71368  0.02274  0.89132  1.0000
  Fe  Fe278     1.0  0.73546  0.07581  0.84014  1.0000
  S   S562      1.0  0.74484  0.10254  0.83699  1.0000
  S   S563      1.0  0.72088  0.03137  0.83709  1.0000
  S   S564      1.0  0.73364  0.07055  0.81299  1.0000
  Fe  Fe279     1.0  0.85558  0.08532  0.69589  1.0000
  S   S565      1.0  0.83998  0.06392  0.71512  1.0000
  S   S566      1.0  0.88149  0.07811  0.67387  1.0000
  Fe  Fe280     1.0  0.82874  0.11733  0.71276  1.0000
  S   S567      1.0  0.81051  0.09852  0.73282  1.0000
  S   S568      1.0  0.81951  0.14824  0.71295  1.0000
  Fe  Fe281     1.0  0.83749  0.07918  0.73749  1.0000
  S   S569      1.0  0.83872  0.06526  0.76731  1.0000
  Fe  Fe282     1.0  0.81444  0.08484  0.70884  1.0000
  S   S570      1.0  0.79233  0.07321  0.70386  1.0000
  S   S571      1.0  0.85574  0.09880  0.71902  1.0000
  S   S572      1.0  0.83003  0.10562  0.68789  1.0000
  Fe  Fe283     1.0  0.76445  0.09344  0.60095  1.0000
  S   S573      1.0  0.76932  0.07878  0.62957  1.0000
  S   S574      1.0  0.75674  0.12477  0.59094  1.0000
  Fe  Fe284     1.0  0.77536  0.05730  0.58663  1.0000
  S   S575      1.0  0.78087  0.03947  0.61411  1.0000
  S   S576      1.0  0.78137  0.04662  0.55992  1.0000
  Fe  Fe285     1.0  0.75468  0.05772  0.62715  1.0000
  S   S577      1.0  0.73800  0.04404  0.65438  1.0000
  Fe  Fe286     1.0  0.79494  0.06155  0.61477  1.0000
  S   S578      1.0  0.82168  0.05246  0.62505  1.0000
  S   S579      1.0  0.74752  0.07368  0.59943  1.0000
  S   S580      1.0  0.79165  0.07830  0.58627  1.0000
  H   H4444     1.0  0.69756  0.13898  0.84482  1.0000
  H   H4445     1.0  0.72820  0.00767  0.79966  1.0000
  H   H4446     1.0  0.80323  0.07231  0.49485  1.0000
  H   H4447     1.0  0.68912  0.18932  0.93332  1.0000
  H   H4448     1.0  0.79242  0.17421  0.79170  1.0000
  H   H4449     1.0  0.74023  0.07308  0.88081  1.0000
  C   C2518     1.0  0.75398  0.01269  0.93188  1.0000
  H   H4450     1.0  0.79193  0.10633  0.81557  1.0000
  H   H4451     1.0  0.68628  0.16445  0.65520  1.0000
  H   H4452     1.0  0.66962  0.12701  0.93967  1.0000
  H   H4453     1.0  0.93637  0.99659  0.56704  1.0000
  H   H4454     1.0  0.72738  0.02520  0.57607  1.0000
  H   H4455     1.0  0.82483  0.15643  0.65488  1.0000
  H   H4456     1.0  0.76970  0.00120  0.61945  1.0000
  C   C2519     1.0  0.92300  0.00563  0.56379  1.0000
  H   H4457     1.0  0.65784  0.08024  0.79133  1.0000
  H   H4458     1.0  0.77181  0.07861  0.86925  1.0000
  N   N137      1.0  0.66141  0.19318  0.92840  1.0000
  C   C2520     1.0  0.98711  0.01739  0.58163  1.0000
  C   C2521     1.0  0.71671  0.10733  0.66022  1.0000
  H   H4459     1.0  0.98027  0.07203  0.54318  1.0000
  N   N138      1.0  0.85431  0.99895  0.58834  1.0000
  H   H4460     1.0  0.71376  0.06235  0.89479  1.0000
  H   H4461     1.0  0.74352  0.08686  0.69444  1.0000
  H   H4462     1.0  0.68212  0.13241  0.63679  1.0000
  H   H4463     1.0  0.77617  0.15220  0.78761  1.0000
  H   H4464     1.0  0.82618  0.22233  0.96589  1.0000
  C   C2522     1.0  0.81962  0.12490  0.79402  1.0000
  C   C2523     1.0  0.79303  0.02311  0.55982  1.0000
  C   C2524     1.0  0.80272  0.01798  0.54277  1.0000
  H   H4465     1.0  0.89327  0.20759  0.68878  1.0000
  H   H4466     1.0  0.67498  0.20197  0.67317  1.0000
  H   H4467     1.0  0.83319  0.00991  0.57163  1.0000
  C   C2525     1.0  0.79217  0.00935  0.57633  1.0000
  H   H4468     1.0  0.80341  0.02853  0.52997  1.0000
  H   H4469     1.0  0.72456  0.06303  0.94750  1.0000
  C   C2526     1.0  0.66577  0.12666  0.74411  1.0000
  H   H4470     1.0  0.78471  0.01322  0.58945  1.0000
  C   C2527     1.0  0.75818  0.13859  0.60566  1.0000
  C   C2528     1.0  0.75808  0.15774  0.59875  1.0000
  C   C2529     1.0  0.75845  0.14221  0.63644  1.0000
  C   C2530     1.0  0.75862  0.13085  0.62448  1.0000
  H   H4471     1.0  0.75763  0.16386  0.58420  1.0000
  H   H4472     1.0  0.75825  0.11631  0.63006  1.0000
  C   C2531     1.0  0.88778  0.05502  0.66997  1.0000
  C   C2532     1.0  0.90596  0.04825  0.66049  1.0000
  C   C2533     1.0  0.91156  0.02951  0.65832  1.0000
  C   C2534     1.0  0.89899  0.01746  0.66566  1.0000
  C   C2535     1.0  0.88058  0.02450  0.67433  1.0000
  C   C2536     1.0  0.87499  0.04320  0.67643  1.0000
  H   H4473     1.0  0.91590  0.05735  0.65526  1.0000
  H   H4474     1.0  0.92578  0.02423  0.65158  1.0000
  C   C2537     1.0  0.80178  0.06358  0.68382  1.0000
  C   C2538     1.0  0.82044  0.06346  0.67456  1.0000
  C   C2539     1.0  0.82725  0.05817  0.65718  1.0000
  C   C2540     1.0  0.81525  0.05339  0.64887  1.0000
  C   C2541     1.0  0.79702  0.05216  0.65878  1.0000
  C   C2542     1.0  0.79024  0.05741  0.67617  1.0000
  H   H4475     1.0  0.82944  0.06830  0.68028  1.0000
  H   H4476     1.0  0.84145  0.05887  0.64974  1.0000
  H   H4477     1.0  0.78790  0.04776  0.65275  1.0000
  H   H4478     1.0  0.77581  0.05755  0.68321  1.0000
  H   H4479     1.0  0.71420  0.21745  0.60341  1.0000
  C   C2543     1.0  0.73842  0.08769  0.68172  1.0000
  C   C2544     1.0  0.82892  0.17797  0.71980  1.0000
  C   C2545     1.0  0.83358  0.15863  0.72053  1.0000
  C   C2546     1.0  0.84947  0.14792  0.72705  1.0000
  C   C2547     1.0  0.86058  0.15638  0.73305  1.0000
  H   H4480     1.0  0.77263  0.12351  0.80861  1.0000
  H   H4481     1.0  0.81680  0.18641  0.71444  1.0000
  H   H4482     1.0  0.85330  0.13312  0.72744  1.0000
  H   H4483     1.0  0.87286  0.14794  0.73813  1.0000
  C   C2548     1.0  0.70118  0.00641  0.89065  1.0000
  C   C2549     1.0  0.70739  0.99604  0.87657  1.0000
  C   C2550     1.0  0.66543  0.15695  0.93711  1.0000
  C   C2551     1.0  0.87185  0.99830  0.57308  1.0000
  C   C2552     1.0  0.67425  0.19339  0.94051  1.0000
  C   C2553     1.0  0.68514  0.00339  0.90448  1.0000
  H   H4484     1.0  0.72004  0.99785  0.86618  1.0000
  H   H4485     1.0  0.87095  0.08083  0.50189  1.0000
  H   H4486     1.0  0.81902  0.98725  0.60633  1.0000
  H   H4487     1.0  0.68034  0.01127  0.91550  1.0000
  C   C2554     1.0  0.78857  0.03727  0.79282  1.0000
  C   C2555     1.0  0.79549  0.04475  0.80399  1.0000
  C   C2556     1.0  0.81122  0.05294  0.79627  1.0000
  C   C2557     1.0  0.81955  0.05434  0.77721  1.0000
  C   C2558     1.0  0.81239  0.04715  0.76600  1.0000
  C   C2559     1.0  0.79725  0.03821  0.77390  1.0000
  H   H4488     1.0  0.78889  0.04397  0.81864  1.0000
  H   H4489     1.0  0.81667  0.05855  0.80496  1.0000
  H   H4490     1.0  0.81866  0.04827  0.75129  1.0000
  H   H4491     1.0  0.79196  0.03239  0.76524  1.0000
  H   H4492     1.0  0.67975  0.12271  0.73610  1.0000
  H   H4493     1.0  0.87061  0.01543  0.67947  1.0000
  C   C2560     1.0  0.74625  0.13035  0.85251  1.0000
  C   C2561     1.0  0.73716  0.11592  0.85438  1.0000
  C   C2562     1.0  0.72266  0.11248  0.86992  1.0000
  H   H4494     1.0  0.81428  0.16394  0.77818  1.0000
  C   C2563     1.0  0.79343  0.18020  0.76232  1.0000
  H   H4495     1.0  0.75717  0.13327  0.84040  1.0000
  H   H4496     1.0  0.71536  0.10156  0.87123  1.0000
  H   H4497     1.0  0.67949  0.13965  0.78740  1.0000
  C   C2564     1.0  0.67535  0.06530  0.67412  1.0000
  C   C2565     1.0  0.68395  0.07078  0.65524  1.0000
  C   C2566     1.0  0.70334  0.06484  0.64906  1.0000
  C   C2567     1.0  0.71408  0.05315  0.66173  1.0000
  C   C2568     1.0  0.70550  0.04779  0.68059  1.0000
  C   C2569     1.0  0.68620  0.05393  0.68681  1.0000
  H   H4498     1.0  0.67556  0.07951  0.64538  1.0000
  H   H4499     1.0  0.70986  0.06891  0.63446  1.0000
  H   H4500     1.0  0.71374  0.03859  0.69038  1.0000
  H   H4501     1.0  0.67967  0.04956  0.70136  1.0000
  C   C2570     1.0  0.67359  0.03726  0.78015  1.0000
  H   H4502     1.0  0.75447  0.99690  0.59883  1.0000
  C   C2571     1.0  0.66582  0.06605  0.79157  1.0000
  C   C2572     1.0  0.67853  0.05824  0.80331  1.0000
  C   C2573     1.0  0.68880  0.03989  0.80349  1.0000
  C   C2574     1.0  0.68620  0.02933  0.79204  1.0000
  H   H4503     1.0  0.67050  0.10650  0.66952  1.0000
  C   C2575     1.0  0.72335  0.00443  0.63949  1.0000
  H   H4504     1.0  0.69845  0.03368  0.81268  1.0000
  H   H4505     1.0  0.69385  0.01503  0.79248  1.0000
  C   C2576     1.0  0.82838  0.12423  0.77310  1.0000
  C   C2577     1.0  0.78977  0.10721  0.78802  1.0000
  C   C2578     1.0  0.77568  0.09448  0.79356  1.0000
  C   C2579     1.0  0.84823  0.11230  0.77097  1.0000
  H   H4506     1.0  0.79507  0.14368  0.77049  1.0000
  H   H4507     1.0  0.82921  0.13855  0.76474  1.0000
  H   H4508     1.0  0.82027  0.11842  0.76672  1.0000
  H   H4509     1.0  0.78743  0.11695  0.77469  1.0000
  H   H4510     1.0  0.80391  0.09805  0.78565  1.0000
  H   H4511     1.0  0.77838  0.08607  0.78277  1.0000
  H   H4512     1.0  0.77698  0.08463  0.80716  1.0000
  H   H4513     1.0  0.76117  0.10292  0.79474  1.0000
  H   H4514     1.0  0.84817  0.09777  0.77918  1.0000
  H   H4515     1.0  0.85413  0.11150  0.75608  1.0000
  H   H4516     1.0  0.85743  0.11853  0.77572  1.0000
  H   H4517     1.0  0.77798  0.18450  0.76427  1.0000
  S   S581      1.0  0.65950  0.19854  0.81899  1.0000
  C   C2580     1.0  0.74694  0.03362  0.93161  1.0000
  H   H4518     1.0  0.88122  0.99494  0.70679  1.0000
  H   H4519     1.0  0.68849  0.12768  0.60312  1.0000
  C   C2581     1.0  0.76925  0.17078  0.95701  1.0000
  H   H4520     1.0  0.68351  0.05680  0.89195  1.0000
  H   H4521     1.0  0.74291  0.03533  0.94635  1.0000
  C   C2582     1.0  0.73734  0.07349  0.91045  1.0000
  H   H4522     1.0  0.88234  0.02638  0.62112  1.0000
  C   C2583     1.0  0.69118  0.22670  0.84368  1.0000
  H   H4523     1.0  0.66001  0.21921  0.68609  1.0000
  H   H4524     1.0  0.71428  0.09633  0.93494  1.0000
  C   C2584     1.0  0.81623  0.06132  0.49418  1.0000
  S   S582      1.0  0.74275  0.22730  0.61786  1.0000
  C   C2585     1.0  0.81137  0.99921  0.54217  1.0000
  H   H4525     1.0  0.83990  0.00664  0.79609  1.0000
  H   H4526     1.0  0.69472  0.20233  0.96094  1.0000
  H   H4527     1.0  0.95347  0.05586  0.56023  1.0000
  C   C2586     1.0  0.95270  0.06604  0.54672  1.0000
  N   N139      1.0  0.74173  0.99554  0.62834  1.0000
  S   S583      1.0  0.66727  0.21046  0.73407  1.0000
  H   H4528     1.0  0.66703  0.14048  0.91674  1.0000
  H   H4529     1.0  0.82777  0.04175  0.55130  1.0000
  H   H4530     1.0  0.65705  0.15169  0.83375  1.0000
  H   H4531     1.0  0.90257  0.23242  0.81799  1.0000
  H   H4532     1.0  0.75882  0.04059  0.92421  1.0000
  C   C2587     1.0  0.82685  0.04634  0.56436  1.0000
  H   H4533     1.0  0.74416  0.16757  0.93709  1.0000
  H   H4534     1.0  0.86834  0.08504  0.53339  1.0000
  C   C2588     1.0  0.84219  0.07789  0.50501  1.0000
  H   H4535     1.0  0.75378  0.18064  0.81708  1.0000
  H   H4536     1.0  0.67697  0.12250  0.84676  1.0000
  C   C2589     1.0  0.91013  0.09137  0.50827  1.0000
  H   H4537     1.0  0.86033  0.06422  0.53479  1.0000
  H   H4538     1.0  0.84764  0.06246  0.50781  1.0000
  C   C2590     1.0  0.97577  0.01306  0.49455  1.0000
  H   H4539     1.0  0.67169  0.19711  0.69831  1.0000
  H   H4540     1.0  0.85549  0.03454  0.56455  1.0000
  C   C2591     1.0  0.88757  0.99837  0.53889  1.0000
  C   C2592     1.0  0.65743  0.09489  0.85679  1.0000
  H   H4541     1.0  0.77610  0.15614  0.95565  1.0000
  H   H4542     1.0  0.74697  0.07163  0.91991  1.0000
  H   H4543     1.0  0.70618  0.18448  0.69116  1.0000
  H   H4544     1.0  0.92744  0.98687  0.50195  1.0000
  C   C2593     1.0  0.67518  0.99031  0.90398  1.0000
  H   H4545     1.0  0.66888  0.12045  0.80023  1.0000
  C   C2594     1.0  0.67237  0.20939  0.82770  1.0000
  H   H4546     1.0  0.72475  0.18297  0.94853  1.0000
  H   H4547     1.0  0.98108  0.02380  0.48255  1.0000
  H   H4548     1.0  0.68812  0.10587  0.83265  1.0000
  H   H4549     1.0  0.87760  0.01104  0.57012  1.0000
  H   H4550     1.0  0.72520  0.19127  0.97642  1.0000
  S   S584      1.0  0.90621  0.99320  0.66602  1.0000
  H   H4551     1.0  0.86414  0.98764  0.61436  1.0000
  H   H4552     1.0  0.84147  0.04018  0.58650  1.0000
  C   C2595     1.0  0.79319  0.20667  0.81662  1.0000
  H   H4553     1.0  0.72279  0.22450  0.79763  1.0000
  C   C2596     1.0  0.78778  0.11763  0.80376  1.0000
  N   N140      1.0  0.83388  0.11334  0.61731  1.0000
  C   C2597     1.0  0.85182  0.11826  0.61757  1.0000
  C   C2598     1.0  0.82388  0.12901  0.60411  1.0000
  C   C2599     1.0  0.82221  0.11080  0.63695  1.0000
  C   C2600     1.0  0.83757  0.09538  0.61059  1.0000
  C   C2601     1.0  0.85139  0.09452  0.59146  1.0000
  C   C2602     1.0  0.86520  0.10284  0.62873  1.0000
  C   C2603     1.0  0.80279  0.10645  0.63914  1.0000
  C   C2604     1.0  0.81457  0.14745  0.61124  1.0000
  C   C2605     1.0  0.80731  0.16297  0.59574  1.0000
  C   C2606     1.0  0.85344  0.07597  0.58588  1.0000
  C   C2607     1.0  0.79050  0.10905  0.65816  1.0000
  H   H4554     1.0  0.84872  0.13080  0.62378  1.0000
  H   H4555     1.0  0.85982  0.12243  0.60304  1.0000
  H   H4556     1.0  0.83373  0.13273  0.59056  1.0000
  H   H4557     1.0  0.81284  0.12444  0.60024  1.0000
  H   H4558     1.0  0.82041  0.12326  0.64297  1.0000
  H   H4559     1.0  0.82948  0.09889  0.64641  1.0000
  H   H4560     1.0  0.84270  0.08314  0.62119  1.0000
  H   H4561     1.0  0.82426  0.09279  0.60920  1.0000
  H   H4562     1.0  0.86549  0.09565  0.59205  1.0000
  H   H4563     1.0  0.84634  0.10597  0.58023  1.0000
  H   H4564     1.0  0.86913  0.08961  0.62361  1.0000
  H   H4565     1.0  0.80437  0.09177  0.63810  1.0000
  H   H4566     1.0  0.79530  0.11555  0.62825  1.0000
  H   H4567     1.0  0.80244  0.14540  0.62305  1.0000
  H   H4568     1.0  0.82454  0.15249  0.61611  1.0000
  H   H4569     1.0  0.79773  0.15835  0.58990  1.0000
  H   H4570     1.0  0.79943  0.17550  0.60156  1.0000
  H   H4571     1.0  0.81910  0.16698  0.58429  1.0000
  H   H4572     1.0  0.83975  0.07453  0.58433  1.0000
  H   H4573     1.0  0.86358  0.07546  0.57231  1.0000
  H   H4574     1.0  0.85861  0.06398  0.59668  1.0000
  C   C2608     1.0  0.78391  0.18061  0.95895  1.0000
  H   H4575     1.0  0.68582  0.09733  0.68584  1.0000
  H   H4576     1.0  0.79802  0.10155  0.66955  1.0000
  H   H4577     1.0  0.78662  0.12413  0.65851  1.0000
  H   H4578     1.0  0.77762  0.10363  0.66060  1.0000
  N   N141      1.0  0.79887  0.13280  0.79913  1.0000
  C   C2609     1.0  0.70783  0.06782  0.90788  1.0000
  C   C2610     1.0  0.75878  0.16118  0.62951  1.0000
  H   H4579     1.0  0.81511  0.18101  0.64764  1.0000
  H   H4580     1.0  0.86862  0.02782  0.59458  1.0000
  H   H4581     1.0  0.73750  0.04480  0.57443  1.0000
  H   H4582     1.0  0.74857  0.03000  0.60345  1.0000
  H   H4583     1.0  0.87620  0.00412  0.63273  1.0000
  C   C2611     1.0  0.84197  0.03397  0.57460  1.0000
  H   H4584     1.0  0.85809  0.00603  0.54886  1.0000
  H   H4585     1.0  0.88309  0.98671  0.57796  1.0000
  C   C2612     1.0  0.81073  0.22714  0.96921  1.0000
  H   H4586     1.0  0.82807  0.21790  0.77943  1.0000
  H   H4587     1.0  0.71150  0.00178  0.63514  1.0000
  C   C2613     1.0  0.83987  0.00401  0.72672  1.0000
  C   C2614     1.0  0.81245  0.04531  0.48791  1.0000
  C   C2615     1.0  0.71765  0.12333  0.88373  1.0000
  C   C2616     1.0  0.73887  0.02941  0.57945  1.0000
  C   C2617     1.0  0.88708  0.03895  0.48330  1.0000
  N   N142      1.0  0.73605  0.04606  0.74859  1.0000
  C   C2618     1.0  0.71566  0.04918  0.74811  1.0000
  C   C2619     1.0  0.73958  0.03244  0.76653  1.0000
  C   C2620     1.0  0.73948  0.06458  0.74943  1.0000
  C   C2621     1.0  0.74927  0.03943  0.73164  1.0000
  C   C2622     1.0  0.74230  0.02726  0.72237  1.0000
  C   C2623     1.0  0.70908  0.06412  0.73130  1.0000
  C   C2624     1.0  0.75898  0.06423  0.75254  1.0000
  C   C2625     1.0  0.73662  0.01236  0.76913  1.0000
  C   C2626     1.0  0.73862  0.00092  0.78870  1.0000
  C   C2627     1.0  0.75793  0.01895  0.70750  1.0000
  C   C2628     1.0  0.69732  0.08237  0.73686  1.0000
  C   C2629     1.0  0.76228  0.08403  0.74917  1.0000
  H   H4588     1.0  0.70669  0.05285  0.76145  1.0000
  H   H4589     1.0  0.71192  0.03608  0.74782  1.0000
  H   H4590     1.0  0.75431  0.03042  0.76771  1.0000
  H   H4591     1.0  0.73073  0.03828  0.77888  1.0000
  H   H4592     1.0  0.72895  0.07038  0.76096  1.0000
  H   H4593     1.0  0.73771  0.07503  0.73625  1.0000
  H   H4594     1.0  0.75293  0.05154  0.72028  1.0000
  H   H4595     1.0  0.76291  0.03150  0.73524  1.0000
  H   H4596     1.0  0.73092  0.03587  0.71522  1.0000
  H   H4597     1.0  0.73677  0.01559  0.73270  1.0000
  H   H4598     1.0  0.72089  0.06731  0.71956  1.0000
  H   H4599     1.0  0.70015  0.05838  0.72564  1.0000
  H   H4600     1.0  0.77038  0.05646  0.74307  1.0000
  H   H4601     1.0  0.75994  0.05753  0.76728  1.0000
  H   H4602     1.0  0.72259  0.01228  0.76747  1.0000
  H   H4603     1.0  0.74746  0.00502  0.75890  1.0000
  C   C2630     1.0  0.80410  0.21103  0.86676  1.0000
  H   H4604     1.0  0.79756  0.20960  0.85585  1.0000
  H   H4605     1.0  0.66150  0.03335  0.87357  1.0000
  C   C2631     1.0  0.78433  0.22590  0.70391  1.0000
  H   H4606     1.0  0.76977  0.00990  0.71381  1.0000
  H   H4607     1.0  0.75250  0.01035  0.70118  1.0000
  H   H4608     1.0  0.70566  0.08967  0.74143  1.0000
  H   H4609     1.0  0.69194  0.09182  0.72463  1.0000
  H   H4610     1.0  0.68517  0.07954  0.74840  1.0000
  H   H4611     1.0  0.76209  0.09144  0.73443  1.0000
  H   H4612     1.0  0.75148  0.09212  0.75883  1.0000
  H   H4613     1.0  0.77622  0.08314  0.75181  1.0000
  H   H4614     1.0  0.85865  0.09978  0.64387  1.0000
  C   C2632     1.0  0.88327  0.10918  0.62691  1.0000
  H   H4615     1.0  0.71864  0.17375  0.62234  1.0000
  C   C2633     1.0  0.79174  0.14835  0.78392  1.0000
  H   H4616     1.0  0.79909  0.17342  0.75007  1.0000
  H   H4617     1.0  0.67266  0.18264  0.95372  1.0000
  C   C2634     1.0  0.88542  0.01759  0.72768  1.0000
  H   H4618     1.0  0.96434  0.09063  0.53136  1.0000
  H   H4619     1.0  0.88635  0.00699  0.59821  1.0000
  H   H4620     1.0  0.73624  0.98665  0.79036  1.0000
  H   H4621     1.0  0.75869  0.01022  0.91735  1.0000
  H   H4622     1.0  0.96421  0.00872  0.49144  1.0000
  H   H4623     1.0  0.76305  0.03026  0.69613  1.0000
  H   H4624     1.0  0.93367  0.03823  0.55791  1.0000
  H   H4625     1.0  0.70655  0.15771  0.95950  1.0000
  H   H4626     1.0  0.77849  0.19598  0.95648  1.0000
  C   C2635     1.0  0.68003  0.21031  0.96278  1.0000
  H   H4627     1.0  0.79932  0.19292  0.75941  1.0000
  H   H4628     1.0  0.75608  0.05435  0.89234  1.0000
  H   H4629     1.0  0.69340  0.09274  0.93070  1.0000
  H   H4630     1.0  0.90734  0.04187  0.72775  1.0000
  H   H4631     1.0  0.70356  0.05738  0.94701  1.0000
  H   H4632     1.0  0.65647  0.10311  0.74148  1.0000
  C   C2636     1.0  0.69593  0.14971  0.83182  1.0000
  C   C2637     1.0  0.78076  0.99773  0.65253  1.0000
  C   C2638     1.0  0.89242  0.04858  0.72777  1.0000
  H   H4633     1.0  0.73049  0.11761  0.67664  1.0000
  H   H4634     1.0  0.77359  0.01139  0.65652  1.0000
  H   H4635     1.0  0.72379  0.03137  0.60713  1.0000
  H   H4636     1.0  0.84910  0.17605  0.63882  1.0000
  C   C2639     1.0  0.70177  0.11780  0.60545  1.0000
  C   C2640     1.0  0.73241  0.16821  0.94947  1.0000
  H   H4637     1.0  0.71454  0.16256  0.93446  1.0000
  H   H4638     1.0  0.84471  0.00691  0.61542  1.0000
  H   H4639     1.0  0.67674  0.18598  0.85070  1.0000
  H   H4640     1.0  0.74236  0.19952  0.95705  1.0000
  H   H4641     1.0  0.78803  0.20393  0.68944  1.0000
  H   H4642     1.0  0.74923  0.15785  0.77082  1.0000
  C   C2641     1.0  0.67220  0.21256  0.94551  1.0000
  H   H4643     1.0  0.67303  0.15558  0.94818  1.0000
  C   C2642     1.0  0.80198  0.17707  0.94427  1.0000
  H   H4644     1.0  0.70644  0.12075  0.89575  1.0000
  H   H4645     1.0  0.68293  0.16020  0.83507  1.0000
  C   C2643     1.0  0.73785  0.02425  0.60058  1.0000
  H   H4646     1.0  0.81892  0.05582  0.50855  1.0000
  H   H4647     1.0  0.81864  0.99541  0.52889  1.0000
  H   H4648     1.0  0.66830  0.08243  0.85370  1.0000
  C   C2644     1.0  0.69515  0.12194  0.63902  1.0000
  C   C2645     1.0  0.96913  0.02077  0.51246  1.0000
  H   H4649     1.0  0.69062  0.15989  0.63206  1.0000
  H   H4650     1.0  0.79489  0.21906  0.92793  1.0000
  H   H4651     1.0  0.68776  0.10414  0.96013  1.0000
  H   H4652     1.0  0.97156  0.04488  0.53304  1.0000
  H   H4653     1.0  0.69843  0.18987  0.63176  1.0000
  H   H4654     1.0  0.75381  0.01569  0.63402  1.0000
  H   H4655     1.0  0.77767  0.14396  0.71538  1.0000
  C   C2646     1.0  0.77647  0.21180  0.69870  1.0000
  N   N143      1.0  0.67839  0.13373  0.81715  1.0000
  S   S585      1.0  0.78819  0.21290  0.61339  1.0000
  H   H4656     1.0  0.75247  0.02244  0.57180  1.0000
  H   H4657     1.0  0.76600  0.00718  0.93896  1.0000
  C   C2647     1.0  0.86825  0.99624  0.75367  1.0000
  H   H4658     1.0  0.89482  0.11258  0.70014  1.0000
  H   H4659     1.0  0.75765  0.13639  0.65122  1.0000
  H   H4660     1.0  0.86078  0.04845  0.68302  1.0000
  H   H4661     1.0  0.82777  0.13309  0.79787  1.0000
  H   H4662     1.0  0.68008  0.22157  0.93360  1.0000
  C   C2648     1.0  0.79886  0.16677  0.77994  1.0000
  H   H4663     1.0  0.82300  0.11045  0.80250  1.0000
  H   H4664     1.0  0.88610  0.99579  0.52565  1.0000
  C   C2649     1.0  0.68932  0.06082  0.91713  1.0000
  H   H4665     1.0  0.72569  0.15010  0.82252  1.0000
  H   H4666     1.0  0.69937  0.10326  0.61018  1.0000
  H   H4667     1.0  0.78560  0.12887  0.68877  1.0000
  C   C2650     1.0  0.74049  0.19110  0.97170  1.0000
  H   H4668     1.0  0.69695  0.11819  0.76395  1.0000
  C   C2651     1.0  0.70819  0.17631  0.63530  1.0000
  C   C2652     1.0  0.71044  0.14157  0.64947  1.0000
  H   H4669     1.0  0.68128  0.06793  0.92877  1.0000
  H   H4670     1.0  0.90357  0.10069  0.68086  1.0000
  C   C2653     1.0  0.75866  0.16900  0.61061  1.0000
  S   S586      1.0  0.67759  0.15664  0.74698  1.0000
  H   H4671     1.0  0.87423  0.12350  0.67714  1.0000
  H   H4672     1.0  0.88900  0.18024  0.60829  1.0000
  H   H4673     1.0  0.74797  0.16002  0.73104  1.0000
  H   H4674     1.0  0.82599  0.01502  0.59413  1.0000
  C   C2654     1.0  0.82345  0.17062  0.65732  1.0000
  N   N144      1.0  0.75157  0.17120  0.97204  1.0000
  H   H4675     1.0  0.74101  0.22944  0.96509  1.0000
  H   H4676     1.0  0.86535  0.04206  0.73741  1.0000
  H   H4677     1.0  0.89073  0.05456  0.71309  1.0000
  H   H4678     1.0  0.85398  0.10146  0.50617  1.0000
  C   C2655     1.0  0.69735  0.16052  0.64313  1.0000
  H   H4679     1.0  0.93819  0.07432  0.54794  1.0000
  C   C2656     1.0  0.75799  0.00106  0.63196  1.0000
  H   H4680     1.0  0.71275  0.16510  0.83866  1.0000
  H   H4681     1.0  0.67967  0.22431  0.96508  1.0000
  H   H4682     1.0  0.71096  0.12081  0.78861  1.0000
  H   H4683     1.0  0.80076  0.14470  0.68518  1.0000
  H   H4684     1.0  0.73471  0.21505  0.77765  1.0000
  C   C2657     1.0  0.96546  0.07955  0.54423  1.0000
  C   C2658     1.0  0.90086  0.11441  0.68485  1.0000
  H   H4685     1.0  0.84686  0.15704  0.68048  1.0000
  C   C2659     1.0  0.78357  0.22476  0.81858  1.0000
  S   S587      1.0  0.73453  0.19082  0.85787  1.0000
  H   H4686     1.0  0.76729  0.16381  0.73749  1.0000
  C   C2660     1.0  0.78615  0.14387  0.68618  1.0000
  C   C2661     1.0  0.85590  0.17567  0.73249  1.0000
  H   H4687     1.0  0.74753  0.14571  0.96707  1.0000
  H   H4688     1.0  0.79971  0.04077  0.49727  1.0000
  H   H4689     1.0  0.85801  0.14746  0.66030  1.0000
  H   H4690     1.0  0.81577  0.17136  0.67189  1.0000
  C   C2662     1.0  0.73617  0.16572  0.76604  1.0000
  C   C2663     1.0  0.71219  0.15978  0.82652  1.0000
  C   C2664     1.0  0.75424  0.17119  0.73229  1.0000
  H   H4691     1.0  0.85750  0.02359  0.71170  1.0000
  H   H4692     1.0  0.72277  0.11283  0.62120  1.0000
  H   H4693     1.0  0.72175  0.01991  0.63653  1.0000
  H   H4694     1.0  0.96135  0.08634  0.55646  1.0000
  C   C2665     1.0  0.88729  0.12889  0.67378  1.0000
  H   H4695     1.0  0.71552  0.14330  0.66126  1.0000
  H   H4696     1.0  0.70180  0.10142  0.80446  1.0000
  H   H4697     1.0  0.73984  0.17447  0.68992  1.0000
  C   C2666     1.0  0.74145  0.14097  0.86628  1.0000
  C   C2667     1.0  0.72714  0.13756  0.88191  1.0000
  H   H4698     1.0  0.70825  0.12841  0.81592  1.0000
  C   C2668     1.0  0.77303  0.15229  0.70233  1.0000
  C   C2669     1.0  0.74042  0.18044  0.74812  1.0000
  H   H4699     1.0  0.90960  0.18231  0.61480  1.0000
  H   H4700     1.0  0.79612  0.13296  0.49370  1.0000
  H   H4701     1.0  0.86882  0.19468  0.63484  1.0000
  C   C2670     1.0  0.87989  0.03443  0.73745  1.0000
  C   C2671     1.0  0.85188  0.99861  0.78732  1.0000
  Fe  Fe287     1.0  0.68358  0.21919  0.74988  1.0000
  H   H4702     1.0  0.85259  0.01457  0.50506  1.0000
  H   H4703     1.0  0.72932  0.10666  0.64866  1.0000
  H   H4704     1.0  0.74630  0.19066  0.75171  1.0000
  C   C2672     1.0  0.84004  0.18648  0.72579  1.0000
  H   H4705     1.0  0.88840  0.06025  0.73534  1.0000
  H   H4706     1.0  0.82291  0.02701  0.71020  1.0000
  H   H4707     1.0  0.91238  0.10475  0.49842  1.0000
  H   H4708     1.0  0.75289  0.99960  0.79082  1.0000
  H   H4709     1.0  0.89358  0.12978  0.65864  1.0000
  H   H4710     1.0  0.91444  0.11875  0.68176  1.0000
  C   C2673     1.0  0.72379  0.10577  0.67812  1.0000
  H   H4711     1.0  0.70343  0.08352  0.96943  1.0000
  C   C2674     1.0  0.69898  0.11363  0.79302  1.0000
  H   H4712     1.0  0.78193  0.15131  0.67272  1.0000
  H   H4713     1.0  0.72658  0.17120  0.71395  1.0000
  H   H4714     1.0  0.71553  0.17742  0.64574  1.0000
  C   C2675     1.0  0.69838  0.10643  0.77621  1.0000
  H   H4715     1.0  0.78797  0.17293  0.70104  1.0000
  H   H4716     1.0  0.75886  0.15031  0.70322  1.0000
  H   H4717     1.0  0.90112  0.09460  0.52169  1.0000
  H   H4718     1.0  0.84648  0.02648  0.73462  1.0000
  C   C2676     1.0  0.70384  0.08725  0.93971  1.0000
  C   C2677     1.0  0.67688  0.06496  0.90308  1.0000
  C   C2678     1.0  0.85527  0.16027  0.66599  1.0000
  H   H4719     1.0  0.68197  0.08153  0.96455  1.0000
  C   C2679     1.0  0.69595  0.14035  0.81583  1.0000
  H   H4720     1.0  0.81345  0.11779  0.83201  1.0000
  H   H4721     1.0  0.69899  0.15046  0.80224  1.0000
  H   H4722     1.0  0.68656  0.09919  0.77951  1.0000
  C   C2680     1.0  0.73114  0.18166  0.70131  1.0000
  H   H4723     1.0  0.72694  0.18767  0.74397  1.0000
  C   C2681     1.0  0.77357  0.17323  0.69989  1.0000
  H   H4724     1.0  0.81205  0.18473  0.94558  1.0000
  C   C2682     1.0  0.85202  0.00728  0.76664  1.0000
  C   C2683     1.0  0.85403  0.01567  0.72637  1.0000
  H   H4725     1.0  0.69530  0.22226  0.59153  1.0000
  H   H4726     1.0  0.90086  0.16332  0.64823  1.0000
  H   H4727     1.0  0.69190  0.04550  0.92281  1.0000
  C   C2684     1.0  0.88317  0.14821  0.67919  1.0000
  H   H4728     1.0  0.87494  0.14670  0.69388  1.0000
  C   C2685     1.0  0.67319  0.13938  0.92885  1.0000
  C   C2686     1.0  0.85807  0.00146  0.60613  1.0000
  H   H4729     1.0  0.71222  0.13710  0.61410  1.0000
  H   H4730     1.0  0.73235  0.07523  0.68385  1.0000
  H   H4731     1.0  0.72297  0.13986  0.63809  1.0000
  H   H4732     1.0  0.71910  0.03359  0.92998  1.0000
  C   C2687     1.0  0.79498  0.14080  0.81645  1.0000
  C   C2688     1.0  0.79918  0.12662  0.83461  1.0000
  H   H4733     1.0  0.78894  0.11734  0.84014  1.0000
  N   N145      1.0  0.75918  0.18405  0.71350  1.0000
  C   C2689     1.0  0.71366  0.06655  0.93909  1.0000
  H   H4734     1.0  0.77889  0.19174  0.72470  1.0000
  C   C2690     1.0  0.73658  0.22239  0.78781  1.0000
  H   H4735     1.0  0.71170  0.09429  0.66187  1.0000
  H   H4736     1.0  0.86913  0.20609  0.69758  1.0000
  H   H4737     1.0  0.75697  0.20807  0.72503  1.0000
  H   H4738     1.0  0.70410  0.20099  0.70537  1.0000
  C   C2691     1.0  0.84263  0.17535  0.65391  1.0000
  S   S588      1.0  0.75879  0.17465  0.64509  1.0000
  H   H4739     1.0  0.75872  0.18374  0.60520  1.0000
  H   H4740     1.0  0.74905  0.15165  0.86490  1.0000
  C   C2692     1.0  0.76454  0.08068  0.88361  1.0000
  H   H4741     1.0  0.80351  0.15151  0.81397  1.0000
  H   H4742     1.0  0.77281  0.18048  0.68513  1.0000
  C   C2693     1.0  0.66084  0.14296  0.75129  1.0000
  H   H4743     1.0  0.66145  0.19930  0.88714  1.0000
  H   H4744     1.0  0.82837  0.06111  0.56071  1.0000
  H   H4745     1.0  0.77495  0.07602  0.89268  1.0000
  H   H4746     1.0  0.66284  0.98803  0.91466  1.0000
  C   C2694     1.0  0.74212  0.19405  0.70551  1.0000
  C   C2695     1.0  0.76772  0.19865  0.71657  1.0000
  H   H4747     1.0  0.88151  0.02946  0.75223  1.0000
  H   H4748     1.0  0.88399  0.15840  0.63902  1.0000
  C   C2696     1.0  0.71365  0.19361  0.69443  1.0000
  H   H4749     1.0  0.86231  0.19440  0.66678  1.0000
  C   C2697     1.0  0.95874  0.05542  0.53038  1.0000
  C   C2698     1.0  0.74107  0.00268  0.60781  1.0000
  H   H4750     1.0  0.93775  0.07634  0.49778  1.0000
  H   H4751     1.0  0.68864  0.13720  0.92427  1.0000
  H   H4752     1.0  0.78014  0.14839  0.81961  1.0000
  H   H4753     1.0  0.80841  0.14561  0.84583  1.0000
  H   H4754     1.0  0.73228  0.20317  0.71475  1.0000
  N   N146      1.0  0.87332  0.16477  0.66661  1.0000
  H   H4755     1.0  0.89690  0.15058  0.67965  1.0000
  C   C2699     1.0  0.79780  0.13673  0.85009  1.0000
  H   H4756     1.0  0.74599  0.20376  0.69201  1.0000
  H   H4757     1.0  0.71160  0.09636  0.77251  1.0000
  H   H4758     1.0  0.71748  0.20417  0.68150  1.0000
  C   C2700     1.0  0.80908  0.20423  0.80227  1.0000
  H   H4759     1.0  0.80846  0.16189  0.94632  1.0000
  H   H4760     1.0  0.78367  0.14574  0.85323  1.0000
  C   C2701     1.0  0.68046  0.12729  0.79929  1.0000
  C   C2702     1.0  0.88584  0.16770  0.64731  1.0000
  S   S589      1.0  0.72127  0.15115  0.89905  1.0000
  Fe  Fe288     1.0  0.73397  0.17687  0.88789  1.0000
  H   H4761     1.0  0.72675  0.17271  0.77732  1.0000
  C   C2703     1.0  0.86998  0.99575  0.55401  1.0000
  H   H4762     1.0  0.72979  0.19266  0.81764  1.0000
  C   C2704     1.0  0.81565  0.21987  0.79035  1.0000
  H   H4763     1.0  0.82731  0.11856  0.50129  1.0000
  C   C2705     1.0  0.65777  0.11095  0.83959  1.0000
  H   H4764     1.0  0.69568  0.02142  0.66506  1.0000
  H   H4765     1.0  0.85797  0.17946  0.68879  1.0000
  H   H4766     1.0  0.84019  0.18933  0.65711  1.0000
  H   H4767     1.0  0.73429  0.03769  0.90794  1.0000
  H   H4768     1.0  0.80026  0.12632  0.86308  1.0000
  S   S590      1.0  0.78560  0.18709  0.83213  1.0000
  H   H4769     1.0  0.76586  0.22005  0.69051  1.0000
  H   H4770     1.0  0.98115  0.02510  0.51460  1.0000
  S   S591      1.0  0.87045  0.18563  0.73993  1.0000
  H   H4771     1.0  0.65980  0.09919  0.86874  1.0000
  H   H4772     1.0  0.66347  0.06068  0.91044  1.0000
  H   H4773     1.0  0.68244  0.17319  0.91404  1.0000
  C   C2706     1.0  0.86879  0.18145  0.67565  1.0000
  H   H4774     1.0  0.91402  0.99647  0.56327  1.0000
  N   N147      1.0  0.70198  0.12444  0.65503  1.0000
  C   C2707     1.0  0.70933  0.12280  0.61989  1.0000
  H   H4775     1.0  0.85293  0.02208  0.76431  1.0000
  H   H4776     1.0  0.84361  0.08553  0.53921  1.0000
  H   H4777     1.0  0.78759  0.17558  0.97289  1.0000
  Fe  Fe289     1.0  0.75165  0.20605  0.89454  1.0000
  H   H4778     1.0  0.90290  0.08433  0.50205  1.0000
  Fe  Fe290     1.0  0.66846  0.18419  0.75624  1.0000
  H   H4779     1.0  0.88889  0.17536  0.69375  1.0000
  C   C2708     1.0  0.88552  0.18559  0.68093  1.0000
  S   S592      1.0  0.76165  0.22013  0.65375  1.0000
  H   H4780     1.0  0.90691  0.00197  0.49445  1.0000
  S   S593      1.0  0.81189  0.22300  0.64745  1.0000
  H   H4781     1.0  0.83643  0.20139  0.72502  1.0000
  C   C2709     1.0  0.82795  0.22714  0.67412  1.0000
  C   C2710     1.0  0.88020  0.98925  0.72211  1.0000
  C   C2711     1.0  0.88357  0.18799  0.63531  1.0000
  C   C2712     1.0  0.69981  0.00606  0.67017  1.0000
  C   C2713     1.0  0.67605  0.10995  0.68005  1.0000
  C   C2714     1.0  0.83829  0.01390  0.58224  1.0000
  H   H4782     1.0  0.70412  0.08329  0.90310  1.0000
  C   C2715     1.0  0.88095  0.20507  0.68528  1.0000
  H   H4783     1.0  0.65932  0.17481  0.91170  1.0000
  C   C2716     1.0  0.68564  0.12689  0.67127  1.0000
  Fe  Fe291     1.0  0.76242  0.20427  0.63251  1.0000
  H   H4784     1.0  0.85808  0.02500  0.62938  1.0000
  H   H4785     1.0  0.75061  0.08735  0.66971  1.0000
  C   C2717     1.0  0.83297  0.06917  0.48034  1.0000
  H   H4786     1.0  0.76588  0.17773  0.94310  1.0000
  C   C2718     1.0  0.86308  0.02039  0.49394  1.0000
  C   C2719     1.0  0.89450  0.18831  0.61514  1.0000
  C   C2720     1.0  0.75032  0.20864  0.79969  1.0000
  H   H4787     1.0  0.68977  0.13081  0.68255  1.0000
  H   H4788     1.0  0.65738  0.22007  0.94821  1.0000
  H   H4789     1.0  0.82433  0.03311  0.48870  1.0000
  H   H4790     1.0  0.69109  0.10813  0.64255  1.0000
  S   S594      1.0  0.68695  0.19184  0.77035  1.0000
  Fe  Fe292     1.0  0.72425  0.21733  0.86837  1.0000
  H   H4791     1.0  0.87162  0.03309  0.51176  1.0000
  H   H4792     1.0  0.88903  0.19696  0.64115  1.0000
  C   C2721     1.0  0.66396  0.20873  0.91122  1.0000
  H   H4793     1.0  0.67907  0.20764  0.90437  1.0000
  H   H4794     1.0  0.96554  0.00901  0.52412  1.0000
  H   H4795     1.0  0.94104  0.03276  0.50750  1.0000
  S   S595      1.0  0.76363  0.17810  0.88608  1.0000
  H   H4796     1.0  0.81138  0.00808  0.72339  1.0000
  H   H4797     1.0  0.88840  0.02299  0.71219  1.0000
  H   H4798     1.0  0.89818  0.18450  0.66950  1.0000
  H   H4799     1.0  0.83828  0.00714  0.76418  1.0000
  H   H4800     1.0  0.93249  0.01128  0.53395  1.0000
  C   C2722     1.0  0.85722  0.07976  0.53061  1.0000
  C   C2723     1.0  0.92897  0.07899  0.51141  1.0000
  S   S596      1.0  0.92166  0.99553  0.61291  1.0000
  H   H4801     1.0  0.66648  0.16341  0.81092  1.0000
  H   H4802     1.0  0.81654  0.19027  0.80057  1.0000
  H   H4803     1.0  0.77090  0.22676  0.82898  1.0000
  C   C2724     1.0  0.67912  0.19989  0.84395  1.0000
  H   H4804     1.0  0.73110  0.08875  0.90780  1.0000
  H   H4805     1.0  0.75090  0.21465  0.81136  1.0000
  H   H4806     1.0  0.79657  0.21870  0.71038  1.0000
  C   C2725     1.0  0.95210  0.03750  0.51112  1.0000
  H   H4807     1.0  0.93588  0.08713  0.51673  1.0000
  C   C2726     1.0  0.92654  0.01948  0.54512  1.0000
  H   H4808     1.0  0.95655  0.04819  0.49865  1.0000
  H   H4809     1.0  0.69379  0.20092  0.86430  1.0000
  H   H4810     1.0  0.67406  0.08013  0.89666  1.0000
  N   N148      1.0  0.94431  0.04621  0.52813  1.0000
  H   H4811     1.0  0.72624  0.14195  0.94838  1.0000
  H   H4812     1.0  0.96354  0.06507  0.51706  1.0000
  S   S597      1.0  0.96447  0.01590  0.58134  1.0000
  H   H4813     1.0  0.95308  0.02201  0.54877  1.0000
  H   H4814     1.0  0.91285  0.02834  0.54274  1.0000
  H   H4815     1.0  0.91580  0.01335  0.57519  1.0000
  N   N149      1.0  0.72224  0.06241  0.91984  1.0000
  C   C2727     1.0  0.92646  0.06025  0.52536  1.0000
  C   C2728     1.0  0.74915  0.06933  0.89126  1.0000
  H   H4816     1.0  0.74356  0.18316  0.79738  1.0000
  C   C2729     1.0  0.93997  0.03159  0.54555  1.0000
  H   H4817     1.0  0.91744  0.05411  0.52021  1.0000
  Fe  Fe293     1.0  0.76300  0.19450  0.85680  1.0000
  H   H4818     1.0  0.72902  0.15575  0.76365  1.0000
  H   H4819     1.0  0.71223  0.10557  0.69069  1.0000
  H   H4820     1.0  0.79778  0.20294  0.88046  1.0000
  H   H4821     1.0  0.89057  0.11237  0.61199  1.0000
  H   H4822     1.0  0.71015  0.17189  0.81466  1.0000
  H   H4823     1.0  0.81932  0.20495  0.86349  1.0000
  H   H4824     1.0  0.81293  0.04546  0.57358  1.0000
  C   C2730     1.0  0.66467  0.20394  0.68638  1.0000
  H   H4825     1.0  0.89910  0.00985  0.73118  1.0000
  H   H4826     1.0  0.88024  0.12175  0.63303  1.0000
  H   H4827     1.0  0.82892  0.08012  0.51568  1.0000
  H   H4828     1.0  0.80456  0.22121  0.96089  1.0000
  H   H4829     1.0  0.89280  0.09779  0.63460  1.0000
  Fe  Fe294     1.0  0.95269  0.99300  0.60319  1.0000
  S   S598      1.0  0.72168  0.20334  0.89890  1.0000
  H   H4830     1.0  0.71217  0.11870  0.59193  1.0000
  C   C2731     1.0  0.87370  0.03107  0.49769  1.0000
  C   C2732     1.0  0.67627  0.11803  0.83417  1.0000
  C   C2733     1.0  0.73966  0.16018  0.96799  1.0000
  H   H4831     1.0  0.67447  0.13881  0.66675  1.0000
  C   C2734     1.0  0.68882  0.20835  0.85168  1.0000
  Fe  Fe295     1.0  0.78653  0.23024  0.63411  1.0000
  N   N150      1.0  0.87172  0.00478  0.73289  1.0000
  S   S599      1.0  0.76562  0.21117  0.91544  1.0000
  H   H4832     1.0  0.74275  0.00487  0.93961  1.0000
  C   C2735     1.0  0.74392  0.19014  0.80842  1.0000
  H   H4833     1.0  0.76465  0.20532  0.79117  1.0000
  H   H4834     1.0  0.91068  0.98628  0.71666  1.0000
  Fe  Fe296     1.0  0.86335  0.21674  0.73877  1.0000
  C   C2736     1.0  0.73007  0.04162  0.92185  1.0000
  H   H4835     1.0  0.91789  0.06364  0.53892  1.0000
  H   H4836     1.0  0.75859  0.09586  0.88284  1.0000
  C   C2737     1.0  0.87208  0.01758  0.62299  1.0000
  C   C2738     1.0  0.80033  0.99047  0.57568  1.0000
  C   C2739     1.0  0.70484  0.22875  0.59546  1.0000
  H   H4837     1.0  0.79915  0.18216  0.92991  1.0000
  H   H4838     1.0  0.87726  0.21609  0.67308  1.0000
  H   H4839     1.0  0.81459  0.02433  0.73528  1.0000
  C   C2740     1.0  0.92233  0.99980  0.49214  1.0000
  C   C2741     1.0  0.82106  0.01667  0.72372  1.0000
  C   C2742     1.0  0.87196  0.01408  0.60402  1.0000
  H   H4840     1.0  0.79219  0.00002  0.64001  1.0000
  C   C2743     1.0  0.71913  0.15686  0.94796  1.0000
  H   H4841     1.0  0.89300  0.20301  0.60705  1.0000
  H   H4842     1.0  0.88124  0.99380  0.75896  1.0000
  H   H4843     1.0  0.88978  0.01286  0.53621  1.0000
  C   C2744     1.0  0.66346  0.05564  0.77996  1.0000
  H   H4844     1.0  0.92568  0.01181  0.49549  1.0000
  S   S600      1.0  0.75296  0.22251  0.86501  1.0000
  H   H4845     1.0  0.81005  0.09837  0.49594  1.0000
  H   H4846     1.0  0.82979  0.21210  0.67863  1.0000
  C   C2745     1.0  0.85675  0.08600  0.50980  1.0000
  S   S601      1.0  0.90038  0.05208  0.48834  1.0000
  C   C2746     1.0  0.66754  0.17489  0.92182  1.0000
  H   H4847     1.0  0.69025  0.99905  0.66694  1.0000
  H   H4848     1.0  0.83755  0.99376  0.74019  1.0000
  H   H4849     1.0  0.98809  0.04071  0.55815  1.0000
  H   H4850     1.0  0.81173  0.14909  0.48561  1.0000
  H   H4851     1.0  0.72901  0.00499  0.66618  1.0000
  C   C2747     1.0  0.82232  0.10145  0.48462  1.0000
  C   C2748     1.0  0.82576  0.11994  0.48682  1.0000
  C   C2749     1.0  0.76687  0.98860  0.64858  1.0000
  H   H4852     1.0  0.78705  0.98848  0.66431  1.0000
  H   H4853     1.0  0.69815  0.00324  0.68563  1.0000
  N   N151      1.0  0.83843  0.08475  0.48538  1.0000
  C   C2750     1.0  0.78685  0.23232  0.92195  1.0000
  C   C2751     1.0  0.67509  0.22761  0.81940  1.0000
  C   C2752     1.0  0.72013  0.99867  0.66113  1.0000
  C   C2753     1.0  0.80999  0.98533  0.55859  1.0000
  H   H4854     1.0  0.86499  0.99920  0.79086  1.0000
  H   H4855     1.0  0.89999  0.98828  0.54309  1.0000
  C   C2754     1.0  0.65949  0.11454  0.69593  1.0000
  H   H4856     1.0  0.66434  0.11719  0.70740  1.0000
  H   H4857     1.0  0.65929  0.22261  0.91526  1.0000
  H   H4858     1.0  0.98738  0.00067  0.49625  1.0000
  H   H4859     1.0  0.76049  0.22549  0.75659  1.0000
  H   H4860     1.0  0.88251  0.22671  0.87228  1.0000
  S   S602      1.0  0.86538  0.22863  0.76223  1.0000
  H   H4861     1.0  0.89130  0.22751  0.79182  1.0000
  H   H4862     1.0  0.84185  0.22981  0.69446  1.0000
  H   H4863     1.0  0.85029  0.98383  0.79067  1.0000
  H   H4864     1.0  0.65863  0.23231  0.61633  1.0000
  C   C2755     1.0  0.80911  0.13607  0.48358  1.0000
  S   S603      1.0  0.71004  0.22997  0.73726  1.0000
  H   H4865     1.0  0.77208  0.23058  0.77162  1.0000
  C   C2756     1.0  0.80069  0.23159  0.86782  1.0000
  H   H4866     1.0  0.80714  0.23221  0.87912  1.0000
  H   H4867     1.0  0.75632  0.98585  0.66165  1.0000
  H   H4868     1.0  0.67143  0.20286  0.97542  1.0000
  C   C2757     1.0  0.77178  0.23259  0.91428  1.0000
  H   H4869     1.0  0.94206  0.23030  0.68918  1.0000
  H   H4870     1.0  0.65521  0.12612  0.97834  1.0000
  H   H4871     1.0  0.65565  0.10591  0.82799  1.0000
  H   H4872     1.0  0.84515  0.05721  0.47895  1.0000
  Fe  Fe297     1.0  0.95939  0.36001  0.09264  1.0000
  H   H4873     1.0  0.87445  0.43577  0.12497  1.0000
  C   C2758     1.0  0.79298  0.46275  0.17835  1.0000
  Fe  Fe298     1.0  0.93358  0.39197  0.10976  1.0000
  S   S604      1.0  0.94361  0.38234  0.13665  1.0000
  S   S605      1.0  0.91334  0.41860  0.10190  1.0000
  H   H4874     1.0  0.67368  0.31331  0.42361  1.0000
  C   C2759     1.0  0.91512  0.45638  0.99714  1.0000
  Fe  Fe299     1.0  0.94239  0.35360  0.13421  1.0000
  S   S606      1.0  0.93117  0.33308  0.15995  1.0000
  S   S607      1.0  0.96214  0.38902  0.09148  1.0000
  S   S608      1.0  0.92974  0.36396  0.10879  1.0000
  C   C2760     1.0  0.70931  0.30903  0.17648  1.0000
  S   S609      1.0  0.88384  0.40150  0.01000  1.0000
  H   H4875     1.0  0.95307  0.42766  0.06954  1.0000
  S   S610      1.0  0.86369  0.44157  0.02251  1.0000
  Fe  Fe300     1.0  0.86206  0.41150  0.03368  1.0000
  S   S611      1.0  0.85968  0.39705  0.06385  1.0000
  S   S612      1.0  0.83798  0.41311  0.02128  1.0000
  Fe  Fe301     1.0  0.94370  0.26149  0.05100  1.0000
  S   S613      1.0  0.91322  0.26186  0.05585  1.0000
  C   C2761     1.0  0.95616  0.45607  0.06574  1.0000
  H   H4876     1.0  0.69731  0.34061  0.21638  1.0000
  C   C2762     1.0  0.81266  0.25220  0.02959  1.0000
  S   S614      1.0  0.95376  0.26929  0.07278  1.0000
  H   H4877     1.0  0.72435  0.30492  0.17001  1.0000
  H   H4878     1.0  0.66646  0.23753  0.40575  1.0000
  Fe  Fe302     1.0  0.85750  0.27021  0.17849  1.0000
  S   S615      1.0  0.87330  0.28846  0.15370  1.0000
  Fe  Fe303     1.0  0.81754  0.26372  0.19507  1.0000
  S   S616      1.0  0.78842  0.27694  0.19004  1.0000
  S   S617      1.0  0.83450  0.28079  0.20117  1.0000
  S   S618      1.0  0.83963  0.25507  0.17092  1.0000
  H   H4879     1.0  0.86753  0.38419  0.10072  1.0000
  H   H4880     1.0  0.80188  0.40607  0.01938  1.0000
  C   C2763     1.0  0.95276  0.41564  0.03097  1.0000
  H   H4881     1.0  0.91841  0.32388  0.99206  1.0000
  Fe  Fe304     1.0  0.67652  0.46511  0.35211  1.0000
  S   S619      1.0  0.68003  0.45167  0.38163  1.0000
  H   H4882     1.0  0.96583  0.45315  0.98670  1.0000
  H   H4883     1.0  0.97367  0.47264  0.98944  1.0000
  H   H4884     1.0  0.81543  0.25902  0.01456  1.0000
  H   H4885     1.0  0.92723  0.24254  0.09753  1.0000
  S   S620      1.0  0.67426  0.43834  0.34595  1.0000
  H   H4886     1.0  0.76062  0.43892  0.07091  1.0000
  C   C2764     1.0  0.79109  0.27976  0.13073  1.0000
  H   H4887     1.0  0.77507  0.44448  0.02040  1.0000
  H   H4888     1.0  0.67421  0.32715  0.40063  1.0000
  H   H4889     1.0  0.89039  0.35684  0.00708  1.0000
  S   S621      1.0  0.70785  0.26024  0.16079  1.0000
  H   H4890     1.0  0.86989  0.30844  0.98727  1.0000
  H   H4891     1.0  0.98786  0.26598  0.04105  1.0000
  C   C2765     1.0  0.67427  0.28047  0.40804  1.0000
  C   C2766     1.0  0.68909  0.38660  0.40954  1.0000
  C   C2767     1.0  0.70898  0.31932  0.40569  1.0000
  H   H4892     1.0  0.72611  0.40883  0.05881  1.0000
  C   C2768     1.0  0.88131  0.28122  0.00226  1.0000
  H   H4893     1.0  0.88876  0.25259  0.01665  1.0000
  H   H4894     1.0  0.96376  0.38768  0.02483  1.0000
  C   C2769     1.0  0.66009  0.30323  0.20235  1.0000
  H   H4895     1.0  0.80571  0.41880  0.05214  1.0000
  S   S622      1.0  0.79710  0.47625  0.09632  1.0000
  S   S623      1.0  0.68070  0.24462  0.20107  1.0000
  Fe  Fe305     1.0  0.91758  0.26775  0.02462  1.0000
  H   H4896     1.0  0.68027  0.27920  0.21206  1.0000
  H   H4897     1.0  0.68861  0.34659  0.44362  1.0000
  H   H4898     1.0  0.78309  0.44425  0.06260  1.0000
  H   H4899     1.0  0.66327  0.32760  0.34863  1.0000
  Fe  Fe306     1.0  0.88332  0.43194  0.99746  1.0000
  C   C2770     1.0  0.78521  0.43290  0.02701  1.0000
  C   C2771     1.0  0.77315  0.26191  0.19341  1.0000
  C   C2772     1.0  0.75611  0.26922  0.18766  1.0000
  C   C2773     1.0  0.74374  0.25756  0.18975  1.0000
  H   H4900     1.0  0.68430  0.36620  0.23343  1.0000
  H   H4901     1.0  0.79440  0.28112  0.11531  1.0000
  C   C2774     1.0  0.85703  0.26815  0.98867  1.0000
  H   H4902     1.0  0.75270  0.28387  0.18117  1.0000
  H   H4903     1.0  0.89142  0.25475  0.14055  1.0000
  H   H4904     1.0  0.80400  0.27915  0.13535  1.0000
  H   H4905     1.0  0.68621  0.35886  0.41026  1.0000
  H   H4906     1.0  0.76711  0.40294  0.04547  1.0000
  H   H4907     1.0  0.82549  0.47074  0.15500  1.0000
  H   H4908     1.0  0.94695  0.24320  0.12705  1.0000
  H   H4909     1.0  0.75153  0.25781  0.25314  1.0000
  H   H4910     1.0  0.68808  0.32210  0.23294  1.0000
  C   C2775     1.0  0.70689  0.31924  0.19218  1.0000
  H   H4911     1.0  0.68232  0.36092  0.25843  1.0000
  C   C2776     1.0  0.67076  0.31270  0.35052  1.0000
  C   C2777     1.0  0.95836  0.32355  0.05242  1.0000
  H   H4912     1.0  0.86932  0.48253  0.09530  1.0000
  H   H4913     1.0  0.74242  0.47180  0.07003  1.0000
  H   H4914     1.0  0.82408  0.44206  0.04583  1.0000
  H   H4915     1.0  0.81494  0.44522  0.07880  1.0000
  H   H4916     1.0  0.81178  0.38017  0.07708  1.0000
  S   S624      1.0  0.68669  0.39501  0.38606  1.0000
  C   C2778     1.0  0.66372  0.27378  0.46819  1.0000
  H   H4917     1.0  0.70492  0.29641  0.21624  1.0000
  C   C2779     1.0  0.73119  0.47825  0.25102  1.0000
  C   C2780     1.0  0.91476  0.32099  0.15826  1.0000
  C   C2781     1.0  0.91051  0.32220  0.14104  1.0000
  C   C2782     1.0  0.89760  0.31237  0.13996  1.0000
  C   C2783     1.0  0.88880  0.30115  0.15607  1.0000
  C   C2784     1.0  0.89307  0.29979  0.17332  1.0000
  C   C2785     1.0  0.90601  0.30968  0.17439  1.0000
  H   H4918     1.0  0.91735  0.33049  0.12845  1.0000
  H   H4919     1.0  0.89452  0.31337  0.12655  1.0000
  H   H4920     1.0  0.88646  0.29109  0.18582  1.0000
  H   H4921     1.0  0.90925  0.30855  0.18777  1.0000
  H   H4922     1.0  0.93974  0.41573  0.15572  1.0000
  C   C2786     1.0  0.77122  0.44225  0.05782  1.0000
  H   H4923     1.0  0.77831  0.39628  0.08153  1.0000
  H   H4924     1.0  0.75420  0.24059  0.15760  1.0000
  C   C2787     1.0  0.81287  0.47096  0.03488  1.0000
  C   C2788     1.0  0.95530  0.30562  0.05386  1.0000
  C   C2789     1.0  0.95571  0.29239  0.07068  1.0000
  C   C2790     1.0  0.79911  0.42664  0.99425  1.0000
  H   H4925     1.0  0.78124  0.24701  0.02172  1.0000
  H   H4926     1.0  0.66963  0.35037  0.24847  1.0000
  H   H4927     1.0  0.95301  0.30192  0.04192  1.0000
  C   C2791     1.0  0.66758  0.29588  0.23303  1.0000
  C   C2792     1.0  0.87451  0.40320  0.07440  1.0000
  C   C2793     1.0  0.88543  0.41636  0.06432  1.0000
  C   C2794     1.0  0.89713  0.42133  0.07290  1.0000
  C   C2795     1.0  0.89820  0.41287  0.09147  1.0000
  C   C2796     1.0  0.88768  0.39933  0.10145  1.0000
  C   C2797     1.0  0.87568  0.39464  0.09298  1.0000
  H   H4928     1.0  0.88495  0.42263  0.04989  1.0000
  H   H4929     1.0  0.90560  0.43146  0.06506  1.0000
  H   H4930     1.0  0.88879  0.39246  0.11570  1.0000
  C   C2798     1.0  0.92800  0.26176  0.14397  1.0000
  H   H4931     1.0  0.81878  0.44258  0.17840  1.0000
  C   C2799     1.0  0.68295  0.35498  0.24628  1.0000
  H   H4932     1.0  0.82006  0.25209  0.13031  1.0000
  N   N152      1.0  0.89176  0.33924  0.04434  1.0000
  C   C2800     1.0  0.88893  0.32374  0.06140  1.0000
  C   C2801     1.0  0.87309  0.35253  0.04337  1.0000
  C   C2802     1.0  0.89937  0.33082  0.02717  1.0000
  C   C2803     1.0  0.90544  0.34999  0.04546  1.0000
  C   C2804     1.0  0.90184  0.35667  0.06402  1.0000
  C   C2805     1.0  0.90688  0.30975  0.06619  1.0000
  H   H4933     1.0  0.79805  0.25813  0.03596  1.0000
  C   C2806     1.0  0.85855  0.34514  0.03773  1.0000
  C   C2807     1.0  0.83979  0.35904  0.03880  1.0000
  C   C2808     1.0  0.91453  0.36999  0.06217  1.0000
  C   C2809     1.0  0.90217  0.29596  0.08467  1.0000
  H   H4934     1.0  0.66122  0.30395  0.35014  1.0000
  H   H4935     1.0  0.87985  0.31516  0.05972  1.0000
  H   H4936     1.0  0.88127  0.32968  0.07399  1.0000
  H   H4937     1.0  0.86640  0.35653  0.05713  1.0000
  H   H4938     1.0  0.87485  0.36605  0.03352  1.0000
  H   H4939     1.0  0.89022  0.32178  0.02651  1.0000
  H   H4940     1.0  0.91315  0.32118  0.02794  1.0000
  H   H4941     1.0  0.92001  0.34162  0.04299  1.0000
  H   H4942     1.0  0.90550  0.36271  0.03396  1.0000
  H   H4943     1.0  0.90463  0.34475  0.07580  1.0000
  H   H4944     1.0  0.88721  0.36406  0.06794  1.0000
  H   H4945     1.0  0.91371  0.30155  0.05514  1.0000
  H   H4946     1.0  0.91715  0.31694  0.06773  1.0000
  Fe  Fe307     1.0  0.97230  0.37749  0.11819  1.0000
  H   H4947     1.0  0.82695  0.42299  0.14391  1.0000
  H   H4948     1.0  0.86336  0.34308  0.02308  1.0000
  H   H4949     1.0  0.85607  0.33164  0.04707  1.0000
  H   H4950     1.0  0.84149  0.37246  0.02881  1.0000
  H   H4951     1.0  0.82965  0.35331  0.03488  1.0000
  H   H4952     1.0  0.83412  0.36165  0.05320  1.0000
  H   H4953     1.0  0.91140  0.38285  0.05136  1.0000
  H   H4954     1.0  0.91223  0.37418  0.07570  1.0000
  H   H4955     1.0  0.92941  0.36302  0.05833  1.0000
  H   H4956     1.0  0.89583  0.30346  0.09638  1.0000
  H   H4957     1.0  0.89233  0.28788  0.08368  1.0000
  H   H4958     1.0  0.91511  0.28599  0.08783  1.0000
  H   H4959     1.0  0.80362  0.38766  0.09911  1.0000
  C   C2810     1.0  0.81710  0.45555  0.04915  1.0000
  S   S625      1.0  0.86141  0.37815  0.98707  1.0000
  H   H4960     1.0  0.76414  0.29935  0.13082  1.0000
  H   H4961     1.0  0.76255  0.46559  0.29273  1.0000
  S   S626      1.0  0.66284  0.29764  0.18044  1.0000
  N   N153      1.0  0.91889  0.24062  0.12748  1.0000
  C   C2811     1.0  0.78282  0.26213  0.14097  1.0000
  C   C2812     1.0  0.93851  0.46106  0.08045  1.0000
  C   C2813     1.0  0.90921  0.45267  0.01663  1.0000
  H   H4962     1.0  0.76823  0.26536  0.13890  1.0000
  Fe  Fe308     1.0  0.84543  0.25396  0.22021  1.0000
  H   H4963     1.0  0.77881  0.41268  0.01454  1.0000
  C   C2814     1.0  0.90258  0.34510  0.00826  1.0000
  C   C2815     1.0  0.96093  0.31537  0.08489  1.0000
  H   H4964     1.0  0.86800  0.24096  0.00412  1.0000
  H   H4965     1.0  0.93667  0.44879  0.09217  1.0000
  S   S627      1.0  0.90917  0.44401  0.98361  1.0000
  C   C2816     1.0  0.67134  0.24129  0.25826  1.0000
  H   H4966     1.0  0.96835  0.40530  0.05290  1.0000
  C   C2817     1.0  0.77737  0.29756  0.13540  1.0000
  H   H4967     1.0  0.69165  0.32470  0.19682  1.0000
  H   H4968     1.0  0.79103  0.23704  0.20556  1.0000
  H   H4969     1.0  0.75340  0.47196  0.34149  1.0000
  H   H4970     1.0  0.78368  0.30994  0.12808  1.0000
  C   C2818     1.0  0.74475  0.42767  0.04227  1.0000
  H   H4971     1.0  0.84429  0.46729  0.07965  1.0000
  H   H4972     1.0  0.73062  0.26333  0.18529  1.0000
  H   H4973     1.0  0.67545  0.28668  0.24315  1.0000
  H   H4974     1.0  0.93901  0.39632  0.02579  1.0000
  C   C2819     1.0  0.96136  0.32836  0.06788  1.0000
  H   H4975     1.0  0.78164  0.26077  0.15621  1.0000
  N   N154      1.0  0.71807  0.31530  0.22278  1.0000
  C   C2820     1.0  0.71479  0.30592  0.20899  1.0000
  C   C2821     1.0  0.72161  0.30065  0.24011  1.0000
  C   C2822     1.0  0.70022  0.32906  0.22852  1.0000
  C   C2823     1.0  0.73386  0.32578  0.21471  1.0000
  C   C2824     1.0  0.75024  0.31785  0.19969  1.0000
  H   H4976     1.0  0.95842  0.33372  0.03934  1.0000
  C   C2825     1.0  0.69960  0.33845  0.24466  1.0000
  C   C2826     1.0  0.73870  0.28427  0.23741  1.0000
  C   C2827     1.0  0.96892  0.44901  0.02433  1.0000
  C   C2828     1.0  0.76675  0.32740  0.19549  1.0000
  C   C2829     1.0  0.84508  0.24197  0.28566  1.0000
  H   H4977     1.0  0.90196  0.26862  0.11996  1.0000
  H   H4978     1.0  0.72768  0.29650  0.20333  1.0000
  H   H4979     1.0  0.72394  0.30708  0.25068  1.0000
  H   H4980     1.0  0.70893  0.29453  0.24689  1.0000
  H   H4981     1.0  0.67621  0.25039  0.45461  1.0000
  H   H4982     1.0  0.96184  0.47750  0.12888  1.0000
  H   H4983     1.0  0.72856  0.34054  0.20793  1.0000
  H   H4984     1.0  0.73989  0.32690  0.22618  1.0000
  H   H4985     1.0  0.74568  0.32015  0.18635  1.0000
  H   H4986     1.0  0.75542  0.30267  0.20414  1.0000
  H   H4987     1.0  0.85485  0.44893  0.15473  1.0000
  H   H4988     1.0  0.71254  0.34368  0.24245  1.0000
  H   H4989     1.0  0.69792  0.32825  0.25827  1.0000
  H   H4990     1.0  0.73852  0.27718  0.22642  1.0000
  C   C2830     1.0  0.77787  0.24281  0.20118  1.0000
  H   H4991     1.0  0.66092  0.23964  0.34691  1.0000
  H   H4992     1.0  0.94861  0.37642  0.17984  1.0000
  C   C2831     1.0  0.86953  0.29372  0.99096  1.0000
  H   H4993     1.0  0.67892  0.25256  0.25003  1.0000
  H   H4994     1.0  0.77256  0.32459  0.20821  1.0000
  H   H4995     1.0  0.77801  0.32167  0.18441  1.0000
  Fe  Fe309     1.0  0.85965  0.40498  0.99645  1.0000
  H   H4996     1.0  0.70442  0.32259  0.41990  1.0000
  H   H4997     1.0  0.88023  0.47989  0.99361  1.0000
  H   H4998     1.0  0.72637  0.26332  0.25972  1.0000
  H   H4999     1.0  0.79792  0.47361  0.18206  1.0000
  H   H5000     1.0  0.96318  0.31900  0.09690  1.0000
  C   C2832     1.0  0.90016  0.25396  0.12628  1.0000
  C   C2833     1.0  0.80333  0.47484  0.07250  1.0000
  S   S628      1.0  0.70818  0.23917  0.11802  1.0000
  C   C2834     1.0  0.73126  0.45198  0.28906  1.0000
  H   H5001     1.0  0.77424  0.29695  0.15073  1.0000
  H   H5002     1.0  0.65882  0.38709  0.33276  1.0000
  H   H5003     1.0  0.87736  0.41079  0.16387  1.0000
  H   H5004     1.0  0.93937  0.42296  0.03855  1.0000
  C   C2835     1.0  0.72226  0.44416  0.30929  1.0000
  C   C2836     1.0  0.94925  0.36707  0.23788  1.0000
  H   H5005     1.0  0.98307  0.36317  0.21281  1.0000
  H   H5006     1.0  0.95499  0.45102  0.02119  1.0000
  C   C2837     1.0  0.67027  0.29157  0.21546  1.0000
  C   C2838     1.0  0.66333  0.25977  0.45938  1.0000
  H   H5007     1.0  0.78132  0.25544  0.11063  1.0000
  H   H5008     1.0  0.71884  0.42393  0.03810  1.0000
  Fe  Fe310     1.0  0.70958  0.23538  0.18475  1.0000
  H   H5009     1.0  0.90147  0.44175  0.02351  1.0000
  H   H5010     1.0  0.74643  0.44574  0.28690  1.0000
  H   H5011     1.0  0.72518  0.44723  0.27976  1.0000
  H   H5012     1.0  0.74894  0.43404  0.02723  1.0000
  Fe  Fe311     1.0  0.67456  0.42579  0.37644  1.0000
  H   H5013     1.0  0.70325  0.29628  0.18197  1.0000
  H   H5014     1.0  0.90995  0.23339  0.15769  1.0000
  H   H5015     1.0  0.79783  0.39974  0.04942  1.0000
  C   C2839     1.0  0.96948  0.41547  0.03927  1.0000
  C   C2840     1.0  0.67717  0.31238  0.40854  1.0000
  H   H5016     1.0  0.87393  0.47010  0.04329  1.0000
  C   C2841     1.0  0.67470  0.24688  0.40751  1.0000
  H   H5017     1.0  0.72451  0.42867  0.31174  1.0000
  H   H5018     1.0  0.72856  0.44769  0.31925  1.0000
  H   H5019     1.0  0.70695  0.44999  0.31217  1.0000
  H   H5020     1.0  0.84471  0.42903  0.16140  1.0000
  N   N155      1.0  0.79351  0.24393  0.13524  1.0000
  S   S629      1.0  0.86086  0.43502  0.98182  1.0000
  C   C2842     1.0  0.93502  0.41385  0.17117  1.0000
  C   C2843     1.0  0.73913  0.26931  0.25547  1.0000
  H   H5021     1.0  0.81157  0.43220  0.99336  1.0000
  H   H5022     1.0  0.96106  0.35894  0.24468  1.0000
  C   C2844     1.0  0.86837  0.25570  0.00045  1.0000
  H   H5023     1.0  0.70395  0.30202  0.39000  1.0000
  Fe  Fe312     1.0  0.69678  0.24258  0.14812  1.0000
  H   H5024     1.0  0.81798  0.40064  0.07978  1.0000
  H   H5025     1.0  0.94584  0.40323  0.19609  1.0000
  H   H5026     1.0  0.96929  0.46287  0.02646  1.0000
  H   H5027     1.0  0.94135  0.44401  0.05290  1.0000
  C   C2845     1.0  0.69241  0.37254  0.44719  1.0000
  H   H5028     1.0  0.67792  0.24185  0.42171  1.0000
  H   H5029     1.0  0.65770  0.43598  0.31845  1.0000
  C   C2846     1.0  0.79399  0.24551  0.11480  1.0000
  C   C2847     1.0  0.98499  0.43255  0.14214  1.0000
  H   H5030     1.0  0.89508  0.41035  0.14268  1.0000
  S   S630      1.0  0.66688  0.25318  0.16118  1.0000
  H   H5031     1.0  0.95501  0.26994  0.13696  1.0000
  H   H5032     1.0  0.68710  0.31535  0.36838  1.0000
  H   H5033     1.0  0.73634  0.46306  0.25094  1.0000
  H   H5034     1.0  0.87038  0.27834  0.11283  1.0000
  H   H5035     1.0  0.84639  0.25571  0.28616  1.0000
  H   H5036     1.0  0.67287  0.41512  0.47320  1.0000
  H   H5037     1.0  0.73791  0.46721  0.21678  1.0000
  H   H5038     1.0  0.97907  0.35925  0.15285  1.0000
  H   H5039     1.0  0.78848  0.43819  0.98825  1.0000
  H   H5040     1.0  0.93398  0.26286  0.11390  1.0000
  C   C2848     1.0  0.72478  0.47918  0.33807  1.0000
  C   C2849     1.0  0.69413  0.39097  0.43832  1.0000
  H   H5041     1.0  0.69685  0.39978  0.44599  1.0000
  H   H5042     1.0  0.71384  0.33136  0.18637  1.0000
  H   H5043     1.0  0.85351  0.45566  0.11045  1.0000
  H   H5044     1.0  0.96693  0.34753  0.18753  1.0000
  S   S631      1.0  0.92437  0.23755  0.02277  1.0000
  H   H5045     1.0  0.91489  0.35107  0.00695  1.0000
  H   H5046     1.0  0.79290  0.24223  0.08026  1.0000
  H   H5047     1.0  0.86079  0.26154  0.10730  1.0000
  H   H5048     1.0  0.96983  0.41552  0.13532  1.0000
  C   C2850     1.0  0.96006  0.38426  0.17637  1.0000
  C   C2851     1.0  0.69870  0.30508  0.40421  1.0000
  H   H5049     1.0  0.95485  0.42276  0.01594  1.0000
  S   S632      1.0  0.82634  0.23785  0.21617  1.0000
  C   C2852     1.0  0.98825  0.35027  0.16238  1.0000
  C   C2853     1.0  0.73113  0.41530  0.04390  1.0000
  H   H5050     1.0  0.75974  0.23817  0.13388  1.0000
  S   S633      1.0  0.84281  0.25975  0.97919  1.0000
  N   N156      1.0  0.83552  0.44955  0.13798  1.0000
  H   H5051     1.0  0.68295  0.31132  0.33860  1.0000
  S   S634      1.0  0.89717  0.28969  0.00954  1.0000
  H   H5052     1.0  0.95533  0.35017  0.21747  1.0000
  H   H5053     1.0  0.78277  0.46983  0.16921  1.0000
  H   H5054     1.0  0.94759  0.38845  0.04718  1.0000
  H   H5055     1.0  0.69308  0.41248  0.41306  1.0000
  H   H5056     1.0  0.96186  0.41301  0.17604  1.0000
  H   H5057     1.0  0.72100  0.46672  0.34770  1.0000
  H   H5058     1.0  0.92384  0.40560  0.17595  1.0000
  C   C2854     1.0  0.82007  0.46088  0.15028  1.0000
  H   H5059     1.0  0.66865  0.41799  0.29324  1.0000
  H   H5060     1.0  0.66886  0.44020  0.47035  1.0000
  C   C2855     1.0  0.93017  0.48042  0.99911  1.0000
  C   C2856     1.0  0.66890  0.42877  0.46367  1.0000
  C   C2857     1.0  0.83584  0.43036  0.11363  1.0000
  C   C2858     1.0  0.82809  0.41438  0.11182  1.0000
  C   C2859     1.0  0.88297  0.41943  0.15020  1.0000
  C   C2860     1.0  0.82703  0.43605  0.13284  1.0000
  C   C2861     1.0  0.80943  0.44966  0.16843  1.0000
  H   H5061     1.0  0.78421  0.41652  0.08497  1.0000
  Fe  Fe313     1.0  0.95398  0.23990  0.01977  1.0000
  C   C2862     1.0  0.79325  0.41235  0.05569  1.0000
  C   C2863     1.0  0.66073  0.30847  0.38580  1.0000
  C   C2864     1.0  0.97786  0.45761  0.98871  1.0000
  C   C2865     1.0  0.92574  0.47019  0.98840  1.0000
  H   H5062     1.0  0.94435  0.47166  0.16313  1.0000
  C   C2866     1.0  0.93266  0.25200  0.12716  1.0000
  H   H5063     1.0  0.80344  0.41574  0.98570  1.0000
  H   H5064     1.0  0.86439  0.41527  0.13559  1.0000
  C   C2867     1.0  0.82554  0.25770  0.03876  1.0000
  C   C2868     1.0  0.95486  0.43978  0.05760  1.0000
  C   C2869     1.0  0.76179  0.41619  0.05075  1.0000
  H   H5065     1.0  0.93700  0.28222  0.15303  1.0000
  H   H5066     1.0  0.83230  0.44246  0.10225  1.0000
  H   H5067     1.0  0.85124  0.42597  0.11118  1.0000
  H   H5068     1.0  0.81263  0.41837  0.11365  1.0000
  H   H5069     1.0  0.83411  0.41128  0.09765  1.0000
  H   H5070     1.0  0.83201  0.40151  0.12234  1.0000
  H   H5071     1.0  0.93084  0.25125  0.15679  1.0000
  H   H5072     1.0  0.98601  0.34296  0.99899  1.0000
  S   S635      1.0  0.96703  0.35007  0.06542  1.0000
  H   H5073     1.0  0.79367  0.47236  0.28728  1.0000
  S   S636      1.0  0.97213  0.34771  0.11794  1.0000
  C   C2870     1.0  0.79105  0.41809  0.01457  1.0000
  H   H5074     1.0  0.73701  0.43888  0.05008  1.0000
  H   H5075     1.0  0.86067  0.26084  0.13135  1.0000
  H   H5076     1.0  0.85017  0.45452  0.06110  1.0000
  H   H5077     1.0  0.75304  0.25411  0.04658  1.0000
  H   H5078     1.0  0.97052  0.38656  0.20878  1.0000
  S   S637      1.0  0.81809  0.46808  0.01154  1.0000
  C   C2871     1.0  0.66336  0.26701  0.40526  1.0000
  C   C2872     1.0  0.85592  0.46094  0.06930  1.0000
  C   C2873     1.0  0.75832  0.47648  0.26371  1.0000
  H   H5079     1.0  0.86474  0.47065  0.12978  1.0000
  C   C2874     1.0  0.86805  0.42738  0.13838  1.0000
  H   H5080     1.0  0.70195  0.31837  0.16548  1.0000
  H   H5081     1.0  0.73796  0.40408  0.03584  1.0000
  C   C2875     1.0  0.88036  0.26225  0.00736  1.0000
  H   H5082     1.0  0.68795  0.24592  0.39677  1.0000
  C   C2876     1.0  0.68832  0.36787  0.41812  1.0000
  H   H5083     1.0  0.97251  0.44123  0.14870  1.0000
  H   H5084     1.0  0.68820  0.27801  0.39857  1.0000
  C   C2877     1.0  0.76347  0.46199  0.04680  1.0000
  H   H5085     1.0  0.90914  0.45976  0.04238  1.0000
  C   C2878     1.0  0.68970  0.36090  0.43698  1.0000
  C   C2879     1.0  0.88785  0.25009  0.11490  1.0000
  S   S638      1.0  0.68495  0.27728  0.47035  1.0000
  H   H5086     1.0  0.81204  0.44217  0.13223  1.0000
  H   H5087     1.0  0.68514  0.29163  0.36986  1.0000
  H   H5088     1.0  0.79368  0.45856  0.27114  1.0000
  H   H5089     1.0  0.75187  0.28946  0.23383  1.0000
  H   H5090     1.0  0.74013  0.27534  0.26697  1.0000
  S   S639      1.0  0.86990  0.24468  0.19786  1.0000
  C   C2880     1.0  0.95847  0.29732  0.08616  1.0000
  H   H5091     1.0  0.94112  0.37306  0.21155  1.0000
  S   S640      1.0  0.69294  0.36482  0.47121  1.0000
  H   H5092     1.0  0.79753  0.43904  0.02533  1.0000
  S   S641      1.0  0.94742  0.27066  0.01967  1.0000
  H   H5093     1.0  0.67945  0.42975  0.45026  1.0000
  H   H5094     1.0  0.76528  0.47640  0.06752  1.0000
  C   C2881     1.0  0.92405  0.47673  0.01860  1.0000
  C   C2882     1.0  0.98342  0.41798  0.13461  1.0000
  Fe  Fe314     1.0  0.84120  0.44267  0.00816  1.0000
  C   C2883     1.0  0.85042  0.43911  0.14894  1.0000
  S   S642      1.0  0.84916  0.25580  0.24820  1.0000
  H   H5095     1.0  0.80593  0.25190  0.10586  1.0000
  C   C2884     1.0  0.98412  0.44560  0.00652  1.0000
  H   H5096     1.0  0.97378  0.32399  0.00907  1.0000
  C   C2885     1.0  0.84288  0.46313  0.12066  1.0000
  N   N157      1.0  0.97077  0.43417  0.04187  1.0000
  C   C2886     1.0  0.78812  0.47244  0.27507  1.0000
  H   H5097     1.0  0.76288  0.46211  0.26081  1.0000
  C   C2887     1.0  0.72741  0.47368  0.28504  1.0000
  C   C2888     1.0  0.80670  0.39259  0.08365  1.0000
  C   C2889     1.0  0.95074  0.39576  0.03226  1.0000
  C   C2890     1.0  0.86877  0.26355  0.11671  1.0000
  C   C2891     1.0  0.75494  0.47587  0.05979  1.0000
  C   C2892     1.0  0.69205  0.39814  0.41968  1.0000
  H   H5098     1.0  0.88801  0.43093  0.15261  1.0000
  H   H5099     1.0  0.84042  0.25171  0.03324  1.0000
  H   H5100     1.0  0.74860  0.29362  0.47555  1.0000
  Fe  Fe315     1.0  0.67808  0.26837  0.17627  1.0000
  N   N158      1.0  0.77749  0.42616  0.04762  1.0000
  H   H5101     1.0  0.93963  0.47263  0.08620  1.0000
  C   C2893     1.0  0.78910  0.40493  0.07726  1.0000
  H   H5102     1.0  0.75613  0.41172  0.06599  1.0000
  C   C2894     1.0  0.93988  0.27633  0.14033  1.0000
  H   H5103     1.0  0.96819  0.45221  0.07269  1.0000
  H   H5104     1.0  0.80375  0.43895  0.16541  1.0000
  C   C2895     1.0  0.67743  0.30637  0.36901  1.0000
  H   H5105     1.0  0.65629  0.37911  0.35776  1.0000
  C   C2896     1.0  0.81200  0.45740  0.06788  1.0000
  H   H5106     1.0  0.93626  0.28802  0.12860  1.0000
  H   H5107     1.0  0.89468  0.25219  0.09979  1.0000
  H   H5108     1.0  0.91313  0.26888  0.14690  1.0000
  H   H5109     1.0  0.76243  0.34275  0.19049  1.0000
  C   C2897     1.0  0.98004  0.35306  0.18276  1.0000
  H   H5110     1.0  0.86544  0.44967  0.07703  1.0000
  C   C2898     1.0  0.74311  0.48217  0.33453  1.0000
  C   C2899     1.0  0.91365  0.46281  0.02729  1.0000
  S   S643      1.0  0.66152  0.32787  0.47844  1.0000
  H   H5111     1.0  0.92597  0.46567  0.07412  1.0000
  H   H5112     1.0  0.70635  0.33245  0.39503  1.0000
  H   H5113     1.0  0.98256  0.40899  0.03043  1.0000
  N   N159      1.0  0.97611  0.37290  0.18550  1.0000
  H   H5114     1.0  0.70254  0.29200  0.41456  1.0000
  H   H5115     1.0  0.82228  0.25265  0.05416  1.0000
  H   H5116     1.0  0.73071  0.47803  0.29651  1.0000
  C   C2900     1.0  0.76676  0.47645  0.28030  1.0000
  H   H5117     1.0  0.75262  0.46183  0.03959  1.0000
  H   H5118     1.0  0.94664  0.38201  0.23872  1.0000
  H   H5119     1.0  0.88552  0.23558  0.11972  1.0000
  H   H5120     1.0  0.80771  0.24437  0.99732  1.0000
  H   H5121     1.0  0.89374  0.33085  0.99169  1.0000
  H   H5122     1.0  0.67704  0.27555  0.42246  1.0000
  N   N160      1.0  0.66510  0.30105  0.40504  1.0000
  H   H5123     1.0  0.82367  0.27319  0.03562  1.0000
  C   C2901     1.0  0.85730  0.28724  0.98436  1.0000
  C   C2902     1.0  0.95137  0.40401  0.18087  1.0000
  H   H5124     1.0  0.92906  0.42790  0.17461  1.0000
  H   H5125     1.0  0.72427  0.31346  0.40319  1.0000
  H   H5126     1.0  0.96475  0.38651  0.16088  1.0000
  H   H5127     1.0  0.77503  0.46746  0.03603  1.0000
  H   H5128     1.0  0.71566  0.48045  0.25391  1.0000
  H   H5129     1.0  0.80943  0.46958  0.14209  1.0000
  C   C2903     1.0  0.84579  0.23796  0.26844  1.0000
  H   H5130     1.0  0.95891  0.28709  0.09914  1.0000
  C   C2904     1.0  0.95353  0.36521  0.21747  1.0000
  H   H5131     1.0  0.71199  0.47838  0.28664  1.0000
  H   H5132     1.0  0.81237  0.23990  0.15361  1.0000
  H   H5133     1.0  0.93652  0.36152  0.24569  1.0000
  H   H5134     1.0  0.83130  0.47091  0.11327  1.0000
  C   C2905     1.0  0.90627  0.33589  0.99159  1.0000
  H   H5135     1.0  0.95782  0.46880  0.05467  1.0000
  C   C2906     1.0  0.74848  0.23844  0.19743  1.0000
  C   C2907     1.0  0.85227  0.47773  0.12366  1.0000
  C   C2908     1.0  0.97149  0.37247  0.20622  1.0000
  H   H5136     1.0  0.66018  0.27112  0.39108  1.0000
  H   H5137     1.0  0.86208  0.34211  0.98183  1.0000
  H   H5138     1.0  0.78568  0.45458  0.19143  1.0000
  H   H5139     1.0  0.97621  0.32628  0.16492  1.0000
  H   H5140     1.0  0.65667  0.40158  0.45846  1.0000
  H   H5141     1.0  0.94171  0.24653  0.98151  1.0000
  H   H5142     1.0  0.67563  0.23584  0.27195  1.0000
  C   C2909     1.0  0.81303  0.24042  0.13857  1.0000
  C   C2910     1.0  0.86663  0.47553  0.05614  1.0000
  H   H5143     1.0  0.98229  0.42115  0.07678  1.0000
  H   H5144     1.0  0.98748  0.43082  0.00511  1.0000
  C   C2911     1.0  0.98774  0.32747  0.00247  1.0000
  H   H5145     1.0  0.87730  0.47667  0.06312  1.0000
  C   C2912     1.0  0.75477  0.23892  0.05301  1.0000
  H   H5146     1.0  0.74905  0.23738  0.06833  1.0000
  H   H5147     1.0  0.78259  0.23527  0.05664  1.0000
  H   H5148     1.0  0.97078  0.48181  0.09701  1.0000
  H   H5149     1.0  0.92140  0.26517  0.97975  1.0000
  H   H5150     1.0  0.65635  0.41724  0.43666  1.0000
  C   C2913     1.0  0.73185  0.48233  0.21641  1.0000
  N   N161      1.0  0.73735  0.48305  0.26623  1.0000
  H   H5151     1.0  0.74037  0.24083  0.70811  1.0000
  C   C2914     1.0  0.97046  0.28589  0.91992  1.0000
  H   H5152     1.0  0.70972  0.33001  0.52063  1.0000
  C   C2915     1.0  0.92301  0.29993  0.68696  1.0000
  H   H5153     1.0  0.87297  0.24076  0.80678  1.0000
  C   C2916     1.0  0.89254  0.37635  0.93735  1.0000
  C   C2917     1.0  0.89618  0.26349  0.81031  1.0000
  C   C2918     1.0  0.80637  0.23793  0.79288  1.0000
  H   H5154     1.0  0.89042  0.36609  0.95090  1.0000
  H   H5155     1.0  0.85260  0.31029  0.71344  1.0000
  H   H5156     1.0  0.77346  0.23374  0.71371  1.0000
  C   C2919     1.0  0.96784  0.40305  0.74773  1.0000
  H   H5157     1.0  0.98296  0.23551  0.92398  1.0000
  Fe  Fe316     1.0  0.83914  0.24893  0.75637  1.0000
  S   S644      1.0  0.85381  0.27036  0.73550  1.0000
  S   S645      1.0  0.81489  0.25757  0.77895  1.0000
  H   H5158     1.0  0.89852  0.26729  0.68696  1.0000
  C   C2920     1.0  0.97823  0.35629  0.85433  1.0000
  C   C2921     1.0  0.68028  0.25887  0.59695  1.0000
  Fe  Fe317     1.0  0.88015  0.24914  0.73988  1.0000
  S   S646      1.0  0.90747  0.25308  0.74426  1.0000
  Fe  Fe318     1.0  0.85237  0.25476  0.71441  1.0000
  S   S647      1.0  0.84306  0.26923  0.68710  1.0000
  C   C2922     1.0  0.70178  0.35712  0.52712  1.0000
  S   S648      1.0  0.70136  0.31024  0.49321  1.0000
  H   H5159     1.0  0.89037  0.32490  0.65839  1.0000
  S   S649      1.0  0.76895  0.25608  0.61918  1.0000
  S   S650      1.0  0.71660  0.25992  0.65047  1.0000
  C   C2923     1.0  0.76623  0.25330  0.74824  1.0000
  H   H5160     1.0  0.68693  0.28362  0.61145  1.0000
  C   C2924     1.0  0.88071  0.29535  0.83251  1.0000
  H   H5161     1.0  0.92039  0.31306  0.62490  1.0000
  H   H5162     1.0  0.94814  0.39218  0.73841  1.0000
  H   H5163     1.0  0.68474  0.25410  0.68041  1.0000
  H   H5164     1.0  0.94603  0.28079  0.76788  1.0000
  H   H5165     1.0  0.94430  0.33174  0.91134  1.0000
  C   C2925     1.0  0.95863  0.25197  0.82582  1.0000
  Fe  Fe319     1.0  0.85192  0.29220  0.91172  1.0000
  S   S651      1.0  0.82623  0.31423  0.90739  1.0000
  S   S652      1.0  0.87697  0.28382  0.88938  1.0000
  Fe  Fe320     1.0  0.83585  0.27992  0.95299  1.0000
  S   S653      1.0  0.80848  0.30044  0.95191  1.0000
  H   H5166     1.0  0.92516  0.41351  0.79619  1.0000
  Fe  Fe321     1.0  0.81043  0.29184  0.92492  1.0000
  S   S654      1.0  0.78638  0.28803  0.91431  1.0000
  Fe  Fe322     1.0  0.82668  0.32083  0.93467  1.0000
  S   S655      1.0  0.82087  0.35106  0.93826  1.0000
  S   S656      1.0  0.83623  0.26954  0.92770  1.0000
  S   S657      1.0  0.85393  0.30062  0.93720  1.0000
  H   H5167     1.0  0.92975  0.24477  0.81618  1.0000
  Fe  Fe323     1.0  0.94743  0.31913  0.78583  1.0000
  S   S658      1.0  0.94679  0.30405  0.81567  1.0000
  S   S659      1.0  0.92438  0.31839  0.77190  1.0000
  H   H5168     1.0  0.82172  0.28100  0.65809  1.0000
  H   H5169     1.0  0.91482  0.32525  0.65392  1.0000
  C   C2926     1.0  0.90577  0.38170  0.88960  1.0000
  Fe  Fe324     1.0  0.94718  0.33160  0.82110  1.0000
  S   S660      1.0  0.92739  0.34272  0.84560  1.0000
  S   S661      1.0  0.94604  0.34728  0.79170  1.0000
  H   H5170     1.0  0.74064  0.27668  0.81231  1.0000
  C   C2927     1.0  0.89026  0.34144  0.92900  1.0000
  H   H5171     1.0  0.91233  0.30245  0.71646  1.0000
  Fe  Fe325     1.0  0.68385  0.30801  0.52251  1.0000
  S   S662      1.0  0.69295  0.30002  0.55032  1.0000
  C   C2928     1.0  0.81595  0.25602  0.65405  1.0000
  H   H5172     1.0  0.80885  0.26336  0.64272  1.0000
  H   H5173     1.0  0.87604  0.29001  0.84777  1.0000
  H   H5174     1.0  0.87377  0.37689  0.87946  1.0000
  H   H5175     1.0  0.90195  0.34156  0.93522  1.0000
  H   H5176     1.0  0.93941  0.26297  0.68995  1.0000
  H   H5177     1.0  0.73911  0.35076  0.52185  1.0000
  C   C2929     1.0  0.89104  0.30038  0.87863  1.0000
  C   C2930     1.0  0.88357  0.31956  0.87716  1.0000
  C   C2931     1.0  0.89486  0.33259  0.86724  1.0000
  C   C2932     1.0  0.91362  0.32641  0.85894  1.0000
  C   C2933     1.0  0.92116  0.30721  0.86094  1.0000
  C   C2934     1.0  0.90985  0.29423  0.87062  1.0000
  H   H5178     1.0  0.86895  0.32432  0.88311  1.0000
  H   H5179     1.0  0.88890  0.34743  0.86542  1.0000
  H   H5180     1.0  0.93576  0.30233  0.85513  1.0000
  H   H5181     1.0  0.91570  0.27939  0.87191  1.0000
  H   H5182     1.0  0.95917  0.25339  0.93903  1.0000
  C   C2935     1.0  0.79322  0.34808  0.49382  1.0000
  H   H5183     1.0  0.90681  0.44885  0.74356  1.0000
  C   C2936     1.0  0.78731  0.24967  0.74039  1.0000
  H   H5184     1.0  0.92930  0.25014  0.96307  1.0000
  S   S663      1.0  0.83561  0.23512  0.73518  1.0000
  H   H5185     1.0  0.93150  0.38048  0.81410  1.0000
  C   C2937     1.0  0.73371  0.26472  0.81968  1.0000
  C   C2938     1.0  0.68406  0.23640  0.82767  1.0000
  H   H5186     1.0  0.76915  0.32946  0.48760  1.0000
  H   H5187     1.0  0.68536  0.29833  0.63962  1.0000
  C   C2939     1.0  0.83087  0.35830  0.95320  1.0000
  C   C2940     1.0  0.84338  0.34563  0.96355  1.0000
  H   H5188     1.0  0.90737  0.32383  0.90883  1.0000
  H   H5189     1.0  0.89576  0.31270  0.62953  1.0000
  H   H5190     1.0  0.83273  0.39847  0.96500  1.0000
  C   C2941     1.0  0.74274  0.26240  0.54700  1.0000
  C   C2942     1.0  0.72591  0.27396  0.54264  1.0000
  C   C2943     1.0  0.71389  0.28473  0.55520  1.0000
  H   H5191     1.0  0.95063  0.43791  0.77272  1.0000
  H   H5192     1.0  0.73987  0.32025  0.49180  1.0000
  C   C2944     1.0  0.83478  0.23715  0.68316  1.0000
  H   H5193     1.0  0.72221  0.27454  0.52964  1.0000
  H   H5194     1.0  0.86775  0.26406  0.84710  1.0000
  H   H5195     1.0  0.94079  0.31116  0.90608  1.0000
  H   H5196     1.0  0.88214  0.32283  0.81428  1.0000
  H   H5197     1.0  0.97132  0.31301  0.92491  1.0000
  H   H5198     1.0  0.68788  0.35476  0.53561  1.0000
  H   H5199     1.0  0.78886  0.23624  0.69112  1.0000
  C   C2945     1.0  0.91117  0.27069  0.75359  1.0000
  C   C2946     1.0  0.89781  0.28719  0.75544  1.0000
  C   C2947     1.0  0.90203  0.30152  0.76132  1.0000
  C   C2948     1.0  0.91944  0.29937  0.76580  1.0000
  C   C2949     1.0  0.93254  0.28259  0.76460  1.0000
  C   C2950     1.0  0.92847  0.26843  0.75834  1.0000
  H   H5200     1.0  0.88446  0.28914  0.75181  1.0000
  H   H5201     1.0  0.89180  0.31445  0.76221  1.0000
  H   H5202     1.0  0.81725  0.38729  0.94604  1.0000
  H   H5203     1.0  0.93892  0.25574  0.75688  1.0000
  C   C2951     1.0  0.83289  0.25657  0.67722  1.0000
  H   H5204     1.0  0.97417  0.34272  0.86183  1.0000
  H   H5205     1.0  0.76376  0.35891  0.49619  1.0000
  H   H5206     1.0  0.92585  0.42941  0.76690  1.0000
  C   C2952     1.0  0.92502  0.29545  0.70763  1.0000
  H   H5207     1.0  0.88075  0.26777  0.81405  1.0000
  H   H5208     1.0  0.66474  0.23350  0.87752  1.0000
  H   H5209     1.0  0.79083  0.26092  0.72805  1.0000
  C   C2953     1.0  0.87007  0.35817  0.90710  1.0000
  C   C2954     1.0  0.84845  0.37105  0.97478  1.0000
  H   H5210     1.0  0.92328  0.29074  0.65556  1.0000
  C   C2955     1.0  0.76146  0.24985  0.90668  1.0000
  C   C2956     1.0  0.76603  0.26665  0.90699  1.0000
  C   C2957     1.0  0.78117  0.26641  0.91453  1.0000
  C   C2958     1.0  0.79167  0.24912  0.92190  1.0000
  C   C2959     1.0  0.88648  0.24104  0.79653  1.0000
  H   H5211     1.0  0.74963  0.25026  0.90106  1.0000
  H   H5212     1.0  0.75773  0.27995  0.90140  1.0000
  H   H5213     1.0  0.80333  0.24872  0.92777  1.0000
  N   N162      1.0  0.97842  0.27142  0.93543  1.0000
  H   H5214     1.0  0.76205  0.28366  0.51258  1.0000
  H   H5215     1.0  0.80724  0.24267  0.96497  1.0000
  H   H5216     1.0  0.90746  0.37296  0.93027  1.0000
  H   H5217     1.0  0.75212  0.25421  0.53720  1.0000
  S   S664      1.0  0.65843  0.23349  0.76830  1.0000
  C   C2960     1.0  0.73503  0.27154  0.57687  1.0000
  H   H5218     1.0  0.93535  0.27085  0.83841  1.0000
  H   H5219     1.0  0.96041  0.37538  0.75511  1.0000
  S   S665      1.0  0.70233  0.23783  0.85405  1.0000
  H   H5220     1.0  0.91612  0.35466  0.90520  1.0000
  S   S666      1.0  0.88023  0.23554  0.71660  1.0000
  C   C2961     1.0  0.69535  0.24465  0.70579  1.0000
  C   C2962     1.0  0.69689  0.25126  0.68642  1.0000
  C   C2963     1.0  0.71426  0.25352  0.67481  1.0000
  C   C2964     1.0  0.72991  0.24991  0.68267  1.0000
  C   C2965     1.0  0.72827  0.24364  0.70206  1.0000
  H   H5221     1.0  0.93971  0.31781  0.70407  1.0000
  H   H5222     1.0  0.85354  0.32728  0.69147  1.0000
  H   H5223     1.0  0.74326  0.25204  0.67377  1.0000
  C   C2966     1.0  0.97953  0.42324  0.77185  1.0000
  N   N163      1.0  0.66538  0.27098  0.60886  1.0000
  H   H5224     1.0  0.97656  0.29479  0.84657  1.0000
  H   H5225     1.0  0.98227  0.25542  0.90455  1.0000
  H   H5226     1.0  0.65930  0.30619  0.62240  1.0000
  C   C2967     1.0  0.84581  0.37253  0.88712  1.0000
  H   H5227     1.0  0.68538  0.25077  0.82176  1.0000
  H   H5228     1.0  0.72108  0.26968  0.82999  1.0000
  H   H5229     1.0  0.91733  0.37665  0.86138  1.0000
  H   H5230     1.0  0.88839  0.31869  0.68976  1.0000
  H   H5231     1.0  0.93672  0.29436  0.67831  1.0000
  N   N164      1.0  0.88595  0.35946  0.91489  1.0000
  C   C2968     1.0  0.87131  0.29979  0.68928  1.0000
  C   C2969     1.0  0.93960  0.40678  0.79806  1.0000
  C   C2970     1.0  0.94157  0.30241  0.70930  1.0000
  C   C2971     1.0  0.93399  0.25726  0.97154  1.0000
  H   H5232     1.0  0.90032  0.27350  0.79699  1.0000
  C   C2972     1.0  0.93523  0.42065  0.75698  1.0000
  H   H5233     1.0  0.83401  0.37156  0.89948  1.0000
  H   H5234     1.0  0.92093  0.31542  0.68231  1.0000
  H   H5235     1.0  0.90717  0.23910  0.84582  1.0000
  H   H5236     1.0  0.75910  0.25555  0.73652  1.0000
  C   C2973     1.0  0.86283  0.37527  0.89249  1.0000
  C   C2974     1.0  0.90236  0.30624  0.93638  1.0000
  Fe  Fe326     1.0  0.68243  0.33842  0.48675  1.0000
  H   H5237     1.0  0.79477  0.24961  0.75120  1.0000
  C   C2975     1.0  0.90325  0.36148  0.89959  1.0000
  H   H5238     1.0  0.96210  0.23793  0.82231  1.0000
  H   H5239     1.0  0.90679  0.29394  0.81175  1.0000
  C   C2976     1.0  0.74733  0.26114  0.56415  1.0000
  H   H5240     1.0  0.73844  0.27070  0.59011  1.0000
  H   H5241     1.0  0.97564  0.35970  0.83994  1.0000
  C   C2977     1.0  0.87282  0.24051  0.86964  1.0000
  C   C2978     1.0  0.90128  0.28572  0.82586  1.0000
  H   H5242     1.0  0.96514  0.39076  0.78374  1.0000
  C   C2979     1.0  0.72754  0.25262  0.76623  1.0000
  C   C2980     1.0  0.70673  0.25155  0.77502  1.0000
  C   C2981     1.0  0.69353  0.26705  0.76441  1.0000
  H   H5243     1.0  0.90399  0.35372  0.88870  1.0000
  H   H5244     1.0  0.79581  0.36177  0.49413  1.0000
  H   H5245     1.0  0.66731  0.29668  0.58812  1.0000
  H   H5246     1.0  0.73032  0.24840  0.75254  1.0000
  H   H5247     1.0  0.70425  0.23787  0.77450  1.0000
  H   H5248     1.0  0.70263  0.25274  0.78981  1.0000
  H   H5249     1.0  0.69462  0.28103  0.76560  1.0000
  H   H5250     1.0  0.69685  0.26637  0.74936  1.0000
  H   H5251     1.0  0.67888  0.26534  0.77046  1.0000
  C   C2982     1.0  0.95140  0.39879  0.78065  1.0000
  C   C2983     1.0  0.93817  0.39124  0.81570  1.0000
  C   C2984     1.0  0.77301  0.34687  0.50356  1.0000
  C   C2985     1.0  0.71859  0.28354  0.57225  1.0000
  H   H5252     1.0  0.94960  0.27812  0.96808  1.0000
  H   H5253     1.0  0.87153  0.30259  0.67412  1.0000
  C   C2986     1.0  0.82689  0.37737  0.95402  1.0000
  H   H5254     1.0  0.94381  0.42515  0.72608  1.0000
  H   H5255     1.0  0.92793  0.40918  0.75845  1.0000
  C   C2987     1.0  0.90898  0.27235  0.69121  1.0000
  H   H5256     1.0  0.73170  0.30625  0.51395  1.0000
  H   H5257     1.0  0.93037  0.47312  0.97331  1.0000
  C   C2988     1.0  0.96147  0.42882  0.76397  1.0000
  H   H5258     1.0  0.90963  0.38834  0.89906  1.0000
  C   C2989     1.0  0.92137  0.38160  0.87201  1.0000
  H   H5259     1.0  0.90638  0.29329  0.93070  1.0000
  H   H5260     1.0  0.96479  0.43813  0.74999  1.0000
  N   N165      1.0  0.90503  0.26523  0.82526  1.0000
  H   H5261     1.0  0.76237  0.26657  0.75324  1.0000
  N   N166      1.0  0.95399  0.41284  0.76234  1.0000
  C   C2990     1.0  0.85362  0.31232  0.69815  1.0000
  H   H5262     1.0  0.94146  0.44548  0.73528  1.0000
  H   H5263     1.0  0.85800  0.35521  0.91876  1.0000
  H   H5264     1.0  0.90890  0.28795  0.83542  1.0000
  H   H5265     1.0  0.87414  0.34624  0.89998  1.0000
  H   H5266     1.0  0.97100  0.24831  0.95777  1.0000
  C   C2991     1.0  0.67482  0.27755  0.62048  1.0000
  H   H5267     1.0  0.88832  0.31968  0.83653  1.0000
  H   H5268     1.0  0.87119  0.29311  0.82486  1.0000
  C   C2992     1.0  0.79019  0.24036  0.80682  1.0000
  H   H5269     1.0  0.97742  0.41427  0.78607  1.0000
  C   C2993     1.0  0.87876  0.31650  0.82949  1.0000
  H   H5270     1.0  0.91458  0.30809  0.94060  1.0000
  S   S667      1.0  0.97900  0.31318  0.77762  1.0000
  C   C2994     1.0  0.98518  0.27986  0.94771  1.0000
  Fe  Fe327     1.0  0.76829  0.23771  0.60036  1.0000
  H   H5271     1.0  0.72866  0.26760  0.76266  1.0000
  H   H5272     1.0  0.78276  0.25433  0.80852  1.0000
  Fe  Fe328     1.0  0.74433  0.24414  0.63734  1.0000
  C   C2995     1.0  0.88902  0.30332  0.69318  1.0000
  H   H5273     1.0  0.86559  0.37416  0.93492  1.0000
  C   C2996     1.0  0.89837  0.25354  0.84429  1.0000
  C   C2997     1.0  0.90469  0.31770  0.65258  1.0000
  H   H5274     1.0  0.92737  0.28019  0.71355  1.0000
  C   C2998     1.0  0.90115  0.24382  0.80543  1.0000
  H   H5275     1.0  0.68910  0.26764  0.58589  1.0000
  C   C2999     1.0  0.85217  0.35200  0.97416  1.0000
  C   C3000     1.0  0.96086  0.30570  0.92387  1.0000
  H   H5276     1.0  0.84927  0.35958  0.88151  1.0000
  H   H5277     1.0  0.96188  0.31996  0.89464  1.0000
  C   C3001     1.0  0.94635  0.27070  0.95892  1.0000
  C   C3002     1.0  0.96426  0.26004  0.94762  1.0000
  C   C3003     1.0  0.95137  0.31783  0.90798  1.0000
  H   H5278     1.0  0.84121  0.38465  0.87618  1.0000
  H   H5279     1.0  0.91624  0.44906  0.71901  1.0000
  H   H5280     1.0  0.93228  0.26141  0.66966  1.0000
  H   H5281     1.0  0.96924  0.36741  0.86175  1.0000
  H   H5282     1.0  0.84654  0.33094  0.96310  1.0000
  H   H5283     1.0  0.96663  0.25148  0.83633  1.0000
  H   H5284     1.0  0.95222  0.38441  0.81871  1.0000
  H   H5285     1.0  0.87805  0.34009  0.94093  1.0000
  H   H5286     1.0  0.98165  0.28824  0.90711  1.0000
  H   H5287     1.0  0.68196  0.24283  0.71467  1.0000
  H   H5288     1.0  0.96032  0.28053  0.91550  1.0000
  H   H5289     1.0  0.95023  0.30521  0.93710  1.0000
  H   H5290     1.0  0.93457  0.37232  0.87539  1.0000
  H   H5291     1.0  0.90308  0.33460  0.62476  1.0000
  H   H5292     1.0  0.87342  0.39998  0.94833  1.0000
  C   C3004     1.0  0.92830  0.25968  0.68511  1.0000
  H   H5293     1.0  0.68080  0.26548  0.63079  1.0000
  H   H5294     1.0  0.93790  0.28074  0.94925  1.0000
  H   H5295     1.0  0.73381  0.34881  0.50114  1.0000
  H   H5296     1.0  0.88756  0.29915  0.70867  1.0000
  N   N167      1.0  0.90748  0.29311  0.68350  1.0000
  H   H5297     1.0  0.77084  0.34864  0.51807  1.0000
  H   H5298     1.0  0.90029  0.25948  0.85551  1.0000
  N   N168      1.0  0.74200  0.24082  0.77740  1.0000
  C   C3005     1.0  0.87936  0.37529  0.92528  1.0000
  H   H5299     1.0  0.87653  0.38905  0.91565  1.0000
  H   H5300     1.0  0.94252  0.29922  0.72424  1.0000
  H   H5301     1.0  0.89292  0.39079  0.88539  1.0000
  C   C3006     1.0  0.73526  0.34100  0.51559  1.0000
  H   H5302     1.0  0.89203  0.40635  0.92882  1.0000
  N   N169      1.0  0.80687  0.26394  0.84829  1.0000
  C   C3007     1.0  0.78681  0.27292  0.85532  1.0000
  C   C3008     1.0  0.81843  0.26571  0.86097  1.0000
  C   C3009     1.0  0.81317  0.27375  0.82831  1.0000
  C   C3010     1.0  0.80898  0.24345  0.84878  1.0000
  H   H5303     1.0  0.98393  0.36836  0.80656  1.0000
  C   C3011     1.0  0.77217  0.27088  0.84547  1.0000
  C   C3012     1.0  0.83392  0.26692  0.81905  1.0000
  C   C3013     1.0  0.82171  0.28563  0.85889  1.0000
  C   C3014     1.0  0.83197  0.28603  0.87357  1.0000
  C   C3015     1.0  0.76862  0.32820  0.50275  1.0000
  C   C3016     1.0  0.75238  0.27906  0.85516  1.0000
  C   C3017     1.0  0.84005  0.28073  0.80099  1.0000
  H   H5304     1.0  0.78534  0.28821  0.85395  1.0000
  H   H5305     1.0  0.78239  0.26746  0.87059  1.0000
  H   H5306     1.0  0.81173  0.26108  0.87596  1.0000
  H   H5307     1.0  0.83233  0.25607  0.85903  1.0000
  H   H5308     1.0  0.81028  0.28918  0.82719  1.0000
  H   H5309     1.0  0.80486  0.27181  0.81912  1.0000
  H   H5310     1.0  0.71360  0.23566  0.58255  1.0000
  C   C3018     1.0  0.88844  0.39579  0.94178  1.0000
  H   H5311     1.0  0.72163  0.24489  0.81392  1.0000
  H   H5312     1.0  0.94437  0.38807  0.77958  1.0000
  H   H5313     1.0  0.77443  0.27855  0.83065  1.0000
  H   H5314     1.0  0.77275  0.25602  0.84578  1.0000
  H   H5315     1.0  0.83566  0.25316  0.81541  1.0000
  H   H5316     1.0  0.84355  0.26524  0.82835  1.0000
  H   H5317     1.0  0.83037  0.29035  0.84492  1.0000
  H   H5318     1.0  0.80829  0.29595  0.86073  1.0000
  H   H5319     1.0  0.83468  0.30027  0.87135  1.0000
  H   H5320     1.0  0.82337  0.28255  0.88789  1.0000
  H   H5321     1.0  0.84558  0.27596  0.87259  1.0000
  C   C3019     1.0  0.89592  0.32307  0.92150  1.0000
  C   C3020     1.0  0.92799  0.23900  0.69340  1.0000
  H   H5322     1.0  0.74953  0.26451  0.78246  1.0000
  H   H5323     1.0  0.75089  0.29408  0.85508  1.0000
  H   H5324     1.0  0.74205  0.27791  0.84777  1.0000
  H   H5325     1.0  0.74906  0.27125  0.86987  1.0000
  H   H5326     1.0  0.83067  0.28314  0.79117  1.0000
  H   H5327     1.0  0.83985  0.29433  0.80411  1.0000
  H   H5328     1.0  0.85447  0.27502  0.79392  1.0000
  H   H5329     1.0  0.82403  0.23675  0.84505  1.0000
  H   H5330     1.0  0.75666  0.24311  0.79726  1.0000
  H   H5331     1.0  0.70947  0.29195  0.58196  1.0000
  H   H5332     1.0  0.77213  0.29760  0.49092  1.0000
  C   C3021     1.0  0.93771  0.25754  0.83388  1.0000
  C   C3022     1.0  0.83559  0.38374  0.96481  1.0000
  H   H5333     1.0  0.66960  0.23518  0.80708  1.0000
  H   H5334     1.0  0.91473  0.24226  0.79514  1.0000
  C   C3023     1.0  0.76050  0.23651  0.76388  1.0000
  C   C3024     1.0  0.91570  0.44022  0.73335  1.0000
  C   C3025     1.0  0.93549  0.43308  0.73703  1.0000
  H   H5335     1.0  0.93143  0.26840  0.80595  1.0000
  C   C3026     1.0  0.65663  0.28815  0.59612  1.0000
  C   C3027     1.0  0.74495  0.25132  0.79041  1.0000
  H   H5336     1.0  0.89086  0.30450  0.94898  1.0000
  H   H5337     1.0  0.78052  0.31659  0.50625  1.0000
  H   H5338     1.0  0.84112  0.30868  0.69610  1.0000
  H   H5339     1.0  0.68606  0.23558  0.62084  1.0000
  H   H5340     1.0  0.86419  0.32300  0.83548  1.0000
  H   H5341     1.0  0.70016  0.36441  0.51264  1.0000
  H   H5342     1.0  0.93421  0.24674  0.84664  1.0000
  H   H5343     1.0  0.71583  0.33119  0.54170  1.0000
  H   H5344     1.0  0.85851  0.38834  0.89791  1.0000
  H   H5345     1.0  0.90923  0.42830  0.73440  1.0000
  C   C3028     1.0  0.74420  0.31155  0.50495  1.0000
  H   H5346     1.0  0.70397  0.24902  0.61097  1.0000
  H   H5347     1.0  0.92384  0.39601  0.86587  1.0000
  N   N170      1.0  0.75029  0.32340  0.51455  1.0000
  C   C3029     1.0  0.69374  0.24299  0.60752  1.0000
  H   H5348     1.0  0.91778  0.23458  0.68822  1.0000
  H   H5349     1.0  0.92948  0.39726  0.82789  1.0000
  C   C3030     1.0  0.75266  0.31203  0.53373  1.0000
  C   C3031     1.0  0.75833  0.32172  0.54633  1.0000
  C   C3032     1.0  0.66214  0.29228  0.63189  1.0000
  H   H5350     1.0  0.89689  0.39561  0.95179  1.0000
  H   H5351     1.0  0.85838  0.23810  0.87288  1.0000
  C   C3033     1.0  0.75730  0.30985  0.56622  1.0000
  C   C3034     1.0  0.71550  0.33829  0.52692  1.0000
  S   S668      1.0  0.76870  0.24709  0.56927  1.0000
  H   H5352     1.0  0.84792  0.29706  0.97609  1.0000
  C   C3035     1.0  0.82332  0.26597  0.66273  1.0000
  Fe  Fe329     1.0  0.97804  0.30036  0.80818  1.0000
  C   C3036     1.0  0.87795  0.25068  0.84922  1.0000
  H   H5353     1.0  0.73971  0.30698  0.54154  1.0000
  H   H5354     1.0  0.76356  0.29905  0.53260  1.0000
  H   H5355     1.0  0.74908  0.33558  0.54741  1.0000
  H   H5356     1.0  0.77304  0.32333  0.54071  1.0000
  H   H5357     1.0  0.97177  0.41332  0.73457  1.0000
  Fe  Fe330     1.0  0.97747  0.33999  0.78628  1.0000
  C   C3037     1.0  0.92602  0.25899  0.81928  1.0000
  H   H5358     1.0  0.88390  0.32021  0.91783  1.0000
  H   H5359     1.0  0.98526  0.30292  0.87213  1.0000
  C   C3038     1.0  0.98547  0.44051  0.77329  1.0000
  H   H5360     1.0  0.76256  0.31645  0.57471  1.0000
  H   H5361     1.0  0.74261  0.30882  0.57308  1.0000
  H   H5362     1.0  0.76598  0.29551  0.56606  1.0000
  H   H5363     1.0  0.74333  0.25359  0.82748  1.0000
  Fe  Fe331     1.0  0.67903  0.29942  0.48727  1.0000
  H   H5364     1.0  0.71740  0.26828  0.79951  1.0000
  H   H5365     1.0  0.94587  0.41727  0.80070  1.0000
  H   H5366     1.0  0.89965  0.28942  0.65935  1.0000
  C   C3039     1.0  0.72798  0.25699  0.80584  1.0000
  H   H5367     1.0  0.80311  0.33674  0.50111  1.0000
  H   H5368     1.0  0.97172  0.36779  0.72404  1.0000
  C   C3040     1.0  0.67157  0.29450  0.64643  1.0000
  H   H5369     1.0  0.67368  0.28125  0.65702  1.0000
  H   H5370     1.0  0.97746  0.39053  0.71389  1.0000
  C   C3041     1.0  0.90609  0.31955  0.63167  1.0000
  S   S669      1.0  0.97838  0.32677  0.81618  1.0000
  C   C3042     1.0  0.71114  0.24046  0.71353  1.0000
  C   C3043     1.0  0.90893  0.29680  0.66263  1.0000
  H   H5371     1.0  0.70663  0.36617  0.53345  1.0000
  H   H5372     1.0  0.95486  0.29530  0.70130  1.0000
  S   S670      1.0  0.66651  0.33718  0.51652  1.0000
  H   H5373     1.0  0.87623  0.24195  0.84036  1.0000
  H   H5374     1.0  0.76215  0.27156  0.48547  1.0000
  H   H5375     1.0  0.87013  0.28502  0.69534  1.0000
  H   H5376     1.0  0.67412  0.25260  0.58898  1.0000
  H   H5377     1.0  0.79229  0.23600  0.73600  1.0000
  H   H5378     1.0  0.66259  0.30569  0.65377  1.0000
  H   H5379     1.0  0.96307  0.26237  0.81301  1.0000
  H   H5380     1.0  0.65748  0.27610  0.57221  1.0000
  H   H5381     1.0  0.80273  0.24162  0.83782  1.0000
  H   H5382     1.0  0.73852  0.27946  0.49730  1.0000
  S   S671      1.0  0.66309  0.29476  0.51712  1.0000
  H   H5383     1.0  0.88432  0.25242  0.78411  1.0000
  C   C3044     1.0  0.96171  0.38721  0.74284  1.0000
  H   H5384     1.0  0.90518  0.26934  0.70677  1.0000
  H   H5385     1.0  0.98823  0.44994  0.75931  1.0000
  H   H5386     1.0  0.97388  0.29049  0.95396  1.0000
  H   H5387     1.0  0.97450  0.44829  0.78311  1.0000
  H   H5388     1.0  0.98120  0.39643  0.75245  1.0000
  C   C3045     1.0  0.75885  0.29396  0.49980  1.0000
  H   H5389     1.0  0.92423  0.23640  0.70896  1.0000
  C   C3046     1.0  0.75152  0.28411  0.48887  1.0000
  H   H5390     1.0  0.87349  0.24902  0.87928  1.0000
  H   H5391     1.0  0.78536  0.23659  0.87192  1.0000
  C   C3047     1.0  0.81855  0.23650  0.65949  1.0000
  C   C3048     1.0  0.97615  0.37946  0.72687  1.0000
  H   H5392     1.0  0.90924  0.34629  0.97834  1.0000
  H   H5393     1.0  0.79594  0.34694  0.47895  1.0000
  H   H5394     1.0  0.74501  0.63960  0.33495  1.0000
  C   C3049     1.0  0.78676  0.52282  0.36430  1.0000
  H   H5395     1.0  0.70282  0.50871  0.27911  1.0000
  H   H5396     1.0  0.70676  0.51149  0.25410  1.0000
  H   H5397     1.0  0.90936  0.52303  0.04665  1.0000
  Fe  Fe332     1.0  0.95114  0.50669  0.02218  1.0000
  S   S672      1.0  0.95911  0.51371  0.04564  1.0000
  H   H5398     1.0  0.86524  0.50112  0.10758  1.0000
  H   H5399     1.0  0.77853  0.67629  0.26891  1.0000
  Fe  Fe333     1.0  0.95527  0.54306  0.02883  1.0000
  S   S673      1.0  0.93680  0.56694  0.04211  1.0000
  H   H5400     1.0  0.76398  0.67803  0.29776  1.0000
  S   S674      1.0  0.94574  0.53632  0.00610  1.0000
  H   H5401     1.0  0.66726  0.63952  0.05237  1.0000
  C   C3050     1.0  0.73484  0.51123  0.31278  1.0000
  H   H5402     1.0  0.94264  0.61277  0.07960  1.0000
  C   C3051     1.0  0.72898  0.62935  0.32197  1.0000
  C   C3052     1.0  0.90126  0.72142  0.34345  1.0000
  H   H5403     1.0  0.93650  0.49363  0.11050  1.0000
  S   S675      1.0  0.72151  0.65625  0.27585  1.0000
  S   S676      1.0  0.76651  0.52865  0.26556  1.0000
  Fe  Fe334     1.0  0.79162  0.56122  0.27779  1.0000
  S   S677      1.0  0.78251  0.56780  0.25049  1.0000
  S   S678      1.0  0.80128  0.58400  0.28456  1.0000
  Fe  Fe335     1.0  0.75637  0.55865  0.26778  1.0000
  S   S679      1.0  0.72773  0.57500  0.26518  1.0000
  Fe  Fe336     1.0  0.79360  0.53733  0.25031  1.0000
  S   S680      1.0  0.81066  0.52942  0.22313  1.0000
  S   S681      1.0  0.76436  0.55447  0.29512  1.0000
  Fe  Fe337     1.0  0.80497  0.53593  0.10648  1.0000
  S   S682      1.0  0.80399  0.50743  0.12431  1.0000
  S   S683      1.0  0.83158  0.54651  0.09665  1.0000
  Fe  Fe338     1.0  0.76462  0.54425  0.10324  1.0000
  S   S684      1.0  0.76004  0.51599  0.12052  1.0000
  S   S685      1.0  0.74504  0.56912  0.08971  1.0000
  Fe  Fe339     1.0  0.77610  0.52083  0.13933  1.0000
  S   S686      1.0  0.76610  0.51402  0.17078  1.0000
  Fe  Fe340     1.0  0.78840  0.50461  0.10416  1.0000
  H   H5404     1.0  0.80984  0.70627  0.19734  1.0000
  S   S687      1.0  0.77842  0.54990  0.12335  1.0000
  S   S688      1.0  0.79156  0.53229  0.08509  1.0000
  S   S689      1.0  0.80038  0.70926  0.33674  1.0000
  Fe  Fe341     1.0  0.91033  0.62161  0.27225  1.0000
  S   S690      1.0  0.91477  0.60415  0.30050  1.0000
  S   S691      1.0  0.93022  0.61874  0.24453  1.0000
  Fe  Fe342     1.0  0.87065  0.64004  0.28775  1.0000
  S   S692      1.0  0.87181  0.62431  0.31711  1.0000
  S   S693      1.0  0.84523  0.65936  0.27822  1.0000
  Fe  Fe343     1.0  0.90050  0.63095  0.31085  1.0000
  S   S694      1.0  0.90605  0.64112  0.33441  1.0000
  Fe  Fe344     1.0  0.88574  0.59937  0.30427  1.0000
  S   S695      1.0  0.87540  0.57220  0.31351  1.0000
  S   S696      1.0  0.89809  0.64868  0.28221  1.0000
  S   S697      1.0  0.88263  0.61466  0.27541  1.0000
  Fe  Fe345     1.0  0.86040  0.60600  0.14478  1.0000
  S   S698      1.0  0.88321  0.59262  0.16076  1.0000
  S   S699      1.0  0.83407  0.59497  0.15170  1.0000
  Fe  Fe346     1.0  0.87837  0.63909  0.12345  1.0000
  S   S700      1.0  0.90295  0.62844  0.13732  1.0000
  S   S701      1.0  0.87637  0.66596  0.10168  1.0000
  Fe  Fe347     1.0  0.90254  0.60021  0.13286  1.0000
  S   S702      1.0  0.92955  0.58046  0.12268  1.0000
  Fe  Fe348     1.0  0.88173  0.62175  0.16372  1.0000
  S   S703      1.0  0.87566  0.63240  0.19020  1.0000
  S   S704      1.0  0.87966  0.61164  0.11668  1.0000
  S   S705      1.0  0.85721  0.63436  0.15008  1.0000
  Fe  Fe349     1.0  0.96332  0.70729  0.35340  1.0000
  S   S706      1.0  0.67791  0.69675  0.27766  1.0000
  S   S707      1.0  0.96462  0.68809  0.33412  1.0000
  H   H5405     1.0  0.98805  0.67588  0.36795  1.0000
  H   H5406     1.0  0.82008  0.70006  0.17538  1.0000
  C   C3053     1.0  0.92130  0.65592  0.33302  1.0000
  C   C3054     1.0  0.93603  0.65888  0.31765  1.0000
  C   C3055     1.0  0.94877  0.66939  0.31791  1.0000
  C   C3056     1.0  0.94665  0.67748  0.33327  1.0000
  C   C3057     1.0  0.93144  0.67519  0.34830  1.0000
  C   C3058     1.0  0.91904  0.66421  0.34830  1.0000
  H   H5407     1.0  0.93801  0.65250  0.30585  1.0000
  H   H5408     1.0  0.96056  0.67095  0.30626  1.0000
  H   H5409     1.0  0.92960  0.68135  0.36020  1.0000
  H   H5410     1.0  0.90773  0.66193  0.36031  1.0000
  C   C3059     1.0  0.91662  0.62441  0.22750  1.0000
  C   C3060     1.0  0.92278  0.61667  0.21141  1.0000
  C   C3061     1.0  0.91072  0.61968  0.19910  1.0000
  C   C3062     1.0  0.89254  0.63030  0.20305  1.0000
  C   C3063     1.0  0.88688  0.63872  0.21856  1.0000
  C   C3064     1.0  0.89886  0.63590  0.23066  1.0000
  H   H5411     1.0  0.93659  0.60790  0.20884  1.0000
  H   H5412     1.0  0.91529  0.61344  0.18691  1.0000
  H   H5413     1.0  0.87282  0.64670  0.22179  1.0000
  H   H5414     1.0  0.89416  0.64233  0.24272  1.0000
  C   C3065     1.0  0.85717  0.68422  0.10713  1.0000
  H   H5415     1.0  0.86989  0.70531  0.08629  1.0000
  C   C3066     1.0  0.81177  0.69498  0.32066  1.0000
  C   C3067     1.0  0.81016  0.70101  0.30192  1.0000
  C   C3068     1.0  0.82005  0.68975  0.28897  1.0000
  C   C3069     1.0  0.83210  0.67286  0.29463  1.0000
  C   C3070     1.0  0.83359  0.66688  0.31337  1.0000
  C   C3071     1.0  0.82309  0.67769  0.32648  1.0000
  H   H5416     1.0  0.68900  0.66247  0.17686  1.0000
  H   H5417     1.0  0.96777  0.65914  0.39304  1.0000
  H   H5418     1.0  0.84249  0.65375  0.31792  1.0000
  H   H5419     1.0  0.82408  0.67282  0.34104  1.0000
  C   C3072     1.0  0.83305  0.55913  0.11233  1.0000
  C   C3073     1.0  0.84491  0.57188  0.10646  1.0000
  C   C3074     1.0  0.84541  0.58278  0.11860  1.0000
  C   C3075     1.0  0.83414  0.58089  0.13664  1.0000
  C   C3076     1.0  0.82242  0.56798  0.14257  1.0000
  C   C3077     1.0  0.82197  0.55700  0.13047  1.0000
  H   H5420     1.0  0.85348  0.57349  0.09244  1.0000
  H   H5421     1.0  0.85423  0.59287  0.11383  1.0000
  H   H5422     1.0  0.81382  0.56633  0.15656  1.0000
  H   H5423     1.0  0.81308  0.54689  0.13521  1.0000
  C   C3078     1.0  0.82183  0.57996  0.29284  1.0000
  C   C3079     1.0  0.83297  0.56207  0.29673  1.0000
  C   C3080     1.0  0.84931  0.55958  0.30339  1.0000
  C   C3081     1.0  0.85472  0.57506  0.30572  1.0000
  C   C3082     1.0  0.84354  0.59290  0.30173  1.0000
  C   C3083     1.0  0.82710  0.59529  0.29550  1.0000
  H   H5424     1.0  0.82902  0.55023  0.29451  1.0000
  H   H5425     1.0  0.85799  0.54575  0.30638  1.0000
  H   H5426     1.0  0.84751  0.60492  0.30354  1.0000
  H   H5427     1.0  0.81863  0.60917  0.29238  1.0000
  C   C3084     1.0  0.79810  0.52593  0.20822  1.0000
  C   C3085     1.0  0.80709  0.52396  0.18986  1.0000
  C   C3086     1.0  0.79734  0.52071  0.17799  1.0000
  C   C3087     1.0  0.77862  0.51916  0.18460  1.0000
  C   C3088     1.0  0.76957  0.52147  0.20279  1.0000
  C   C3089     1.0  0.77922  0.52495  0.21452  1.0000
  H   H5428     1.0  0.82164  0.52494  0.18479  1.0000
  H   H5429     1.0  0.80438  0.51910  0.16389  1.0000
  H   H5430     1.0  0.87171  0.52262  0.27565  1.0000
  C   C3090     1.0  0.72448  0.63279  0.27478  1.0000
  C   C3091     1.0  0.74006  0.62454  0.26275  1.0000
  C   C3092     1.0  0.74116  0.60666  0.25994  1.0000
  C   C3093     1.0  0.72672  0.59703  0.26920  1.0000
  C   C3094     1.0  0.71157  0.60496  0.28185  1.0000
  C   C3095     1.0  0.71051  0.62279  0.28471  1.0000
  H   H5431     1.0  0.75095  0.63219  0.25516  1.0000
  H   H5432     1.0  0.75289  0.60060  0.25015  1.0000
  H   H5433     1.0  0.70057  0.59742  0.28931  1.0000
  H   H5434     1.0  0.69882  0.62880  0.29459  1.0000
  H   H5435     1.0  0.77232  0.69352  0.32834  1.0000
  N   N171      1.0  0.79768  0.53667  0.35034  1.0000
  H   H5436     1.0  0.76586  0.65930  0.26861  1.0000
  H   H5437     1.0  0.78720  0.66909  0.23814  1.0000
  S   S708      1.0  0.80521  0.53126  0.27630  1.0000
  H   H5438     1.0  0.73126  0.62037  0.31178  1.0000
  C   C3096     1.0  0.68701  0.58945  0.12385  1.0000
  C   C3097     1.0  0.69731  0.60233  0.11171  1.0000
  C   C3098     1.0  0.71506  0.59596  0.10112  1.0000
  C   C3099     1.0  0.72290  0.57673  0.10326  1.0000
  C   C3100     1.0  0.71267  0.56387  0.11559  1.0000
  C   C3101     1.0  0.69469  0.57023  0.12575  1.0000
  H   H5439     1.0  0.69148  0.61716  0.11035  1.0000
  H   H5440     1.0  0.72287  0.60594  0.09143  1.0000
  H   H5441     1.0  0.71851  0.54901  0.11700  1.0000
  H   H5442     1.0  0.68668  0.56022  0.13505  1.0000
  H   H5443     1.0  0.69052  0.55733  0.29787  1.0000
  C   C3102     1.0  0.93528  0.56632  0.06589  1.0000
  C   C3103     1.0  0.91758  0.57078  0.07733  1.0000
  C   C3104     1.0  0.91574  0.57423  0.09515  1.0000
  C   C3105     1.0  0.93161  0.57366  0.10149  1.0000
  C   C3106     1.0  0.94939  0.56825  0.09046  1.0000
  C   C3107     1.0  0.95124  0.56455  0.07269  1.0000
  H   H5444     1.0  0.90523  0.57192  0.07220  1.0000
  H   H5445     1.0  0.90199  0.57774  0.10379  1.0000
  H   H5446     1.0  0.96497  0.56135  0.06387  1.0000
  S   S709      1.0  0.66855  0.65561  0.28240  1.0000
  H   H5447     1.0  0.71968  0.64299  0.31755  1.0000
  C   C3108     1.0  0.74767  0.63228  0.32336  1.0000
  C   C3109     1.0  0.67267  0.63199  0.06516  1.0000
  S   S710      1.0  0.66050  0.72059  0.32047  1.0000
  H   H5448     1.0  0.96612  0.58531  0.18815  1.0000
  H   H5449     1.0  0.79263  0.50394  0.06164  1.0000
  H   H5450     1.0  0.80066  0.50042  0.02845  1.0000
  H   H5451     1.0  0.67506  0.53512  0.36905  1.0000
  H   H5452     1.0  0.96968  0.62890  0.32597  1.0000
  H   H5453     1.0  0.70988  0.70778  0.22590  1.0000
  H   H5454     1.0  0.70170  0.61538  0.23898  1.0000
  H   H5455     1.0  0.73688  0.49032  0.20212  1.0000
  H   H5456     1.0  0.93312  0.49917  0.13916  1.0000
  Fe  Fe350     1.0  0.65573  0.62690  0.13957  1.0000
  H   H5457     1.0  0.71769  0.54105  0.24960  1.0000
  H   H5458     1.0  0.95248  0.63843  0.08642  1.0000
  C   C3110     1.0  0.86599  0.67593  0.34516  1.0000
  H   H5459     1.0  0.86246  0.61775  0.07676  1.0000
  C   C3111     1.0  0.86354  0.70228  0.30967  1.0000
  H   H5460     1.0  0.91167  0.51137  0.09352  1.0000
  H   H5461     1.0  0.65712  0.60596  0.29816  1.0000
  H   H5462     1.0  0.95810  0.60301  0.01934  1.0000
  H   H5463     1.0  0.81775  0.56192  0.05750  1.0000
  C   C3112     1.0  0.79949  0.49045  0.05820  1.0000
  C   C3113     1.0  0.67457  0.58602  0.07905  1.0000
  H   H5464     1.0  0.76909  0.54166  0.38338  1.0000
  C   C3114     1.0  0.76012  0.67080  0.32742  1.0000
  C   C3115     1.0  0.80400  0.48844  0.03943  1.0000
  H   H5465     1.0  0.93829  0.49111  0.99231  1.0000
  H   H5466     1.0  0.77676  0.70684  0.24768  1.0000
  C   C3116     1.0  0.73797  0.48896  0.23079  1.0000
  C   C3117     1.0  0.65647  0.62718  0.08199  1.0000
  H   H5467     1.0  0.83976  0.69577  0.34436  1.0000
  H   H5468     1.0  0.98341  0.60537  0.32794  1.0000
  H   H5469     1.0  0.67092  0.71792  0.14261  1.0000
  C   C3118     1.0  0.71161  0.49210  0.32865  1.0000
  C   C3119     1.0  0.68018  0.56486  0.08602  1.0000
  H   H5470     1.0  0.80241  0.65119  0.32369  1.0000
  H   H5471     1.0  0.84669  0.49845  0.09852  1.0000
  H   H5472     1.0  0.87493  0.68949  0.30955  1.0000
  H   H5473     1.0  0.94608  0.50138  0.08613  1.0000
  S   S711      1.0  0.77150  0.50118  0.31625  1.0000
  C   C3120     1.0  0.87599  0.68096  0.15028  1.0000
  H   H5474     1.0  0.88722  0.69839  0.35350  1.0000
  S   S712      1.0  0.67173  0.63798  0.15359  1.0000
  C   C3121     1.0  0.85445  0.69627  0.34379  1.0000
  H   H5475     1.0  0.78199  0.72835  0.26464  1.0000
  H   H5476     1.0  0.90552  0.54654  0.03293  1.0000
  H   H5477     1.0  0.75345  0.48675  0.22704  1.0000
  N   N172      1.0  0.83833  0.69064  0.19537  1.0000
  N   N173      1.0  0.79533  0.64329  0.11554  1.0000
  C   C3122     1.0  0.77629  0.65561  0.11422  1.0000
  C   C3123     1.0  0.79836  0.64078  0.13504  1.0000
  C   C3124     1.0  0.80970  0.65374  0.10213  1.0000
  C   C3125     1.0  0.79799  0.62454  0.11053  1.0000
  C   C3126     1.0  0.78033  0.61612  0.11492  1.0000
  C   C3127     1.0  0.77218  0.66231  0.09419  1.0000
  C   C3128     1.0  0.83050  0.64409  0.10189  1.0000
  C   C3129     1.0  0.78563  0.62963  0.15122  1.0000
  C   C3130     1.0  0.78813  0.63087  0.17018  1.0000
  C   C3131     1.0  0.78546  0.59618  0.11166  1.0000
  C   C3132     1.0  0.75126  0.66911  0.09467  1.0000
  C   C3133     1.0  0.84323  0.65374  0.08489  1.0000
  H   H5478     1.0  0.77453  0.66851  0.11956  1.0000
  H   H5479     1.0  0.76496  0.64870  0.12352  1.0000
  H   H5480     1.0  0.81282  0.63307  0.13612  1.0000
  H   H5481     1.0  0.79692  0.65475  0.13821  1.0000
  H   H5482     1.0  0.80757  0.66795  0.10509  1.0000
  H   H5483     1.0  0.80797  0.65609  0.08750  1.0000
  H   H5484     1.0  0.80387  0.62536  0.09525  1.0000
  H   H5485     1.0  0.80868  0.61394  0.11757  1.0000
  H   H5486     1.0  0.77066  0.62447  0.10564  1.0000
  H   H5487     1.0  0.77255  0.61573  0.12957  1.0000
  H   H5488     1.0  0.77902  0.67427  0.08644  1.0000
  H   H5489     1.0  0.77769  0.65107  0.08605  1.0000
  H   H5490     1.0  0.83325  0.62909  0.10132  1.0000
  H   H5491     1.0  0.83460  0.64500  0.11457  1.0000
  H   H5492     1.0  0.77064  0.63495  0.15093  1.0000
  H   H5493     1.0  0.78953  0.61458  0.15047  1.0000
  H   H5494     1.0  0.80286  0.62488  0.17153  1.0000
  H   H5495     1.0  0.78443  0.64570  0.17164  1.0000
  H   H5496     1.0  0.77885  0.62294  0.18165  1.0000
  H   H5497     1.0  0.77255  0.59130  0.11280  1.0000
  H   H5498     1.0  0.79436  0.59544  0.09750  1.0000
  H   H5499     1.0  0.79302  0.58666  0.12238  1.0000
  H   H5500     1.0  0.74886  0.67357  0.08015  1.0000
  H   H5501     1.0  0.74355  0.65779  0.10237  1.0000
  H   H5502     1.0  0.74567  0.68132  0.10150  1.0000
  C   C3134     1.0  0.77732  0.52719  0.38401  1.0000
  C   C3135     1.0  0.68302  0.64484  0.06914  1.0000
  H   H5503     1.0  0.90001  0.68564  0.02453  1.0000
  H   H5504     1.0  0.81141  0.55000  0.04318  1.0000
  H   H5505     1.0  0.96647  0.59425  0.04089  1.0000
  C   C3136     1.0  0.68088  0.71933  0.22473  1.0000
  C   C3137     1.0  0.85418  0.68473  0.22357  1.0000
  H   H5506     1.0  0.69414  0.64851  0.05674  1.0000
  H   H5507     1.0  0.85059  0.69769  0.31024  1.0000
  C   C3138     1.0  0.98177  0.51562  0.11204  1.0000
  S   S713      1.0  0.78236  0.70181  0.16382  1.0000
  H   H5508     1.0  0.69476  0.68515  0.16525  1.0000
  C   C3139     1.0  0.92062  0.51916  0.09665  1.0000
  C   C3140     1.0  0.71669  0.50814  0.31613  1.0000
  H   H5509     1.0  0.69805  0.68131  0.24370  1.0000
  H   H5510     1.0  0.81454  0.64185  0.21601  1.0000
  H   H5511     1.0  0.65796  0.61262  0.05141  1.0000
  H   H5512     1.0  0.68254  0.60017  0.21250  1.0000
  C   C3141     1.0  0.85690  0.69448  0.23762  1.0000
  C   C3142     1.0  0.84656  0.72810  0.32517  1.0000
  C   C3143     1.0  0.69660  0.68450  0.22885  1.0000
  C   C3144     1.0  0.71043  0.73214  0.26474  1.0000
  C   C3145     1.0  0.71189  0.51380  0.26553  1.0000
  H   H5513     1.0  0.87574  0.68912  0.03629  1.0000
  H   H5514     1.0  0.82383  0.51639  0.34680  1.0000
  H   H5515     1.0  0.88693  0.67106  0.15738  1.0000
  H   H5516     1.0  0.84827  0.67230  0.23166  1.0000
  H   H5517     1.0  0.81126  0.58044  0.36506  1.0000
  H   H5518     1.0  0.76576  0.67534  0.19621  1.0000
  C   C3146     1.0  0.80832  0.51358  0.32771  1.0000
  C   C3147     1.0  0.86797  0.71551  0.29030  1.0000
  H   H5519     1.0  0.67324  0.65799  0.07218  1.0000
  C   C3148     1.0  0.65890  0.55405  0.34124  1.0000
  H   H5520     1.0  0.66240  0.62187  0.09485  1.0000
  C   C3149     1.0  0.68552  0.67763  0.17707  1.0000
  H   H5521     1.0  0.73225  0.68594  0.20936  1.0000
  H   H5522     1.0  0.90455  0.71966  0.35735  1.0000
  H   H5523     1.0  0.86123  0.69805  0.27532  1.0000
  H   H5524     1.0  0.73255  0.70783  0.29071  1.0000
  C   C3150     1.0  0.70941  0.53494  0.26330  1.0000
  H   H5525     1.0  0.67089  0.68336  0.17528  1.0000
  H   H5526     1.0  0.95634  0.62609  0.04792  1.0000
  Fe  Fe351     1.0  0.75640  0.70055  0.15595  1.0000
  H   H5527     1.0  0.87992  0.72190  0.28917  1.0000
  C   C3151     1.0  0.67778  0.50000  0.39146  1.0000
  H   H5528     1.0  0.84331  0.69914  0.24688  1.0000
  H   H5529     1.0  0.67658  0.62109  0.24315  1.0000
  C   C3152     1.0  0.96371  0.60682  0.02966  1.0000
  H   H5530     1.0  0.79316  0.64425  0.24768  1.0000
  N   N174      1.0  0.73368  0.58170  0.17469  1.0000
  C   C3153     1.0  0.71388  0.58692  0.18548  1.0000
  C   C3154     1.0  0.73648  0.56255  0.17054  1.0000
  C   C3155     1.0  0.74670  0.58013  0.18733  1.0000
  C   C3156     1.0  0.73850  0.59593  0.15687  1.0000
  C   C3157     1.0  0.72254  0.60658  0.14632  1.0000
  C   C3158     1.0  0.70920  0.60461  0.19390  1.0000
  C   C3159     1.0  0.76791  0.57353  0.17942  1.0000
  C   C3160     1.0  0.72337  0.56044  0.15895  1.0000
  C   C3161     1.0  0.72499  0.53996  0.15878  1.0000
  C   C3162     1.0  0.73027  0.61749  0.12693  1.0000
  H   H5531     1.0  0.73348  0.71443  0.24874  1.0000
  C   C3163     1.0  0.77961  0.57479  0.19250  1.0000
  H   H5532     1.0  0.71048  0.57510  0.19732  1.0000
  H   H5533     1.0  0.70365  0.58916  0.17664  1.0000
  H   H5534     1.0  0.75091  0.55817  0.16250  1.0000
  H   H5535     1.0  0.73511  0.55185  0.18391  1.0000
  H   H5536     1.0  0.74288  0.57039  0.20099  1.0000
  H   H5537     1.0  0.74525  0.59394  0.19074  1.0000
  H   H5538     1.0  0.74389  0.60703  0.15973  1.0000
  H   H5539     1.0  0.75025  0.58911  0.14682  1.0000
  H   H5540     1.0  0.71248  0.61683  0.15418  1.0000
  H   H5541     1.0  0.71455  0.59718  0.14446  1.0000
  H   H5542     1.0  0.71549  0.60157  0.20634  1.0000
  H   H5543     1.0  0.71462  0.61642  0.18359  1.0000
  H   H5544     1.0  0.77257  0.58219  0.16542  1.0000
  H   H5545     1.0  0.77113  0.55872  0.17814  1.0000
  H   H5546     1.0  0.70843  0.56590  0.16448  1.0000
  H   H5547     1.0  0.72744  0.56779  0.14420  1.0000
  H   H5548     1.0  0.71403  0.53867  0.15227  1.0000
  H   H5549     1.0  0.73877  0.53457  0.15037  1.0000
  H   H5550     1.0  0.72323  0.53124  0.17322  1.0000
  H   H5551     1.0  0.73951  0.60772  0.11801  1.0000
  H   H5552     1.0  0.71857  0.62569  0.12003  1.0000
  H   H5553     1.0  0.73822  0.62738  0.12805  1.0000
  H   H5554     1.0  0.67797  0.65509  0.23969  1.0000
  H   H5555     1.0  0.68425  0.59252  0.08274  1.0000
  H   H5556     1.0  0.95885  0.66591  0.37249  1.0000
  H   H5557     1.0  0.77799  0.58955  0.19339  1.0000
  H   H5558     1.0  0.77537  0.56641  0.20679  1.0000
  H   H5559     1.0  0.79463  0.56916  0.18713  1.0000
  H   H5560     1.0  0.84815  0.53061  0.27195  1.0000
  N   N175      1.0  0.85742  0.57922  0.23152  1.0000
  C   C3164     1.0  0.84724  0.58576  0.21555  1.0000
  C   C3165     1.0  0.87778  0.57984  0.22360  1.0000
  C   C3166     1.0  0.85493  0.55959  0.24124  1.0000
  C   C3167     1.0  0.84960  0.59165  0.24563  1.0000
  C   C3168     1.0  0.85051  0.61256  0.23788  1.0000
  C   C3169     1.0  0.82557  0.59000  0.22122  1.0000
  C   C3170     1.0  0.86722  0.54911  0.25582  1.0000
  C   C3171     1.0  0.88861  0.56605  0.21048  1.0000
  C   C3172     1.0  0.90880  0.56846  0.20267  1.0000
  C   C3173     1.0  0.83933  0.62460  0.25208  1.0000
  H   H5561     1.0  0.84472  0.50674  0.00907  1.0000
  C   C3174     1.0  0.86313  0.52962  0.26495  1.0000
  H   H5562     1.0  0.85123  0.57505  0.20676  1.0000
  H   H5563     1.0  0.85157  0.59849  0.20577  1.0000
  H   H5564     1.0  0.87918  0.59410  0.21524  1.0000
  H   H5565     1.0  0.88533  0.57753  0.23505  1.0000
  H   H5566     1.0  0.85754  0.55068  0.23083  1.0000
  H   H5567     1.0  0.84014  0.55977  0.24880  1.0000
  H   H5568     1.0  0.83491  0.59059  0.25260  1.0000
  H   H5569     1.0  0.85733  0.58690  0.25720  1.0000
  H   H5570     1.0  0.84510  0.61837  0.22489  1.0000
  H   H5571     1.0  0.86523  0.61397  0.23486  1.0000
  H   H5572     1.0  0.82034  0.60251  0.22763  1.0000
  H   H5573     1.0  0.86459  0.55686  0.26705  1.0000
  H   H5574     1.0  0.88235  0.54726  0.24936  1.0000
  H   H5575     1.0  0.88899  0.55127  0.21789  1.0000
  H   H5576     1.0  0.88202  0.56853  0.19840  1.0000
  H   H5577     1.0  0.90909  0.58262  0.19367  1.0000
  H   H5578     1.0  0.91606  0.56651  0.21421  1.0000
  H   H5579     1.0  0.91644  0.55796  0.19395  1.0000
  H   H5580     1.0  0.82445  0.62338  0.25600  1.0000
  H   H5581     1.0  0.84528  0.62029  0.26483  1.0000
  H   H5582     1.0  0.84010  0.63949  0.24591  1.0000
  H   H5583     1.0  0.80149  0.59805  0.20832  1.0000
  H   H5584     1.0  0.86663  0.60157  0.06173  1.0000
  C   C3175     1.0  0.85775  0.70254  0.09710  1.0000
  N   N176      1.0  0.96895  0.50361  0.11147  1.0000
  S   S714      1.0  0.68349  0.68497  0.11707  1.0000
  H   H5585     1.0  0.75499  0.52079  0.20774  1.0000
  Fe  Fe352     1.0  0.77686  0.52507  0.29162  1.0000
  H   H5586     1.0  0.87830  0.59546  0.08098  1.0000
  H   H5587     1.0  0.96175  0.56774  0.09528  1.0000
  Fe  Fe353     1.0  0.66404  0.69551  0.30782  1.0000
  C   C3176     1.0  0.84131  0.68084  0.12104  1.0000
  H   H5588     1.0  0.84052  0.66682  0.12869  1.0000
  C   C3177     1.0  0.71100  0.69622  0.12545  1.0000
  Fe  Fe354     1.0  0.69105  0.66677  0.28724  1.0000
  H   H5589     1.0  0.86662  0.52091  0.25427  1.0000
  C   C3178     1.0  0.70304  0.68113  0.12678  1.0000
  H   H5590     1.0  0.77205  0.52678  0.22843  1.0000
  C   C3179     1.0  0.67357  0.54671  0.32474  1.0000
  H   H5591     1.0  0.80694  0.65990  0.24921  1.0000
  H   H5592     1.0  0.68815  0.62537  0.25894  1.0000
  C   C3180     1.0  0.68905  0.62558  0.24406  1.0000
  H   H5593     1.0  0.70437  0.65163  0.13723  1.0000
  C   C3181     1.0  0.71025  0.66334  0.13651  1.0000
  H   H5594     1.0  0.70367  0.70748  0.20482  1.0000
  C   C3182     1.0  0.82620  0.69569  0.12495  1.0000
  H   H5595     1.0  0.71636  0.48472  0.21916  1.0000
  H   H5596     1.0  0.81402  0.69290  0.13556  1.0000
  C   C3183     1.0  0.72542  0.69377  0.13475  1.0000
  H   H5597     1.0  0.73088  0.70567  0.13428  1.0000
  H   H5598     1.0  0.97583  0.55426  0.17911  1.0000
  H   H5599     1.0  0.76650  0.66103  0.33887  1.0000
  H   H5600     1.0  0.70574  0.70990  0.11761  1.0000
  H   H5601     1.0  0.84642  0.69186  0.15574  1.0000
  C   C3184     1.0  0.87323  0.60716  0.06993  1.0000
  H   H5602     1.0  0.67598  0.71820  0.24007  1.0000
  H   H5603     1.0  0.87143  0.50342  0.98169  1.0000
  N   N177      1.0  0.71023  0.67008  0.21865  1.0000
  C   C3185     1.0  0.77982  0.66147  0.26846  1.0000
  C   C3186     1.0  0.79262  0.65841  0.24972  1.0000
  H   H5604     1.0  0.74747  0.65569  0.29942  1.0000
  H   H5605     1.0  0.80143  0.65255  0.28405  1.0000
  H   H5606     1.0  0.78515  0.67272  0.30536  1.0000
  C   C3187     1.0  0.77186  0.66787  0.30793  1.0000
  H   H5607     1.0  0.76030  0.63375  0.29438  1.0000
  C   C3188     1.0  0.75774  0.64304  0.30447  1.0000
  H   H5608     1.0  0.94694  0.63469  0.40616  1.0000
  H   H5609     1.0  0.96341  0.64519  0.35218  1.0000
  H   H5610     1.0  0.86269  0.70069  0.17733  1.0000
  H   H5611     1.0  0.67715  0.69546  0.06019  1.0000
  C   C3189     1.0  0.78818  0.64825  0.28509  1.0000
  H   H5612     1.0  0.75143  0.70109  0.31879  1.0000
  C   C3190     1.0  0.82698  0.71406  0.11512  1.0000
  C   C3191     1.0  0.82321  0.70480  0.18664  1.0000
  C   C3192     1.0  0.97298  0.58399  0.17349  1.0000
  C   C3193     1.0  0.66667  0.52673  0.36591  1.0000
  H   H5613     1.0  0.82220  0.60552  0.19321  1.0000
  C   C3194     1.0  0.81694  0.59396  0.20413  1.0000
  H   H5614     1.0  0.83618  0.72825  0.35544  1.0000
  H   H5615     1.0  0.94516  0.51312  0.14538  1.0000
  H   H5616     1.0  0.70664  0.51810  0.30868  1.0000
  H   H5617     1.0  0.81528  0.63723  0.30651  1.0000
  C   C3195     1.0  0.78600  0.63399  0.31826  1.0000
  C   C3196     1.0  0.86749  0.49098  0.99219  1.0000
  H   H5618     1.0  0.90469  0.61028  0.07854  1.0000
  C   C3197     1.0  0.85324  0.49478  0.05180  1.0000
  H   H5619     1.0  0.84744  0.49931  0.06538  1.0000
  H   H5620     1.0  0.92298  0.53101  0.08460  1.0000
  H   H5621     1.0  0.73208  0.50420  0.22927  1.0000
  H   H5622     1.0  0.79309  0.48350  0.26322  1.0000
  N   N178      1.0  0.77573  0.64837  0.30435  1.0000
  C   C3198     1.0  0.67846  0.72957  0.16186  1.0000
  S   S715      1.0  0.66414  0.59698  0.13598  1.0000
  H   H5623     1.0  0.70207  0.71199  0.31367  1.0000
  C   C3199     1.0  0.68936  0.64539  0.23241  1.0000
  H   H5624     1.0  0.84085  0.66890  0.08477  1.0000
  C   C3200     1.0  0.72512  0.66074  0.14531  1.0000
  C   C3201     1.0  0.88939  0.61584  0.05695  1.0000
  H   H5625     1.0  0.88014  0.65686  0.05446  1.0000
  H   H5626     1.0  0.86635  0.68450  0.24645  1.0000
  H   H5627     1.0  0.93655  0.64461  0.38588  1.0000
  H   H5628     1.0  0.79228  0.63374  0.28243  1.0000
  H   H5629     1.0  0.82370  0.67236  0.21851  1.0000
  H   H5630     1.0  0.85133  0.53712  0.02115  1.0000
  C   C3202     1.0  0.75834  0.69073  0.32961  1.0000
  H   H5631     1.0  0.88168  0.72799  0.31750  1.0000
  H   H5632     1.0  0.68732  0.49221  0.38082  1.0000
  H   H5633     1.0  0.82043  0.57799  0.23139  1.0000
  C   C3203     1.0  0.73254  0.67604  0.14463  1.0000
  C   C3204     1.0  0.89976  0.62272  0.06813  1.0000
  H   H5634     1.0  0.88942  0.63230  0.07666  1.0000
  H   H5635     1.0  0.92052  0.61737  0.09558  1.0000
  H   H5636     1.0  0.89899  0.60489  0.04966  1.0000
  H   H5637     1.0  0.76730  0.58514  0.32041  1.0000
  H   H5638     1.0  0.82134  0.49437  0.30894  1.0000
  Fe  Fe355     1.0  0.76344  0.72101  0.18225  1.0000
  H   H5639     1.0  0.86335  0.70675  0.23028  1.0000
  H   H5640     1.0  0.68069  0.61270  0.18896  1.0000
  C   C3205     1.0  0.84109  0.69820  0.21083  1.0000
  H   H5641     1.0  0.71093  0.64883  0.24397  1.0000
  H   H5642     1.0  0.78892  0.61988  0.31485  1.0000
  H   H5643     1.0  0.91160  0.64865  0.07713  1.0000
  H   H5644     1.0  0.88350  0.62749  0.04636  1.0000
  Fe  Fe356     1.0  0.78246  0.72758  0.14101  1.0000
  H   H5645     1.0  0.77726  0.63274  0.33264  1.0000
  H   H5646     1.0  0.87523  0.51551  0.00795  1.0000
  H   H5647     1.0  0.83275  0.52857  0.06345  1.0000
  H   H5648     1.0  0.81221  0.56975  0.33654  1.0000
  H   H5649     1.0  0.68549  0.50863  0.39517  1.0000
  C   C3206     1.0  0.93927  0.50612  0.09946  1.0000
  C   C3207     1.0  0.80470  0.63753  0.31979  1.0000
  C   C3208     1.0  0.87284  0.70484  0.27450  1.0000
  C   C3209     1.0  0.89844  0.53529  0.04229  1.0000
  C   C3210     1.0  0.67930  0.56290  0.30906  1.0000
  N   N179      1.0  0.86187  0.50982  0.03731  1.0000
  C   C3211     1.0  0.87052  0.50366  0.01894  1.0000
  H   H5650     1.0  0.83444  0.52315  0.03154  1.0000
  H   H5651     1.0  0.87145  0.51635  0.05891  1.0000
  H   H5652     1.0  0.88852  0.50125  0.04572  1.0000
  H   H5653     1.0  0.79422  0.55812  0.32522  1.0000
  H   H5654     1.0  0.83405  0.57940  0.34963  1.0000
  H   H5655     1.0  0.66719  0.57119  0.30281  1.0000
  C   C3212     1.0  0.94578  0.49875  0.14408  1.0000
  H   H5656     1.0  0.75068  0.49011  0.05139  1.0000
  H   H5657     1.0  0.80145  0.71438  0.29733  1.0000
  H   H5658     1.0  0.73625  0.50709  0.27704  1.0000
  H   H5659     1.0  0.68301  0.61934  0.06183  1.0000
  H   H5660     1.0  0.89540  0.66951  0.05815  1.0000
  H   H5661     1.0  0.74570  0.66901  0.32903  1.0000
  H   H5662     1.0  0.82047  0.58126  0.19810  1.0000
  C   C3213     1.0  0.93160  0.62395  0.08525  1.0000
  H   H5663     1.0  0.66511  0.68895  0.08414  1.0000
  C   C3214     1.0  0.85877  0.49068  0.10507  1.0000
  C   C3215     1.0  0.84659  0.52700  0.03413  1.0000
  C   C3216     1.0  0.87693  0.51377  0.04443  1.0000
  C   C3217     1.0  0.68803  0.61073  0.20042  1.0000
  C   C3218     1.0  0.81888  0.55964  0.34764  1.0000
  C   C3219     1.0  0.75835  0.57797  0.33297  1.0000
  C   C3220     1.0  0.82392  0.57087  0.35897  1.0000
  H   H5664     1.0  0.77609  0.57440  0.35192  1.0000
  H   H5665     1.0  0.74769  0.58868  0.33981  1.0000
  C   C3221     1.0  0.67366  0.73150  0.14298  1.0000
  C   C3222     1.0  0.86122  0.66398  0.36479  1.0000
  C   C3223     1.0  0.84281  0.71739  0.10118  1.0000
  H   H5666     1.0  0.96055  0.53844  0.12349  1.0000
  H   H5667     1.0  0.72186  0.62226  0.33583  1.0000
  H   H5668     1.0  0.79972  0.52254  0.31763  1.0000
  H   H5669     1.0  0.73054  0.64702  0.15300  1.0000
  H   H5670     1.0  0.71875  0.63982  0.22307  1.0000
  C   C3224     1.0  0.73043  0.71998  0.26168  1.0000
  H   H5671     1.0  0.68478  0.57222  0.31446  1.0000
  N   N180      1.0  0.91594  0.63168  0.05677  1.0000
  C   C3225     1.0  0.92311  0.63896  0.06966  1.0000
  H   H5672     1.0  0.74975  0.69261  0.34363  1.0000
  H   H5673     1.0  0.83061  0.56134  0.37038  1.0000
  H   H5674     1.0  0.77591  0.52048  0.35820  1.0000
  H   H5675     1.0  0.75643  0.61821  0.32728  1.0000
  C   C3226     1.0  0.78554  0.55052  0.33776  1.0000
  C   C3227     1.0  0.77004  0.56529  0.34689  1.0000
  H   H5676     1.0  0.75077  0.56973  0.32857  1.0000
  S   S716      1.0  0.75054  0.67287  0.15632  1.0000
  C   C3228     1.0  0.70826  0.65071  0.22981  1.0000
  H   H5677     1.0  0.67675  0.51839  0.35594  1.0000
  Fe  Fe357     1.0  0.66474  0.66497  0.13318  1.0000
  C   C3229     1.0  0.95220  0.51623  0.10422  1.0000
  C   C3230     1.0  0.88807  0.67855  0.03130  1.0000
  H   H5678     1.0  0.74144  0.51115  0.25239  1.0000
  H   H5679     1.0  0.69534  0.56000  0.08045  1.0000
  S   S717      1.0  0.95633  0.70246  0.38494  1.0000
  C   C3231     1.0  0.90998  0.64784  0.04151  1.0000
  H   H5680     1.0  0.83367  0.63705  0.19648  1.0000
  C   C3232     1.0  0.98516  0.56442  0.17299  1.0000
  C   C3233     1.0  0.83218  0.67218  0.20406  1.0000
  H   H5681     1.0  0.66133  0.72218  0.03868  1.0000
  H   H5682     1.0  0.71403  0.53803  0.27471  1.0000
  H   H5683     1.0  0.82439  0.66924  0.17866  1.0000
  H   H5684     1.0  0.84608  0.66371  0.36876  1.0000
  Fe  Fe358     1.0  0.98819  0.51009  0.02817  1.0000
  C   C3234     1.0  0.88641  0.53002  0.03195  1.0000
  C   C3235     1.0  0.80596  0.54629  0.36034  1.0000
  N   N181      1.0  0.86136  0.71025  0.32665  1.0000
  H   H5685     1.0  0.69445  0.54180  0.26399  1.0000
  S   S718      1.0  0.75797  0.72481  0.13140  1.0000
  H   H5686     1.0  0.70098  0.72385  0.26324  1.0000
  H   H5687     1.0  0.66977  0.71710  0.21901  1.0000
  H   H5688     1.0  0.80513  0.67447  0.19740  1.0000
  H   H5689     1.0  0.87511  0.71467  0.26072  1.0000
  C   C3236     1.0  0.89274  0.66293  0.04791  1.0000
  H   H5690     1.0  0.93358  0.60394  0.05832  1.0000
  H   H5691     1.0  0.90707  0.64268  0.03032  1.0000
  S   S719      1.0  0.76702  0.71272  0.21232  1.0000
  H   H5692     1.0  0.92994  0.64420  0.10181  1.0000
  H   H5693     1.0  0.85375  0.70059  0.35687  1.0000
  C   C3237     1.0  0.74822  0.49812  0.32172  1.0000
  C   C3238     1.0  0.83870  0.53773  0.05037  1.0000
  C   C3239     1.0  0.85677  0.68190  0.16350  1.0000
  H   H5694     1.0  0.84968  0.54313  0.05325  1.0000
  H   H5695     1.0  0.79486  0.55452  0.36961  1.0000
  H   H5696     1.0  0.76023  0.55839  0.35860  1.0000
  H   H5697     1.0  0.92162  0.65531  0.03441  1.0000
  H   H5698     1.0  0.67696  0.67437  0.20667  1.0000
  C   C3240     1.0  0.66073  0.51232  0.38403  1.0000
  H   H5699     1.0  0.86934  0.64939  0.36500  1.0000
  Fe  Fe359     1.0  0.97636  0.53041  0.99226  1.0000
  C   C3241     1.0  0.94989  0.62280  0.03797  1.0000
  C   C3242     1.0  0.93087  0.61716  0.04783  1.0000
  H   H5700     1.0  0.92598  0.61320  0.03707  1.0000
  H   H5701     1.0  0.83402  0.51235  0.30612  1.0000
  H   H5702     1.0  0.81530  0.60836  0.33195  1.0000
  C   C3243     1.0  0.69898  0.70502  0.22026  1.0000
  C   C3244     1.0  0.94442  0.48618  0.16366  1.0000
  H   H5703     1.0  0.93358  0.64761  0.06149  1.0000
  H   H5704     1.0  0.71327  0.65909  0.19407  1.0000
  C   C3245     1.0  0.81309  0.62246  0.33495  1.0000
  H   H5705     1.0  0.79607  0.50874  0.36729  1.0000
  H   H5706     1.0  0.95781  0.62563  0.36991  1.0000
  H   H5707     1.0  0.78818  0.52529  0.39212  1.0000
  H   H5708     1.0  0.74675  0.64355  0.22095  1.0000
  H   H5709     1.0  0.98598  0.52413  0.09779  1.0000
  H   H5710     1.0  0.82684  0.62485  0.33522  1.0000
  H   H5711     1.0  0.86299  0.66915  0.33524  1.0000
  H   H5712     1.0  0.85386  0.66765  0.16705  1.0000
  H   H5713     1.0  0.91311  0.52472  0.10943  1.0000
  H   H5714     1.0  0.86731  0.67669  0.18814  1.0000
  C   C3246     1.0  0.85764  0.49613  0.01110  1.0000
  H   H5715     1.0  0.66607  0.56189  0.34670  1.0000
  C   C3247     1.0  0.68755  0.68064  0.19548  1.0000
  C   C3248     1.0  0.96952  0.63275  0.36196  1.0000
  C   C3249     1.0  0.76422  0.51390  0.39510  1.0000
  H   H5716     1.0  0.76548  0.48546  0.25111  1.0000
  H   H5717     1.0  0.84094  0.49258  0.04789  1.0000
  H   H5718     1.0  0.80376  0.62295  0.34895  1.0000
  C   C3250     1.0  0.82317  0.55458  0.04561  1.0000
  C   C3251     1.0  0.66654  0.70081  0.07189  1.0000
  H   H5719     1.0  0.94539  0.62190  0.10758  1.0000
  H   H5720     1.0  0.82174  0.53528  0.32722  1.0000
  H   H5721     1.0  0.97228  0.52096  0.14048  1.0000
  H   H5722     1.0  0.68972  0.63776  0.08124  1.0000
  H   H5723     1.0  0.68638  0.53824  0.32964  1.0000
  C   C3252     1.0  0.81374  0.52573  0.33822  1.0000
  H   H5724     1.0  0.84019  0.72418  0.16675  1.0000
  C   C3253     1.0  0.73266  0.50392  0.26511  1.0000
  C   C3254     1.0  0.85677  0.68784  0.18151  1.0000
  H   H5725     1.0  0.80028  0.50330  0.33750  1.0000
  C   C3255     1.0  0.77214  0.72817  0.22316  1.0000
  S   S720      1.0  0.98082  0.50003  0.00639  1.0000
  C   C3256     1.0  0.88418  0.71318  0.34586  1.0000
  H   H5726     1.0  0.82861  0.56460  0.03294  1.0000
  H   H5727     1.0  0.82861  0.73149  0.18862  1.0000
  C   C3257     1.0  0.77622  0.72144  0.24108  1.0000
  H   H5728     1.0  0.73855  0.52366  0.30303  1.0000
  C   C3258     1.0  0.94038  0.63274  0.09587  1.0000
  H   H5729     1.0  0.75806  0.51696  0.40930  1.0000
  H   H5730     1.0  0.88353  0.49279  0.01998  1.0000
  H   H5731     1.0  0.81869  0.69437  0.27452  1.0000
  H   H5732     1.0  0.86495  0.66952  0.37520  1.0000
  H   H5733     1.0  0.72142  0.69531  0.28090  1.0000
  C   C3259     1.0  0.70782  0.67261  0.19885  1.0000
  H   H5734     1.0  0.91368  0.71414  0.33447  1.0000
  H   H5735     1.0  0.71658  0.68220  0.18876  1.0000
  H   H5736     1.0  0.94815  0.63519  0.02635  1.0000
  H   H5737     1.0  0.88113  0.67583  0.34157  1.0000
  S   S721      1.0  0.68906  0.48837  0.33094  1.0000
  H   H5738     1.0  0.86826  0.67997  0.21526  1.0000
  C   C3260     1.0  0.74614  0.65709  0.21063  1.0000
  H   H5739     1.0  0.73101  0.67219  0.23249  1.0000
  H   H5740     1.0  0.81439  0.53557  0.36980  1.0000
  H   H5741     1.0  0.82733  0.70263  0.22015  1.0000
  H   H5742     1.0  0.84350  0.73153  0.09348  1.0000
  S   S722      1.0  0.73733  0.71758  0.17614  1.0000
  H   H5743     1.0  0.74475  0.65492  0.19717  1.0000
  C   C3261     1.0  0.72966  0.67218  0.21815  1.0000
  H   H5744     1.0  0.77642  0.65109  0.20366  1.0000
  H   H5745     1.0  0.67152  0.71143  0.07595  1.0000
  H   H5746     1.0  0.75263  0.51577  0.38794  1.0000
  S   S723      1.0  0.98531  0.54022  0.01337  1.0000
  H   H5747     1.0  0.85800  0.64734  0.08560  1.0000
  S   S724      1.0  0.67888  0.66605  0.31772  1.0000
  H   H5748     1.0  0.88965  0.54053  0.05490  1.0000
  H   H5749     1.0  0.87610  0.54283  0.02770  1.0000
  H   H5750     1.0  0.84077  0.65206  0.07167  1.0000
  C   C3262     1.0  0.76480  0.66270  0.20760  1.0000
  C   C3263     1.0  0.82569  0.50264  0.31656  1.0000
  H   H5751     1.0  0.84458  0.66058  0.20578  1.0000
  H   H5752     1.0  0.76631  0.66570  0.22064  1.0000
  H   H5753     1.0  0.83375  0.72532  0.32274  1.0000
  H   H5754     1.0  0.87951  0.69505  0.14537  1.0000
  H   H5755     1.0  0.68368  0.69592  0.19496  1.0000
  H   H5756     1.0  0.87593  0.67582  0.13788  1.0000
  Fe  Fe360     1.0  0.98172  0.71410  0.38240  1.0000
  C   C3264     1.0  0.97405  0.52910  0.12583  1.0000
  H   H5757     1.0  0.89566  0.52567  0.01906  1.0000
  H   H5758     1.0  0.98777  0.60528  0.35890  1.0000
  H   H5759     1.0  0.92744  0.67581  0.39441  1.0000
  C   C3265     1.0  0.81974  0.66641  0.19408  1.0000
  H   H5760     1.0  0.77832  0.54303  0.33196  1.0000
  H   H5761     1.0  0.68465  0.62428  0.20475  1.0000
  H   H5762     1.0  0.95643  0.48588  0.16961  1.0000
  H   H5763     1.0  0.88581  0.69390  0.27541  1.0000
  H   H5764     1.0  0.89179  0.70384  0.32005  1.0000
  C   C3266     1.0  0.88000  0.71407  0.32659  1.0000
  C   C3267     1.0  0.73273  0.70317  0.27792  1.0000
  H   H5765     1.0  0.68191  0.68384  0.23002  1.0000
  H   H5766     1.0  0.80997  0.64205  0.19375  1.0000
  H   H5767     1.0  0.74630  0.69360  0.27411  1.0000
  H   H5768     1.0  0.84718  0.71092  0.20487  1.0000
  H   H5769     1.0  0.94350  0.52522  0.11412  1.0000
  C   C3268     1.0  0.81946  0.64556  0.20059  1.0000
  H   H5770     1.0  0.68678  0.64566  0.21868  1.0000
  H   H5771     1.0  0.95690  0.52628  0.09113  1.0000
  H   H5772     1.0  0.83226  0.55142  0.34100  1.0000
  C   C3269     1.0  0.82725  0.72470  0.17788  1.0000
  H   H5773     1.0  0.88465  0.67284  0.02082  1.0000
  H   H5774     1.0  0.77197  0.49910  0.39666  1.0000
  H   H5775     1.0  0.67758  0.56118  0.10156  1.0000
  H   H5776     1.0  0.98087  0.63611  0.41241  1.0000
  H   H5777     1.0  0.91792  0.65812  0.41282  1.0000
  H   H5778     1.0  0.96091  0.61002  0.34348  1.0000
  H   H5779     1.0  0.96188  0.58655  0.16550  1.0000
  H   H5780     1.0  0.85556  0.72682  0.28796  1.0000
  H   H5781     1.0  0.74083  0.72837  0.26033  1.0000
  C   C3270     1.0  0.97943  0.49143  0.09746  1.0000
  C   C3271     1.0  0.94419  0.64741  0.39514  1.0000
  H   H5782     1.0  0.84254  0.48685  0.13293  1.0000
  H   H5783     1.0  0.98217  0.50017  0.08300  1.0000
  C   C3272     1.0  0.69672  0.72493  0.31862  1.0000
  H   H5784     1.0  0.93128  0.49168  0.17308  1.0000
  C   C3273     1.0  0.96262  0.65357  0.38366  1.0000
  H   H5785     1.0  0.66821  0.53793  0.31861  1.0000
  H   H5786     1.0  0.93767  0.66591  0.41483  1.0000
  C   C3274     1.0  0.93106  0.66278  0.40487  1.0000
  H   H5787     1.0  0.98151  0.59486  0.16700  1.0000
  H   H5788     1.0  0.97560  0.48708  0.13782  1.0000
  H   H5789     1.0  0.72407  0.72961  0.31765  1.0000
  H   H5790     1.0  0.97716  0.61118  0.02242  1.0000
  C   C3275     1.0  0.98770  0.54158  0.12368  1.0000
  C   C3276     1.0  0.67728  0.73173  0.32300  1.0000
  H   H5791     1.0  0.87234  0.72076  0.35498  1.0000
  H   H5792     1.0  0.67672  0.58863  0.06362  1.0000
  H   H5793     1.0  0.97207  0.61422  0.39592  1.0000
  H   H5794     1.0  0.98152  0.55161  0.13316  1.0000
  S   S725      1.0  0.92969  0.48842  0.03287  1.0000
  H   H5795     1.0  0.66704  0.72512  0.17355  1.0000
  H   H5796     1.0  0.85799  0.48550  0.98705  1.0000
  N   N182      1.0  0.97766  0.63893  0.37494  1.0000
  H   H5797     1.0  0.69157  0.71892  0.16301  1.0000
  C   C3277     1.0  0.98364  0.62191  0.38940  1.0000
  H   H5798     1.0  0.98085  0.60262  0.42691  1.0000
  H   H5799     1.0  0.76211  0.49012  0.28450  1.0000
  H   H5800     1.0  0.83455  0.49283  0.32608  1.0000
  H   H5801     1.0  0.67215  0.55740  0.08117  1.0000
  H   H5802     1.0  0.67315  0.48964  0.40423  1.0000
  C   C3278     1.0  0.97367  0.61565  0.33601  1.0000
  H   H5803     1.0  0.80923  0.73151  0.15795  1.0000
  C   C3279     1.0  0.96377  0.49107  0.13044  1.0000
  C   C3280     1.0  0.98319  0.61906  0.34990  1.0000
  Fe  Fe361     1.0  0.94122  0.73272  0.38042  1.0000
  H   H5804     1.0  0.70637  0.73327  0.27961  1.0000
  S   S726      1.0  0.80864  0.73322  0.11984  1.0000
  H   H5805     1.0  0.85355  0.48332  0.02070  1.0000
  Fe  Fe362     1.0  0.78168  0.77792  0.31760  1.0000
  S   S727      1.0  0.80099  0.75702  0.30105  1.0000
  S   S728      1.0  0.79292  0.80158  0.32156  1.0000
  Fe  Fe363     1.0  0.74759  0.76104  0.32062  1.0000
  H   H5806     1.0  0.96375  0.90698  0.35948  1.0000
  S   S729      1.0  0.71634  0.76471  0.33170  1.0000
  H   H5807     1.0  0.71744  0.89967  0.98175  1.0000
  Fe  Fe364     1.0  0.77821  0.76166  0.28540  1.0000
  S   S730      1.0  0.78204  0.76828  0.25382  1.0000
  S   S731      1.0  0.76744  0.75676  0.33953  1.0000
  S   S732      1.0  0.76006  0.78436  0.30014  1.0000
  C   C3281     1.0  0.84706  0.81811  0.47277  1.0000
  H   H5808     1.0  0.82036  0.76139  0.35162  1.0000
  H   H5809     1.0  0.88872  0.85612  0.42252  1.0000
  H   H5810     1.0  0.89849  0.73661  0.33703  1.0000
  S   S733      1.0  0.76531  0.74732  0.15999  1.0000
  H   H5811     1.0  0.72631  0.79297  0.39016  1.0000
  H   H5812     1.0  0.83546  0.84853  0.46774  1.0000
  H   H5813     1.0  0.65580  0.74433  0.08424  1.0000
  H   H5814     1.0  0.66192  0.76066  0.13894  1.0000
  S   S734      1.0  0.71358  0.76334  0.14851  1.0000
  H   H5815     1.0  0.67839  0.74906  0.28466  1.0000
  H   H5816     1.0  0.67165  0.76437  0.05678  1.0000
  Fe  Fe365     1.0  0.82266  0.84044  0.39558  1.0000
  S   S735      1.0  0.84885  0.84578  0.37449  1.0000
  S   S736      1.0  0.80675  0.81917  0.39418  1.0000
  Fe  Fe366     1.0  0.83826  0.87562  0.37768  1.0000
  S   S737      1.0  0.84105  0.90098  0.35446  1.0000
  S   S738      1.0  0.81100  0.87089  0.39690  1.0000
  Fe  Fe367     1.0  0.92601  0.93935  0.35332  1.0000
  S   S739      1.0  0.94224  0.94365  0.37195  1.0000
  S   S740      1.0  0.91928  0.91118  0.35853  1.0000
  H   H5817     1.0  0.89848  0.91102  0.24031  1.0000
  H   H5818     1.0  0.68301  0.84626  0.38562  1.0000
  H   H5819     1.0  0.86931  0.93443  0.24873  1.0000
  Fe  Fe368     1.0  0.96175  0.95322  0.34509  1.0000
  H   H5820     1.0  0.85282  0.79778  0.31429  1.0000
  H   H5821     1.0  0.67595  0.73966  0.10574  1.0000
  C   C3282     1.0  0.96613  0.89352  0.36973  1.0000
  S   S741      1.0  0.94630  0.94722  0.32668  1.0000
  H   H5822     1.0  0.73321  0.82265  0.29781  1.0000
  Fe  Fe369     1.0  0.67389  0.81941  0.05850  1.0000
  H   H5823     1.0  0.90904  0.92961  0.22405  1.0000
  S   S742      1.0  0.70136  0.80383  0.06666  1.0000
  C   C3283     1.0  0.66461  0.75249  0.10564  1.0000
  H   H5824     1.0  0.80211  0.84669  0.47793  1.0000
  H   H5825     1.0  0.74982  0.79690  0.38595  1.0000
  C   C3284     1.0  0.68704  0.75945  0.25398  1.0000
  H   H5826     1.0  0.77247  0.85163  0.35416  1.0000
  S   S743      1.0  0.67273  0.84830  0.04048  1.0000
  C   C3285     1.0  0.95492  0.90132  0.30095  1.0000
  C   C3286     1.0  0.87242  0.83479  0.45562  1.0000
  H   H5827     1.0  0.91634  0.89199  0.39935  1.0000
  H   H5828     1.0  0.73005  0.74986  0.27972  1.0000
  H   H5829     1.0  0.74003  0.78044  0.26777  1.0000
  C   C3287     1.0  0.71517  0.74829  0.23191  1.0000
  C   C3288     1.0  0.72608  0.77948  0.27703  1.0000
  H   H5830     1.0  0.72965  0.83912  0.32867  1.0000
  H   H5831     1.0  0.72713  0.77790  0.29169  1.0000
  C   C3289     1.0  0.82384  0.75418  0.33976  1.0000
  C   C3290     1.0  0.68272  0.75808  0.33208  1.0000
  Fe  Fe370     1.0  0.78533  0.73636  0.32199  1.0000
  H   H5832     1.0  0.88525  0.93132  0.42081  1.0000
  S   S744      1.0  0.85293  0.87241  0.40076  1.0000
  C   C3291     1.0  0.87767  0.79252  0.45347  1.0000
  C   C3292     1.0  0.94839  0.95833  0.47653  1.0000
  C   C3293     1.0  0.83168  0.83549  0.47706  1.0000
  N   N183      1.0  0.93907  0.96740  0.46000  1.0000
  H   H5833     1.0  0.96461  0.93190  0.46772  1.0000
  Fe  Fe371     1.0  0.86088  0.84207  0.39953  1.0000
  H   H5834     1.0  0.87551  0.95776  0.39921  1.0000
  H   H5835     1.0  0.89925  0.81001  0.32863  1.0000
  H   H5836     1.0  0.90265  0.95533  0.31501  1.0000
  C   C3294     1.0  0.67587  0.76196  0.27385  1.0000
  S   S745      1.0  0.94658  0.73672  0.34913  1.0000
  H   H5837     1.0  0.67942  0.77448  0.07159  1.0000
  H   H5838     1.0  0.89592  0.76552  0.46173  1.0000
  C   C3295     1.0  0.67562  0.76166  0.07049  1.0000
  C   C3296     1.0  0.65685  0.89829  0.01105  1.0000
  H   H5839     1.0  0.87606  0.78773  0.28687  1.0000
  H   H5840     1.0  0.70628  0.76171  0.28553  1.0000
  C   C3297     1.0  0.84669  0.88490  0.45089  1.0000
  H   H5841     1.0  0.68624  0.73429  0.13204  1.0000
  H   H5842     1.0  0.86476  0.78680  0.45732  1.0000
  C   C3298     1.0  0.90752  0.90047  0.40970  1.0000
  H   H5843     1.0  0.67259  0.89943  0.13534  1.0000
  H   H5844     1.0  0.81445  0.75150  0.16257  1.0000
  H   H5845     1.0  0.91241  0.84930  0.42590  1.0000
  C   C3299     1.0  0.86329  0.90448  0.35312  1.0000
  C   C3300     1.0  0.87725  0.88890  0.35761  1.0000
  C   C3301     1.0  0.89451  0.89127  0.35876  1.0000
  C   C3302     1.0  0.89793  0.90923  0.35542  1.0000
  C   C3303     1.0  0.88418  0.92496  0.35048  1.0000
  C   C3304     1.0  0.86681  0.92256  0.34921  1.0000
  H   H5846     1.0  0.87465  0.87492  0.36054  1.0000
  H   H5847     1.0  0.90507  0.87909  0.36269  1.0000
  H   H5848     1.0  0.88679  0.93887  0.34798  1.0000
  H   H5849     1.0  0.85593  0.93464  0.34594  1.0000
  C   C3305     1.0  0.92896  0.95419  0.45670  1.0000
  H   H5850     1.0  0.72095  0.82211  0.39293  1.0000
  H   H5851     1.0  0.84253  0.93113  0.43955  1.0000
  H   H5852     1.0  0.90457  0.96219  0.27250  1.0000
  C   C3306     1.0  0.89344  0.80054  0.34163  1.0000
  H   H5853     1.0  0.82702  0.76451  0.32648  1.0000
  H   H5854     1.0  0.91601  0.90938  0.41180  1.0000
  H   H5855     1.0  0.82135  0.92638  0.42366  1.0000
  C   C3307     1.0  0.70984  0.77310  0.12558  1.0000
  C   C3308     1.0  0.69205  0.78342  0.12297  1.0000
  C   C3309     1.0  0.68901  0.79227  0.10486  1.0000
  C   C3310     1.0  0.70380  0.79098  0.08930  1.0000
  C   C3311     1.0  0.72144  0.78034  0.09191  1.0000
  C   C3312     1.0  0.72446  0.77138  0.10996  1.0000
  H   H5856     1.0  0.68071  0.78483  0.13503  1.0000
  H   H5857     1.0  0.67544  0.80051  0.10292  1.0000
  H   H5858     1.0  0.73298  0.77936  0.07993  1.0000
  H   H5859     1.0  0.73824  0.76356  0.11180  1.0000
  H   H5860     1.0  0.72826  0.79919  0.32821  1.0000
  H   H5861     1.0  0.92694  0.96700  0.42731  1.0000
  H   H5862     1.0  0.88455  0.96869  0.28941  1.0000
  C   C3313     1.0  0.98474  0.78853  0.38469  1.0000
  C   C3314     1.0  0.83664  0.94499  0.31097  1.0000
  C   C3315     1.0  0.73425  0.82379  0.33376  1.0000
  H   H5863     1.0  0.84771  0.81169  0.33745  1.0000
  H   H5864     1.0  0.97692  0.89417  0.32472  1.0000
  C   C3316     1.0  0.79806  0.80521  0.34174  1.0000
  C   C3317     1.0  0.79343  0.79398  0.35951  1.0000
  C   C3318     1.0  0.79619  0.79845  0.37539  1.0000
  C   C3319     1.0  0.80386  0.81400  0.37368  1.0000
  C   C3320     1.0  0.80885  0.82500  0.35586  1.0000
  C   C3321     1.0  0.80583  0.82069  0.34002  1.0000
  H   H5865     1.0  0.78741  0.78208  0.36104  1.0000
  H   H5866     1.0  0.79232  0.78981  0.38911  1.0000
  H   H5867     1.0  0.81462  0.83709  0.35436  1.0000
  H   H5868     1.0  0.80917  0.82963  0.32638  1.0000
  C   C3322     1.0  0.77829  0.75256  0.24232  1.0000
  C   C3323     1.0  0.69209  0.83546  0.39429  1.0000
  C   C3324     1.0  0.85150  0.95583  0.29863  1.0000
  H   H5869     1.0  0.91227  0.98003  0.47537  1.0000
  C   C3325     1.0  0.77154  0.74706  0.21466  1.0000
  C   C3326     1.0  0.77475  0.75917  0.22418  1.0000
  H   H5870     1.0  0.85211  0.74371  0.34291  1.0000
  Fe  Fe372     1.0  0.74059  0.74228  0.15220  1.0000
  H   H5871     1.0  0.76852  0.75238  0.20083  1.0000
  H   H5872     1.0  0.77430  0.77377  0.21753  1.0000
  H   H5873     1.0  0.71748  0.77735  0.21779  1.0000
  C   C3327     1.0  0.67048  0.74835  0.32966  1.0000
  H   H5874     1.0  0.90535  0.94531  0.25079  1.0000
  C   C3328     1.0  0.90974  0.94683  0.43767  1.0000
  C   C3329     1.0  0.85689  0.89113  0.46024  1.0000
  C   C3330     1.0  0.77906  0.73362  0.25075  1.0000
  C   C3331     1.0  0.85757  0.98316  0.37391  1.0000
  H   H5875     1.0  0.89544  0.92683  0.26624  1.0000
  C   C3332     1.0  0.71438  0.82637  0.36491  1.0000
  H   H5876     1.0  0.71146  0.83768  0.30655  1.0000
  C   C3333     1.0  0.74807  0.76935  0.38523  1.0000
  N   N184      1.0  0.96989  0.87132  0.34727  1.0000
  C   C3334     1.0  0.90979  0.78360  0.34534  1.0000
  C   C3335     1.0  0.92676  0.79020  0.34656  1.0000
  H   H5877     1.0  0.87692  0.76731  0.35565  1.0000
  H   H5878     1.0  0.67108  0.84069  0.14120  1.0000
  H   H5879     1.0  0.88786  0.79700  0.31034  1.0000
  H   H5880     1.0  0.89009  0.77420  0.32441  1.0000
  H   H5881     1.0  0.91440  0.77573  0.33391  1.0000
  H   H5882     1.0  0.90568  0.77377  0.35869  1.0000
  H   H5883     1.0  0.84329  0.93070  0.31759  1.0000
  H   H5884     1.0  0.75195  0.85761  0.37195  1.0000
  H   H5885     1.0  0.92285  0.79903  0.35717  1.0000
  H   H5886     1.0  0.93774  0.77792  0.35073  1.0000
  C   C3336     1.0  0.82841  0.90932  0.47545  1.0000
  H   H5887     1.0  0.93875  0.94119  0.45345  1.0000
  H   H5888     1.0  0.73032  0.79112  0.35771  1.0000
  H   H5889     1.0  0.89454  0.86218  0.44155  1.0000
  H   H5890     1.0  0.94765  0.89904  0.29107  1.0000
  H   H5891     1.0  0.92115  0.93536  0.43294  1.0000
  H   H5892     1.0  0.80301  0.90652  0.46956  1.0000
  H   H5893     1.0  0.90329  0.89082  0.42316  1.0000
  H   H5894     1.0  0.88351  0.90346  0.39837  1.0000
  H   H5895     1.0  0.89789  0.82201  0.43754  1.0000
  Fe  Fe373     1.0  0.82650  0.86590  0.42001  1.0000
  S   S746      1.0  0.98302  0.76959  0.32908  1.0000
  C   C3337     1.0  0.88264  0.93928  0.24244  1.0000
  C   C3338     1.0  0.86982  0.77733  0.29861  1.0000
  C   C3339     1.0  0.84950  0.96810  0.38955  1.0000
  H   H5896     1.0  0.82902  0.76603  0.38395  1.0000
  S   S747      1.0  0.76438  0.73884  0.30487  1.0000
  C   C3340     1.0  0.98407  0.85669  0.33763  1.0000
  H   H5897     1.0  0.97684  0.84789  0.33345  1.0000
  H   H5898     1.0  0.74765  0.76399  0.40045  1.0000
  H   H5899     1.0  0.86308  0.96400  0.42788  1.0000
  H   H5900     1.0  0.97802  0.88382  0.39478  1.0000
  C   C3341     1.0  0.89035  0.91267  0.40238  1.0000
  C   C3342     1.0  0.71185  0.76589  0.21612  1.0000
  C   C3343     1.0  0.71937  0.82296  0.30761  1.0000
  H   H5901     1.0  0.86508  0.83651  0.44412  1.0000
  H   H5902     1.0  0.95428  0.89942  0.33836  1.0000
  H   H5903     1.0  0.83534  0.95129  0.46422  1.0000
  S   S748      1.0  0.66714  0.85051  0.99173  1.0000
  C   C3344     1.0  0.85641  0.95301  0.43822  1.0000
  H   H5904     1.0  0.92900  0.83881  0.37588  1.0000
  H   H5905     1.0  0.87590  0.76723  0.40312  1.0000
  H   H5906     1.0  0.73939  0.76214  0.38092  1.0000
  H   H5907     1.0  0.71164  0.77904  0.24940  1.0000
  H   H5908     1.0  0.73669  0.75609  0.19591  1.0000
  H   H5909     1.0  0.89541  0.92279  0.38975  1.0000
  H   H5910     1.0  0.85384  0.87580  0.44118  1.0000
  H   H5911     1.0  0.87286  0.94619  0.38296  1.0000
  C   C3345     1.0  0.95246  0.86407  0.35786  1.0000
  C   C3346     1.0  0.89169  0.94120  0.25779  1.0000
  C   C3347     1.0  0.87681  0.92331  0.41722  1.0000
  H   H5912     1.0  0.90149  0.95309  0.42659  1.0000
  C   C3348     1.0  0.86627  0.83049  0.32241  1.0000
  C   C3349     1.0  0.81971  0.92111  0.39779  1.0000
  H   H5913     1.0  0.81140  0.74896  0.33992  1.0000
  H   H5914     1.0  0.70758  0.81515  0.33696  1.0000
  H   H5915     1.0  0.92581  0.85541  0.39036  1.0000
  H   H5916     1.0  0.86153  0.97181  0.25202  1.0000
  H   H5917     1.0  0.85003  0.76428  0.39161  1.0000
  H   H5918     1.0  0.83094  0.97296  0.44718  1.0000
  N   N185      1.0  0.85932  0.93606  0.41158  1.0000
  Fe  Fe374     1.0  0.92601  0.97322  0.36803  1.0000
  H   H5919     1.0  0.88763  0.93412  0.30657  1.0000
  C   C3350     1.0  0.84722  0.94308  0.42870  1.0000
  H   H5920     1.0  0.67145  0.76369  0.10595  1.0000
  C   C3351     1.0  0.89199  0.95723  0.28183  1.0000
  H   H5921     1.0  0.67668  0.89007  0.05204  1.0000
  C   C3352     1.0  0.67205  0.83166  0.13143  1.0000
  H   H5922     1.0  0.87977  0.95282  0.23243  1.0000
  H   H5923     1.0  0.80423  0.92542  0.40063  1.0000
  H   H5924     1.0  0.82265  0.94586  0.40423  1.0000
  H   H5925     1.0  0.82519  0.92516  0.38248  1.0000
  H   H5926     1.0  0.84149  0.79481  0.37052  1.0000
  C   C3353     1.0  0.96453  0.88807  0.33225  1.0000
  H   H5927     1.0  0.82816  0.95241  0.32228  1.0000
  C   C3354     1.0  0.81124  0.73740  0.16903  1.0000
  H   H5928     1.0  0.70908  0.73746  0.22963  1.0000
  H   H5929     1.0  0.85505  0.92420  0.39019  1.0000
  H   H5930     1.0  0.68119  0.87679  0.14878  1.0000
  H   H5931     1.0  0.84580  0.81593  0.45921  1.0000
  C   C3355     1.0  0.86351  0.78471  0.31672  1.0000
  N   N186      1.0  0.73397  0.81941  0.35451  1.0000
  H   H5932     1.0  0.84123  0.78331  0.35281  1.0000
  H   H5933     1.0  0.86738  0.80105  0.40426  1.0000
  H   H5934     1.0  0.75404  0.79351  0.35190  1.0000
  H   H5935     1.0  0.96392  0.87204  0.31181  1.0000
  C   C3356     1.0  0.65923  0.75685  0.08639  1.0000
  H   H5936     1.0  0.69674  0.77096  0.21606  1.0000
  N   N187      1.0  0.69664  0.84760  0.10542  1.0000
  C   C3357     1.0  0.67803  0.84176  0.11076  1.0000
  C   C3358     1.0  0.70031  0.85765  0.08503  1.0000
  C   C3359     1.0  0.71158  0.82991  0.10755  1.0000
  C   C3360     1.0  0.69796  0.85945  0.11804  1.0000
  C   C3361     1.0  0.68258  0.87742  0.11946  1.0000
  C   C3362     1.0  0.96947  0.95850  0.43572  1.0000
  C   C3363     1.0  0.73215  0.83248  0.10149  1.0000
  C   C3364     1.0  0.68320  0.87003  0.07696  1.0000
  C   C3365     1.0  0.68928  0.88184  0.05753  1.0000
  H   H5937     1.0  0.66165  0.89464  0.02444  1.0000
  C   C3366     1.0  0.89352  0.83285  0.44613  1.0000
  C   C3367     1.0  0.74578  0.81351  0.10219  1.0000
  H   H5938     1.0  0.67793  0.83258  0.10146  1.0000
  S   S749      1.0  0.91136  0.74221  0.39507  1.0000
  H   H5939     1.0  0.71075  0.86650  0.08245  1.0000
  H   H5940     1.0  0.70675  0.84733  0.07574  1.0000
  H   H5941     1.0  0.71019  0.82032  0.09934  1.0000
  H   H5942     1.0  0.70995  0.82207  0.12234  1.0000
  H   H5943     1.0  0.69825  0.85089  0.13244  1.0000
  H   H5944     1.0  0.71145  0.86421  0.11323  1.0000
  H   H5945     1.0  0.70945  0.87873  0.98349  1.0000
  C   C3368     1.0  0.84790  0.90359  0.47233  1.0000
  H   H5946     1.0  0.75633  0.87373  0.34976  1.0000
  H   H5947     1.0  0.68025  0.75068  0.24917  1.0000
  H   H5948     1.0  0.73512  0.83962  0.11110  1.0000
  H   H5949     1.0  0.73522  0.84077  0.08699  1.0000
  H   H5950     1.0  0.67445  0.86100  0.07554  1.0000
  H   H5951     1.0  0.67427  0.87969  0.08601  1.0000
  H   H5952     1.0  0.69742  0.89176  0.05827  1.0000
  H   H5953     1.0  0.69788  0.87271  0.04767  1.0000
  H   H5954     1.0  0.92334  0.94971  0.29730  1.0000
  H   H5955     1.0  0.66650  0.85395  0.10829  1.0000
  H   H5956     1.0  0.68454  0.77367  0.24494  1.0000
  H   H5957     1.0  0.91893  0.94956  0.46985  1.0000
  S   S750      1.0  0.83558  0.83483  0.42079  1.0000
  C   C3369     1.0  0.74064  0.79054  0.38139  1.0000
  H   H5958     1.0  0.94675  0.85908  0.34841  1.0000
  H   H5959     1.0  0.74426  0.80628  0.09184  1.0000
  H   H5960     1.0  0.76038  0.81557  0.09868  1.0000
  H   H5961     1.0  0.74323  0.80442  0.11640  1.0000
  C   C3370     1.0  0.84825  0.78236  0.36418  1.0000
  C   C3371     1.0  0.86116  0.81398  0.33864  1.0000
  H   H5962     1.0  0.97484  0.80118  0.38883  1.0000
  H   H5963     1.0  0.86406  0.98278  0.26868  1.0000
  H   H5964     1.0  0.89413  0.80033  0.46845  1.0000
  H   H5965     1.0  0.84409  0.96994  0.29262  1.0000
  H   H5966     1.0  0.68292  0.98097  0.10610  1.0000
  H   H5967     1.0  0.74883  0.81988  0.32564  1.0000
  H   H5968     1.0  0.85987  0.95735  0.30791  1.0000
  H   H5969     1.0  0.73058  0.74283  0.22933  1.0000
  H   H5970     1.0  0.94718  0.91434  0.30593  1.0000
  H   H5971     1.0  0.68803  0.74993  0.07090  1.0000
  H   H5972     1.0  0.84890  0.96883  0.46011  1.0000
  H   H5973     1.0  0.86461  0.97744  0.36111  1.0000
  H   H5974     1.0  0.98558  0.97889  0.41703  1.0000
  C   C3372     1.0  0.89748  0.85128  0.43323  1.0000
  H   H5975     1.0  0.68701  0.82215  0.39838  1.0000
  H   H5976     1.0  0.86890  0.93078  0.28934  1.0000
  Fe  Fe375     1.0  0.92874  0.97631  0.32678  1.0000
  H   H5977     1.0  0.82715  0.94385  0.30258  1.0000
  N   N188      1.0  0.70776  0.75115  0.25180  1.0000
  H   H5978     1.0  0.90043  0.94094  0.45070  1.0000
  H   H5979     1.0  0.65661  0.88503  0.00759  1.0000
  H   H5980     1.0  0.94124  0.88261  0.32384  1.0000
  C   C3373     1.0  0.70208  0.75152  0.32777  1.0000
  C   C3374     1.0  0.75745  0.85868  0.35664  1.0000
  H   H5981     1.0  0.83416  0.95280  0.42559  1.0000
  H   H5982     1.0  0.90736  0.78209  0.44314  1.0000
  H   H5983     1.0  0.98612  0.73465  0.41324  1.0000
  C   C3375     1.0  0.93544  0.84307  0.38525  1.0000
  H   H5984     1.0  0.95245  0.89009  0.37755  1.0000
  C   C3376     1.0  0.68362  0.88644  0.13489  1.0000
  H   H5985     1.0  0.71587  0.79264  0.27333  1.0000
  C   C3377     1.0  0.81811  0.90239  0.46672  1.0000
  C   C3378     1.0  0.98100  0.96621  0.41666  1.0000
  H   H5986     1.0  0.69745  0.89019  0.13214  1.0000
  H   H5987     1.0  0.84122  0.97491  0.40132  1.0000
  H   H5988     1.0  0.90819  0.92844  0.28894  1.0000
  H   H5989     1.0  0.89637  0.97456  0.23521  1.0000
  H   H5990     1.0  0.70587  0.81551  0.36795  1.0000
  C   C3379     1.0  0.84948  0.84685  0.32100  1.0000
  H   H5991     1.0  0.85370  0.85868  0.30971  1.0000
  C   C3380     1.0  0.65679  0.74796  0.13978  1.0000
  H   H5992     1.0  0.85193  0.90977  0.41290  1.0000
  H   H5993     1.0  0.93711  0.83132  0.39749  1.0000
  C   C3381     1.0  0.82761  0.93060  0.40852  1.0000
  C   C3382     1.0  0.72143  0.76141  0.19686  1.0000
  C   C3383     1.0  0.84930  0.92469  0.40527  1.0000
  H   H5994     1.0  0.67948  0.77360  0.27758  1.0000
  C   C3384     1.0  0.95450  0.84767  0.37490  1.0000
  H   H5995     1.0  0.73280  0.76220  0.24674  1.0000
  H   H5996     1.0  0.85755  0.77483  0.29496  1.0000
  C   C3385     1.0  0.86523  0.95174  0.39576  1.0000
  H   H5997     1.0  0.87305  0.91272  0.43009  1.0000
  C   C3386     1.0  0.86379  0.94566  0.28281  1.0000
  C   C3387     1.0  0.71808  0.76425  0.25495  1.0000
  H   H5998     1.0  0.71149  0.81488  0.30334  1.0000
  H   H5999     1.0  0.84420  0.85186  0.33436  1.0000
  C   C3388     1.0  0.72172  0.81419  0.32772  1.0000
  C   C3389     1.0  0.91108  0.94449  0.30699  1.0000
  C   C3390     1.0  0.71964  0.76262  0.27535  1.0000
  H   H6000     1.0  0.69101  0.84030  0.40725  1.0000
  C   C3391     1.0  0.82719  0.89014  0.45440  1.0000
  H   H6001     1.0  0.97897  0.95327  0.44572  1.0000
  H   H6002     1.0  0.96056  0.85106  0.38508  1.0000
  H   H6003     1.0  0.82340  0.90568  0.40237  1.0000
  H   H6004     1.0  0.87097  0.82615  0.30873  1.0000
  H   H6005     1.0  0.68451  0.88794  0.10614  1.0000
  H   H6006     1.0  0.96334  0.83489  0.37014  1.0000
  S   S751      1.0  0.90732  0.96774  0.35236  1.0000
  H   H6007     1.0  0.66838  0.87451  0.12281  1.0000
  H   H6008     1.0  0.85071  0.75211  0.37375  1.0000
  C   C3392     1.0  0.87203  0.97309  0.25921  1.0000
  H   H6009     1.0  0.96927  0.90309  0.29334  1.0000
  H   H6010     1.0  0.96657  0.90818  0.39063  1.0000
  C   C3393     1.0  0.88025  0.78801  0.32254  1.0000
  H   H6011     1.0  0.73152  0.85734  0.35088  1.0000
  C   C3394     1.0  0.95308  0.97387  0.44269  1.0000
  H   H6012     1.0  0.89021  0.80827  0.35320  1.0000
  H   H6013     1.0  0.71539  0.75075  0.19418  1.0000
  H   H6014     1.0  0.66692  0.90541  0.99974  1.0000
  H   H6015     1.0  0.92559  0.80167  0.39543  1.0000
  H   H6016     1.0  0.87691  0.80361  0.44058  1.0000
  H   H6017     1.0  0.85785  0.81896  0.35195  1.0000
  N   N189      1.0  0.87578  0.79601  0.33987  1.0000
  C   C3395     1.0  0.86958  0.78181  0.35728  1.0000
  H   H6018     1.0  0.87377  0.78385  0.36947  1.0000
  H   H6019     1.0  0.90594  0.97360  0.44425  1.0000
  H   H6020     1.0  0.90267  0.82866  0.45632  1.0000
  H   H6021     1.0  0.74865  0.82619  0.37214  1.0000
  H   H6022     1.0  0.86716  0.94274  0.44528  1.0000
  C   C3396     1.0  0.89428  0.77664  0.44898  1.0000
  S   S752      1.0  0.89055  0.82744  0.40057  1.0000
  H   H6023     1.0  0.91615  0.93178  0.31710  1.0000
  C   C3397     1.0  0.91470  0.79425  0.39697  1.0000
  H   H6024     1.0  0.93396  0.76838  0.39334  1.0000
  C   C3398     1.0  0.71242  0.83246  0.38354  1.0000
  H   H6025     1.0  0.71702  0.84589  0.38065  1.0000
  H   H6026     1.0  0.87750  0.83588  0.32483  1.0000
  C   C3399     1.0  0.74633  0.84978  0.34853  1.0000
  C   C3400     1.0  0.73997  0.79841  0.36045  1.0000
  C   C3401     1.0  0.91948  0.77536  0.39573  1.0000
  C   C3402     1.0  0.89596  0.80364  0.39973  1.0000
  H   H6027     1.0  0.83804  0.84261  0.31759  1.0000
  S   S753      1.0  0.81380  0.88104  0.44429  1.0000
  H   H6028     1.0  0.96033  0.96479  0.47544  1.0000
  C   C3403     1.0  0.74829  0.82852  0.35715  1.0000
  H   H6029     1.0  0.94120  0.87557  0.36263  1.0000
  H   H6030     1.0  0.71931  0.77426  0.18577  1.0000
  C   C3404     1.0  0.90555  0.76562  0.39767  1.0000
  H   H6031     1.0  0.75197  0.85191  0.33314  1.0000
  H   H6032     1.0  0.76251  0.82176  0.35058  1.0000
  H   H6033     1.0  0.67708  0.77080  0.33743  1.0000
  H   H6034     1.0  0.70701  0.83876  0.35593  1.0000
  H   H6035     1.0  0.68198  0.81832  0.13505  1.0000
  H   H6036     1.0  0.65692  0.77548  0.99932  1.0000
  Fe  Fe376     1.0  0.97253  0.74529  0.34960  1.0000
  H   H6037     1.0  0.84024  0.96303  0.38378  1.0000
  H   H6038     1.0  0.89199  0.77028  0.43837  1.0000
  C   C3405     1.0  0.84436  0.76508  0.37927  1.0000
  C   C3406     1.0  0.88192  0.79392  0.40190  1.0000
  C   C3407     1.0  0.88673  0.77482  0.40122  1.0000
  C   C3408     1.0  0.84193  0.96207  0.45332  1.0000
  C   C3409     1.0  0.91782  0.96197  0.44081  1.0000
  C   C3410     1.0  0.95578  0.88456  0.31747  1.0000
  H   H6039     1.0  0.94605  0.98152  0.43096  1.0000
  C   C3411     1.0  0.89927  0.93972  0.29615  1.0000
  H   H6040     1.0  0.93277  0.79836  0.33276  1.0000
  H   H6041     1.0  0.88887  0.92406  0.22017  1.0000
  C   C3412     1.0  0.97857  0.87771  0.35967  1.0000
  N   N190      1.0  0.87987  0.95432  0.27041  1.0000
  C   C3413     1.0  0.84052  0.73787  0.34203  1.0000
  H   H6042     1.0  0.85411  0.94514  0.27430  1.0000
  H   H6043     1.0  0.98848  0.92957  0.31377  1.0000
  H   H6044     1.0  0.96451  0.94664  0.43407  1.0000
  S   S754      1.0  0.96590  0.74383  0.38053  1.0000
  H   H6045     1.0  0.87194  0.88657  0.45781  1.0000
  H   H6046     1.0  0.88024  0.76391  0.30032  1.0000
  H   H6047     1.0  0.76278  0.76585  0.37759  1.0000
  C   C3414     1.0  0.89561  0.92511  0.23110  1.0000
  H   H6048     1.0  0.85706  0.77399  0.32762  1.0000
  C   C3415     1.0  0.97562  0.89668  0.38377  1.0000
  H   H6049     1.0  0.66031  0.97539  0.11019  1.0000
  S   S755      1.0  0.66271  0.80927  0.03910  1.0000
  H   H6050     1.0  0.97675  0.77743  0.38718  1.0000
  H   H6051     1.0  0.97263  0.96985  0.40572  1.0000
  H   H6052     1.0  0.79808  0.73892  0.17982  1.0000
  H   H6053     1.0  0.68078  0.74305  0.16312  1.0000
  C   C3416     1.0  0.87921  0.80030  0.46992  1.0000
  H   H6054     1.0  0.98335  0.86592  0.37073  1.0000
  H   H6055     1.0  0.81355  0.83394  0.45967  1.0000
  C   C3417     1.0  0.81280  0.83419  0.47444  1.0000
  N   N191      1.0  0.86693  0.81925  0.47185  1.0000
  H   H6056     1.0  0.86761  0.84838  0.46021  1.0000
  Fe  Fe377     1.0  0.65897  0.83910  0.02278  1.0000
  H   H6057     1.0  0.85131  0.73884  0.31284  1.0000
  C   C3418     1.0  0.70914  0.73489  0.32091  1.0000
  H   H6058     1.0  0.65555  0.75371  0.33312  1.0000
  H   H6059     1.0  0.68323  0.73371  0.21818  1.0000
  S   S756      1.0  0.93148  0.95341  0.63888  1.0000
  H   H6060     1.0  0.70274  0.97461  0.86546  1.0000
  Fe  Fe378     1.0  0.85627  0.93498  0.49880  1.0000
  H   H6061     1.0  0.90441  0.96340  0.70194  1.0000
  H   H6062     1.0  0.81596  0.95564  0.62400  1.0000
  Fe  Fe379     1.0  0.88173  0.94979  0.51463  1.0000
  S   S757      1.0  0.91071  0.94748  0.51884  1.0000
  S   S758      1.0  0.86209  0.93004  0.52776  1.0000
  H   H6063     1.0  0.88335  0.94122  0.55307  1.0000
  C   C3419     1.0  0.90835  0.95257  0.57829  1.0000
  H   H6064     1.0  0.84320  0.80571  0.48355  1.0000
  H   H6065     1.0  0.68661  0.88710  0.90480  1.0000
  H   H6066     1.0  0.97068  0.91457  0.49877  1.0000
  C   C3420     1.0  0.86734  0.82332  0.49021  1.0000
  S   S759      1.0  0.98679  0.93184  0.63354  1.0000
  H   H6067     1.0  0.89746  0.81219  0.49025  1.0000
  C   C3421     1.0  0.88515  0.82684  0.51262  1.0000
  H   H6068     1.0  0.93511  0.96027  0.56717  1.0000
  H   H6069     1.0  0.67645  0.93275  0.92072  1.0000
  C   C3422     1.0  0.89398  0.94684  0.57428  1.0000
  H   H6070     1.0  0.70214  0.89027  0.95235  1.0000
  S   S760      1.0  0.95774  0.96452  0.59692  1.0000
  S   S761      1.0  0.83224  0.95965  0.50309  1.0000
  H   H6071     1.0  0.95885  0.86628  0.63420  1.0000
  H   H6072     1.0  0.73333  0.94342  0.92599  1.0000
  S   S762      1.0  0.90534  0.95672  0.60082  1.0000
  H   H6073     1.0  0.65778  0.95486  0.81265  1.0000
  H   H6074     1.0  0.96895  0.87904  0.64460  1.0000
  C   C3423     1.0  0.74086  0.95196  0.89597  1.0000
  S   S763      1.0  0.86013  0.97533  0.51991  1.0000
  H   H6075     1.0  0.75648  0.96539  0.60603  1.0000
  C   C3424     1.0  0.95539  0.93672  0.48030  1.0000
  H   H6076     1.0  0.66725  0.91099  0.79529  1.0000
  N   N192      1.0  0.70055  0.93012  0.93211  1.0000
  S   S764      1.0  0.95844  0.98302  0.63213  1.0000
  C   C3425     1.0  0.84881  0.98022  0.59257  1.0000
  H   H6077     1.0  0.89894  0.82820  0.51399  1.0000
  C   C3426     1.0  0.65550  0.88309  0.96767  1.0000
  H   H6078     1.0  0.72204  0.92512  0.90747  1.0000
  H   H6079     1.0  0.65750  0.97039  0.95414  1.0000
  Fe  Fe380     1.0  0.83985  0.95631  0.53086  1.0000
  C   C3427     1.0  0.71602  0.89010  0.97357  1.0000
  H   H6080     1.0  0.68206  0.95728  0.93053  1.0000
  H   H6081     1.0  0.69969  0.91425  0.90055  1.0000
  H   H6082     1.0  0.87583  0.78968  0.48300  1.0000
  C   C3428     1.0  0.92402  0.95584  0.56413  1.0000
  C   C3429     1.0  0.92508  0.95366  0.54593  1.0000
  C   C3430     1.0  0.91024  0.94869  0.54183  1.0000
  C   C3431     1.0  0.89475  0.94523  0.55607  1.0000
  H   H6083     1.0  0.67014  0.88362  0.96316  1.0000
  H   H6084     1.0  0.93709  0.95637  0.53492  1.0000
  C   C3432     1.0  0.66512  0.96162  0.96518  1.0000
  H   H6085     1.0  0.67774  0.91510  0.94089  1.0000
  H   H6086     1.0  0.73040  0.97123  0.63140  1.0000
  H   H6087     1.0  0.91954  0.95257  0.71825  1.0000
  H   H6088     1.0  0.73412  0.95792  0.88372  1.0000
  C   C3433     1.0  0.97197  0.87034  0.63398  1.0000
  C   C3434     1.0  0.69503  0.90700  0.91526  1.0000
  C   C3435     1.0  0.68659  0.92160  0.92791  1.0000
  C   C3436     1.0  0.68061  0.89625  0.91517  1.0000
  H   H6089     1.0  0.70727  0.89681  0.91987  1.0000
  C   C3437     1.0  0.76431  0.94287  0.62833  1.0000
  C   C3438     1.0  0.90506  0.95999  0.71699  1.0000
  C   C3439     1.0  0.76002  0.96381  0.61977  1.0000
  Fe  Fe381     1.0  0.92718  0.96591  0.60956  1.0000
  H   H6090     1.0  0.84064  0.94669  0.61635  1.0000
  H   H6091     1.0  0.66876  0.91352  0.81783  1.0000
  H   H6092     1.0  0.96897  0.96487  0.55266  1.0000
  H   H6093     1.0  0.97658  0.87881  0.61987  1.0000
  H   H6094     1.0  0.97519  0.92183  0.60448  1.0000
  H   H6095     1.0  0.86091  0.96873  0.59571  1.0000
  H   H6096     1.0  0.75178  0.93680  0.63094  1.0000
  H   H6097     1.0  0.71803  0.92392  0.95229  1.0000
  C   C3440     1.0  0.89997  0.97788  0.72464  1.0000
  Fe  Fe382     1.0  0.96173  0.95436  0.62652  1.0000
  H   H6098     1.0  0.98149  0.95128  0.53499  1.0000
  H   H6099     1.0  0.72552  0.90878  0.93634  1.0000
  H   H6100     1.0  0.66784  0.90609  0.91126  1.0000
  C   C3441     1.0  0.71271  0.91631  0.94474  1.0000
  H   H6101     1.0  0.75035  0.93831  0.89420  1.0000
  C   C3442     1.0  0.72607  0.94956  0.91415  1.0000
  H   H6102     1.0  0.77578  0.93558  0.61849  1.0000
  H   H6103     1.0  0.77294  0.96924  0.61707  1.0000
  H   H6104     1.0  0.96808  0.94052  0.55676  1.0000
  H   H6105     1.0  0.88208  0.94376  0.58525  1.0000
  H   H6106     1.0  0.67672  0.88722  0.92914  1.0000
  S   S765      1.0  0.81987  0.96152  0.55807  1.0000
  H   H6107     1.0  0.94328  0.92970  0.48483  1.0000
  H   H6108     1.0  0.73011  0.88367  0.96632  1.0000
  H   H6109     1.0  0.80827  0.82143  0.48377  1.0000
  H   H6110     1.0  0.85805  0.83704  0.49220  1.0000
  S   S766      1.0  0.87759  0.95306  0.48572  1.0000
  S   S767      1.0  0.67044  0.96220  0.88974  1.0000
  H   H6111     1.0  0.93851  0.96095  0.48976  1.0000
  H   H6112     1.0  0.86178  0.81254  0.50211  1.0000
  C   C3443     1.0  0.97720  0.95088  0.55028  1.0000
  C   C3444     1.0  0.82836  0.95743  0.61245  1.0000
  C   C3445     1.0  0.67654  0.94316  0.95978  1.0000
  H   H6113     1.0  0.90087  0.97388  0.73961  1.0000
  H   H6114     1.0  0.88119  0.81437  0.52307  1.0000
  H   H6115     1.0  0.67433  0.96972  0.96739  1.0000
  C   C3446     1.0  0.71296  0.93713  0.91363  1.0000
  H   H6116     1.0  0.70434  0.94536  0.90320  1.0000
  H   H6117     1.0  0.87467  0.83961  0.51574  1.0000
  H   H6118     1.0  0.79905  0.97979  0.58837  1.0000
  H   H6119     1.0  0.66662  0.93475  0.95979  1.0000
  H   H6120     1.0  0.76889  0.94039  0.64171  1.0000
  C   C3447     1.0  0.88647  0.82475  0.49274  1.0000
  H   H6121     1.0  0.82563  0.95512  0.59960  1.0000
  H   H6122     1.0  0.98146  0.84399  0.65173  1.0000
  H   H6123     1.0  0.98494  0.85525  0.67524  1.0000
  C   C3448     1.0  0.69009  0.94691  0.94056  1.0000
  H   H6124     1.0  0.74465  0.96834  0.64733  1.0000
  H   H6125     1.0  0.68979  0.90620  0.96739  1.0000
  H   H6126     1.0  0.89540  0.95046  0.72497  1.0000
  C   C3449     1.0  0.83197  0.97711  0.60919  1.0000
  H   H6127     1.0  0.82959  0.83659  0.49184  1.0000
  C   C3450     1.0  0.66634  0.92131  0.80373  1.0000
  H   H6128     1.0  0.71787  0.96382  0.91561  1.0000
  C   C3451     1.0  0.70377  0.90067  0.95943  1.0000
  H   H6129     1.0  0.84514  0.97791  0.58018  1.0000
  H   H6130     1.0  0.69991  0.95423  0.94292  1.0000
  H   H6131     1.0  0.77467  0.97485  0.64526  1.0000
  H   H6132     1.0  0.83456  0.97861  0.62241  1.0000
  C   C3452     1.0  0.98699  0.85278  0.63816  1.0000
  H   H6133     1.0  0.89082  0.83745  0.48311  1.0000
  S   S768      1.0  0.86190  0.91150  0.48283  1.0000
  H   H6134     1.0  0.67749  0.92942  0.79666  1.0000
  C   C3453     1.0  0.96616  0.93006  0.49610  1.0000
  Fe  Fe383     1.0  0.85425  0.97701  0.49214  1.0000
  C   C3454     1.0  0.74344  0.97459  0.63260  1.0000
  H   H6135     1.0  0.74933  0.96176  0.89634  1.0000
  H   H6136     1.0  0.95706  0.93402  0.50924  1.0000
  H   H6137     1.0  0.72310  0.98330  0.66625  1.0000
  H   H6138     1.0  0.97875  0.93627  0.49226  1.0000
  H   H6139     1.0  0.98604  0.85496  0.70733  1.0000
  H   H6140     1.0  0.82127  0.91880  0.48482  1.0000
  H   H6141     1.0  0.68458  0.93568  0.97084  1.0000
  C   C3455     1.0  0.68153  0.97987  0.88991  1.0000
  H   H6142     1.0  0.87099  0.97893  0.72609  1.0000
  H   H6143     1.0  0.86795  0.98143  0.55532  1.0000
  C   C3456     1.0  0.69766  0.98276  0.87626  1.0000
  H   H6144     1.0  0.86502  0.98211  0.75636  1.0000
  Fe  Fe384     1.0  0.92764  0.98321  0.64148  1.0000
