data_image0
_chemical_formula_structural       FeS2FeS2FeSFeS3FeS2FeS2FeSFeS3C3HCH3CNC2H5C6H4CH2CHCHCHC2H3C6H4CHC3H6NC4HC4HC2H16CHCH9C2HCHCH3C4H8CHC2H2CH7CHC4H7CH2NH3CH3CH3NH2C3HNH2CHCHC2H4CH6CHCH3CH3CH4C2HC2H2CHCHC2HCH2CHCH8CH5CH2CHFeS2FeS2FeSFeS3FeHSFeHCH2S2FeS2FeS2FeSFeS3HC3HCH6C2H2C6H4CH4C6H9CHC2HCH3C2H2CHC4H3SHCH2CHCH3NH2CH2CH5CH3CH4CH6CH3CH4C2H2CNH3C2H3C2HCHC2H3C2NHCH2C2HCHCHCH2C2HCH2CH3CNC3H2C5H9CH3CH7CH6C2NH2C3HCH2C2HCH7C2H2CHCH7CH2CHSCH3CH7CHC2H2CH2C2H3CH4CH3CH2CFeS2FeS2FeSFeS3FeHSH4CHSFe2S2FeS2FeSFeS3CH2C2H5C7H4C2H3SH4CHC8H4C2H2C4H5CHCH2C2HFeH3SH2C3HCH7C4SH2CHCH2CHC2HNC5HC4HCH10CH12CH4NC12H30C2H6NC2SH7CH4CH4CH2CHC4H2CH2CHCH2CH2CH2CNH3C3H2CFeS2FeS2FeSFeS3HFeS2FeS2FeSFeS3CHCNC2H4C2H2C2H2CHC6H7C4H2NHC2HNH2C3H12CH2C2HC2HCHCH6CH7CH4NHCH3C2H4CHCH3C2H9CH6NCHC2HCH3CH7CH4CHCHC3H4C3H6C2HC2H2CH3CH2C4HC5H6CH4CH2NHC2HCH2CHCH3C2H2CHCHC3H2CHCHC2H2C2H2C3HNH2NCH11CHCHC2H2CH3C2H8C4H2CH6C2FeS2FeS2FeSFeS3FeSCFeS2FeSFeS3C6H4CHC2HCH4CHCH3C5H4C2H3CH2C2HCH3CH3CH4CHCHCH4CHC2H2CH2CH3CH2CH6CH2C3H13NHCH2CH2C2HCHCHCHCH4CH3SC2H3CH10C2H5CHCHC2HNH2CH6CNC3H3NHCHCHC3HCHC2H3CH2FeS2FeS2FeSFeS5FeSFeSFeS2FeSFeSFeS3C6H4C6H8CHC3H6C3H3CH2C3H5CHC6H3NC4HC2HCHCH7CH4CH2CH3CH3CH4CH6CH5NH5C2H2CHCHCH4CHCHCH3C3HNC12H28CH3CHNH3CH6CHFeHCHC2HCH3CSH2CH4C4HCH2CHCHCH4CSCHC2HFeHSH6CHCH4FeS2FeS2FeSFeS3FeSFeCS2FeS2FeSFeSFeS3C6H4C6H7CHCH2C2HC2H2C2H2C4H3C5HCH2NC5HC3H23CH3C3H6CH7C3HCH7NCH2NC7HNC2H17C2H8CH3C2HCHCHC3H5CHCH2C2HNHCH2C2H2SH5CFeH3S2C3H4C2H2C3H3C3H3CH3C2HC4HCH2SC2H5CH3C2H3CH2CH2CH11C2HCH6C3HCH3CNHC2HCH6C2H3NH2FeS2FeSFeSFeS3FeS2FeSCFeSFeS3C2H4C6H6CH5CHC2H4CH5C4HCHCH2CH4CH4SHCH6C2HCHCH3C6HNCH3C2H2C2NC4H2CH8C2HCHC2H6CH2C5H7NH3CHCHCH2CHCH2CH7CH8CH2CHCH2CH2CH2SCH7CHC2H4C3H2CH6CH2CHCH2C2H2CHCHNH4NH2FeS2Fe2CS2FeSCFeSHFe2S2FeS2FeS2FeSFeS3FeS2FeS2FeSFeCS2C6H4CHCH2C2H2C2HC6H5SC6H6CH4CHC2H8CHCH2C2H7C3HSH2CHNC12H26CH4CH2SH3C3H2CH4CHCHCH2CH5CNC12H31C3NCHCHC4H2C5H3C2HCH4C2SH2CHCHFeH3CH3CH2C2HCNSCH5CNHC2H2CSHCHCHC2H2C2H6CH4CH2CHNCHCHCH2SHFeS2FeHFeSHS2CFeS2FeSHFeSFeS3HC2H2C3H2CH6C6H6C2HCH2C4HSCH5CH6NHCH2C2H3CH2NH6CHCHC2H2C2NHC2HCH2C2H9CHCH2C3H5CHC4H8CH3C3HFeH3SHCHCFeHSHNH4C4FeCH4CH2SH2CH2C2H4CH4CHCH2CH3CH2SHCSHFeSHCHCFe2S2FeSHFeSFeCS2C4HC3H6C6H6FeC2H2C2HCH5CNH3SCHCHCH3C3H2CH7CH2CH4CH3NC5SC4H5CH11C2H6C5HCH7CHC2H2CH2CH8CH2SC3H2CNC2H2CH3CHSH3CHFeH4CH5SHCH5CH3CFe2S2H2CHCFeH2SFeSHFeSCFeCFeSHSFeS2FeS2FeSFeS3FeHFeS2FeCFeS3H2FeC6H3CH3C2H3C7H4CH2CH2C6H5C2SHC2H4S2NHCH3C2HC2H3CH2CH8CH2NC12H29CHCH4CH9CSH9NHCH2CSHCH5CHCS2HC2HC2H5CH2CHC2H2CHCHCH3CH2NH2CHSHCH2CH4CSCH3CH2C2HC2HCHFeSFeSHFeS2FeS3FeS2FeS2FeSFeCS2FeS2FeS2FeSFeS3C6H5C2H2CH6C2HCH3C4H2CH4C6H4C6H7CHCSHCH7CHNHC3H3C2H2CH2CHCHCSC2HCH2CH7SH2CHCHCH2CH3CHC2HFeH2FeH2CH3CH6CH2C2H4CH6CH2CNCNH2CH3C2NC7H15CHNC11H23CH2CH4SH3SH4C3HFeSHCH2SC8HCH2CSHCH3FeH6CH5CH2CH2CH3C2H6C2HCHCH6C3H3CHC2HNHCH2CHCH3NCHCHSHCHFeS3H3SH2FeS2FeS2FeSFeS3C7H4CH2C3HCH2SC3H4CHC7H4FeH5CH2SHCH2C2H3CH3C2H4CH2FeCNHC2HC4H6CHC2H3FeHC2HCH2CHCS2HCH4C2H2CH2CH4CH9CHS2CH2C2H4CH3CH2C2NCHCH2C2H9C2H3CH3CH3CSHNCNCNH3CHCHC3H2CH4NH8CH2CH4C2HC3HC2H8CHCH4CH3CHC2H3C2HC2SH2C2H2SFeSHSFeS2FeS2FeSFeS3H3SCHCH3C3HC6H3SHCHC2H4C7H6C2HFeHFeCHCH2NC12H28CH4CH2C2H3Fe2H2CHCH3C2H4CSH2CHCH2CHC3NC2HSH2C2H2CNC4NC4HC2H8SH12C2HCH4CH2CHCNC2SC3H5C3HNH4CH5CH3CSC4H3SH4CHCH3CHCHCH6CH2CH2SH4FeSHCSCFeSHSFeS3FeS2FeSCFeSFeS3CFeS2FeS2FeSFeS3C6H4CH7SH3C2HSH2FeC4H2C6H4C6H4C2H3C2HNC3H2SC3H4CH3C2H2CH9C2H7CH3C4H2C2HSHCSHCHCHC3FeCH2CH4CHFeC2HSH4SH5SCHCHFeCH4C2H4SH3CNC12H28C2H9C2HCH2CH5CH5NFeH5C2HNC12H28CNCH5CH2CHCHCH2C2HC2H3C2H2CH7C2H4C2H5C2HCHC2HFeS2FeS2FeSFeS3CSH2CFeS2FeS2FeSFeS3CH20CH2C8H4C6H3C5H3C3HC2H5CH2C2HCNC8HC3H4CH6CH16NC6HC4H4C2H26C2H3CH5C4H2NC2H4CH2CH2CHC2HCH4CH3CHCHCH2C2HCNC2H6CH7CH4CHCHCH3CH2SCH4FeS2FeSCFeSFeS3FeS2FeS2FeSFeS3FeS2FeS2FeSFeS3H2C3H3CH4CH3C6H4CHCHCH2CHC2HC6H4CHCH3C3HCH2C2HCH2CHCHCHCH2CH9C2H3CH2CH2CH6C2NC8HC3H16CH2CH10NH2CH2CH2CHC2HC2HCSCH5C5HCH4CHCHC2HNHCHCHNH4C2NC2HSC3H2CH3CH6CNCH6CH3CH5CH2CH4C2H4CH6CH4CHCH2C2H2CHCHCH8CH3CH8C3H8CFeS2FeS2FeHFeS3FeS2FeS2FeHFeHS2FeS2FeS2FeSFeS3C2HCH3CH2SH4C2H2C6H4SHC2H2C2H2CHCH2C2H2C6H11CH2CHC2H8CHC3H9CHCH3CH2CH2CHC2H2CHCH3C2H2C2HCHCHCH6N2H3CNH3CSCH2CH4C5H2CH2CH2CH2NC4NC2H3C2H7NH4CH4CNHCSH3CH2C4H2C2H2C4H4C3H6CHC2SC2H2CHCH4C2H2CHCHCHSH12CHNH4CH3CHC3H2CH3C3HCH2CHC2H9FeS2FeS2FeSFeS3FeS2FeS2FeSFeS3C2H4C2SC4HCH2C7H4C4HCH3C6H3CNC6HC5H12CH12C5H5CH2CHC2H2CH3CH3C2HFeCH10CSH7CH2CHSH2C2HCH5CH2CH3C4H12CHCH2CHCHC3H5CH5C2H4CH4C2H5CH2N2H3C2H2CH2CH5CHCH3CH2NH3CH3CHC2H7CH2C2NCHCN2CFeS2FeS2FeSFeS3HCH2FeSCFeSHFeSFeS3HCNH6CHCHCHC7H4C6H5CSCH3CH3C3H4CNH3C2H5CHC2H5CH2CH2CH12C2H2CH2CHCHC2H3CHCHCH2CH4C5H3C3H4CH3C4H10NH2C4H2C3H11NHC2H2SH3CHCH5CH4CH4C2SNH2C3H3C2H3CH2C2H12CH5FeS2FeSFeSFeS3FeS2FeS2FeSFeCS2FeSHFeSHFeSFeS3H6CHC2H12C7H4C2HC6H11SH4CH4C2H2NC12H26CHNC11H19CH6CH2CH2CH8CH7CSCH2C2HC2HCNC8H9CHCNHCHCH5CH5CH2C3H2C2HCHC2NHC6H4C2HCH2C2H3C2HCH2CHCHCSH5CFeS2FeSFeSFeS3FeS2FeS2FeCFeS3FeS2FeSHFeSFeS3H7CH2CH2C3H2SHCH2CH5CHC6H4C2H2C6H4CH2CHCH2NCH4CHCH4CH2CHCH5CH4C2HCH3C2H2CH2CH4SCH3C2HCHC2HNC2H10CH6NCHCH2CH2CH4C2H4CH2C3H6CH4C3H2C2HCH2CHNC2H2C3H2C2HCH2C4H6C2SH3C2H4CH5CH3CH8CHNH4CH4C3H2CH4CH3CHC2HCH2C2HFeS2FeS2FeSFeS3H3C2H2CFeS2FeS2FeHFeHS2CHCH4CHCHC6H7CHC7H3C2H3CHCH10CHC3HC2H3CHC3HCH7NH2CHC2H2CH2CH6CH5CH3C3H6CH2CHNH2CH3C2H5CH4CH2CH4CH2CH2CHC2H5SH2C2HC2HNC6H6SH2CH2CH2CH5CHC2H3NHC2H2NH5C2H3CSCHC3H2CHCH2C
_chemical_formula_sum              "Fe256 S512 C2304 H4096 N128"
_cell_length_a       55.3106
_cell_length_b       55.4931
_cell_length_c       94.4018
_cell_angle_alpha    82.1087
_cell_angle_beta     81.925
_cell_angle_gamma    80.7097

_space_group_name_H-M_alt    "P 1"
_space_group_IT_number       1

loop_
  _space_group_symop_operation_xyz
  'x, y, z'

loop_
  _atom_site_type_symbol
  _atom_site_label
  _atom_site_symmetry_multiplicity
  _atom_site_fract_x
  _atom_site_fract_y
  _atom_site_fract_z
  _atom_site_occupancy
  Fe  Fe1       1.0  0.22643  0.39803  0.16631  1.0000
  S   S1        1.0  0.19590  0.38233  0.15887  1.0000
  S   S2        1.0  0.21489  0.43546  0.17450  1.0000
  Fe  Fe2       1.0  0.26349  0.35167  0.16089  1.0000
  S   S3        1.0  0.23581  0.33304  0.15290  1.0000
  S   S4        1.0  0.30315  0.33487  0.16343  1.0000
  Fe  Fe3       1.0  0.22393  0.37003  0.14069  1.0000
  S   S5        1.0  0.22004  0.37944  0.11663  1.0000
  Fe  Fe4       1.0  0.21017  0.34696  0.17181  1.0000
  S   S6        1.0  0.18439  0.32251  0.18562  1.0000
  S   S7        1.0  0.25373  0.38788  0.14744  1.0000
  S   S8        1.0  0.23862  0.36337  0.18052  1.0000
  Fe  Fe5       1.0  0.09739  0.35819  0.03642  1.0000
  S   S9        1.0  0.13687  0.34092  0.03745  1.0000
  S   S10       1.0  0.06842  0.33889  0.02992  1.0000
  Fe  Fe6       1.0  0.10807  0.40792  0.04149  1.0000
  S   S11       1.0  0.14840  0.39512  0.04269  1.0000
  S   S12       1.0  0.08961  0.44607  0.04478  1.0000
  Fe  Fe7       1.0  0.14567  0.37553  0.02362  1.0000
  S   S13       1.0  0.17292  0.37680  0.00337  1.0000
  Fe  Fe8       1.0  0.13584  0.36211  0.05647  1.0000
  S   S14       1.0  0.14715  0.34601  0.07864  1.0000
  S   S15       1.0  0.10645  0.39131  0.02145  1.0000
  S   S16       1.0  0.09532  0.37633  0.05638  1.0000
  C   C1        1.0  0.11155  0.46617  0.04147  1.0000
  C   C2        1.0  0.13438  0.45965  0.03347  1.0000
  C   C3        1.0  0.15285  0.47462  0.03223  1.0000
  H   H1        1.0  0.22014  0.44485  0.99271  1.0000
  C   C4        1.0  0.14573  0.30004  0.00709  1.0000
  H   H2        1.0  0.09510  0.44052  0.97560  1.0000
  H   H3        1.0  0.13792  0.44300  0.02833  1.0000
  H   H4        1.0  0.17071  0.46935  0.02634  1.0000
  C   C5        1.0  0.26558  0.48298  0.16200  1.0000
  N   N1        1.0  0.25877  0.25904  0.19482  1.0000
  C   C6        1.0  0.23088  0.46130  0.17198  1.0000
  C   C7        1.0  0.25418  0.46153  0.16395  1.0000
  H   H5        1.0  0.02262  0.33858  0.01891  1.0000
  H   H6        1.0  0.18856  0.41653  0.97645  1.0000
  H   H7        1.0  0.26338  0.44524  0.15927  1.0000
  H   H8        1.0  0.17947  0.46775  0.98715  1.0000
  H   H9        1.0  0.29540  0.21857  0.20407  1.0000
  C   C8        1.0  0.19911  0.37031  0.10645  1.0000
  C   C9        1.0  0.18261  0.35400  0.11243  1.0000
  C   C10       1.0  0.16679  0.34688  0.10376  1.0000
  C   C11       1.0  0.16707  0.35615  0.08909  1.0000
  C   C12       1.0  0.18351  0.37258  0.08315  1.0000
  C   C13       1.0  0.19955  0.37943  0.09177  1.0000
  H   H10       1.0  0.18213  0.34672  0.12369  1.0000
  H   H11       1.0  0.15422  0.33407  0.10846  1.0000
  H   H12       1.0  0.18418  0.37962  0.07185  1.0000
  H   H13       1.0  0.21246  0.39185  0.08701  1.0000
  C   C14       1.0  0.31720  0.30525  0.15933  1.0000
  H   H14       1.0  0.28696  0.29710  0.14966  1.0000
  H   H15       1.0  0.32536  0.36272  0.11607  1.0000
  C   C15       1.0  0.18195  0.44740  0.98851  1.0000
  H   H16       1.0  0.08108  0.48612  0.97543  1.0000
  C   C16       1.0  0.06649  0.36490  0.97971  1.0000
  H   H17       1.0  0.07445  0.34581  0.00052  1.0000
  C   C17       1.0  0.29569  0.30218  0.09913  1.0000
  H   H18       1.0  0.15035  0.28079  0.00447  1.0000
  C   C18       1.0  0.04671  0.43876  0.02071  1.0000
  C   C19       1.0  0.02427  0.43718  0.05290  1.0000
  H   H19       1.0  0.30894  0.25667  0.14292  1.0000
  H   H20       1.0  0.30377  0.05319  0.12170  1.0000
  H   H21       1.0  0.30842  0.24678  0.20217  1.0000
  C   C20       1.0  0.00803  0.37111  0.05349  1.0000
  C   C21       1.0  0.33279  0.00452  0.05247  1.0000
  C   C22       1.0  0.16637  0.36490  0.98814  1.0000
  C   C23       1.0  0.18478  0.34875  0.98115  1.0000
  C   C24       1.0  0.23001  0.28414  0.12915  1.0000
  C   C25       1.0  0.28648  0.34454  0.10642  1.0000
  H   H22       1.0  0.12827  0.17093  0.21797  1.0000
  H   H23       1.0  0.20215  0.34297  0.98552  1.0000
  H   H24       1.0  0.22031  0.26875  0.12775  1.0000
  H   H25       1.0  0.13398  0.48752  0.07615  1.0000
  C   C26       1.0  0.05901  0.38889  0.98652  1.0000
  H   H26       1.0  0.12865  0.31826  0.98186  1.0000
  C   C27       1.0  0.14407  0.37252  0.98224  1.0000
  C   C28       1.0  0.03253  0.36246  0.04848  1.0000
  C   C29       1.0  0.03786  0.35073  0.03600  1.0000
  H   H27       1.0  0.28354  0.48306  0.15576  1.0000
  H   H28       1.0  0.04718  0.36406  0.05458  1.0000
  H   H29       1.0  0.15357  0.29546  0.20705  1.0000
  H   H30       1.0  0.21797  0.43348  0.12849  1.0000
  H   H31       1.0  0.04944  0.35816  0.97810  1.0000
  H   H32       1.0  0.26801  0.30882  0.12619  1.0000
  N   N2        1.0  0.14003  0.44039  0.09431  1.0000
  C   C30       1.0  0.12587  0.42508  0.08732  1.0000
  C   C31       1.0  0.16471  0.44309  0.08546  1.0000
  C   C32       1.0  0.14476  0.42673  0.10890  1.0000
  C   C33       1.0  0.12545  0.46524  0.09668  1.0000
  H   H33       1.0  0.20443  0.47455  0.11742  1.0000
  C   C34       1.0  0.10059  0.41989  0.09560  1.0000
  C   C35       1.0  0.16280  0.43670  0.11711  1.0000
  C   C36       1.0  0.16614  0.44378  0.06885  1.0000
  C   C37       1.0  0.19062  0.45113  0.06130  1.0000
  H   H34       1.0  0.13803  0.44868  0.97866  1.0000
  C   C38       1.0  0.08810  0.40454  0.08740  1.0000
  C   C39       1.0  0.16372  0.42259  0.13217  1.0000
  H   H35       1.0  0.13731  0.40695  0.08571  1.0000
  H   H36       1.0  0.12219  0.43358  0.07634  1.0000
  H   H37       1.0  0.17169  0.45967  0.08780  1.0000
  H   H38       1.0  0.17885  0.42735  0.08859  1.0000
  H   H39       1.0  0.15215  0.40702  0.10786  1.0000
  H   H40       1.0  0.12721  0.42672  0.11627  1.0000
  H   H41       1.0  0.10872  0.46327  0.10455  1.0000
  H   H42       1.0  0.01775  0.48218  0.06151  1.0000
  H   H43       1.0  0.33368  0.23626  0.17973  1.0000
  H   H44       1.0  0.30019  0.28255  0.12082  1.0000
  H   H45       1.0  0.10280  0.40924  0.10628  1.0000
  H   H46       1.0  0.08793  0.43727  0.09704  1.0000
  H   H47       1.0  0.15702  0.45638  0.11848  1.0000
  H   H48       1.0  0.18185  0.43450  0.11139  1.0000
  H   H49       1.0  0.16488  0.42524  0.06607  1.0000
  H   H50       1.0  0.20657  0.21414  0.21606  1.0000
  C   C40       1.0  0.21939  0.48250  0.17814  1.0000
  H   H51       1.0  0.19193  0.47036  0.06284  1.0000
  C   C41       1.0  0.31791  0.26777  0.14854  1.0000
  H   H52       1.0  0.07839  0.45829  0.01380  1.0000
  H   H53       1.0  0.28947  0.33043  0.07256  1.0000
  H   H54       1.0  0.30367  0.34670  0.09895  1.0000
  H   H55       1.0  0.10004  0.38674  0.08584  1.0000
  H   H56       1.0  0.07037  0.40055  0.09366  1.0000
  H   H57       1.0  0.08430  0.41467  0.07676  1.0000
  H   H58       1.0  0.14517  0.42451  0.13853  1.0000
  H   H59       1.0  0.17045  0.40278  0.13143  1.0000
  H   H60       1.0  0.17641  0.42992  0.13806  1.0000
  C   C42       1.0  0.22048  0.24933  0.21271  1.0000
  C   C43       1.0  0.03087  0.45962  0.02876  1.0000
  H   H61       1.0  0.04406  0.46899  0.03313  1.0000
  C   C44       1.0  0.32474  0.22183  0.18689  1.0000
  H   H62       1.0  0.31023  0.36634  0.13398  1.0000
  C   C45       1.0  0.28176  0.24625  0.18683  1.0000
  H   H63       1.0  0.05684  0.42506  0.02829  1.0000
  H   H64       1.0  0.02791  0.29247  0.01082  1.0000
  H   H65       1.0  0.26609  0.32642  0.20829  1.0000
  C   C46       1.0  0.18799  0.43678  0.97382  1.0000
  C   C47       1.0  0.06562  0.44909  0.00899  1.0000
  C   C48       1.0  0.07091  0.30390  0.99376  1.0000
  C   C49       1.0  0.24489  0.29238  0.11492  1.0000
  H   H66       1.0  0.03908  0.44669  0.05544  1.0000
  H   H67       1.0  0.23905  0.49446  0.12194  1.0000
  H   H68       1.0  0.12986  0.38523  0.98750  1.0000
  H   H69       1.0  0.24586  0.22356  0.20020  1.0000
  H   H70       1.0  0.29989  0.02130  0.12293  1.0000
  H   H71       1.0  0.04261  0.30957  0.97880  1.0000
  H   H72       1.0  0.03519  0.42898  0.01539  1.0000
  H   H73       1.0  0.24735  0.28878  0.20795  1.0000
  C   C50       1.0  0.24184  0.27162  0.18396  1.0000
  H   H74       1.0  0.20743  0.25665  0.20472  1.0000
  C   C51       1.0  0.11751  0.48178  0.08310  1.0000
  C   C52       1.0  0.02797  0.29194  0.99909  1.0000
  H   H75       1.0  0.25151  0.28428  0.17573  1.0000
  H   H76       1.0  0.32390  0.30135  0.11341  1.0000
  C   C53       1.0  0.31167  0.28894  0.11089  1.0000
  H   H77       1.0  0.00663  0.41738  0.03369  1.0000
  H   H78       1.0  0.30888  0.30933  0.09016  1.0000
  H   H79       1.0  0.23011  0.49131  0.14071  1.0000
  H   H80       1.0  0.07671  0.43387  0.00340  1.0000
  H   H81       1.0  0.30247  0.32787  0.12655  1.0000
  H   H82       1.0  0.13628  0.47619  0.10171  1.0000
  H   H83       1.0  0.19770  0.44566  0.00850  1.0000
  C   C54       1.0  0.22249  0.49529  0.13018  1.0000
  H   H84       1.0  0.21595  0.29954  0.13268  1.0000
  C   C55       1.0  0.22661  0.44888  0.13099  1.0000
  C   C56       1.0  0.25834  0.31415  0.11648  1.0000
  C   C57       1.0  0.29216  0.34525  0.12200  1.0000
  C   C58       1.0  0.30710  0.36588  0.12265  1.0000
  H   H85       1.0  0.29695  0.38397  0.11874  1.0000
  H   H86       1.0  0.27460  0.34882  0.12916  1.0000
  H   H87       1.0  0.03600  0.32863  0.99339  1.0000
  H   H88       1.0  0.24889  0.33484  0.06299  1.0000
  H   H89       1.0  0.16486  0.44128  0.99456  1.0000
  H   H90       1.0  0.23018  0.44519  0.14241  1.0000
  H   H91       1.0  0.03407  0.41924  0.04968  1.0000
  C   C59       1.0  0.25614  0.35101  0.06566  1.0000
  H   H92       1.0  0.05622  0.46246  0.00092  1.0000
  H   H93       1.0  0.20563  0.41796  0.99990  1.0000
  N   N3        1.0  0.01150  0.45174  0.04065  1.0000
  H   H94       1.0  0.14844  0.30016  0.01850  1.0000
  H   H95       1.0  0.15856  0.31150  0.00019  1.0000
  H   H96       1.0  0.28776  0.28804  0.09466  1.0000
  C   C60       1.0  0.11899  0.31031  0.00489  1.0000
  H   H97       1.0  0.11872  0.28925  0.98753  1.0000
  H   H98       1.0  0.11553  0.32946  0.00766  1.0000
  H   H99       1.0  0.10696  0.29926  0.01268  1.0000
  C   C61       1.0  0.11440  0.30903  0.98915  1.0000
  H   H100      1.0  0.26609  0.35962  0.05569  1.0000
  H   H101      1.0  0.24445  0.44921  0.12396  1.0000
  H   H102      1.0  0.22614  0.28381  0.18919  1.0000
  N   N4        1.0  0.27561  0.32257  0.10354  1.0000
  H   H103      1.0  0.25820  0.27629  0.11172  1.0000
  H   H104      1.0  0.08898  0.49347  0.05364  1.0000
  C   C62       1.0  0.26038  0.33071  0.09116  1.0000
  C   C63       1.0  0.28019  0.29746  0.19453  1.0000
  C   C64       1.0  0.30543  0.29061  0.15235  1.0000
  H   H105      1.0  0.27350  0.36184  0.10414  1.0000
  N   N5        1.0  0.08894  0.31970  0.98523  1.0000
  H   H106      1.0  0.20495  0.25637  0.16020  1.0000
  H   H107      1.0  0.24241  0.27769  0.13762  1.0000
  C   C65       1.0  0.08300  0.34577  0.98917  1.0000
  H   H108      1.0  0.29513  0.32994  0.19751  1.0000
  C   C66       1.0  0.02248  0.41658  0.07865  1.0000
  H   H109      1.0  0.19177  0.45007  0.04956  1.0000
  C   C67       1.0  0.18483  0.31506  0.20447  1.0000
  C   C68       1.0  0.16741  0.30102  0.21245  1.0000
  H   H110      1.0  0.31732  0.25260  0.10352  1.0000
  H   H111      1.0  0.23166  0.29783  0.10683  1.0000
  H   H112      1.0  0.24039  0.36464  0.06945  1.0000
  H   H113      1.0  0.24376  0.34378  0.09458  1.0000
  C   C69       1.0  0.30218  0.23350  0.19621  1.0000
  H   H114      1.0  0.19246  0.47234  0.13613  1.0000
  H   H115      1.0  0.21612  0.33292  0.20558  1.0000
  H   H116      1.0  0.22474  0.23862  0.18223  1.0000
  H   H117      1.0  0.24386  0.32975  0.11928  1.0000
  H   H118      1.0  0.32837  0.12098  0.21839  1.0000
  H   H119      1.0  0.00436  0.35052  0.97558  1.0000
  C   C70       1.0  0.20949  0.47322  0.12848  1.0000
  H   H120      1.0  0.02241  0.47377  0.02065  1.0000
  C   C71       1.0  0.24668  0.24022  0.20537  1.0000
  H   H121      1.0  0.07733  0.28412  0.99262  1.0000
  H   H122      1.0  0.20154  0.48242  0.18452  1.0000
  H   H123      1.0  0.00997  0.41166  0.08853  1.0000
  C   C72       1.0  0.20268  0.43838  0.99793  1.0000
  H   H124      1.0  0.03494  0.27296  0.99644  1.0000
  H   H125      1.0  0.10706  0.47225  0.07697  1.0000
  H   H126      1.0  0.03278  0.39934  0.07478  1.0000
  C   C73       1.0  0.10666  0.48833  0.04748  1.0000
  H   H127      1.0  0.24643  0.24720  0.16706  1.0000
  H   H128      1.0  0.07565  0.39657  0.98813  1.0000
  H   H129      1.0  0.25330  0.31485  0.08796  1.0000
  H   H130      1.0  0.21523  0.28531  0.16107  1.0000
  C   C74       1.0  0.01854  0.34794  0.02846  1.0000
  C   C75       1.0  0.27370  0.34322  0.07715  1.0000
  H   H131      1.0  0.28066  0.35997  0.07914  1.0000
  C   C76       1.0  0.21017  0.26819  0.16752  1.0000
  C   C77       1.0  0.28409  0.31634  0.20403  1.0000
  H   H132      1.0  0.27071  0.30772  0.18547  1.0000
  H   H133      1.0  0.07011  0.30522  0.00549  1.0000
  C   C78       1.0  0.00741  0.43142  0.06717  1.0000
  H   H134      1.0  0.29867  0.28862  0.19017  1.0000
  C   C79       1.0  0.00825  0.49189  0.05233  1.0000
  H   H135      1.0  0.19386  0.27308  0.17545  1.0000
  C   C80       1.0  0.23166  0.25442  0.17530  1.0000
  C   C81       1.0  0.20263  0.32214  0.21156  1.0000
  H   H136      1.0  0.15107  0.45677  0.06430  1.0000
  C   C82       1.0  0.04394  0.31018  0.99035  1.0000
  H   H137      1.0  0.27703  0.23171  0.18112  1.0000
  H   H138      1.0  0.03578  0.42766  0.08143  1.0000
  C   C83       1.0  0.26469  0.27820  0.20319  1.0000
  H   H139      1.0  0.29002  0.25923  0.17814  1.0000
  C   C84       1.0  0.32845  0.26630  0.10579  1.0000
  H   H140      1.0  0.20644  0.43856  0.06551  1.0000
  H   H141      1.0  0.04800  0.40258  0.97934  1.0000
  H   H142      1.0  0.27438  0.26944  0.21257  1.0000
  H   H143      1.0  0.10016  0.35393  0.98878  1.0000
  H   H144      1.0  0.00866  0.29681  0.99653  1.0000
  H   H145      1.0  0.04765  0.38565  0.99711  1.0000
  H   H146      1.0  0.18638  0.49270  0.15535  1.0000
  H   H147      1.0  0.29423  0.30726  0.21313  1.0000
  C   C85       1.0  0.31368  0.03427  0.12080  1.0000
  H   H148      1.0  0.25815  0.23339  0.21428  1.0000
  H   H149      1.0  0.31956  0.20891  0.18021  1.0000
  H   H150      1.0  0.31409  0.03846  0.09787  1.0000
  H   H151      1.0  0.22123  0.26398  0.21946  1.0000
  H   H152      1.0  0.32664  0.02976  0.12909  1.0000
  C   C86       1.0  0.32774  0.03304  0.10571  1.0000
  H   H153      1.0  0.00394  0.37915  0.06348  1.0000
  H   H154      1.0  0.32381  0.02398  0.05132  1.0000
  C   C87       1.0  0.14836  0.49622  0.03884  1.0000
  H   H155      1.0  0.33067  0.02622  0.07677  1.0000
  Fe  Fe9       1.0  0.10638  0.26773  0.28353  1.0000
  S   S17       1.0  0.12811  0.29899  0.28276  1.0000
  S   S18       1.0  0.06680  0.28000  0.27826  1.0000
  Fe  Fe10      1.0  0.15102  0.22969  0.28974  1.0000
  S   S19       1.0  0.17541  0.25812  0.28994  1.0000
  S   S20       1.0  0.16404  0.18862  0.28961  1.0000
  Fe  Fe11      1.0  0.14289  0.27870  0.30273  1.0000
  S   S21       1.0  0.15038  0.30456  0.31807  1.0000
  Fe  Fe12      1.0  0.15912  0.27675  0.27005  1.0000
  S   S22       1.0  0.18798  0.29210  0.25295  1.0000
  S   S23       1.0  0.11934  0.24839  0.30430  1.0000
  S   S24       1.0  0.13639  0.24722  0.26905  1.0000
  Fe  Fe13      1.0  0.29243  0.10004  0.30164  1.0000
  H   H156      1.0  0.19150  0.23587  0.22822  1.0000
  S   S25       1.0  0.26480  0.13125  0.31037  1.0000
  Fe  Fe14      1.0  0.31313  0.05215  0.28870  1.0000
  H   H157      1.0  0.09620  0.37938  0.45093  1.0000
  C   C88       1.0  0.13236  0.36972  0.45768  1.0000
  H   H158      1.0  0.13444  0.36053  0.31013  1.0000
  H   H159      1.0  0.09795  0.16523  0.29790  1.0000
  S   S26       1.0  0.30142  0.06054  0.31167  1.0000
  S   S27       1.0  0.30088  0.09107  0.27870  1.0000
  Fe  Fe15      1.0  0.07240  0.38852  0.41434  1.0000
  S   S28       1.0  0.09405  0.35113  0.41895  1.0000
  S   S29       1.0  0.03394  0.40072  0.42452  1.0000
  Fe  Fe16      1.0  0.11509  0.40828  0.39537  1.0000
  S   S30       1.0  0.14069  0.37263  0.39835  1.0000
  S   S31       1.0  0.12383  0.44403  0.38295  1.0000
  Fe  Fe17      1.0  0.10799  0.35516  0.39512  1.0000
  S   S32       1.0  0.10719  0.32262  0.38276  1.0000
  Fe  Fe18      1.0  0.12448  0.37170  0.42173  1.0000
  S   S33       1.0  0.14729  0.36322  0.44046  1.0000
  S   S34       1.0  0.08358  0.39106  0.39051  1.0000
  S   S35       1.0  0.10172  0.40865  0.41878  1.0000
  H   H160      1.0  0.31272  0.03523  0.24629  1.0000
  C   C89       1.0  0.13532  0.46177  0.39385  1.0000
  C   C90       1.0  0.14799  0.45036  0.40535  1.0000
  C   C91       1.0  0.25237  0.13250  0.25829  1.0000
  H   H161      1.0  0.14921  0.31656  0.40965  1.0000
  C   C92       1.0  0.01791  0.27866  0.27656  1.0000
  H   H162      1.0  0.09122  0.16793  0.23549  1.0000
  H   H163      1.0  0.15142  0.43050  0.40733  1.0000
  H   H164      1.0  0.24528  0.14288  0.24843  1.0000
  H   H165      1.0  0.24119  0.24694  0.26568  1.0000
  H   H166      1.0  0.13986  0.38998  0.31393  1.0000
  H   H167      1.0  0.17966  0.39974  0.26718  1.0000
  C   C93       1.0  0.24926  0.28989  0.40400  1.0000
  C   C94       1.0  0.15210  0.49034  0.41185  1.0000
  H   H168      1.0  0.19691  0.36494  0.37603  1.0000
  H   H169      1.0  0.07477  0.17222  0.27648  1.0000
  C   C95       1.0  0.11703  0.31943  0.36426  1.0000
  C   C96       1.0  0.11217  0.29880  0.35854  1.0000
  C   C97       1.0  0.12146  0.29438  0.34427  1.0000
  C   C98       1.0  0.13617  0.31033  0.33564  1.0000
  C   C99       1.0  0.14085  0.33106  0.34132  1.0000
  C   C100      1.0  0.13107  0.33579  0.35547  1.0000
  H   H170      1.0  0.10142  0.28596  0.36527  1.0000
  H   H171      1.0  0.11782  0.27829  0.34010  1.0000
  H   H172      1.0  0.15224  0.34350  0.33477  1.0000
  H   H173      1.0  0.13482  0.35178  0.35967  1.0000
  C   C101      1.0  0.18576  0.30105  0.23440  1.0000
  H   H174      1.0  0.06922  0.34354  0.45539  1.0000
  H   H175      1.0  0.03160  0.32653  0.46707  1.0000
  H   H176      1.0  0.21719  0.32043  0.23176  1.0000
  H   H177      1.0  0.15429  0.28333  0.23340  1.0000
  C   C102      1.0  0.19299  0.17351  0.29453  1.0000
  C   C103      1.0  0.20052  0.14879  0.29214  1.0000
  C   C104      1.0  0.22281  0.13576  0.29654  1.0000
  C   C105      1.0  0.23769  0.14731  0.30349  1.0000
  C   C106      1.0  0.23033  0.17212  0.30569  1.0000
  C   C107      1.0  0.20822  0.18525  0.30111  1.0000
  H   H178      1.0  0.18881  0.13952  0.28711  1.0000
  H   H179      1.0  0.22810  0.11660  0.29494  1.0000
  H   H180      1.0  0.24159  0.18113  0.31119  1.0000
  H   H181      1.0  0.20258  0.20419  0.30310  1.0000
  H   H182      1.0  0.13700  0.15911  0.23558  1.0000
  H   H183      1.0  0.27888  0.21728  0.27184  1.0000
  H   H184      1.0  0.07693  0.19152  0.30387  1.0000
  H   H185      1.0  0.11602  0.38837  0.30301  1.0000
  H   H186      1.0  0.02584  0.22379  0.25840  1.0000
  C   C108      1.0  0.31406  0.19055  0.25564  1.0000
  H   H187      1.0  0.08920  0.44109  0.46230  1.0000
  C   C109      1.0  0.02541  0.35950  0.41436  1.0000
  C   C110      1.0  0.01542  0.37924  0.42212  1.0000
  H   H188      1.0  0.03843  0.45636  0.46965  1.0000
  C   C111      1.0  0.18967  0.35735  0.36745  1.0000
  H   H189      1.0  0.04456  0.35742  0.40979  1.0000
  H   H190      1.0  0.17379  0.42867  0.23770  1.0000
  H   H191      1.0  0.05652  0.17228  0.25512  1.0000
  C   C112      1.0  0.03914  0.26666  0.28257  1.0000
  C   C113      1.0  0.03801  0.24412  0.29115  1.0000
  H   H192      1.0  0.19913  0.30069  0.40875  1.0000
  H   H193      1.0  0.05409  0.23483  0.29600  1.0000
  C   C114      1.0  0.27158  0.20207  0.26805  1.0000
  H   H194      1.0  0.19707  0.24651  0.35601  1.0000
  C   C115      1.0  0.00516  0.28946  0.33202  1.0000
  C   C116      1.0  0.26150  0.14972  0.26702  1.0000
  C   C117      1.0  0.05287  0.45000  0.38152  1.0000
  C   C118      1.0  0.23053  0.29665  0.39310  1.0000
  H   H195      1.0  0.02836  0.42322  0.38386  1.0000
  H   H196      1.0  0.30364  0.01720  0.38411  1.0000
  H   H197      1.0  0.16485  0.29113  0.42056  1.0000
  S   S36       1.0  0.33050  0.10871  0.30264  1.0000
  H   H198      1.0  0.21371  0.32307  0.36942  1.0000
  C   C119      1.0  0.04889  0.27738  0.32017  1.0000
  H   H199      1.0  0.05799  0.20102  0.28041  1.0000
  H   H200      1.0  0.02096  0.45018  0.37123  1.0000
  C   C120      1.0  0.23517  0.23257  0.26041  1.0000
  H   H201      1.0  0.25000  0.20029  0.25028  1.0000
  C   C121      1.0  0.19159  0.41677  0.23934  1.0000
  H   H202      1.0  0.01017  0.20213  0.24106  1.0000
  H   H203      1.0  0.27361  0.04617  0.37067  1.0000
  H   H204      1.0  0.05481  0.43575  0.44030  1.0000
  N   N6        1.0  0.29214  0.18125  0.26508  1.0000
  H   H205      1.0  0.26941  0.22430  0.24711  1.0000
  H   H206      1.0  0.16582  0.36132  0.46778  1.0000
  C   C122      1.0  0.02696  0.44358  0.38196  1.0000
  H   H207      1.0  0.22566  0.24186  0.25110  1.0000
  H   H208      1.0  0.04469  0.49289  0.42276  1.0000
  C   C123      1.0  0.13121  0.48753  0.39129  1.0000
  H   H209      1.0  0.16716  0.45565  0.42278  1.0000
  H   H210      1.0  0.22166  0.22311  0.26816  1.0000
  H   H211      1.0  0.20553  0.37935  0.24647  1.0000
  H   H212      1.0  0.12345  0.46655  0.43832  1.0000
  H   H213      1.0  0.01616  0.27408  0.31129  1.0000
  C   C124      1.0  0.00869  0.19525  0.25272  1.0000
  H   H214      1.0  0.26748  0.11772  0.25519  1.0000
  H   H215      1.0  0.31792  0.17160  0.23629  1.0000
  H   H216      1.0  0.05497  0.49498  0.39709  1.0000
  C   C125      1.0  0.15221  0.29625  0.41214  1.0000
  H   H217      1.0  0.22196  0.21999  0.23068  1.0000
  H   H218      1.0  0.00979  0.30841  0.32870  1.0000
  H   H219      1.0  0.01484  0.44433  0.40438  1.0000
  H   H220      1.0  0.08463  0.27562  0.24540  1.0000
  C   C126      1.0  0.08040  0.47310  0.42908  1.0000
  H   H221      1.0  0.12972  0.26783  0.42162  1.0000
  H   H222      1.0  0.25231  0.26969  0.40715  1.0000
  H   H223      1.0  0.11835  0.46970  0.45713  1.0000
  H   H224      1.0  0.16142  0.26160  0.37378  1.0000
  H   H225      1.0  0.18736  0.32268  0.36056  1.0000
  H   H226      1.0  0.30308  0.05694  0.36847  1.0000
  C   C127      1.0  0.16278  0.28367  0.39839  1.0000
  H   H227      1.0  0.13933  0.19078  0.22843  1.0000
  H   H228      1.0  0.11086  0.35577  0.23500  1.0000
  H   H229      1.0  0.15919  0.32380  0.38234  1.0000
  C   C128      1.0  0.09358  0.44716  0.45062  1.0000
  H   H230      1.0  0.29352  0.00342  0.37021  1.0000
  H   H231      1.0  0.05171  0.37391  0.45324  1.0000
  H   H232      1.0  0.16974  0.36461  0.36746  1.0000
  H   H233      1.0  0.19953  0.36378  0.35688  1.0000
  C   C129      1.0  0.25728  0.21407  0.25531  1.0000
  C   C130      1.0  0.05058  0.35394  0.45410  1.0000
  H   H234      1.0  0.01536  0.21600  0.29998  1.0000
  H   H235      1.0  0.25795  0.19598  0.27718  1.0000
  C   C131      1.0  0.10688  0.37717  0.45989  1.0000
  N   N7        1.0  0.18544  0.29267  0.38974  1.0000
  H   H236      1.0  0.18069  0.33124  0.39255  1.0000
  H   H237      1.0  0.12625  0.32831  0.24436  1.0000
  H   H238      1.0  0.23712  0.12383  0.26491  1.0000
  C   C132      1.0  0.17895  0.31952  0.38417  1.0000
  C   C133      1.0  0.30483  0.01707  0.37230  1.0000
  H   H239      1.0  0.06087  0.26397  0.31357  1.0000
  H   H240      1.0  0.04493  0.34976  0.44398  1.0000
  H   H241      1.0  0.05596  0.27574  0.33076  1.0000
  C   C134      1.0  0.05051  0.45181  0.44664  1.0000
  C   C135      1.0  0.01608  0.43311  0.46282  1.0000
  H   H242      1.0  0.27938  0.06953  0.24963  1.0000
  C   C136      1.0  0.15685  0.46461  0.41411  1.0000
  H   H243      1.0  0.09420  0.45865  0.42422  1.0000
  C   C137      1.0  0.17412  0.27442  0.36814  1.0000
  C   C138      1.0  0.29437  0.07132  0.24055  1.0000
  H   H244      1.0  0.06561  0.44049  0.37317  1.0000
  H   H245      1.0  0.05969  0.23610  0.23558  1.0000
  H   H246      1.0  0.02220  0.25265  0.32682  1.0000
  C   C139      1.0  0.02225  0.27212  0.32207  1.0000
  C   C140      1.0  0.30074  0.16990  0.27935  1.0000
  N   N8        1.0  0.07267  0.46517  0.44490  1.0000
  H   H247      1.0  0.14739  0.28633  0.39164  1.0000
  C   C141      1.0  0.03228  0.34638  0.46699  1.0000
  H   H248      1.0  0.32839  0.18652  0.30711  1.0000
  H   H249      1.0  0.19716  0.27786  0.34744  1.0000
  C   C142      1.0  0.05991  0.47892  0.41892  1.0000
  C   C143      1.0  0.14609  0.36703  0.46941  1.0000
  H   H250      1.0  0.16296  0.29248  0.36559  1.0000
  C   C144      1.0  0.29320  0.04243  0.36595  1.0000
  H   H251      1.0  0.28535  0.16302  0.28683  1.0000
  C   C145      1.0  0.20514  0.28933  0.39971  1.0000
  H   H252      1.0  0.13530  0.38140  0.24506  1.0000
  C   C146      1.0  0.04095  0.44201  0.46227  1.0000
  H   H253      1.0  0.24273  0.29932  0.41378  1.0000
  H   H254      1.0  0.16653  0.26349  0.40175  1.0000
  C   C147      1.0  0.12756  0.28809  0.41877  1.0000
  C   C148      1.0  0.18563  0.26472  0.35396  1.0000
  H   H255      1.0  0.05286  0.47008  0.37869  1.0000
  C   C149      1.0  0.11879  0.45672  0.44912  1.0000
  H   H256      1.0  0.20327  0.41649  0.22876  1.0000
  H   H257      1.0  0.09628  0.43010  0.44525  1.0000
  C   C150      1.0  0.16776  0.29414  0.22738  1.0000
  H   H258      1.0  0.05017  0.29611  0.31446  1.0000
  H   H259      1.0  0.06750  0.48077  0.46509  1.0000
  H   H260      1.0  0.17079  0.26264  0.34761  1.0000
  C   C151      1.0  0.13478  0.38006  0.30559  1.0000
  N   N9        1.0  0.16628  0.36516  0.26743  1.0000
  C   C152      1.0  0.15732  0.35067  0.25733  1.0000
  C   C153      1.0  0.19037  0.35127  0.27192  1.0000
  C   C154      1.0  0.14692  0.36820  0.28025  1.0000
  H   H261      1.0  0.02538  0.19691  0.27149  1.0000
  H   H262      1.0  0.01810  0.32768  0.40582  1.0000
  C   C155      1.0  0.13362  0.36268  0.25056  1.0000
  C   C156      1.0  0.15362  0.38187  0.29213  1.0000
  C   C157      1.0  0.18843  0.32788  0.28289  1.0000
  C   C158      1.0  0.21386  0.31332  0.28488  1.0000
  C   C159      1.0  0.19364  0.32925  0.36982  1.0000
  H   H263      1.0  0.14125  0.42254  0.44346  1.0000
  H   H264      1.0  0.26717  0.29574  0.39912  1.0000
  H   H265      1.0  0.15335  0.33263  0.26297  1.0000
  H   H266      1.0  0.17212  0.34601  0.24844  1.0000
  H   H267      1.0  0.20285  0.34535  0.26230  1.0000
  H   H268      1.0  0.20058  0.36337  0.27660  1.0000
  H   H269      1.0  0.14188  0.35000  0.28524  1.0000
  H   H270      1.0  0.12949  0.37887  0.27683  1.0000
  H   H271      1.0  0.08275  0.47336  0.39869  1.0000
  C   C160      1.0  0.18725  0.39061  0.24538  1.0000
  H   H272      1.0  0.05205  0.46202  0.41807  1.0000
  H   H273      1.0  0.23831  0.28726  0.38349  1.0000
  H   H274      1.0  0.11740  0.36380  0.25895  1.0000
  C   C161      1.0  0.32259  0.17339  0.30083  1.0000
  H   H275      1.0  0.15364  0.40167  0.28819  1.0000
  H   H276      1.0  0.17205  0.37429  0.29541  1.0000
  H   H277      1.0  0.17964  0.33278  0.29361  1.0000
  H   H278      1.0  0.17731  0.31550  0.27935  1.0000
  H   H279      1.0  0.22283  0.30650  0.27461  1.0000
  H   H280      1.0  0.22576  0.32489  0.28861  1.0000
  H   H281      1.0  0.21180  0.29719  0.29311  1.0000
  C   C162      1.0  0.28364  0.16130  0.25844  1.0000
  H   H282      1.0  0.29924  0.14608  0.25685  1.0000
  H   H283      1.0  0.26709  0.13859  0.27700  1.0000
  H   H284      1.0  0.27833  0.16810  0.24755  1.0000
  H   H285      1.0  0.24570  0.16392  0.26990  1.0000
  H   H286      1.0  0.01856  0.29605  0.26984  1.0000
  H   H287      1.0  0.21009  0.28257  0.37074  1.0000
  C   C163      1.0  0.01044  0.34262  0.41212  1.0000
  C   C164      1.0  0.19398  0.27646  0.37785  1.0000
  N   N10       1.0  0.07645  0.20098  0.25854  1.0000
  H   H288      1.0  0.15744  0.44268  0.45072  1.0000
  H   H289      1.0  0.29775  0.09074  0.23866  1.0000
  C   C165      1.0  0.07526  0.19243  0.27451  1.0000
  C   C166      1.0  0.07495  0.22857  0.25644  1.0000
  C   C167      1.0  0.07450  0.24127  0.24082  1.0000
  H   H290      1.0  0.11566  0.20042  0.25166  1.0000
  C   C168      1.0  0.09641  0.19805  0.28223  1.0000
  H   H291      1.0  0.22880  0.31687  0.39018  1.0000
  H   H292      1.0  0.20812  0.26983  0.40471  1.0000
  C   C169      1.0  0.06996  0.26925  0.24053  1.0000
  C   C170      1.0  0.09506  0.18554  0.29773  1.0000
  H   H293      1.0  0.01162  0.28374  0.34283  1.0000
  C   C171      1.0  0.20318  0.31503  0.22642  1.0000
  H   H294      1.0  0.10978  0.19061  0.30315  1.0000
  H   H295      1.0  0.29385  0.04337  0.35406  1.0000
  H   H296      1.0  0.11490  0.19163  0.27667  1.0000
  H   H297      1.0  0.09264  0.23650  0.23442  1.0000
  H   H298      1.0  0.05858  0.23702  0.26312  1.0000
  H   H299      1.0  0.09089  0.23428  0.26040  1.0000
  H   H300      1.0  0.09024  0.48944  0.42778  1.0000
  C   C172      1.0  0.17071  0.39026  0.26011  1.0000
  C   C173      1.0  0.02871  0.20340  0.25984  1.0000
  H   H301      1.0  0.09487  0.21810  0.28275  1.0000
  H   H302      1.0  0.10708  0.17095  0.25750  1.0000
  C   C174      1.0  0.13961  0.43547  0.45168  1.0000
  H   H303      1.0  0.12077  0.29695  0.42873  1.0000
  C   C175      1.0  0.12829  0.34735  0.23939  1.0000
  H   H304      1.0  0.07006  0.27805  0.22923  1.0000
  H   H305      1.0  0.29812  0.20062  0.23494  1.0000
  H   H306      1.0  0.05175  0.27530  0.24659  1.0000
  H   H307      1.0  0.11350  0.29366  0.41116  1.0000
  H   H308      1.0  0.20072  0.25738  0.38249  1.0000
  H   H309      1.0  0.20124  0.42474  0.24674  1.0000
  H   H310      1.0  0.05990  0.44396  0.39208  1.0000
  C   C176      1.0  0.10173  0.18335  0.23564  1.0000
  H   H311      1.0  0.01286  0.47392  0.39472  1.0000
  H   H312      1.0  0.03464  0.46357  0.44202  1.0000
  C   C177      1.0  0.01600  0.23355  0.29344  1.0000
  H   H313      1.0  0.32567  0.19682  0.28089  1.0000
  S   S37       1.0  0.31329  0.01812  0.27737  1.0000
  C   C178      1.0  0.00661  0.36205  0.46616  1.0000
  H   H314      1.0  0.15290  0.40230  0.25854  1.0000
  H   H315      1.0  0.28817  0.06641  0.23077  1.0000
  H   H316      1.0  0.12135  0.49639  0.38241  1.0000
  C   C179      1.0  0.05496  0.19272  0.25318  1.0000
  H   H317      1.0  0.17852  0.38337  0.23727  1.0000
  H   H318      1.0  0.30898  0.16309  0.30795  1.0000
  H   H319      1.0  0.05534  0.19734  0.24136  1.0000
  H   H320      1.0  0.27855  0.00275  0.30227  1.0000
  H   H321      1.0  0.01745  0.41925  0.45518  1.0000
  H   H322      1.0  0.00169  0.44874  0.45991  1.0000
  H   H323      1.0  0.14345  0.34661  0.23032  1.0000
  C   C180      1.0  0.31518  0.19073  0.23909  1.0000
  H   H324      1.0  0.33164  0.17895  0.25839  1.0000
  C   C181      1.0  0.10087  0.18905  0.25137  1.0000
  C   C182      1.0  0.06819  0.48698  0.45336  1.0000
  H   H325      1.0  0.05400  0.42612  0.46642  1.0000
  H   H326      1.0  0.00915  0.38086  0.46776  1.0000
  C   C183      1.0  0.31765  0.05412  0.24435  1.0000
  H   H327      1.0  0.13613  0.42526  0.46257  1.0000
  H   H328      1.0  0.31567  0.20945  0.25774  1.0000
  C   C184      1.0  0.12824  0.17557  0.22905  1.0000
  C   C185      1.0  0.00908  0.45494  0.39424  1.0000
  H   H329      1.0  0.09363  0.19932  0.22858  1.0000
  H   H330      1.0  0.32265  0.05903  0.25445  1.0000
  H   H331      1.0  0.00202  0.36373  0.45495  1.0000
  C   C186      1.0  0.07031  0.48837  0.40372  1.0000
  H   H332      1.0  0.29614  0.20151  0.29173  1.0000
  H   H333      1.0  0.01014  0.17488  0.25412  1.0000
  H   H334      1.0  0.32792  0.11307  0.24505  1.0000
  H   H335      1.0  0.31502  0.15349  0.27778  1.0000
  C   C187      1.0  0.31119  0.18738  0.28772  1.0000
  H   H336      1.0  0.33128  0.00715  0.30575  1.0000
  H   H337      1.0  0.32809  0.01317  0.32428  1.0000
  H   H338      1.0  0.33084  0.01058  0.35369  1.0000
  C   C188      1.0  0.33186  0.01089  0.36535  1.0000
  H   H339      1.0  0.18616  0.48508  0.46284  1.0000
  H   H340      1.0  0.00057  0.49511  0.37355  1.0000
  C   C189      1.0  0.20957  0.22846  0.22251  1.0000
  Fe  Fe19      1.0  0.08426  0.41125  0.54925  1.0000
  S   S38       1.0  0.08313  0.37320  0.54438  1.0000
  S   S39       1.0  0.04727  0.43196  0.55644  1.0000
  Fe  Fe20      1.0  0.13933  0.40734  0.54055  1.0000
  S   S40       1.0  0.14180  0.36914  0.53445  1.0000
  S   S41       1.0  0.17490  0.42319  0.53779  1.0000
  Fe  Fe21      1.0  0.10740  0.38385  0.52396  1.0000
  S   S42       1.0  0.09257  0.38216  0.50284  1.0000
  Fe  Fe22      1.0  0.11722  0.36287  0.55550  1.0000
  S   S43       1.0  0.12269  0.32874  0.57185  1.0000
  S   S44       1.0  0.10708  0.42252  0.52857  1.0000
  S   S45       1.0  0.11650  0.40038  0.56190  1.0000
  Fe  Fe23      1.0  0.28821  0.12906  0.66588  1.0000
  H   H341      1.0  0.02490  0.35378  0.51127  1.0000
  S   S46       1.0  0.26409  0.16146  0.65483  1.0000
  H   H342      1.0  0.24804  0.28292  0.65606  1.0000
  H   H343      1.0  0.18150  0.40552  0.49802  1.0000
  H   H344      1.0  0.21786  0.28858  0.70568  1.0000
  H   H345      1.0  0.03992  0.40119  0.58930  1.0000
  C   C190      1.0  0.01213  0.33981  0.51404  1.0000
  H   H346      1.0  0.16199  0.41420  0.48384  1.0000
  S   S47       1.0  0.28154  0.10740  0.68768  1.0000
  Fe  Fe24      1.0  0.30329  0.07465  0.67742  1.0000
  Fe  Fe25      1.0  0.08868  0.28629  0.67374  1.0000
  S   S48       1.0  0.10769  0.31904  0.67446  1.0000
  S   S49       1.0  0.04670  0.29629  0.67416  1.0000
  Fe  Fe26      1.0  0.13870  0.25233  0.67060  1.0000
  S   S50       1.0  0.16075  0.28313  0.67017  1.0000
  S   S51       1.0  0.15391  0.21153  0.67261  1.0000
  Fe  Fe27      1.0  0.13332  0.29479  0.68884  1.0000
  S   S52       1.0  0.14471  0.29736  0.71107  1.0000
  Fe  Fe28      1.0  0.13335  0.30481  0.65576  1.0000
  S   S53       1.0  0.14056  0.33347  0.63650  1.0000
  S   S54       1.0  0.11192  0.26316  0.68970  1.0000
  S   S55       1.0  0.11366  0.27294  0.65463  1.0000
  C   C191      1.0  0.19924  0.48262  0.54788  1.0000
  H   H347      1.0  0.24642  0.26703  0.68259  1.0000
  H   H348      1.0  0.01167  0.35575  0.60028  1.0000
  C   C192      1.0  0.08630  0.48387  0.56399  1.0000
  C   C193      1.0  0.23995  0.21772  0.69083  1.0000
  H   H349      1.0  0.16649  0.34279  0.70078  1.0000
  H   H350      1.0  0.01349  0.22262  0.66558  1.0000
  H   H351      1.0  0.08424  0.47875  0.52145  1.0000
  H   H352      1.0  0.19725  0.27020  0.71724  1.0000
  H   H353      1.0  0.21525  0.29404  0.65884  1.0000
  C   C194      1.0  0.21692  0.27239  0.71394  1.0000
  C   C195      1.0  0.23367  0.17527  0.66040  1.0000
  C   C196      1.0  0.22442  0.19786  0.65297  1.0000
  C   C197      1.0  0.20021  0.20939  0.65677  1.0000
  C   C198      1.0  0.18494  0.19840  0.66803  1.0000
  C   C199      1.0  0.19414  0.17577  0.67545  1.0000
  C   C200      1.0  0.21843  0.16428  0.67171  1.0000
  H   H354      1.0  0.23598  0.20632  0.64409  1.0000
  H   H355      1.0  0.19314  0.22645  0.65072  1.0000
  H   H356      1.0  0.18230  0.16695  0.68404  1.0000
  H   H357      1.0  0.22517  0.14670  0.67735  1.0000
  C   C201      1.0  0.17519  0.45225  0.54319  1.0000
  C   C202      1.0  0.19802  0.45973  0.54357  1.0000
  H   H358      1.0  0.27973  0.04358  0.71366  1.0000
  H   H359      1.0  0.31193  0.23358  0.71262  1.0000
  H   H360      1.0  0.00722  0.28787  0.63538  1.0000
  S   S56       1.0  0.31818  0.12893  0.71363  1.0000
  H   H361      1.0  0.21488  0.44775  0.54053  1.0000
  H   H362      1.0  0.05913  0.38516  0.57553  1.0000
  H   H363      1.0  0.15260  0.21903  0.70253  1.0000
  H   H364      1.0  0.15252  0.48713  0.50603  1.0000
  C   C203      1.0  0.10873  0.37800  0.48556  1.0000
  H   H365      1.0  0.15488  0.20723  0.72109  1.0000
  C   C204      1.0  0.15343  0.46791  0.54706  1.0000
  C   C205      1.0  0.04474  0.38322  0.58491  1.0000
  C   C206      1.0  0.12521  0.33012  0.59025  1.0000
  C   C207      1.0  0.13332  0.30844  0.59892  1.0000
  C   C208      1.0  0.13705  0.30906  0.61333  1.0000
  C   C209      1.0  0.13270  0.33139  0.61920  1.0000
  C   C210      1.0  0.12396  0.35296  0.61066  1.0000
  C   C211      1.0  0.11992  0.35229  0.59632  1.0000
  H   H366      1.0  0.13739  0.29117  0.59436  1.0000
  H   H367      1.0  0.14414  0.29240  0.61973  1.0000
  H   H368      1.0  0.12059  0.37033  0.61511  1.0000
  H   H369      1.0  0.11314  0.36903  0.58990  1.0000
  C   C212      1.0  0.02888  0.25465  0.66871  1.0000
  C   C213      1.0  0.02413  0.27983  0.67000  1.0000
  H   H370      1.0  0.19368  0.44184  0.48239  1.0000
  H   H371      1.0  0.04709  0.24464  0.66994  1.0000
  C   C214      1.0  0.22782  0.26152  0.68294  1.0000
  C   C215      1.0  0.02227  0.41050  0.52281  1.0000
  C   C216      1.0  0.03749  0.41708  0.53179  1.0000
  C   C217      1.0  0.02749  0.42553  0.54494  1.0000
  H   H372      1.0  0.02789  0.25880  0.72135  1.0000
  H   H373      1.0  0.24946  0.16562  0.69277  1.0000
  H   H374      1.0  0.03032  0.40354  0.51276  1.0000
  H   H375      1.0  0.05708  0.41525  0.52850  1.0000
  H   H376      1.0  0.31456  0.19011  0.70688  1.0000
  C   C218      1.0  0.32877  0.22019  0.71430  1.0000
  H   H377      1.0  0.26305  0.20573  0.70836  1.0000
  C   C219      1.0  0.01316  0.27914  0.62530  1.0000
  H   H378      1.0  0.13582  0.46213  0.54671  1.0000
  H   H379      1.0  0.03464  0.26485  0.70198  1.0000
  C   C220      1.0  0.00240  0.37089  0.59312  1.0000
  C   C221      1.0  0.24941  0.19842  0.70313  1.0000
  H   H380      1.0  0.04335  0.48375  0.55280  1.0000
  Fe  Fe29      1.0  0.31816  0.11675  0.69143  1.0000
  H   H381      1.0  0.25715  0.22211  0.68395  1.0000
  H   H382      1.0  0.14501  0.36876  0.49230  1.0000
  H   H383      1.0  0.02092  0.32500  0.49389  1.0000
  S   S57       1.0  0.29982  0.03420  0.68509  1.0000
  H   H384      1.0  0.01465  0.39051  0.57206  1.0000
  H   H385      1.0  0.23431  0.19361  0.71150  1.0000
  C   C222      1.0  0.22559  0.25579  0.66756  1.0000
  C   C223      1.0  0.02714  0.27331  0.71200  1.0000
  C   C224      1.0  0.28616  0.01253  0.66299  1.0000
  H   H386      1.0  0.01066  0.29342  0.61603  1.0000
  C   C225      1.0  0.15735  0.46508  0.48415  1.0000
  H   H387      1.0  0.04380  0.25286  0.61740  1.0000
  H   H388      1.0  0.18517  0.25629  0.69850  1.0000
  H   H389      1.0  0.21418  0.27823  0.68476  1.0000
  H   H390      1.0  0.23026  0.20836  0.68406  1.0000
  H   H391      1.0  0.19159  0.23271  0.68724  1.0000
  H   H392      1.0  0.15234  0.43974  0.59258  1.0000
  H   H393      1.0  0.31059  0.01205  0.60670  1.0000
  C   C226      1.0  0.16829  0.33804  0.71212  1.0000
  C   C227      1.0  0.07528  0.45648  0.49956  1.0000
  C   C228      1.0  0.19692  0.23827  0.69710  1.0000
  C   C229      1.0  0.18856  0.21907  0.70954  1.0000
  S   S58       1.0  0.32381  0.13996  0.67016  1.0000
  H   H394      1.0  0.02188  0.32320  0.51993  1.0000
  H   H395      1.0  0.23956  0.24022  0.66427  1.0000
  C   C230      1.0  0.09512  0.38104  0.47378  1.0000
  H   H396      1.0  0.09505  0.45792  0.49961  1.0000
  C   C231      1.0  0.06416  0.47823  0.52211  1.0000
  H   H397      1.0  0.15272  0.44020  0.70884  1.0000
  H   H398      1.0  0.30778  0.00196  0.71621  1.0000
  C   C232      1.0  0.22928  0.27797  0.65636  1.0000
  H   H399      1.0  0.27958  0.03094  0.65833  1.0000
  C   C233      1.0  0.13435  0.37128  0.48330  1.0000
  C   C234      1.0  0.05859  0.47755  0.50651  1.0000
  H   H400      1.0  0.08525  0.46396  0.54638  1.0000
  N   N11       1.0  0.05941  0.28445  0.62144  1.0000
  C   C235      1.0  0.04049  0.26700  0.62495  1.0000
  C   C236      1.0  0.08425  0.27020  0.62426  1.0000
  C   C237      1.0  0.05298  0.30358  0.63187  1.0000
  C   C238      1.0  0.06028  0.29740  0.60623  1.0000
  C   C239      1.0  0.05414  0.28320  0.59442  1.0000
  H   H401      1.0  0.10398  0.47231  0.56623  1.0000
  C   C240      1.0  0.07143  0.32229  0.63093  1.0000
  C   C241      1.0  0.09545  0.25014  0.61439  1.0000
  C   C242      1.0  0.11922  0.23566  0.61953  1.0000
  C   C243      1.0  0.06081  0.29631  0.57938  1.0000
  H   H402      1.0  0.29465  0.08152  0.71604  1.0000
  C   C244      1.0  0.06048  0.34395  0.63934  1.0000
  H   H403      1.0  0.04230  0.25635  0.63577  1.0000
  H   H404      1.0  0.22721  0.27339  0.64554  1.0000
  H   H405      1.0  0.09838  0.28264  0.62306  1.0000
  H   H406      1.0  0.08318  0.26133  0.63562  1.0000
  H   H407      1.0  0.05110  0.29449  0.64317  1.0000
  H   H408      1.0  0.03475  0.31469  0.63029  1.0000
  H   H409      1.0  0.04720  0.31493  0.60579  1.0000
  H   H410      1.0  0.07885  0.30309  0.60269  1.0000
  H   H411      1.0  0.03411  0.28200  0.59569  1.0000
  H   H412      1.0  0.06406  0.26421  0.59481  1.0000
  C   C245      1.0  0.33033  0.20072  0.70408  1.0000
  H   H413      1.0  0.27800  0.17849  0.68883  1.0000
  H   H414      1.0  0.07686  0.32978  0.61964  1.0000
  H   H415      1.0  0.08831  0.31342  0.63574  1.0000
  H   H416      1.0  0.08263  0.23679  0.61426  1.0000
  H   H417      1.0  0.10041  0.25880  0.60326  1.0000
  H   H418      1.0  0.11545  0.22613  0.63059  1.0000
  H   H419      1.0  0.12717  0.22158  0.61220  1.0000
  H   H420      1.0  0.13310  0.24808  0.61952  1.0000
  H   H421      1.0  0.08104  0.29670  0.57722  1.0000
  H   H422      1.0  0.05548  0.28635  0.57113  1.0000
  H   H423      1.0  0.05105  0.31547  0.57830  1.0000
  H   H424      1.0  0.33012  0.04084  0.61100  1.0000
  C   C246      1.0  0.29731  0.00918  0.67567  1.0000
  H   H425      1.0  0.25671  0.40241  0.57144  1.0000
  H   H426      1.0  0.04408  0.35455  0.63467  1.0000
  H   H427      1.0  0.05514  0.33737  0.65084  1.0000
  H   H428      1.0  0.07453  0.35637  0.63886  1.0000
  N   N12       1.0  0.19524  0.36295  0.58081  1.0000
  C   C247      1.0  0.17379  0.38326  0.57897  1.0000
  C   C248      1.0  0.19373  0.34337  0.57145  1.0000
  C   C249      1.0  0.19222  0.35129  0.59630  1.0000
  C   C250      1.0  0.21995  0.37217  0.57753  1.0000
  C   C251      1.0  0.22195  0.39475  0.56588  1.0000
  C   C252      1.0  0.16992  0.40247  0.58991  1.0000
  C   C253      1.0  0.21090  0.32809  0.60025  1.0000
  C   C254      1.0  0.19626  0.35094  0.55499  1.0000
  C   C255      1.0  0.19216  0.32993  0.54709  1.0000
  C   C256      1.0  0.24871  0.39926  0.56181  1.0000
  C   C257      1.0  0.15404  0.42631  0.58466  1.0000
  C   C258      1.0  0.20907  0.32092  0.61656  1.0000
  H   H429      1.0  0.15633  0.37533  0.57998  1.0000
  H   H430      1.0  0.17522  0.39318  0.56792  1.0000
  H   H431      1.0  0.20866  0.32763  0.57302  1.0000
  H   H432      1.0  0.17598  0.33579  0.57466  1.0000
  H   H433      1.0  0.17343  0.34599  0.59922  1.0000
  H   H434      1.0  0.19368  0.36473  0.60376  1.0000
  H   H435      1.0  0.22548  0.37760  0.58741  1.0000
  H   H436      1.0  0.23464  0.35700  0.57430  1.0000
  H   H437      1.0  0.21135  0.41169  0.56994  1.0000
  H   H438      1.0  0.21461  0.39262  0.55589  1.0000
  H   H439      1.0  0.16038  0.39486  0.60034  1.0000
  H   H440      1.0  0.18777  0.40707  0.59201  1.0000
  H   H441      1.0  0.23014  0.33116  0.59630  1.0000
  H   H442      1.0  0.20687  0.31209  0.59555  1.0000
  H   H443      1.0  0.18271  0.36716  0.55198  1.0000
  H   H444      1.0  0.21521  0.35499  0.55106  1.0000
  H   H445      1.0  0.17333  0.32501  0.55048  1.0000
  H   H446      1.0  0.19409  0.33571  0.53529  1.0000
  H   H447      1.0  0.20598  0.31342  0.54932  1.0000
  H   H448      1.0  0.25998  0.38332  0.55695  1.0000
  H   H449      1.0  0.24941  0.41583  0.55377  1.0000
  H   H450      1.0  0.13524  0.42282  0.58357  1.0000
  H   H451      1.0  0.16257  0.43460  0.57414  1.0000
  H   H452      1.0  0.21322  0.33597  0.62206  1.0000
  H   H453      1.0  0.19026  0.31673  0.62086  1.0000
  H   H454      1.0  0.22250  0.30422  0.61907  1.0000
  H   H455      1.0  0.07143  0.43847  0.50543  1.0000
  H   H456      1.0  0.07168  0.45684  0.48827  1.0000
  H   H457      1.0  0.01042  0.42460  0.47390  1.0000
  H   H458      1.0  0.30561  0.99989  0.52240  1.0000
  C   C259      1.0  0.02202  0.37569  0.58011  1.0000
  C   C260      1.0  0.17696  0.44453  0.49034  1.0000
  H   H459      1.0  0.01352  0.31207  0.56282  1.0000
  H   H460      1.0  0.30314  0.01009  0.50360  1.0000
  H   H461      1.0  0.03907  0.28696  0.71330  1.0000
  H   H462      1.0  0.06119  0.46011  0.52822  1.0000
  H   H463      1.0  0.05271  0.36907  0.59317  1.0000
  H   H464      1.0  0.20713  0.25111  0.66699  1.0000
  N   N13       1.0  0.22392  0.24111  0.69506  1.0000
  C   C261      1.0  0.00977  0.24220  0.66627  1.0000
  C   C262      1.0  0.26256  0.17471  0.69733  1.0000
  S   S59       1.0  0.30673  0.09550  0.65517  1.0000
  H   H465      1.0  0.01948  0.47665  0.53491  1.0000
  H   H466      1.0  0.02854  0.35864  0.57496  1.0000
  H   H467      1.0  0.07123  0.47645  0.57153  1.0000
  H   H468      1.0  0.15068  0.42111  0.50202  1.0000
  H   H469      1.0  0.32913  0.01581  0.51176  1.0000
  H   H470      1.0  0.13983  0.46323  0.49132  1.0000
  H   H471      1.0  0.19514  0.22115  0.71979  1.0000
  C   C263      1.0  0.08219  0.48353  0.54835  1.0000
  H   H472      1.0  0.33000  0.20965  0.69282  1.0000
  H   H473      1.0  0.03936  0.47434  0.50636  1.0000
  H   H474      1.0  0.18668  0.36901  0.71357  1.0000
  H   H475      1.0  0.12081  0.44231  0.71648  1.0000
  C   C264      1.0  0.00194  0.42814  0.54892  1.0000
  H   H476      1.0  0.07529  0.38595  0.47547  1.0000
  H   H477      1.0  0.29889  0.01357  0.62553  1.0000
  H   H478      1.0  0.18242  0.44901  0.50045  1.0000
  H   H479      1.0  0.32904  0.02499  0.63445  1.0000
  C   C265      1.0  0.16708  0.41991  0.49373  1.0000
  H   H480      1.0  0.26703  0.00643  0.70676  1.0000
  H   H481      1.0  0.25159  0.25104  0.70626  1.0000
  C   C266      1.0  0.15913  0.31714  0.71955  1.0000
  H   H482      1.0  0.23053  0.23401  0.71756  1.0000
  C   C267      1.0  0.14005  0.43514  0.71863  1.0000
  C   C268      1.0  0.23173  0.24862  0.70834  1.0000
  C   C269      1.0  0.30614  0.00110  0.61721  1.0000
  C   C270      1.0  0.17973  0.35289  0.71942  1.0000
  H   H483      1.0  0.03978  0.34938  0.47682  1.0000
  H   H484      1.0  0.15247  0.23989  0.71568  1.0000
  C   C271      1.0  0.00414  0.33309  0.50040  1.0000
  H   H485      1.0  0.26883  0.00016  0.61280  1.0000
  H   H486      1.0  0.21703  0.48818  0.54813  1.0000
  C   C272      1.0  0.31625  0.00246  0.51155  1.0000
  H   H487      1.0  0.19543  0.20026  0.70659  1.0000
  C   C273      1.0  0.32743  0.04267  0.71928  1.0000
  H   H488      1.0  0.11044  0.48872  0.47948  1.0000
  H   H489      1.0  0.27024  0.16178  0.70620  1.0000
  C   C274      1.0  0.16042  0.22152  0.71235  1.0000
  H   H490      1.0  0.32358  0.04686  0.70786  1.0000
  H   H491      1.0  0.09650  0.49280  0.54129  1.0000
  C   C275      1.0  0.15463  0.49105  0.55133  1.0000
  H   H492      1.0  0.20250  0.47973  0.47822  1.0000
  H   H493      1.0  0.18375  0.49079  0.50074  1.0000
  C   C276      1.0  0.05558  0.49551  0.54557  1.0000
  N   N14       1.0  0.16306  0.49112  0.48284  1.0000
  H   H494      1.0  0.06166  0.49493  0.49969  1.0000
  H   H495      1.0  0.14188  0.41476  0.72084  1.0000
  H   H496      1.0  0.00141  0.30179  0.70243  1.0000
  C   C277      1.0  0.00065  0.28609  0.71110  1.0000
  C   C278      1.0  0.18726  0.49206  0.47325  1.0000
  C   C279      1.0  0.02236  0.49592  0.53076  1.0000
  H   H497      1.0  0.15442  0.46049  0.47346  1.0000
  H   H498      1.0  0.00043  0.35741  0.56104  1.0000
  C   C280      1.0  0.26995  0.99697  0.71767  1.0000
  Fe  Fe30      1.0  0.20539  0.36094  0.76629  1.0000
  S   S60       1.0  0.24297  0.36775  0.77053  1.0000
  S   S61       1.0  0.19679  0.36644  0.74289  1.0000
  Fe  Fe31      1.0  0.18764  0.35196  0.79874  1.0000
  S   S62       1.0  0.22356  0.35810  0.80460  1.0000
  S   S63       1.0  0.15830  0.34127  0.81691  1.0000
  Fe  Fe32      1.0  0.22163  0.39070  0.78757  1.0000
  S   S64       1.0  0.22306  0.42696  0.79636  1.0000
  Fe  Fe33      1.0  0.24125  0.33456  0.78732  1.0000
  S   S65       1.0  0.26595  0.29924  0.79483  1.0000
  S   S66       1.0  0.18442  0.38549  0.78248  1.0000
  S   S67       1.0  0.20492  0.32686  0.78210  1.0000
  H   H499      1.0  0.32693  0.02158  0.77056  1.0000
  Fe  Fe34      1.0  0.08712  0.35096  0.91469  1.0000
  S   S68       1.0  0.12695  0.33376  0.91150  1.0000
  S   S69       1.0  0.05598  0.32886  0.91584  1.0000
  Fe  Fe35      1.0  0.09935  0.39953  0.91986  1.0000
  S   S70       1.0  0.14013  0.38673  0.91728  1.0000
  S   S71       1.0  0.08191  0.43686  0.92576  1.0000
  Fe  Fe36      1.0  0.13304  0.36961  0.89825  1.0000
  S   S72       1.0  0.16016  0.37582  0.87816  1.0000
  Fe  Fe37      1.0  0.13078  0.35237  0.93068  1.0000
  S   S73       1.0  0.15373  0.33289  0.94795  1.0000
  S   S74       1.0  0.09280  0.38539  0.89981  1.0000
  S   S75       1.0  0.09060  0.36642  0.93490  1.0000
  C   C281      1.0  0.10453  0.45627  0.92196  1.0000
  H   H500      1.0  0.00910  0.39318  0.88521  1.0000
  C   C282      1.0  0.16810  0.47437  0.95972  1.0000
  N   N15       1.0  0.05887  0.33796  0.85800  1.0000
  C   C283      1.0  0.14433  0.46481  0.90977  1.0000
  C   C284      1.0  0.12537  0.45032  0.91221  1.0000
  H   H501      1.0  0.17810  0.45440  0.83707  1.0000
  H   H502      1.0  0.08726  0.44242  0.95751  1.0000
  H   H503      1.0  0.16057  0.45994  0.90232  1.0000
  H   H504      1.0  0.12677  0.43468  0.90639  1.0000
  C   C285      1.0  0.22978  0.45629  0.78805  1.0000
  C   C286      1.0  0.22033  0.47711  0.79519  1.0000
  H   H505      1.0  0.01017  0.35317  0.95201  1.0000
  H   H506      1.0  0.25425  0.07705  0.73005  1.0000
  C   C287      1.0  0.18026  0.43578  0.94899  1.0000
  C   C288      1.0  0.24480  0.45930  0.77491  1.0000
  H   H507      1.0  0.20879  0.47498  0.80539  1.0000
  H   H508      1.0  0.18751  0.39670  0.95816  1.0000
  C   C289      1.0  0.08418  0.34663  0.83305  1.0000
  H   H509      1.0  0.25264  0.44338  0.76950  1.0000
  C   C290      1.0  0.15855  0.35131  0.83387  1.0000
  C   C291      1.0  0.17312  0.36886  0.83553  1.0000
  C   C292      1.0  0.17324  0.37617  0.84918  1.0000
  C   C293      1.0  0.15834  0.36659  0.86123  1.0000
  C   C294      1.0  0.14350  0.34924  0.85960  1.0000
  C   C295      1.0  0.14397  0.34136  0.84598  1.0000
  H   H510      1.0  0.18433  0.37680  0.82630  1.0000
  H   H511      1.0  0.18499  0.38930  0.85044  1.0000
  H   H512      1.0  0.13239  0.34132  0.86889  1.0000
  H   H513      1.0  0.13358  0.32706  0.84483  1.0000
  H   H514      1.0  0.30107  0.18600  0.75506  1.0000
  H   H515      1.0  0.20767  0.41673  0.83227  1.0000
  H   H516      1.0  0.03714  0.29404  0.86331  1.0000
  C   C296      1.0  0.31247  0.29984  0.77914  1.0000
  C   C297      1.0  0.29643  0.28632  0.78859  1.0000
  C   C298      1.0  0.30487  0.26174  0.79360  1.0000
  C   C299      1.0  0.16064  0.46295  0.86582  1.0000
  H   H517      1.0  0.30626  0.31877  0.77525  1.0000
  H   H518      1.0  0.29257  0.25112  0.80085  1.0000
  N   N16       1.0  0.22657  0.28937  0.84091  1.0000
  H   H519      1.0  0.21688  0.29570  0.73062  1.0000
  C   C300      1.0  0.17312  0.32613  0.74161  1.0000
  C   C301      1.0  0.18224  0.34704  0.73420  1.0000
  H   H520      1.0  0.28046  0.23287  0.82571  1.0000
  N   N17       1.0  0.18198  0.44780  0.74621  1.0000
  H   H521      1.0  0.17483  0.32136  0.75296  1.0000
  H   H522      1.0  0.26689  0.03689  0.73185  1.0000
  C   C302      1.0  0.19053  0.46123  0.84345  1.0000
  C   C303      1.0  0.09639  0.29418  0.96346  1.0000
  C   C304      1.0  0.03012  0.34252  0.90722  1.0000
  H   H523      1.0  0.11567  0.28608  0.96502  1.0000
  H   H524      1.0  0.09816  0.32991  0.83393  1.0000
  H   H525      1.0  0.22241  0.44479  0.85494  1.0000
  H   H526      1.0  0.18778  0.47629  0.72833  1.0000
  H   H527      1.0  0.13189  0.44131  0.74073  1.0000
  H   H528      1.0  0.28908  0.03420  0.75101  1.0000
  H   H529      1.0  0.19478  0.32623  0.96380  1.0000
  H   H530      1.0  0.07494  0.33862  0.81262  1.0000
  H   H531      1.0  0.07685  0.36930  0.96894  1.0000
  H   H532      1.0  0.08553  0.36124  0.86081  1.0000
  H   H533      1.0  0.05953  0.30053  0.88310  1.0000
  H   H534      1.0  0.11700  0.42259  0.86969  1.0000
  C   C305      1.0  0.16396  0.44633  0.75979  1.0000
  H   H535      1.0  0.24696  0.28054  0.72441  1.0000
  H   H536      1.0  0.32375  0.16800  0.77571  1.0000
  C   C306      1.0  0.05935  0.34120  0.84184  1.0000
  C   C307      1.0  0.20614  0.28350  0.83350  1.0000
  H   H537      1.0  0.24169  0.23887  0.85224  1.0000
  C   C308      1.0  0.17864  0.40804  0.94916  1.0000
  C   C309      1.0  0.22721  0.27824  0.72709  1.0000
  H   H538      1.0  0.20722  0.30816  0.88292  1.0000
  C   C310      1.0  0.20415  0.48627  0.74558  1.0000
  H   H539      1.0  0.21371  0.32798  0.83478  1.0000
  C   C311      1.0  0.05146  0.38555  0.85745  1.0000
  H   H540      1.0  0.29193  0.11246  0.95022  1.0000
  H   H541      1.0  0.13315  0.46106  0.78427  1.0000
  H   H542      1.0  0.01630  0.42293  0.90909  1.0000
  H   H543      1.0  0.06176  0.35899  0.87518  1.0000
  H   H544      1.0  0.28910  0.21299  0.76387  1.0000
  H   H545      1.0  0.08591  0.48220  0.93636  1.0000
  C   C312      1.0  0.24827  0.32635  0.84362  1.0000
  H   H546      1.0  0.09141  0.36183  0.83681  1.0000
  H   H547      1.0  0.20002  0.43801  0.94594  1.0000
  H   H548      1.0  0.24469  0.11606  0.74060  1.0000
  H   H549      1.0  0.18912  0.37896  0.93536  1.0000
  H   H550      1.0  0.01495  0.43344  0.89014  1.0000
  H   H551      1.0  0.26699  0.07444  0.74690  1.0000
  H   H552      1.0  0.03253  0.41300  0.93909  1.0000
  C   C313      1.0  0.09828  0.28730  0.88178  1.0000
  H   H553      1.0  0.26102  0.26827  0.75449  1.0000
  H   H554      1.0  0.25240  0.99985  0.72496  1.0000
  H   H555      1.0  0.15745  0.45997  0.79537  1.0000
  H   H556      1.0  0.26230  0.35131  0.82556  1.0000
  N   N18       1.0  0.32803  0.22525  0.74132  1.0000
  H   H557      1.0  0.11985  0.46753  0.95723  1.0000
  C   C314      1.0  0.14587  0.44610  0.73156  1.0000
  H   H558      1.0  0.24026  0.31571  0.82392  1.0000
  H   H559      1.0  0.23537  0.23917  0.83401  1.0000
  H   H560      1.0  0.19785  0.32434  0.85813  1.0000
  C   C315      1.0  0.10198  0.43567  0.96457  1.0000
  C   C316      1.0  0.14417  0.44652  0.86068  1.0000
  H   H561      1.0  0.17895  0.30077  0.85839  1.0000
  H   H562      1.0  0.09717  0.27105  0.87635  1.0000
  H   H563      1.0  0.13828  0.42566  0.88186  1.0000
  H   H564      1.0  0.31299  0.19547  0.78451  1.0000
  C   C317      1.0  0.19143  0.39854  0.93516  1.0000
  H   H565      1.0  0.26429  0.11939  0.72371  1.0000
  C   C318      1.0  0.30308  0.12520  0.94291  1.0000
  H   H566      1.0  0.04422  0.35577  0.83847  1.0000
  H   H567      1.0  0.27629  0.29047  0.74190  1.0000
  H   H568      1.0  0.15747  0.48096  0.95039  1.0000
  C   C319      1.0  0.12726  0.43574  0.87337  1.0000
  C   C320      1.0  0.07699  0.30775  0.87867  1.0000
  H   H569      1.0  0.09972  0.35666  0.81105  1.0000
  H   H570      1.0  0.32714  0.09003  0.96320  1.0000
  H   H571      1.0  0.23340  0.40753  0.84258  1.0000
  H   H572      1.0  0.22275  0.47874  0.74063  1.0000
  H   H573      1.0  0.11378  0.45050  0.87806  1.0000
  H   H574      1.0  0.05409  0.40413  0.87601  1.0000
  H   H575      1.0  0.17271  0.45098  0.87328  1.0000
  H   H576      1.0  0.18779  0.25592  0.81572  1.0000
  H   H577      1.0  0.33353  0.22089  0.76391  1.0000
  C   C321      1.0  0.15863  0.34714  0.96272  1.0000
  H   H578      1.0  0.02058  0.31318  0.84975  1.0000
  H   H579      1.0  0.15209  0.43217  0.78931  1.0000
  H   H580      1.0  0.19539  0.27469  0.79903  1.0000
  H   H581      1.0  0.17459  0.31595  0.88198  1.0000
  H   H582      1.0  0.20422  0.48287  0.75737  1.0000
  H   H583      1.0  0.27709  0.11738  0.74052  1.0000
  N   N19       1.0  0.17039  0.44673  0.96283  1.0000
  C   C322      1.0  0.01050  0.32924  0.90762  1.0000
  H   H584      1.0  0.13138  0.44130  0.94771  1.0000
  C   C323      1.0  0.25023  0.27207  0.83787  1.0000
  C   C324      1.0  0.14210  0.48581  0.91675  1.0000
  H   H585      1.0  0.18945  0.29754  0.83499  1.0000
  C   C325      1.0  0.19327  0.48903  0.86111  1.0000
  H   H586      1.0  0.26662  0.31486  0.84378  1.0000
  H   H587      1.0  0.14374  0.46639  0.72897  1.0000
  H   H588      1.0  0.01941  0.35003  0.86143  1.0000
  C   C326      1.0  0.19279  0.48507  0.95614  1.0000
  H   H589      1.0  0.26232  0.48491  0.75897  1.0000
  H   H590      1.0  0.31056  0.19951  0.73237  1.0000
  H   H591      1.0  0.01116  0.31102  0.91349  1.0000
  H   H592      1.0  0.28843  0.23536  0.74182  1.0000
  H   H593      1.0  0.17229  0.41556  0.73898  1.0000
  H   H594      1.0  0.07899  0.40704  0.86151  1.0000
  H   H595      1.0  0.09943  0.27811  0.94344  1.0000
  C   C327      1.0  0.29474  0.07428  0.72765  1.0000
  H   H596      1.0  0.29135  0.17626  0.78141  1.0000
  H   H597      1.0  0.25868  0.27600  0.82650  1.0000
  H   H598      1.0  0.23423  0.28856  0.86288  1.0000
  H   H599      1.0  0.20724  0.43931  0.96930  1.0000
  C   C328      1.0  0.28437  0.03454  0.72443  1.0000
  H   H600      1.0  0.32595  0.00051  0.74218  1.0000
  C   C329      1.0  0.18069  0.33944  0.96876  1.0000
  H   H601      1.0  0.14816  0.47561  0.87273  1.0000
  C   C330      1.0  0.17226  0.43553  0.73526  1.0000
  C   C331      1.0  0.15207  0.45221  0.78622  1.0000
  C   C332      1.0  0.09462  0.29651  0.94730  1.0000
  H   H602      1.0  0.18319  0.40932  0.92575  1.0000
  H   H603      1.0  0.16586  0.48604  0.74265  1.0000
  H   H604      1.0  0.26506  0.41944  0.72972  1.0000
  H   H605      1.0  0.30768  0.08428  0.73180  1.0000
  C   C333      1.0  0.07762  0.31618  0.86225  1.0000
  C   C334      1.0  0.25216  0.42360  0.73949  1.0000
  C   C335      1.0  0.32915  0.25079  0.78932  1.0000
  H   H606      1.0  0.32871  0.16117  0.92217  1.0000
  H   H607      1.0  0.05548  0.32420  0.83811  1.0000
  H   H608      1.0  0.07604  0.30009  0.85676  1.0000
  H   H609      1.0  0.07871  0.32310  0.88466  1.0000
  H   H610      1.0  0.22208  0.41353  0.73058  1.0000
  H   H611      1.0  0.18460  0.43642  0.72488  1.0000
  C   C336      1.0  0.27672  0.27899  0.75250  1.0000
  C   C337      1.0  0.06537  0.36035  0.86325  1.0000
  H   H612      1.0  0.22884  0.26973  0.81417  1.0000
  C   C338      1.0  0.19132  0.30306  0.87859  1.0000
  C   C339      1.0  0.21199  0.28275  0.81700  1.0000
  H   H613      1.0  0.11631  0.29390  0.87808  1.0000
  H   H614      1.0  0.13219  0.45699  0.85280  1.0000
  C   C340      1.0  0.19575  0.30500  0.86215  1.0000
  H   H615      1.0  0.07878  0.47452  0.89497  1.0000
  H   H616      1.0  0.16964  0.47725  0.77052  1.0000
  H   H617      1.0  0.15471  0.29520  0.74018  1.0000
  C   C341      1.0  0.30864  0.18371  0.77685  1.0000
  H   H618      1.0  0.03373  0.38629  0.92995  1.0000
  H   H619      1.0  0.28164  0.15384  0.95531  1.0000
  C   C342      1.0  0.18395  0.47429  0.74032  1.0000
  C   C343      1.0  0.10210  0.47744  0.92886  1.0000
  C   C344      1.0  0.03320  0.33409  0.86479  1.0000
  C   C345      1.0  0.08148  0.35361  0.81707  1.0000
  H   H620      1.0  0.31059  0.07467  0.94435  1.0000
  C   C346      1.0  0.14536  0.43986  0.96874  1.0000
  C   C347      1.0  0.20795  0.43878  0.84976  1.0000
  C   C348      1.0  0.26399  0.15320  0.93656  1.0000
  C   C349      1.0  0.05885  0.40648  0.86412  1.0000
  C   C350      1.0  0.22116  0.42359  0.83785  1.0000
  H   H621      1.0  0.20486  0.47468  0.86765  1.0000
  H   H622      1.0  0.20253  0.47202  0.83541  1.0000
  H   H623      1.0  0.23266  0.43478  0.82974  1.0000
  H   H624      1.0  0.15915  0.40485  0.95026  1.0000
  H   H625      1.0  0.25733  0.43966  0.74358  1.0000
  H   H626      1.0  0.06832  0.37083  0.81542  1.0000
  C   C351      1.0  0.32891  0.21004  0.75582  1.0000
  H   H627      1.0  0.09656  0.32041  0.85841  1.0000
  H   H628      1.0  0.22455  0.44572  0.72755  1.0000
  H   H629      1.0  0.07560  0.30423  0.94493  1.0000
  H   H630      1.0  0.19772  0.42653  0.85788  1.0000
  C   C352      1.0  0.32706  0.01606  0.74810  1.0000
  H   H631      1.0  0.16118  0.42683  0.76326  1.0000
  H   H632      1.0  0.09722  0.28162  0.89358  1.0000
  N   N20       1.0  0.17575  0.47747  0.85414  1.0000
  H   H633      1.0  0.31615  0.27349  0.75146  1.0000
  C   C353      1.0  0.28741  0.15096  0.94382  1.0000
  C   C354      1.0  0.24822  0.24421  0.84076  1.0000
  H   H634      1.0  0.14553  0.45654  0.75778  1.0000
  C   C355      1.0  0.30531  0.19862  0.76221  1.0000
  H   H635      1.0  0.26430  0.27523  0.84449  1.0000
  H   H636      1.0  0.03174  0.33343  0.87669  1.0000
  C   C356      1.0  0.21868  0.28686  0.85694  1.0000
  H   H637      1.0  0.04400  0.37650  0.89934  1.0000
  C   C357      1.0  0.02916  0.36601  0.89957  1.0000
  H   H638      1.0  0.32430  0.15621  0.95635  1.0000
  H   H639      1.0  0.20010  0.26576  0.83852  1.0000
  H   H640      1.0  0.30100  0.25160  0.76396  1.0000
  C   C358      1.0  0.00544  0.43520  0.90120  1.0000
  C   C359      1.0  0.14045  0.36416  0.96930  1.0000
  H   H641      1.0  0.32351  0.13882  0.74198  1.0000
  H   H642      1.0  0.15566  0.43096  0.85558  1.0000
  C   C360      1.0  0.00227  0.46188  0.90431  1.0000
  H   H643      1.0  0.17082  0.44597  0.93980  1.0000
  C   C361      1.0  0.25040  0.48285  0.76904  1.0000
  H   H644      1.0  0.25279  0.17148  0.93778  1.0000
  C   C362      1.0  0.23136  0.31516  0.83527  1.0000
  C   C363      1.0  0.02769  0.47084  0.90357  1.0000
  C   C364      1.0  0.32506  0.00674  0.76417  1.0000
  H   H645      1.0  0.30705  0.00008  0.76782  1.0000
  H   H646      1.0  0.27151  0.20891  0.83939  1.0000
  C   C365      1.0  0.26345  0.11057  0.73504  1.0000
  H   H647      1.0  0.17352  0.28772  0.81293  1.0000
  C   C366      1.0  0.00929  0.37557  0.89172  1.0000
  H   H648      1.0  0.20334  0.48157  0.96556  1.0000
  C   C367      1.0  0.16170  0.31131  0.73431  1.0000
  C   C368      1.0  0.22573  0.42928  0.73570  1.0000
  H   H649      1.0  0.23996  0.32808  0.85490  1.0000
  H   H650      1.0  0.21397  0.26814  0.86077  1.0000
  C   C369      1.0  0.27333  0.22876  0.83725  1.0000
  C   C370      1.0  0.02882  0.39367  0.94052  1.0000
  H   H651      1.0  0.20390  0.41436  0.75466  1.0000
  H   H652      1.0  0.26374  0.36007  0.84307  1.0000
  C   C371      1.0  0.20655  0.43305  0.74921  1.0000
  C   C372      1.0  0.32979  0.13624  0.95930  1.0000
  C   C373      1.0  0.30694  0.03845  0.74491  1.0000
  H   H653      1.0  0.01534  0.48747  0.92749  1.0000
  N   N21       1.0  0.30371  0.04694  0.72926  1.0000
  H   H654      1.0  0.21466  0.30130  0.81154  1.0000
  H   H655      1.0  0.10325  0.33145  0.96336  1.0000
  N   N22       1.0  0.32903  0.12178  0.94697  1.0000
  C   C374      1.0  0.12512  0.44725  0.95852  1.0000
  H   H656      1.0  0.18841  0.28411  0.88326  1.0000
  H   H657      1.0  0.03120  0.38617  0.86001  1.0000
  H   H658      1.0  0.23444  0.36434  0.83607  1.0000
  H   H659      1.0  0.22516  0.26340  0.73617  1.0000
  H   H660      1.0  0.10775  0.30855  0.94129  1.0000
  H   H661      1.0  0.03771  0.45938  0.91219  1.0000
  H   H662      1.0  0.25267  0.13875  0.94160  1.0000
  H   H663      1.0  0.04877  0.42431  0.85977  1.0000
  H   H664      1.0  0.20445  0.47691  0.94696  1.0000
  H   H665      1.0  0.03847  0.46600  0.89323  1.0000
  H   H666      1.0  0.14717  0.48797  0.84007  1.0000
  C   C375      1.0  0.25238  0.35210  0.83661  1.0000
  H   H667      1.0  0.00211  0.30220  0.88184  1.0000
  C   C376      1.0  0.30526  0.24429  0.74117  1.0000
  H   H668      1.0  0.21148  0.39975  0.93392  1.0000
  C   C377      1.0  0.17047  0.45702  0.77284  1.0000
  C   C378      1.0  0.19081  0.27475  0.81087  1.0000
  H   H669      1.0  0.04065  0.38282  0.94840  1.0000
  H   H670      1.0  0.28690  0.23248  0.84402  1.0000
  C   C379      1.0  0.33061  0.07609  0.94264  1.0000
  H   H671      1.0  0.30585  0.25637  0.73074  1.0000
  H   H672      1.0  0.27438  0.29147  0.76100  1.0000
  H   H673      1.0  0.30342  0.12006  0.93186  1.0000
  C   C380      1.0  0.08964  0.31963  0.96918  1.0000
  C   C381      1.0  0.26872  0.08260  0.73546  1.0000
  H   H674      1.0  0.26876  0.15148  0.92488  1.0000
  H   H675      1.0  0.28430  0.49274  0.79621  1.0000
  H   H676      1.0  0.05589  0.38935  0.84560  1.0000
  H   H677      1.0  0.10604  0.41535  0.96491  1.0000
  H   H678      1.0  0.25416  0.40739  0.74776  1.0000
  H   H679      1.0  0.31176  0.05354  0.75018  1.0000
  H   H680      1.0  0.07172  0.32796  0.96542  1.0000
  H   H681      1.0  0.21512  0.44120  0.75698  1.0000
  C   C382      1.0  0.02384  0.31095  0.86123  1.0000
  C   C383      1.0  0.30125  0.26184  0.75302  1.0000
  C   C384      1.0  0.12089  0.49227  0.92622  1.0000
  C   C385      1.0  0.29060  0.00654  0.72351  1.0000
  H   H682      1.0  0.18895  0.44867  0.77564  1.0000
  H   H683      1.0  0.08374  0.28126  0.96893  1.0000
  C   C386      1.0  0.32762  0.20827  0.73018  1.0000
  H   H684      1.0  0.12339  0.37018  0.96468  1.0000
  H   H685      1.0  0.15711  0.48335  0.96887  1.0000
  H   H686      1.0  0.31597  0.13084  0.96849  1.0000
  H   H687      1.0  0.29762  0.16610  0.93877  1.0000
  H   H688      1.0  0.05932  0.49268  0.91558  1.0000
  H   H689      1.0  0.14688  0.41981  0.97225  1.0000
  C   C387      1.0  0.00167  0.39266  0.94606  1.0000
  C   C388      1.0  0.07176  0.49444  0.89274  1.0000
  Fe  Fe38      1.0  0.24566  0.56815  0.16972  1.0000
  S   S76       1.0  0.20506  0.57124  0.17668  1.0000
  S   S77       1.0  0.26818  0.53132  0.16507  1.0000
  Fe  Fe39      1.0  0.24554  0.62399  0.16821  1.0000
  S   S78       1.0  0.20428  0.63051  0.17462  1.0000
  S   S79       1.0  0.26157  0.66012  0.16542  1.0000
  Fe  Fe40      1.0  0.21099  0.59808  0.19126  1.0000
  S   S80       1.0  0.19564  0.59467  0.21503  1.0000
  Fe  Fe41      1.0  0.20224  0.60322  0.15936  1.0000
  S   S81       1.0  0.17160  0.60526  0.14535  1.0000
  S   S82       1.0  0.25231  0.59262  0.18562  1.0000
  S   S83       1.0  0.24270  0.59924  0.15160  1.0000
  Fe  Fe42      1.0  0.15575  0.55018  0.04588  1.0000
  S   S84       1.0  0.17477  0.58351  0.04122  1.0000
  C   C389      1.0  0.28293  0.70522  0.12201  1.0000
  Fe  Fe43      1.0  0.10956  0.57714  0.06101  1.0000
  S   S85       1.0  0.12453  0.61310  0.05776  1.0000
  S   S86       1.0  0.07177  0.56975  0.07126  1.0000
  Fe  Fe44      1.0  0.13823  0.60331  0.03528  1.0000
  S   S87       1.0  0.13067  0.62739  0.01457  1.0000
  Fe  Fe45      1.0  0.15981  0.59002  0.06415  1.0000
  S   S88       1.0  0.18750  0.59913  0.07772  1.0000
  S   S89       1.0  0.12049  0.56932  0.03824  1.0000
  S   S90       1.0  0.14352  0.55479  0.06909  1.0000
  C   C390      1.0  0.17657  0.60289  0.12662  1.0000
  C   C391      1.0  0.15706  0.59850  0.11971  1.0000
  C   C392      1.0  0.16017  0.59696  0.10477  1.0000
  C   C393      1.0  0.18277  0.60015  0.09658  1.0000
  C   C394      1.0  0.20233  0.60444  0.10351  1.0000
  C   C395      1.0  0.19929  0.60572  0.11846  1.0000
  H   H690      1.0  0.13938  0.59641  0.12593  1.0000
  H   H691      1.0  0.14498  0.59372  0.09954  1.0000
  H   H692      1.0  0.21991  0.60673  0.09723  1.0000
  H   H693      1.0  0.21449  0.60875  0.12369  1.0000
  C   C396      1.0  0.00072  0.62829  0.07473  1.0000
  H   H694      1.0  0.16211  0.50963  0.14541  1.0000
  C   C397      1.0  0.27807  0.65251  0.12439  1.0000
  C   C398      1.0  0.10487  0.69865  0.20800  1.0000
  H   H695      1.0  0.17652  0.64596  0.20643  1.0000
  C   C399      1.0  0.31757  0.66854  0.20106  1.0000
  H   H696      1.0  0.17527  0.54132  0.12000  1.0000
  H   H697      1.0  0.28292  0.62921  0.10699  1.0000
  H   H698      1.0  0.27868  0.70580  0.16614  1.0000
  H   H699      1.0  0.28715  0.70606  0.11012  1.0000
  C   C400      1.0  0.14383  0.61436  0.99871  1.0000
  H   H700      1.0  0.17259  0.58999  0.00872  1.0000
  C   C401      1.0  0.30101  0.60915  0.12451  1.0000
  H   H701      1.0  0.18405  0.65645  0.12656  1.0000
  H   H702      1.0  0.11803  0.63683  0.98552  1.0000
  H   H703      1.0  0.22176  0.51976  0.18125  1.0000
  C   C402      1.0  0.27952  0.62721  0.11894  1.0000
  C   C403      1.0  0.03702  0.60162  0.03700  1.0000
  C   C404      1.0  0.05490  0.59428  0.04650  1.0000
  C   C405      1.0  0.05032  0.57764  0.05876  1.0000
  C   C406      1.0  0.02818  0.56768  0.06120  1.0000
  H   H704      1.0  0.00956  0.66021  0.08316  1.0000
  H   H705      1.0  0.04042  0.61501  0.02775  1.0000
  H   H706      1.0  0.07191  0.60214  0.04457  1.0000
  H   H707      1.0  0.26683  0.74395  0.12097  1.0000
  C   C407      1.0  0.19570  0.52747  0.14358  1.0000
  C   C408      1.0  0.29532  0.79686  0.20302  1.0000
  H   H708      1.0  0.23423  0.53465  0.11209  1.0000
  H   H709      1.0  0.13536  0.55831  0.99840  1.0000
  H   H710      1.0  0.15973  0.52912  0.09656  1.0000
  C   C409      1.0  0.06907  0.54526  0.01604  1.0000
  H   H711      1.0  0.27270  0.67585  0.09940  1.0000
  H   H712      1.0  0.06162  0.53917  0.98169  1.0000
  C   C410      1.0  0.28147  0.73112  0.12619  1.0000
  C   C411      1.0  0.13166  0.54334  0.99259  1.0000
  H   H713      1.0  0.15332  0.54064  0.16265  1.0000
  C   C412      1.0  0.27504  0.79803  0.21582  1.0000
  H   H714      1.0  0.24517  0.69627  0.10285  1.0000
  H   H715      1.0  0.26126  0.78653  0.21413  1.0000
  H   H716      1.0  0.00773  0.60383  0.98292  1.0000
  C   C413      1.0  0.09991  0.52319  0.98541  1.0000
  H   H717      1.0  0.20729  0.69197  0.11973  1.0000
  H   H718      1.0  0.12161  0.51981  0.05151  1.0000
  H   H719      1.0  0.26901  0.69079  0.20166  1.0000
  C   C414      1.0  0.17679  0.51130  0.15191  1.0000
  H   H720      1.0  0.10828  0.50462  0.98988  1.0000
  H   H721      1.0  0.00955  0.61695  0.08377  1.0000
  H   H722      1.0  0.17618  0.53695  0.00475  1.0000
  H   H723      1.0  0.16942  0.68236  0.13571  1.0000
  C   C415      1.0  0.09185  0.56784  0.98901  1.0000
  H   H724      1.0  0.20942  0.69364  0.13837  1.0000
  C   C416      1.0  0.20909  0.68086  0.13033  1.0000
  H   H725      1.0  0.04283  0.54004  0.03513  1.0000
  C   C417      1.0  0.16439  0.59605  0.99886  1.0000
  H   H726      1.0  0.06406  0.51279  0.03145  1.0000
  H   H727      1.0  0.19097  0.57211  0.98632  1.0000
  H   H728      1.0  0.00352  0.66638  0.06453  1.0000
  H   H729      1.0  0.05548  0.54196  0.00924  1.0000
  C   C418      1.0  0.23076  0.50383  0.17621  1.0000
  H   H730      1.0  0.25033  0.58892  0.21741  1.0000
  C   C419      1.0  0.24205  0.66559  0.08240  1.0000
  C   C420      1.0  0.13370  0.62239  0.98574  1.0000
  H   H731      1.0  0.04310  0.64191  0.05682  1.0000
  H   H732      1.0  0.10286  0.71849  0.20381  1.0000
  C   C421      1.0  0.25858  0.69449  0.12741  1.0000
  H   H733      1.0  0.25474  0.57545  0.11946  1.0000
  H   H734      1.0  0.08760  0.61528  0.97488  1.0000
  C   C422      1.0  0.31295  0.65008  0.16205  1.0000
  H   H735      1.0  0.30521  0.77781  0.20263  1.0000
  H   H736      1.0  0.11073  0.51619  0.09278  1.0000
  H   H737      1.0  0.18658  0.54702  0.14259  1.0000
  C   C423      1.0  0.17474  0.58588  0.98616  1.0000
  H   H738      1.0  0.30885  0.80926  0.20380  1.0000
  H   H739      1.0  0.18724  0.65686  0.14534  1.0000
  C   C424      1.0  0.18611  0.66830  0.13477  1.0000
  H   H740      1.0  0.21352  0.55769  0.12059  1.0000
  H   H741      1.0  0.23609  0.55160  0.14144  1.0000
  H   H742      1.0  0.00382  0.56615  0.99991  1.0000
  H   H743      1.0  0.02212  0.50013  0.04427  1.0000
  H   H744      1.0  0.12418  0.69026  0.20483  1.0000
  H   H745      1.0  0.27727  0.55906  0.13078  1.0000
  C   C425      1.0  0.06225  0.53305  0.03128  1.0000
  H   H746      1.0  0.25715  0.69151  0.13939  1.0000
  H   H747      1.0  0.15125  0.51000  0.17160  1.0000
  C   C426      1.0  0.29585  0.66689  0.21293  1.0000
  C   C427      1.0  0.01463  0.59215  0.03963  1.0000
  C   C428      1.0  0.09599  0.53557  0.01010  1.0000
  H   H748      1.0  0.08373  0.50100  0.09384  1.0000
  H   H749      1.0  0.30264  0.59159  0.11982  1.0000
  H   H750      1.0  0.20864  0.67770  0.21715  1.0000
  H   H751      1.0  0.10967  0.52614  0.97428  1.0000
  H   H752      1.0  0.27378  0.54745  0.11437  1.0000
  H   H753      1.0  0.31100  0.63115  0.16148  1.0000
  H   H754      1.0  0.14148  0.51264  0.00935  1.0000
  H   H755      1.0  0.24354  0.63487  0.20648  1.0000
  H   H756      1.0  0.06712  0.56540  0.01658  1.0000
  H   H757      1.0  0.21885  0.66512  0.10252  1.0000
  H   H758      1.0  0.25430  0.52362  0.13600  1.0000
  H   H759      1.0  0.27970  0.64943  0.13616  1.0000
  H   H760      1.0  0.10764  0.54256  0.01690  1.0000
  N   N23       1.0  0.10421  0.54244  0.99423  1.0000
  H   H761      1.0  0.04925  0.63359  0.07531  1.0000
  C   C429      1.0  0.10091  0.50531  0.08702  1.0000
  H   H762      1.0  0.24431  0.64094  0.10184  1.0000
  H   H763      1.0  0.23065  0.65427  0.07801  1.0000
  C   C430      1.0  0.23305  0.66190  0.12988  1.0000
  H   H764      1.0  0.28709  0.80285  0.19280  1.0000
  H   H765      1.0  0.09750  0.58182  0.99486  1.0000
  C   C431      1.0  0.25388  0.67691  0.10552  1.0000
  C   C432      1.0  0.09659  0.57608  0.97257  1.0000
  H   H766      1.0  0.28059  0.61780  0.21663  1.0000
  C   C433      1.0  0.03966  0.64793  0.06777  1.0000
  H   H767      1.0  0.04768  0.66516  0.06731  1.0000
  C   C434      1.0  0.24402  0.63987  0.21742  1.0000
  H   H768      1.0  0.29611  0.68129  0.21999  1.0000
  C   C435      1.0  0.17479  0.52304  0.99759  1.0000
  H   H769      1.0  0.23592  0.68526  0.07876  1.0000
  C   C436      1.0  0.27093  0.67118  0.20652  1.0000
  H   H770      1.0  0.20151  0.54034  0.09796  1.0000
  H   H771      1.0  0.18258  0.52913  0.98641  1.0000
  H   H772      1.0  0.29789  0.60524  0.13644  1.0000
  H   H773      1.0  0.18349  0.51653  0.08329  1.0000
  C   C437      1.0  0.29192  0.66755  0.16406  1.0000
  H   H774      1.0  0.17782  0.52435  0.17260  1.0000
  H   H775      1.0  0.02481  0.55452  0.07055  1.0000
  H   H776      1.0  0.15916  0.68031  0.22098  1.0000
  S   S91       1.0  0.17194  0.51404  0.03801  1.0000
  C   C438      1.0  0.23886  0.66084  0.09884  1.0000
  C   C439      1.0  0.29484  0.69210  0.16467  1.0000
  H   H777      1.0  0.26165  0.66046  0.07801  1.0000
  H   H778      1.0  0.26596  0.81738  0.21564  1.0000
  H   H779      1.0  0.01441  0.55039  0.98405  1.0000
  C   C440      1.0  0.19671  0.52210  0.10300  1.0000
  H   H780      1.0  0.17277  0.49695  0.09900  1.0000
  H   H781      1.0  0.29940  0.73797  0.12258  1.0000
  H   H782      1.0  0.32046  0.71813  0.16378  1.0000
  H   H783      1.0  0.13903  0.54798  0.98113  1.0000
  H   H784      1.0  0.09904  0.51522  0.01287  1.0000
  H   H785      1.0  0.31868  0.61669  0.12136  1.0000
  H   H786      1.0  0.27758  0.73096  0.13807  1.0000
  H   H787      1.0  0.14774  0.50458  0.99125  1.0000
  H   H788      1.0  0.09567  0.51683  0.07702  1.0000
  H   H789      1.0  0.26249  0.61888  0.12248  1.0000
  C   C441      1.0  0.16406  0.52230  0.16550  1.0000
  C   C442      1.0  0.17688  0.51576  0.09500  1.0000
  H   H790      1.0  0.29855  0.69376  0.12709  1.0000
  H   H791      1.0  0.24322  0.70935  0.12482  1.0000
  H   H792      1.0  0.09235  0.68943  0.20301  1.0000
  H   H793      1.0  0.27304  0.66021  0.19723  1.0000
  H   H794      1.0  0.22642  0.70213  0.21220  1.0000
  C   C443      1.0  0.01192  0.65253  0.07272  1.0000
  H   H795      1.0  0.22926  0.64530  0.12581  1.0000
  C   C444      1.0  0.14794  0.51926  0.99807  1.0000
  H   H796      1.0  0.21343  0.50826  0.10139  1.0000
  C   C445      1.0  0.22341  0.68165  0.19483  1.0000
  C   C446      1.0  0.19963  0.69731  0.19052  1.0000
  H   H797      1.0  0.20995  0.52640  0.15094  1.0000
  N   N24       1.0  0.24806  0.66632  0.21670  1.0000
  H   H798      1.0  0.00756  0.61869  0.06501  1.0000
  H   H799      1.0  0.31860  0.65413  0.19380  1.0000
  C   C447      1.0  0.22606  0.68253  0.21090  1.0000
  H   H800      1.0  0.22302  0.66266  0.19261  1.0000
  H   H801      1.0  0.23891  0.68904  0.18772  1.0000
  H   H802      1.0  0.18325  0.69023  0.19686  1.0000
  H   H803      1.0  0.19927  0.71679  0.19222  1.0000
  H   H804      1.0  0.19858  0.69651  0.17893  1.0000
  H   H805      1.0  0.07152  0.56966  0.99154  1.0000
  C   C448      1.0  0.26372  0.55693  0.12356  1.0000
  N   N25       1.0  0.20741  0.52066  0.12895  1.0000
  C   C449      1.0  0.18745  0.52329  0.11923  1.0000
  C   C450      1.0  0.22441  0.53922  0.12272  1.0000
  C   C451      1.0  0.24454  0.54185  0.13205  1.0000
  H   H806      1.0  0.23619  0.65562  0.14128  1.0000
  H   H807      1.0  0.07430  0.53746  0.03877  1.0000
  H   H808      1.0  0.17496  0.50933  0.12279  1.0000
  N   N26       1.0  0.25571  0.67121  0.12152  1.0000
  H   H809      1.0  0.29529  0.65939  0.11911  1.0000
  C   C452      1.0  0.17461  0.64279  0.21807  1.0000
  H   H810      1.0  0.18594  0.50551  0.00149  1.0000
  C   C453      1.0  0.31851  0.69917  0.16334  1.0000
  H   H811      1.0  0.06432  0.51242  0.99496  1.0000
  C   C454      1.0  0.07265  0.52106  0.98449  1.0000
  C   C455      1.0  0.16409  0.59318  0.97333  1.0000
  C   C456      1.0  0.14366  0.61167  0.97310  1.0000
  H   H812      1.0  0.31569  0.68690  0.19460  1.0000
  C   C457      1.0  0.25381  0.50433  0.16802  1.0000
  H   H813      1.0  0.29908  0.64880  0.21943  1.0000
  C   C458      1.0  0.01044  0.57478  0.05156  1.0000
  C   C459      1.0  0.12512  0.50329  0.04624  1.0000
  H   H814      1.0  0.31854  0.99225  0.05608  1.0000
  H   H815      1.0  0.32740  0.99431  0.10610  1.0000
  H   H816      1.0  0.32443  0.99573  0.08170  1.0000
  C   C460      1.0  0.07070  0.50476  0.97300  1.0000
  H   H817      1.0  0.05104  0.50301  0.97277  1.0000
  H   H818      1.0  0.13565  0.53924  0.37386  1.0000
  Fe  Fe46      1.0  0.14669  0.72062  0.29657  1.0000
  S   S92       1.0  0.16853  0.68432  0.29158  1.0000
  S   S93       1.0  0.16101  0.75669  0.29804  1.0000
  Fe  Fe47      1.0  0.09641  0.70185  0.29602  1.0000
  S   S94       1.0  0.11516  0.66453  0.29105  1.0000
  S   S95       1.0  0.05488  0.71540  0.29789  1.0000
  Fe  Fe48      1.0  0.13959  0.66779  0.30784  1.0000
  S   S96       1.0  0.14904  0.63490  0.32449  1.0000
  Fe  Fe49      1.0  0.14218  0.68435  0.27541  1.0000
  S   S97       1.0  0.15156  0.68388  0.25112  1.0000
  S   S98       1.0  0.11924  0.70409  0.31372  1.0000
  S   S99       1.0  0.12189  0.72163  0.27957  1.0000
  S   S100      1.0  0.27920  0.85597  0.27739  1.0000
  S   S101      1.0  0.29406  0.84540  0.31045  1.0000
  Fe  Fe50      1.0  0.28586  0.82285  0.29389  1.0000
  S   S102      1.0  0.26775  0.78757  0.29787  1.0000
  Fe  Fe51      1.0  0.29106  0.87788  0.29309  1.0000
  S   S103      1.0  0.27370  0.91568  0.29958  1.0000
  Fe  Fe52      1.0  0.10163  0.58277  0.43098  1.0000
  S   S104      1.0  0.12203  0.61428  0.43137  1.0000
  S   S105      1.0  0.06111  0.58653  0.43875  1.0000
  Fe  Fe53      1.0  0.14818  0.54807  0.42276  1.0000
  S   S106      1.0  0.17240  0.57726  0.42204  1.0000
  Fe  Fe54      1.0  0.14918  0.58646  0.44274  1.0000
  S   S107      1.0  0.16666  0.58682  0.46304  1.0000
  Fe  Fe55      1.0  0.14293  0.60243  0.41051  1.0000
  S   S108      1.0  0.14616  0.63406  0.39233  1.0000
  S   S109      1.0  0.12690  0.55608  0.44391  1.0000
  S   S110      1.0  0.12071  0.57225  0.40963  1.0000
  C   C461      1.0  0.14634  0.63466  0.34348  1.0000
  C   C462      1.0  0.15482  0.61289  0.35196  1.0000
  C   C463      1.0  0.15370  0.61201  0.36704  1.0000
  C   C464      1.0  0.14461  0.63314  0.37376  1.0000
  C   C465      1.0  0.13568  0.65481  0.36531  1.0000
  C   C466      1.0  0.13620  0.65548  0.35029  1.0000
  H   H819      1.0  0.16271  0.59668  0.34679  1.0000
  H   H820      1.0  0.16083  0.59527  0.37337  1.0000
  H   H821      1.0  0.12843  0.67118  0.37045  1.0000
  H   H822      1.0  0.12905  0.67215  0.34394  1.0000
  C   C467      1.0  0.19106  0.76491  0.29724  1.0000
  C   C468      1.0  0.19352  0.78985  0.29690  1.0000
  C   C469      1.0  0.21684  0.79726  0.29672  1.0000
  C   C470      1.0  0.23799  0.77970  0.29717  1.0000
  C   C471      1.0  0.23555  0.75474  0.29742  1.0000
  C   C472      1.0  0.21232  0.74741  0.29724  1.0000
  H   H823      1.0  0.17723  0.80358  0.29686  1.0000
  H   H824      1.0  0.21834  0.81650  0.29658  1.0000
  H   H825      1.0  0.25178  0.74098  0.29773  1.0000
  H   H826      1.0  0.21082  0.72825  0.29721  1.0000
  H   H827      1.0  0.01805  0.65289  0.27868  1.0000
  H   H828      1.0  0.05238  0.66827  0.28753  1.0000
  H   H829      1.0  0.16792  0.63167  0.25996  1.0000
  H   H830      1.0  0.07875  0.66592  0.32517  1.0000
  C   C473      1.0  0.13910  0.50181  0.40048  1.0000
  H   H831      1.0  0.19850  0.75449  0.26682  1.0000
  C   C474      1.0  0.31031  0.96946  0.27618  1.0000
  C   C475      1.0  0.21015  0.75748  0.25632  1.0000
  C   C476      1.0  0.09297  0.58631  0.35939  1.0000
  H   H832      1.0  0.05905  0.60584  0.34204  1.0000
  H   H833      1.0  0.22299  0.78883  0.26209  1.0000
  H   H834      1.0  0.08408  0.49753  0.45085  1.0000
  H   H835      1.0  0.21742  0.73928  0.25259  1.0000
  H   H836      1.0  0.29544  0.87334  0.34334  1.0000
  H   H837      1.0  0.01581  0.64620  0.39417  1.0000
  C   C477      1.0  0.27657  0.96446  0.30086  1.0000
  C   C478      1.0  0.28500  0.94399  0.29325  1.0000
  C   C479      1.0  0.30214  0.94656  0.28094  1.0000
  H   H838      1.0  0.09118  0.57603  0.35036  1.0000
  H   H839      1.0  0.24169  0.75990  0.26658  1.0000
  H   H840      1.0  0.26325  0.96271  0.31037  1.0000
  C   C480      1.0  0.04246  0.56879  0.36044  1.0000
  H   H841      1.0  0.13543  0.52163  0.39870  1.0000
  H   H842      1.0  0.30211  0.79789  0.23050  1.0000
  C   C481      1.0  0.04454  0.57092  0.42944  1.0000
  C   C482      1.0  0.05594  0.55851  0.41780  1.0000
  C   C483      1.0  0.04214  0.54614  0.41060  1.0000
  H   H843      1.0  0.19829  0.76848  0.24848  1.0000
  H   H844      1.0  0.09732  0.52805  0.46554  1.0000
  H   H845      1.0  0.07528  0.55836  0.41433  1.0000
  H   H846      1.0  0.05068  0.53753  0.40123  1.0000
  H   H847      1.0  0.24678  0.86395  0.25289  1.0000
  C   C484      1.0  0.28594  0.78851  0.23016  1.0000
  H   H848      1.0  0.23729  0.59598  0.23526  1.0000
  C   C485      1.0  0.03058  0.70243  0.29262  1.0000
  C   C486      1.0  0.03434  0.67928  0.28771  1.0000
  C   C487      1.0  0.01479  0.67053  0.28277  1.0000
  C   C488      1.0  0.10444  0.56808  0.37139  1.0000
  C   C489      1.0  0.07766  0.63647  0.34286  1.0000
  C   C490      1.0  0.06596  0.65298  0.33053  1.0000
  H   H849      1.0  0.09548  0.62686  0.33809  1.0000
  H   H850      1.0  0.08159  0.64858  0.35041  1.0000
  H   H851      1.0  0.04838  0.66393  0.33463  1.0000
  N   N27       1.0  0.06455  0.70761  0.24520  1.0000
  C   C491      1.0  0.07873  0.68746  0.25453  1.0000
  C   C492      1.0  0.06809  0.73220  0.24912  1.0000
  C   C493      1.0  0.03742  0.70540  0.24898  1.0000
  C   C494      1.0  0.04479  0.50574  0.45085  1.0000
  H   H852      1.0  0.24683  0.86723  0.23353  1.0000
  C   C495      1.0  0.07394  0.66095  0.25342  1.0000
  C   C496      1.0  0.25860  0.86263  0.24241  1.0000
  H   H853      1.0  0.01804  0.74322  0.24479  1.0000
  C   C497      1.0  0.25432  0.59504  0.22743  1.0000
  H   H854      1.0  0.24640  0.66272  0.26174  1.0000
  C   C498      1.0  0.09483  0.64147  0.25838  1.0000
  H   H855      1.0  0.02454  0.72673  0.22916  1.0000
  H   H856      1.0  0.07438  0.69060  0.26608  1.0000
  H   H857      1.0  0.09884  0.68795  0.25222  1.0000
  H   H858      1.0  0.10288  0.67535  0.22799  1.0000
  H   H859      1.0  0.06208  0.73319  0.26087  1.0000
  H   H860      1.0  0.03189  0.70620  0.26073  1.0000
  H   H861      1.0  0.03370  0.68726  0.24677  1.0000
  C   C499      1.0  0.29552  0.75588  0.25786  1.0000
  H   H862      1.0  0.07165  0.65845  0.24226  1.0000
  H   H863      1.0  0.03111  0.54124  0.37789  1.0000
  H   H864      1.0  0.23608  0.76011  0.34317  1.0000
  H   H865      1.0  0.05669  0.65725  0.26036  1.0000
  C   C500      1.0  0.07183  0.70585  0.22928  1.0000
  H   H866      1.0  0.04781  0.60859  0.39393  1.0000
  H   H867      1.0  0.05593  0.53707  0.45855  1.0000
  C   C501      1.0  0.09437  0.73927  0.24561  1.0000
  H   H868      1.0  0.22492  0.53484  0.45579  1.0000
  H   H869      1.0  0.25234  0.69306  0.23041  1.0000
  H   H870      1.0  0.23638  0.78276  0.23530  1.0000
  C   C502      1.0  0.17927  0.61539  0.24006  1.0000
  H   H871      1.0  0.11265  0.64432  0.25180  1.0000
  H   H872      1.0  0.09947  0.74216  0.23377  1.0000
  H   H873      1.0  0.24182  0.82219  0.23686  1.0000
  C   C503      1.0  0.29564  0.89262  0.33833  1.0000
  H   H874      1.0  0.21320  0.51220  0.44775  1.0000
  H   H875      1.0  0.09126  0.62447  0.37210  1.0000
  H   H876      1.0  0.10823  0.72500  0.25041  1.0000
  H   H877      1.0  0.00634  0.56491  0.37267  1.0000
  C   C504      1.0  0.04092  0.52550  0.46108  1.0000
  H   H878      1.0  0.22238  0.65114  0.24420  1.0000
  H   H879      1.0  0.28452  0.83686  0.23118  1.0000
  H   H880      1.0  0.24530  0.81891  0.25538  1.0000
  H   H881      1.0  0.27008  0.78590  0.26678  1.0000
  H   H882      1.0  0.28601  0.83388  0.25020  1.0000
  H   H883      1.0  0.03146  0.59903  0.37327  1.0000
  C   C505      1.0  0.16962  0.63484  0.24832  1.0000
  H   H884      1.0  0.09646  0.64209  0.26988  1.0000
  H   H885      1.0  0.18493  0.59725  0.24542  1.0000
  H   H886      1.0  0.32310  0.97134  0.26647  1.0000
  H   H887      1.0  0.31692  0.92036  0.37931  1.0000
  H   H888      1.0  0.05633  0.74740  0.24333  1.0000
  N   N28       1.0  0.26817  0.79077  0.24374  1.0000
  H   H889      1.0  0.29683  0.79457  0.25634  1.0000
  H   H890      1.0  0.28258  0.74263  0.25773  1.0000
  H   H891      1.0  0.01850  0.54104  0.36135  1.0000
  H   H892      1.0  0.11490  0.76765  0.24918  1.0000
  H   H893      1.0  0.21405  0.67434  0.26526  1.0000
  C   C506      1.0  0.07233  0.61920  0.37433  1.0000
  C   C507      1.0  0.18205  0.61933  0.22491  1.0000
  H   H894      1.0  0.01488  0.61889  0.45379  1.0000
  H   H895      1.0  0.31562  0.96622  0.37581  1.0000
  C   C508      1.0  0.04886  0.58671  0.37015  1.0000
  H   H896      1.0  0.26769  0.62455  0.23461  1.0000
  C   C509      1.0  0.30734  0.74921  0.27182  1.0000
  H   H897      1.0  0.09458  0.62922  0.39754  1.0000
  C   C510      1.0  0.01944  0.57073  0.43390  1.0000
  H   H898      1.0  0.12048  0.53870  0.35825  1.0000
  H   H899      1.0  0.10736  0.59808  0.35495  1.0000
  H   H900      1.0  0.23532  0.69497  0.25688  1.0000
  H   H901      1.0  0.14036  0.56155  0.35845  1.0000
  C   C511      1.0  0.12653  0.55089  0.36504  1.0000
  H   H902      1.0  0.32702  0.92224  0.36017  1.0000
  C   C512      1.0  0.00680  0.71616  0.29312  1.0000
  H   H903      1.0  0.11541  0.60915  0.46992  1.0000
  C   C513      1.0  0.22663  0.67025  0.24280  1.0000
  H   H904      1.0  0.31831  0.73059  0.27194  1.0000
  H   H905      1.0  0.06239  0.64182  0.32233  1.0000
  H   H906      1.0  0.28839  0.90503  0.34672  1.0000
  C   C514      1.0  0.16473  0.66216  0.22633  1.0000
  C   C515      1.0  0.24947  0.67343  0.23143  1.0000
  C   C516      1.0  0.07460  0.62788  0.39987  1.0000
  H   H907      1.0  0.21011  0.68297  0.23966  1.0000
  N   N29       1.0  0.18342  0.71216  0.34415  1.0000
  C   C517      1.0  0.19393  0.68807  0.33834  1.0000
  C   C518      1.0  0.17564  0.70801  0.36027  1.0000
  C   C519      1.0  0.16053  0.72254  0.33701  1.0000
  C   C520      1.0  0.20114  0.73073  0.34059  1.0000
  C   C521      1.0  0.22683  0.72278  0.34580  1.0000
  C   C522      1.0  0.20387  0.68965  0.32210  1.0000
  C   C523      1.0  0.14602  0.74694  0.34201  1.0000
  C   C524      1.0  0.19041  0.68632  0.36912  1.0000
  C   C525      1.0  0.18249  0.68658  0.38528  1.0000
  C   C526      1.0  0.24401  0.74176  0.33981  1.0000
  C   C527      1.0  0.21381  0.66411  0.31763  1.0000
  C   C528      1.0  0.12109  0.75321  0.33614  1.0000
  H   H908      1.0  0.17976  0.67543  0.34040  1.0000
  H   H909      1.0  0.20956  0.67830  0.34402  1.0000
  H   H910      1.0  0.17573  0.72502  0.36529  1.0000
  H   H911      1.0  0.15618  0.70419  0.36251  1.0000
  H   H912      1.0  0.14763  0.70868  0.33862  1.0000
  H   H913      1.0  0.16508  0.72654  0.32518  1.0000
  H   H914      1.0  0.20367  0.73656  0.32877  1.0000
  H   H915      1.0  0.19329  0.74792  0.34543  1.0000
  H   H916      1.0  0.23585  0.70490  0.34228  1.0000
  H   H917      1.0  0.22506  0.72144  0.35772  1.0000
  H   H918      1.0  0.18921  0.69788  0.31533  1.0000
  H   H919      1.0  0.21923  0.70077  0.31963  1.0000
  H   H920      1.0  0.15657  0.76242  0.33791  1.0000
  H   H921      1.0  0.14239  0.74600  0.35390  1.0000
  H   H922      1.0  0.18684  0.66851  0.36629  1.0000
  H   H923      1.0  0.21053  0.68684  0.36710  1.0000
  H   H924      1.0  0.16238  0.68576  0.38786  1.0000
  H   H925      1.0  0.19247  0.67023  0.39129  1.0000
  H   H926      1.0  0.18680  0.70340  0.38897  1.0000
  H   H927      1.0  0.24710  0.74331  0.32785  1.0000
  H   H928      1.0  0.22930  0.65518  0.32373  1.0000
  H   H929      1.0  0.19898  0.65229  0.31960  1.0000
  H   H930      1.0  0.22066  0.66570  0.30595  1.0000
  H   H931      1.0  0.10938  0.73864  0.34020  1.0000
  H   H932      1.0  0.11133  0.77089  0.33966  1.0000
  H   H933      1.0  0.12367  0.75525  0.32417  1.0000
  H   H934      1.0  0.07061  0.62110  0.41146  1.0000
  H   H935      1.0  0.32809  0.98365  0.39360  1.0000
  C   C529      1.0  0.23128  0.77106  0.25813  1.0000
  H   H936      1.0  0.09090  0.62291  0.25716  1.0000
  H   H937      1.0  0.32283  0.84002  0.36146  1.0000
  H   H938      1.0  0.26216  0.73605  0.34394  1.0000
  C   C530      1.0  0.16249  0.65836  0.24145  1.0000
  H   H939      1.0  0.04174  0.62787  0.35301  1.0000
  N   N30       1.0  0.06890  0.60203  0.36380  1.0000
  H   H940      1.0  0.05905  0.55604  0.35680  1.0000
  H   H941      1.0  0.28327  0.89618  0.32974  1.0000
  H   H942      1.0  0.08340  0.77881  0.24600  1.0000
  C   C531      1.0  0.23101  0.67596  0.25754  1.0000
  H   H943      1.0  0.11138  0.57847  0.37882  1.0000
  H   H944      1.0  0.31056  0.75325  0.24887  1.0000
  H   H945      1.0  0.32950  0.96802  0.35778  1.0000
  H   H946      1.0  0.08087  0.50371  0.40387  1.0000
  H   H947      1.0  0.30869  0.93105  0.27492  1.0000
  H   H948      1.0  0.23397  0.50260  0.46140  1.0000
  C   C532      1.0  0.01908  0.72499  0.24098  1.0000
  H   H949      1.0  0.25684  0.75632  0.24075  1.0000
  Fe  Fe56      1.0  0.31985  0.84764  0.26979  1.0000
  H   H950      1.0  0.06387  0.64646  0.39779  1.0000
  C   C533      1.0  0.27327  0.83689  0.24187  1.0000
  H   H951      1.0  0.32542  0.83439  0.33559  1.0000
  C   C534      1.0  0.01721  0.54534  0.41540  1.0000
  C   C535      1.0  0.28229  0.78284  0.25656  1.0000
  H   H952      1.0  0.09007  0.76210  0.26318  1.0000
  C   C536      1.0  0.06766  0.61007  0.39066  1.0000
  H   H953      1.0  0.04671  0.51521  0.43973  1.0000
  H   H954      1.0  0.09114  0.55644  0.37756  1.0000
  H   H955      1.0  0.30888  0.92757  0.31737  1.0000
  C   C537      1.0  0.25584  0.81699  0.24454  1.0000
  S   S111      1.0  0.16248  0.50750  0.42353  1.0000
  H   H956      1.0  0.02744  0.58298  0.46754  1.0000
  H   H957      1.0  0.27160  0.87631  0.24118  1.0000
  C   C538      1.0  0.09566  0.76344  0.25135  1.0000
  H   H958      1.0  0.22554  0.63732  0.22319  1.0000
  H   H959      1.0  0.05349  0.57533  0.38028  1.0000
  H   H960      1.0  0.01075  0.58015  0.44288  1.0000
  H   H961      1.0  0.07831  0.59180  0.39337  1.0000
  C   C539      1.0  0.30206  0.98986  0.28387  1.0000
  C   C540      1.0  0.21851  0.51656  0.45794  1.0000
  C   C541      1.0  0.24849  0.77483  0.24376  1.0000
  C   C542      1.0  0.06057  0.61759  0.35042  1.0000
  H   H962      1.0  0.05949  0.63680  0.37289  1.0000
  C   C543      1.0  0.19638  0.51744  0.46964  1.0000
  H   H963      1.0  0.29384  0.76895  0.22930  1.0000
  H   H964      1.0  0.02316  0.53762  0.45971  1.0000
  C   C544      1.0  0.28522  0.98720  0.29630  1.0000
  H   H965      1.0  0.29289  0.74902  0.28125  1.0000
  C   C545      1.0  0.33328  0.91992  0.37100  1.0000
  H   H966      1.0  0.33338  0.89201  0.34104  1.0000
  C   C546      1.0  0.33096  0.97464  0.32154  1.0000
  H   H967      1.0  0.18208  0.53204  0.46557  1.0000
  H   H968      1.0  0.26574  0.66298  0.23624  1.0000
  H   H969      1.0  0.14422  0.50424  0.46400  1.0000
  H   H970      1.0  0.03430  0.57901  0.35089  1.0000
  C   C547      1.0  0.26341  0.62004  0.22427  1.0000
  S   S112      1.0  0.32617  0.81373  0.28539  1.0000
  C   C548      1.0  0.00574  0.55790  0.42695  1.0000
  H   H971      1.0  0.26870  0.58109  0.23211  1.0000
  C   C549      1.0  0.02345  0.55311  0.36862  1.0000
  C   C550      1.0  0.32285  0.92317  0.32510  1.0000
  H   H972      1.0  0.31980  0.76256  0.27282  1.0000
  Fe  Fe57      1.0  0.33356  0.83855  0.30075  1.0000
  H   H973      1.0  0.31584  0.93476  0.33392  1.0000
  S   S113      1.0  0.33092  0.87184  0.28429  1.0000
  H   H974      1.0  0.06758  0.72426  0.22305  1.0000
  H   H975      1.0  0.05725  0.61175  0.46915  1.0000
  H   H976      1.0  0.11253  0.70411  0.22886  1.0000
  H   H977      1.0  0.00363  0.73402  0.29698  1.0000
  H   H978      1.0  0.32829  0.88314  0.32401  1.0000
  H   H979      1.0  0.33233  0.95796  0.30203  1.0000
  C   C551      1.0  0.32197  0.89637  0.33202  1.0000
  H   H980      1.0  0.31058  0.97557  0.32236  1.0000
  C   C552      1.0  0.09915  0.69534  0.22440  1.0000
  H   H981      1.0  0.00296  0.61495  0.27242  1.0000
  H   H982      1.0  0.06043  0.69392  0.22533  1.0000
  H   H983      1.0  0.02791  0.49683  0.45270  1.0000
  H   H984      1.0  0.01248  0.68523  0.61201  1.0000
  Fe  Fe58      1.0  0.11403  0.71248  0.66643  1.0000
  S   S114      1.0  0.13140  0.67429  0.66209  1.0000
  S   S115      1.0  0.07413  0.72961  0.66409  1.0000
  Fe  Fe59      1.0  0.16456  0.72881  0.66851  1.0000
  S   S116      1.0  0.18526  0.69191  0.66387  1.0000
  S   S117      1.0  0.18049  0.75987  0.67621  1.0000
  Fe  Fe60      1.0  0.15978  0.69282  0.64707  1.0000
  S   S118      1.0  0.17227  0.68476  0.62395  1.0000
  Fe  Fe61      1.0  0.15531  0.67628  0.67937  1.0000
  S   S119      1.0  0.16757  0.64308  0.69506  1.0000
  S   S120      1.0  0.14138  0.73114  0.65044  1.0000
  S   S121      1.0  0.13561  0.71303  0.68492  1.0000
  Fe  Fe62      1.0  0.28910  0.84775  0.65899  1.0000
  S   S122      1.0  0.26777  0.82212  0.65000  1.0000
  Fe  Fe63      1.0  0.29776  0.90160  0.66118  1.0000
  C   C553      1.0  0.01267  0.63099  0.64814  1.0000
  S   S123      1.0  0.30404  0.87771  0.64316  1.0000
  S   S124      1.0  0.27903  0.87303  0.67634  1.0000
  Fe  Fe64      1.0  0.09060  0.56324  0.56509  1.0000
  S   S125      1.0  0.08855  0.60405  0.56247  1.0000
  S   S126      1.0  0.05550  0.54728  0.57093  1.0000
  Fe  Fe65      1.0  0.14602  0.55484  0.55835  1.0000
  S   S127      1.0  0.14863  0.59535  0.55494  1.0000
  Fe  Fe66      1.0  0.12114  0.59754  0.57498  1.0000
  S   S128      1.0  0.11847  0.61268  0.59648  1.0000
  Fe  Fe67      1.0  0.11579  0.59788  0.54275  1.0000
  S   S129      1.0  0.10596  0.61870  0.52152  1.0000
  S   S130      1.0  0.12092  0.55666  0.57899  1.0000
  S   S131      1.0  0.11559  0.55728  0.54474  1.0000
  C   C554      1.0  0.15827  0.66407  0.61620  1.0000
  C   C555      1.0  0.15849  0.66624  0.60116  1.0000
  C   C556      1.0  0.14685  0.65036  0.59479  1.0000
  C   C557      1.0  0.13547  0.63181  0.60343  1.0000
  C   C558      1.0  0.13610  0.62913  0.61838  1.0000
  C   C559      1.0  0.14720  0.64528  0.62477  1.0000
  H   H985      1.0  0.16711  0.68070  0.59446  1.0000
  H   H986      1.0  0.14613  0.65293  0.58328  1.0000
  H   H987      1.0  0.12758  0.61470  0.62513  1.0000
  H   H988      1.0  0.14730  0.64316  0.63632  1.0000
  C   C560      1.0  0.20622  0.77547  0.66927  1.0000
  C   C561      1.0  0.22065  0.77101  0.65623  1.0000
  C   C562      1.0  0.23960  0.78522  0.65065  1.0000
  C   C563      1.0  0.24485  0.80362  0.65818  1.0000
  C   C564      1.0  0.23105  0.80742  0.67150  1.0000
  C   C565      1.0  0.21176  0.79354  0.67694  1.0000
  H   H989      1.0  0.21686  0.75703  0.65025  1.0000
  H   H990      1.0  0.25015  0.78207  0.64036  1.0000
  H   H991      1.0  0.23477  0.82155  0.67739  1.0000
  H   H992      1.0  0.20080  0.79716  0.68705  1.0000
  H   H993      1.0  0.00847  0.51205  0.55111  1.0000
  H   H994      1.0  0.23075  0.60023  0.62250  1.0000
  H   H995      1.0  0.06654  0.81633  0.64099  1.0000
  C   C566      1.0  0.21948  0.58364  0.59787  1.0000
  H   H996      1.0  0.30691  0.81821  0.56282  1.0000
  C   C567      1.0  0.21839  0.61391  0.61608  1.0000
  H   H997      1.0  0.09584  0.60733  0.65836  1.0000
  H   H998      1.0  0.01611  0.64302  0.54181  1.0000
  C   C568      1.0  0.30200  0.96449  0.67526  1.0000
  C   C569      1.0  0.29024  0.96780  0.66280  1.0000
  H   H999      1.0  0.01382  0.57053  0.58908  1.0000
  C   C570      1.0  0.17639  0.55136  0.60532  1.0000
  C   C571      1.0  0.15994  0.59001  0.49207  1.0000
  H   H1000     1.0  0.04207  0.67689  0.53486  1.0000
  H   H1001     1.0  0.04035  0.62527  0.55130  1.0000
  C   C572      1.0  0.01075  0.66546  0.59391  1.0000
  C   C573      1.0  0.31902  0.83274  0.56016  1.0000
  H   H1002     1.0  0.25810  0.55781  0.58245  1.0000
  H   H1003     1.0  0.28255  0.75040  0.69207  1.0000
  C   C574      1.0  0.03534  0.56136  0.55860  1.0000
  C   C575      1.0  0.04363  0.57682  0.54655  1.0000
  C   C576      1.0  0.02705  0.58922  0.53714  1.0000
  C   C577      1.0  0.19767  0.63143  0.55794  1.0000
  H   H1004     1.0  0.28933  0.86940  0.57383  1.0000
  H   H1005     1.0  0.06276  0.57955  0.54451  1.0000
  H   H1006     1.0  0.03347  0.60155  0.52798  1.0000
  C   C578      1.0  0.30524  0.98505  0.68172  1.0000
  C   C579      1.0  0.02603  0.68146  0.68084  1.0000
  C   C580      1.0  0.04741  0.69299  0.67783  1.0000
  C   C581      1.0  0.04790  0.71408  0.66790  1.0000
  C   C582      1.0  0.02680  0.72351  0.66101  1.0000
  H   H1007     1.0  0.29853  0.90686  0.60984  1.0000
  C   C583      1.0  0.31509  0.88488  0.59194  1.0000
  H   H1008     1.0  0.06332  0.68585  0.68341  1.0000
  H   H1009     1.0  0.02693  0.73994  0.65339  1.0000
  N   N31       1.0  0.05844  0.63805  0.64213  1.0000
  C   C584      1.0  0.07408  0.65603  0.63336  1.0000
  C   C585      1.0  0.06575  0.61345  0.63644  1.0000
  C   C586      1.0  0.03169  0.64799  0.64087  1.0000
  C   C587      1.0  0.06234  0.63478  0.65780  1.0000
  C   C588      1.0  0.07254  0.68116  0.63912  1.0000
  H   H1010     1.0  0.31075  0.84767  0.55241  1.0000
  C   C589      1.0  0.05962  0.61214  0.62105  1.0000
  C   C590      1.0  0.06882  0.58653  0.61644  1.0000
  C   C591      1.0  0.08942  0.69744  0.62938  1.0000
  H   H1011     1.0  0.06918  0.66015  0.62216  1.0000
  H   H1012     1.0  0.09376  0.64783  0.63216  1.0000
  H   H1013     1.0  0.08604  0.60780  0.63612  1.0000
  H   H1014     1.0  0.05754  0.59875  0.64389  1.0000
  H   H1015     1.0  0.02875  0.65302  0.62937  1.0000
  H   H1016     1.0  0.14897  0.57393  0.61869  1.0000
  H   H1017     1.0  0.05510  0.65197  0.66269  1.0000
  H   H1018     1.0  0.10209  0.63849  0.65480  1.0000
  H   H1019     1.0  0.05348  0.69121  0.63960  1.0000
  H   H1020     1.0  0.07850  0.67878  0.65002  1.0000
  H   H1021     1.0  0.10136  0.78478  0.70685  1.0000
  H   H1022     1.0  0.05137  0.62083  0.66401  1.0000
  H   H1023     1.0  0.03944  0.61601  0.62050  1.0000
  H   H1024     1.0  0.08484  0.53097  0.53189  1.0000
  H   H1025     1.0  0.05787  0.57278  0.62283  1.0000
  H   H1026     1.0  0.06713  0.58673  0.60484  1.0000
  H   H1027     1.0  0.08862  0.58081  0.61786  1.0000
  H   H1028     1.0  0.10902  0.68880  0.62921  1.0000
  H   H1029     1.0  0.08443  0.70068  0.61821  1.0000
  H   H1030     1.0  0.08759  0.71548  0.63356  1.0000
  H   H1031     1.0  0.17907  0.58171  0.49180  1.0000
  H   H1032     1.0  0.18663  0.65000  0.55819  1.0000
  H   H1033     1.0  0.01124  0.60608  0.49597  1.0000
  C   C592      1.0  0.32284  0.84295  0.57378  1.0000
  H   H1034     1.0  0.13536  0.73988  0.71109  1.0000
  H   H1035     1.0  0.03081  0.56970  0.48572  1.0000
  H   H1036     1.0  0.05175  0.51352  0.54997  1.0000
  C   C593      1.0  0.31071  0.84544  0.60635  1.0000
  C   C594      1.0  0.12411  0.60546  0.47971  1.0000
  C   C595      1.0  0.17121  0.64482  0.71324  1.0000
  H   H1037     1.0  0.27276  0.99480  0.64730  1.0000
  H   H1038     1.0  0.06026  0.59844  0.48758  1.0000
  H   H1039     1.0  0.17359  0.71132  0.70665  1.0000
  H   H1040     1.0  0.22847  0.56824  0.60510  1.0000
  H   H1041     1.0  0.25485  0.77092  0.69720  1.0000
  H   H1042     1.0  0.26425  0.71450  0.70469  1.0000
  C   C596      1.0  0.05614  0.59490  0.47694  1.0000
  H   H1043     1.0  0.09311  0.51600  0.51575  1.0000
  H   H1044     1.0  0.09230  0.62205  0.49290  1.0000
  H   H1045     1.0  0.11486  0.50381  0.49435  1.0000
  H   H1046     1.0  0.24758  0.86825  0.58804  1.0000
  H   H1047     1.0  0.06867  0.62556  0.61312  1.0000
  H   H1048     1.0  0.18192  0.52181  0.51744  1.0000
  H   H1049     1.0  0.29473  0.81363  0.60183  1.0000
  C   C597      1.0  0.11105  0.61271  0.49274  1.0000
  C   C598      1.0  0.25549  0.73303  0.70736  1.0000
  C   C599      1.0  0.28542  0.98697  0.61536  1.0000
  H   H1050     1.0  0.06379  0.78755  0.62378  1.0000
  C   C600      1.0  0.20292  0.60105  0.60810  1.0000
  H   H1051     1.0  0.09476  0.76335  0.67957  1.0000
  H   H1052     1.0  0.32600  0.80043  0.69765  1.0000
  H   H1053     1.0  0.09442  0.75455  0.70542  1.0000
  H   H1054     1.0  0.32320  0.97036  0.63097  1.0000
  H   H1055     1.0  0.07951  0.61399  0.68381  1.0000
  H   H1056     1.0  0.21221  0.86481  0.60680  1.0000
  H   H1057     1.0  0.01768  0.60802  0.57024  1.0000
  N   N32       1.0  0.29907  0.86467  0.59549  1.0000
  C   C601      1.0  0.19450  0.61686  0.57290  1.0000
  H   H1058     1.0  0.15562  0.59352  0.51484  1.0000
  H   H1059     1.0  0.32052  0.93443  0.59088  1.0000
  N   N33       1.0  0.10475  0.80651  0.66136  1.0000
  C   C602      1.0  0.09735  0.83343  0.65640  1.0000
  C   C603      1.0  0.08970  0.79081  0.65518  1.0000
  C   C604      1.0  0.09900  0.80293  0.67758  1.0000
  C   C605      1.0  0.13199  0.79838  0.65761  1.0000
  C   C606      1.0  0.14202  0.80209  0.64144  1.0000
  C   C607      1.0  0.11110  0.85177  0.66205  1.0000
  C   C608      1.0  0.10321  0.77596  0.68487  1.0000
  H   H1060     1.0  0.19042  0.55017  0.61281  1.0000
  N   N34       1.0  0.04931  0.49848  0.53021  1.0000
  C   C609      1.0  0.17003  0.79521  0.63916  1.0000
  C   C610      1.0  0.10317  0.87812  0.65545  1.0000
  H   H1061     1.0  0.07229  0.78833  0.66243  1.0000
  H   H1062     1.0  0.07719  0.83872  0.65958  1.0000
  H   H1063     1.0  0.10002  0.83716  0.64449  1.0000
  H   H1064     1.0  0.22959  0.62593  0.60834  1.0000
  H   H1065     1.0  0.31374  0.98218  0.69157  1.0000
  H   H1066     1.0  0.07943  0.81080  0.68078  1.0000
  H   H1067     1.0  0.11059  0.81296  0.68274  1.0000
  H   H1068     1.0  0.14307  0.80732  0.66378  1.0000
  H   H1069     1.0  0.13671  0.77845  0.66114  1.0000
  H   H1070     1.0  0.13767  0.82146  0.63671  1.0000
  H   H1071     1.0  0.13428  0.78989  0.63544  1.0000
  H   H1072     1.0  0.10692  0.85149  0.67391  1.0000
  H   H1073     1.0  0.13136  0.84749  0.65923  1.0000
  H   H1074     1.0  0.12328  0.76917  0.68453  1.0000
  H   H1075     1.0  0.16913  0.53675  0.49275  1.0000
  H   H1076     1.0  0.29645  0.78953  0.70094  1.0000
  H   H1077     1.0  0.09640  0.80563  0.63208  1.0000
  C   C611      1.0  0.01069  0.55760  0.56095  1.0000
  C   C612      1.0  0.32917  0.98317  0.62137  1.0000
  H   H1078     1.0  0.29122  0.97539  0.60642  1.0000
  H   H1079     1.0  0.17909  0.80670  0.64498  1.0000
  H   H1080     1.0  0.17530  0.77550  0.64306  1.0000
  H   H1081     1.0  0.17683  0.79816  0.62751  1.0000
  H   H1082     1.0  0.11303  0.89090  0.65979  1.0000
  H   H1083     1.0  0.10782  0.87990  0.64355  1.0000
  H   H1084     1.0  0.08300  0.88363  0.65817  1.0000
  H   H1085     1.0  0.02576  0.66527  0.68866  1.0000
  C   C613      1.0  0.02153  0.65710  0.56185  1.0000
  H   H1086     1.0  0.24855  0.65922  0.69164  1.0000
  H   H1087     1.0  0.28566  0.84016  0.58325  1.0000
  H   H1088     1.0  0.33284  0.88527  0.51013  1.0000
  C   C614      1.0  0.14668  0.59664  0.50513  1.0000
  C   C615      1.0  0.33042  0.92171  0.59903  1.0000
  H   H1089     1.0  0.32752  0.88802  0.61267  1.0000
  C   C616      1.0  0.07964  0.52989  0.52111  1.0000
  H   H1090     1.0  0.11094  0.61992  0.67907  1.0000
  C   C617      1.0  0.03060  0.58705  0.47826  1.0000
  H   H1091     1.0  0.08627  0.64526  0.68014  1.0000
  C   C618      1.0  0.00218  0.58621  0.53982  1.0000
  C   C619      1.0  0.09153  0.62638  0.67700  1.0000
  C   C620      1.0  0.17378  0.72651  0.71309  1.0000
  H   H1092     1.0  0.31884  0.77986  0.68626  1.0000
  H   H1093     1.0  0.03047  0.62165  0.58269  1.0000
  H   H1094     1.0  0.20124  0.58164  0.56452  1.0000
  H   H1095     1.0  0.06663  0.65783  0.54383  1.0000
  H   H1096     1.0  0.13616  0.55752  0.60697  1.0000
  C   C621      1.0  0.26017  0.52107  0.57695  1.0000
  H   H1097     1.0  0.23493  0.59331  0.59226  1.0000
  C   C622      1.0  0.05307  0.52366  0.52272  1.0000
  H   H1098     1.0  0.31164  0.85335  0.61641  1.0000
  H   H1099     1.0  0.21004  0.54035  0.57709  1.0000
  C   C623      1.0  0.03116  0.64410  0.54821  1.0000
  C   C624      1.0  0.08167  0.55492  0.51229  1.0000
  H   H1100     1.0  0.24785  0.55566  0.56537  1.0000
  N   N35       1.0  0.20696  0.57393  0.58699  1.0000
  H   H1101     1.0  0.05632  0.64817  0.52855  1.0000
  C   C625      1.0  0.09205  0.77411  0.70067  1.0000
  H   H1102     1.0  0.04644  0.52669  0.51195  1.0000
  H   H1103     1.0  0.04161  0.53810  0.52881  1.0000
  C   C626      1.0  0.11623  0.50542  0.48245  1.0000
  C   C627      1.0  0.29780  0.82244  0.61113  1.0000
  H   H1104     1.0  0.06997  0.56986  0.51783  1.0000
  H   H1105     1.0  0.02635  0.66543  0.64587  1.0000
  S   S132      1.0  0.32649  0.83185  0.66577  1.0000
  H   H1106     1.0  0.14368  0.67651  0.71586  1.0000
  H   H1107     1.0  0.31911  0.74634  0.70570  1.0000
  H   H1108     1.0  0.08726  0.50286  0.56604  1.0000
  H   H1109     1.0  0.20216  0.62692  0.58017  1.0000
  H   H1110     1.0  0.17810  0.53306  0.60142  1.0000
  C   C628      1.0  0.12229  0.60832  0.50548  1.0000
  Fe  Fe68      1.0  0.31732  0.85844  0.68247  1.0000
  H   H1111     1.0  0.20599  0.62568  0.62352  1.0000
  H   H1112     1.0  0.07594  0.55545  0.50146  1.0000
  H   H1113     1.0  0.01517  0.67681  0.55835  1.0000
  S   S133      1.0  0.18040  0.52711  0.55690  1.0000
  S   S134      1.0  0.31860  0.84973  0.70676  1.0000
  C   C629      1.0  0.25133  0.86369  0.59944  1.0000
  C   C630      1.0  0.00554  0.71176  0.66385  1.0000
  C   C631      1.0  0.09800  0.52747  0.47726  1.0000
  H   H1114     1.0  0.16952  0.58890  0.59488  1.0000
  H   H1115     1.0  0.27506  0.97697  0.71683  1.0000
  H   H1116     1.0  0.27924  0.52076  0.57132  1.0000
  H   H1117     1.0  0.09992  0.77189  0.65468  1.0000
  C   C632      1.0  0.22709  0.73440  0.71103  1.0000
  C   C633      1.0  0.22027  0.54873  0.58408  1.0000
  H   H1118     1.0  0.19045  0.61548  0.60237  1.0000
  H   H1119     1.0  0.17924  0.74276  0.70598  1.0000
  C   C634      1.0  0.15810  0.52472  0.50045  1.0000
  C   C635      1.0  0.08936  0.62634  0.66104  1.0000
  C   C636      1.0  0.20829  0.59032  0.57281  1.0000
  H   H1120     1.0  0.22776  0.59245  0.56869  1.0000
  H   H1121     1.0  0.31611  0.90543  0.49699  1.0000
  H   H1122     1.0  0.31695  0.96498  0.50822  1.0000
  C   C637      1.0  0.24734  0.54763  0.57684  1.0000
  C   C638      1.0  0.16480  0.49732  0.49776  1.0000
  C   C639      1.0  0.18036  0.57119  0.59221  1.0000
  H   H1123     1.0  0.15756  0.54754  0.51749  1.0000
  H   H1124     1.0  0.25455  0.84343  0.60179  1.0000
  H   H1125     1.0  0.19126  0.62211  0.54978  1.0000
  C   C640      1.0  0.31330  0.80318  0.62063  1.0000
  H   H1126     1.0  0.10106  0.55861  0.51101  1.0000
  H   H1127     1.0  0.23150  0.67239  0.67689  1.0000
  H   H1128     1.0  0.07925  0.52597  0.48292  1.0000
  C   C641      1.0  0.31691  0.89970  0.60447  1.0000
  C   C642      1.0  0.22805  0.87312  0.60903  1.0000
  H   H1129     1.0  0.03803  0.65705  0.56739  1.0000
  C   C643      1.0  0.00878  0.58346  0.59733  1.0000
  C   C644      1.0  0.16230  0.52792  0.51570  1.0000
  C   C645      1.0  0.15095  0.55641  0.61394  1.0000
  C   C646      1.0  0.08116  0.80013  0.64014  1.0000
  H   H1130     1.0  0.08446  0.76391  0.63291  1.0000
  C   C647      1.0  0.29787  0.85454  0.58158  1.0000
  H   H1131     1.0  0.21734  0.63364  0.55462  1.0000
  H   H1132     1.0  0.01512  0.62523  0.47959  1.0000
  S   S135      1.0  0.28459  0.94249  0.65459  1.0000
  C   C648      1.0  0.28236  0.99195  0.65673  1.0000
  C   C649      1.0  0.05017  0.65770  0.53832  1.0000
  H   H1133     1.0  0.27320  0.87635  0.61360  1.0000
  H   H1134     1.0  0.31729  0.81117  0.63008  1.0000
  H   H1135     1.0  0.22048  0.75098  0.71675  1.0000
  H   H1136     1.0  0.22364  0.89345  0.60691  1.0000
  H   H1137     1.0  0.30295  0.78756  0.62468  1.0000
  C   C650      1.0  0.22425  0.69360  0.69513  1.0000
  H   H1138     1.0  0.15034  0.51723  0.52378  1.0000
  H   H1139     1.0  0.23058  0.86790  0.62059  1.0000
  H   H1140     1.0  0.30806  0.94608  0.68011  1.0000
  C   C651      1.0  0.23044  0.66910  0.68881  1.0000
  C   C652      1.0  0.26221  0.75196  0.69463  1.0000
  H   H1141     1.0  0.27990  0.82757  0.61770  1.0000
  H   H1142     1.0  0.21874  0.73870  0.70077  1.0000
  H   H1143     1.0  0.05437  0.77463  0.64194  1.0000
  C   C653      1.0  0.01269  0.62082  0.57863  1.0000
  H   H1144     1.0  0.17449  0.61684  0.57618  1.0000
  H   H1145     1.0  0.28034  0.97498  0.62541  1.0000
  C   C654      1.0  0.01006  0.60700  0.48418  1.0000
  H   H1146     1.0  0.23876  0.70475  0.69007  1.0000
  H   H1147     1.0  0.20650  0.70313  0.69171  1.0000
  C   C655      1.0  0.14729  0.73396  0.71980  1.0000
  H   H1148     1.0  0.33123  0.93180  0.60825  1.0000
  H   H1149     1.0  0.17135  0.56627  0.58337  1.0000
  H   H1150     1.0  0.02569  0.58604  0.60163  1.0000
  H   H1151     1.0  0.02699  0.67328  0.58792  1.0000
  H   H1152     1.0  0.25001  0.51035  0.57127  1.0000
  H   H1153     1.0  0.07196  0.78101  0.70162  1.0000
  H   H1154     1.0  0.01730  0.61225  0.64483  1.0000
  H   H1155     1.0  0.01175  0.62958  0.66006  1.0000
  H   H1156     1.0  0.26124  0.51219  0.58817  1.0000
  H   H1157     1.0  0.10351  0.54490  0.47941  1.0000
  H   H1158     1.0  0.25457  0.74878  0.68487  1.0000
  C   C656      1.0  0.27366  0.87583  0.60178  1.0000
  C   C657      1.0  0.17764  0.49843  0.55172  1.0000
  H   H1159     1.0  0.19114  0.59049  0.61635  1.0000
  C   C658      1.0  0.07028  0.78031  0.63437  1.0000
  H   H1160     1.0  0.01738  0.64753  0.59988  1.0000
  H   H1161     1.0  0.14860  0.54132  0.62282  1.0000
  H   H1162     1.0  0.13838  0.53153  0.49943  1.0000
  H   H1163     1.0  0.26936  0.89540  0.59712  1.0000
  H   H1164     1.0  0.30850  0.89819  0.58282  1.0000
  H   H1165     1.0  0.19899  0.61277  0.71431  1.0000
  C   C659      1.0  0.14298  0.50777  0.47546  1.0000
  C   C660      1.0  0.22341  0.68945  0.71181  1.0000
  C   C661      1.0  0.31647  0.78438  0.69752  1.0000
  H   H1166     1.0  0.13786  0.50313  0.55436  1.0000
  C   C662      1.0  0.00375  0.51330  0.53998  1.0000
  H   H1167     1.0  0.00448  0.54502  0.57002  1.0000
  H   H1168     1.0  0.22072  0.53603  0.59427  1.0000
  H   H1169     1.0  0.21603  0.65726  0.69290  1.0000
  C   C663      1.0  0.14879  0.59446  0.47930  1.0000
  N   N36       1.0  0.00173  0.64589  0.57210  1.0000
  H   H1170     1.0  0.00324  0.53256  0.53490  1.0000
  C   C664      1.0  0.00504  0.69069  0.67384  1.0000
  C   C665      1.0  0.32754  0.76236  0.70735  1.0000
  H   H1171     1.0  0.33010  0.83934  0.60226  1.0000
  C   C666      1.0  0.33059  0.97777  0.50777  1.0000
  H   H1172     1.0  0.14549  0.52736  0.47479  1.0000
  H   H1173     1.0  0.24149  0.67841  0.71398  1.0000
  H   H1174     1.0  0.20960  0.67680  0.71596  1.0000
  H   H1175     1.0  0.26358  0.73692  0.71680  1.0000
  H   H1176     1.0  0.33198  0.82747  0.58081  1.0000
  H   H1177     1.0  0.01640  0.49962  0.51982  1.0000
  C   C667      1.0  0.15702  0.66295  0.72103  1.0000
  C   C668      1.0  0.18807  0.62698  0.72022  1.0000
  H   H1178     1.0  0.33095  0.79610  0.61439  1.0000
  H   H1179     1.0  0.33091  0.98432  0.48495  1.0000
  H   H1180     1.0  0.20252  0.52274  0.47932  1.0000
  N   N37       1.0  0.21830  0.71195  0.71984  1.0000
  H   H1181     1.0  0.07038  0.58015  0.47286  1.0000
  H   H1182     1.0  0.04020  0.51710  0.47248  1.0000
  Fe  Fe69      1.0  0.23709  0.56912  0.77827  1.0000
  S   S136      1.0  0.19791  0.58394  0.78567  1.0000
  S   S137      1.0  0.24928  0.53278  0.76856  1.0000
  Fe  Fe70      1.0  0.25659  0.61553  0.78484  1.0000
  S   S138      1.0  0.21843  0.63291  0.79328  1.0000
  Fe  Fe71      1.0  0.21319  0.59501  0.80437  1.0000
  S   S139      1.0  0.19361  0.58023  0.82593  1.0000
  Fe  Fe72      1.0  0.20626  0.62028  0.77394  1.0000
  S   S140      1.0  0.17939  0.64686  0.76095  1.0000
  S   S141      1.0  0.25224  0.57837  0.79742  1.0000
  S   S142      1.0  0.24442  0.60487  0.76500  1.0000
  Fe  Fe73      1.0  0.10848  0.58002  0.92659  1.0000
  S   S143      1.0  0.13186  0.60957  0.92690  1.0000
  S   S144      1.0  0.06777  0.58207  0.93417  1.0000
  Fe  Fe74      1.0  0.15237  0.54247  0.91845  1.0000
  S   S145      1.0  0.17948  0.56840  0.91803  1.0000
  C   C669      1.0  0.01597  0.60302  0.89938  1.0000
  Fe  Fe75      1.0  0.15697  0.57964  0.93846  1.0000
  S   S146      1.0  0.17670  0.57819  0.95805  1.0000
  Fe  Fe76      1.0  0.15242  0.59576  0.90636  1.0000
  S   S147      1.0  0.16622  0.62090  0.88679  1.0000
  S   S148      1.0  0.13203  0.55126  0.93969  1.0000
  S   S149      1.0  0.12671  0.56873  0.90522  1.0000
  C   C670      1.0  0.15844  0.49678  0.84616  1.0000
  C   C671      1.0  0.24095  0.50367  0.77618  1.0000
  H   H1183     1.0  0.07253  0.62284  0.83632  1.0000
  H   H1184     1.0  0.07381  0.66170  0.85649  1.0000
  H   H1185     1.0  0.29730  0.73319  0.73734  1.0000
  H   H1186     1.0  0.13567  0.61781  0.96317  1.0000
  C   C672      1.0  0.18824  0.59153  0.84290  1.0000
  C   C673      1.0  0.17618  0.57760  0.85448  1.0000
  C   C674      1.0  0.17031  0.58597  0.86810  1.0000
  C   C675      1.0  0.17594  0.60876  0.87021  1.0000
  C   C676      1.0  0.18810  0.62278  0.85864  1.0000
  C   C677      1.0  0.19444  0.61411  0.84503  1.0000
  H   H1187     1.0  0.17101  0.56040  0.85284  1.0000
  H   H1188     1.0  0.16090  0.57505  0.87689  1.0000
  H   H1189     1.0  0.19249  0.64048  0.86019  1.0000
  H   H1190     1.0  0.20368  0.62505  0.83617  1.0000
  H   H1191     1.0  0.21580  0.52191  0.74503  1.0000
  H   H1192     1.0  0.29339  0.59350  0.73950  1.0000
  C   C678      1.0  0.23148  0.70631  0.73319  1.0000
  H   H1193     1.0  0.22014  0.66949  0.73950  1.0000
  H   H1194     1.0  0.32259  0.93269  0.96640  1.0000
  H   H1195     1.0  0.27037  0.67111  0.79744  1.0000
  H   H1196     1.0  0.30544  0.79879  0.84673  1.0000
  H   H1197     1.0  0.27834  0.50047  0.81444  1.0000
  C   C679      1.0  0.01076  0.50280  0.91888  1.0000
  H   H1198     1.0  0.27882  0.70305  0.85021  1.0000
  C   C680      1.0  0.04823  0.59006  0.92061  1.0000
  C   C681      1.0  0.05721  0.59870  0.90656  1.0000
  H   H1199     1.0  0.11509  0.66323  0.84839  1.0000
  H   H1200     1.0  0.33062  0.81031  0.82550  1.0000
  H   H1201     1.0  0.31100  0.76214  0.77719  1.0000
  H   H1202     1.0  0.07652  0.60055  0.90394  1.0000
  C   C682      1.0  0.09375  0.50866  0.89053  1.0000
  H   H1203     1.0  0.23147  0.66387  0.76441  1.0000
  H   H1204     1.0  0.11579  0.63903  0.89953  1.0000
  H   H1205     1.0  0.14301  0.61751  0.83485  1.0000
  H   H1206     1.0  0.01751  0.53825  0.86424  1.0000
  H   H1207     1.0  0.27902  0.76015  0.84531  1.0000
  C   C683      1.0  0.04154  0.65095  0.83910  1.0000
  C   C684      1.0  0.31061  0.77902  0.82415  1.0000
  C   C685      1.0  0.06900  0.64157  0.83967  1.0000
  C   C686      1.0  0.23983  0.67709  0.75596  1.0000
  H   H1208     1.0  0.32278  0.83960  0.73690  1.0000
  C   C687      1.0  0.30352  0.76759  0.75478  1.0000
  H   H1209     1.0  0.02827  0.67102  0.94292  1.0000
  C   C688      1.0  0.12139  0.64303  0.84927  1.0000
  H   H1210     1.0  0.15617  0.64761  0.81521  1.0000
  H   H1211     1.0  0.20665  0.49768  0.85282  1.0000
  C   C689      1.0  0.31851  0.79002  0.87455  1.0000
  H   H1212     1.0  0.07871  0.54919  0.86421  1.0000
  H   H1213     1.0  0.01720  0.55116  0.89492  1.0000
  H   H1214     1.0  0.20411  0.69275  0.75041  1.0000
  H   H1215     1.0  0.02843  0.61527  0.95000  1.0000
  C   C690      1.0  0.30396  0.68634  0.74748  1.0000
  H   H1216     1.0  0.18219  0.50649  0.82603  1.0000
  H   H1217     1.0  0.04773  0.61218  0.88517  1.0000
  H   H1218     1.0  0.20402  0.61361  0.74002  1.0000
  H   H1219     1.0  0.09250  0.56108  0.84680  1.0000
  S   S150      1.0  0.29386  0.63043  0.78077  1.0000
  H   H1220     1.0  0.12468  0.59419  0.85736  1.0000
  C   C691      1.0  0.29876  0.69395  0.79736  1.0000
  H   H1221     1.0  0.29110  0.75335  0.75665  1.0000
  H   H1222     1.0  0.13669  0.67253  0.82344  1.0000
  H   H1223     1.0  0.29893  0.58593  0.76532  1.0000
  H   H1224     1.0  0.08748  0.62192  0.88035  1.0000
  H   H1225     1.0  0.31083  0.71657  0.83087  1.0000
  H   H1226     1.0  0.30534  0.57734  0.78939  1.0000
  C   C692      1.0  0.27361  0.71383  0.84000  1.0000
  C   C693      1.0  0.01530  0.51262  0.89205  1.0000
  H   H1227     1.0  0.11895  0.50859  0.93152  1.0000
  C   C694      1.0  0.08729  0.58621  0.86323  1.0000
  H   H1228     1.0  0.11133  0.55127  0.86139  1.0000
  C   C695      1.0  0.14779  0.65418  0.82566  1.0000
  H   H1229     1.0  0.30915  0.80907  0.87193  1.0000
  H   H1230     1.0  0.01134  0.59040  0.96670  1.0000
  H   H1231     1.0  0.32013  0.92923  0.93437  1.0000
  C   C696      1.0  0.20074  0.51409  0.74141  1.0000
  C   C697      1.0  0.08255  0.60168  0.96862  1.0000
  C   C698      1.0  0.30368  0.77717  0.76919  1.0000
  C   C699      1.0  0.28088  0.50817  0.80293  1.0000
  C   C700      1.0  0.31085  0.58293  0.74294  1.0000
  C   C701      1.0  0.30247  0.52296  0.80019  1.0000
  H   H1232     1.0  0.21354  0.50660  0.88251  1.0000
  N   N38       1.0  0.32861  0.54731  0.77965  1.0000
  C   C702      1.0  0.10330  0.62940  0.87367  1.0000
  H   H1233     1.0  0.01169  0.64189  0.97064  1.0000
  H   H1234     1.0  0.18287  0.52280  0.74671  1.0000
  H   H1235     1.0  0.00807  0.54289  0.91748  1.0000
  C   C703      1.0  0.02298  0.53838  0.88670  1.0000
  C   C704      1.0  0.18103  0.50807  0.87154  1.0000
  H   H1236     1.0  0.25752  0.66740  0.75108  1.0000
  H   H1237     1.0  0.08733  0.60762  0.95697  1.0000
  C   C705      1.0  0.31729  0.72620  0.73501  1.0000
  C   C706      1.0  0.19111  0.71804  0.72487  1.0000
  N   N39       1.0  0.31716  0.76384  0.83802  1.0000
  C   C707      1.0  0.13151  0.63589  0.83397  1.0000
  C   C708      1.0  0.07611  0.64196  0.85490  1.0000
  C   C709      1.0  0.17644  0.64530  0.74264  1.0000
  C   C710      1.0  0.22224  0.68576  0.74460  1.0000
  H   H1238     1.0  0.10290  0.50604  0.90043  1.0000
  H   H1239     1.0  0.10320  0.67111  0.89842  1.0000
  C   C711      1.0  0.30450  0.65657  0.78562  1.0000
  H   H1240     1.0  0.05283  0.52229  0.90628  1.0000
  H   H1241     1.0  0.29134  0.78881  0.82577  1.0000
  H   H1242     1.0  0.28950  0.54519  0.78183  1.0000
  H   H1243     1.0  0.16047  0.54722  0.81953  1.0000
  H   H1244     1.0  0.01943  0.50215  0.88252  1.0000
  H   H1245     1.0  0.13837  0.52601  0.82332  1.0000
  H   H1246     1.0  0.03689  0.66999  0.84208  1.0000
  H   H1247     1.0  0.16295  0.65595  0.83185  1.0000
  C   C712      1.0  0.03741  0.65174  0.94498  1.0000
  C   C713      1.0  0.17075  0.51570  0.83492  1.0000
  H   H1248     1.0  0.16797  0.52274  0.86639  1.0000
  C   C714      1.0  0.15127  0.53492  0.82819  1.0000
  H   H1249     1.0  0.25561  0.72568  0.84220  1.0000
  C   C715      1.0  0.31402  0.92544  0.94608  1.0000
  C   C716      1.0  0.10415  0.65478  0.87867  1.0000
  H   H1250     1.0  0.00812  0.63581  0.93900  1.0000
  H   H1251     1.0  0.18395  0.70182  0.73126  1.0000
  H   H1252     1.0  0.28459  0.78455  0.77348  1.0000
  H   H1253     1.0  0.18814  0.73259  0.73225  1.0000
  H   H1254     1.0  0.31773  0.56866  0.73558  1.0000
  H   H1255     1.0  0.26357  0.52023  0.80044  1.0000
  C   C717      1.0  0.18820  0.51287  0.95202  1.0000
  H   H1256     1.0  0.10740  0.50198  0.88162  1.0000
  H   H1257     1.0  0.12003  0.61694  0.87689  1.0000
  C   C718      1.0  0.10129  0.65312  0.89511  1.0000
  C   C719      1.0  0.10591  0.60280  0.85487  1.0000
  C   C720      1.0  0.09290  0.56036  0.85859  1.0000
  C   C721      1.0  0.28932  0.67365  0.79378  1.0000
  C   C722      1.0  0.19090  0.62737  0.73480  1.0000
  H   H1258     1.0  0.31517  0.79220  0.76778  1.0000
  H   H1259     1.0  0.31360  0.80418  0.79671  1.0000
  H   H1260     1.0  0.12212  0.66120  0.87454  1.0000
  H   H1261     1.0  0.28686  0.70685  0.80378  1.0000
  H   H1262     1.0  0.08924  0.66899  0.87491  1.0000
  H   H1263     1.0  0.13803  0.64003  0.85508  1.0000
  H   H1264     1.0  0.11672  0.63491  0.82742  1.0000
  N   N40       1.0  0.10151  0.62931  0.85783  1.0000
  H   H1265     1.0  0.06812  0.59380  0.86116  1.0000
  H   H1266     1.0  0.29569  0.78339  0.74745  1.0000
  H   H1267     1.0  0.03005  0.63882  0.84658  1.0000
  C   C723      1.0  0.32339  0.69764  0.79274  1.0000
  H   H1268     1.0  0.08831  0.58428  0.87500  1.0000
  C   C724      1.0  0.29705  0.74812  0.84327  1.0000
  H   H1269     1.0  0.09023  0.56343  0.96623  1.0000
  C   C725      1.0  0.15939  0.66294  0.73570  1.0000
  H   H1270     1.0  0.17080  0.49893  0.88121  1.0000
  H   H1271     1.0  0.06171  0.63430  0.86290  1.0000
  C   C726      1.0  0.29356  0.72941  0.83315  1.0000
  H   H1272     1.0  0.07937  0.65401  0.83175  1.0000
  C   C727      1.0  0.22568  0.50068  0.78925  1.0000
  H   H1273     1.0  0.10606  0.60126  0.84328  1.0000
  H   H1274     1.0  0.04990  0.64696  0.93516  1.0000
  C   C728      1.0  0.32953  0.55502  0.76361  1.0000
  H   H1275     1.0  0.14793  0.67668  0.74174  1.0000
  H   H1276     1.0  0.31108  0.76707  0.81553  1.0000
  H   H1277     1.0  0.24316  0.69279  0.76120  1.0000
  H   H1278     1.0  0.06232  0.60142  0.97074  1.0000
  H   H1279     1.0  0.32723  0.95660  0.95174  1.0000
  H   H1280     1.0  0.28772  0.73888  0.82279  1.0000
  H   H1281     1.0  0.07812  0.51300  0.96217  1.0000
  C   C729      1.0  0.02318  0.58785  0.92401  1.0000
  H   H1282     1.0  0.29744  0.53826  0.80696  1.0000
  H   H1283     1.0  0.14076  0.54637  0.83640  1.0000
  H   H1284     1.0  0.31879  0.51056  0.80380  1.0000
  H   H1285     1.0  0.30014  0.73723  0.85378  1.0000
  H   H1286     1.0  0.21827  0.51650  0.79487  1.0000
  H   H1287     1.0  0.31012  0.66865  0.75389  1.0000
  H   H1288     1.0  0.29439  0.93369  0.94824  1.0000
  H   H1289     1.0  0.14477  0.50702  0.85383  1.0000
  C   C730      1.0  0.01826  0.63414  0.94852  1.0000
  H   H1290     1.0  0.03695  0.65107  0.82801  1.0000
  H   H1291     1.0  0.08286  0.64832  0.89980  1.0000
  C   C731      1.0  0.04101  0.60532  0.89600  1.0000
  H   H1292     1.0  0.01632  0.58107  0.93484  1.0000
  C   C732      1.0  0.31705  0.81514  0.80502  1.0000
  H   H1293     1.0  0.22991  0.72314  0.73869  1.0000
  H   H1294     1.0  0.28676  0.69524  0.75334  1.0000
  C   C733      1.0  0.30698  0.53328  0.78410  1.0000
  H   H1295     1.0  0.27144  0.70074  0.83251  1.0000
  H   H1296     1.0  0.32098  0.75395  0.86830  1.0000
  C   C734      1.0  0.32378  0.70309  0.74571  1.0000
  H   H1297     1.0  0.29951  0.82641  0.80890  1.0000
  H   H1298     1.0  0.18266  0.52565  0.83983  1.0000
  S   S151      1.0  0.16567  0.50405  0.91315  1.0000
  C   C735      1.0  0.01264  0.52662  0.92520  1.0000
  H   H1299     1.0  0.19112  0.53367  0.88436  1.0000
  H   H1300     1.0  0.01653  0.56834  0.86965  1.0000
  H   H1301     1.0  0.04880  0.65017  0.95396  1.0000
  H   H1302     1.0  0.31279  0.78385  0.88606  1.0000
  H   H1303     1.0  0.08770  0.52863  0.88787  1.0000
  H   H1304     1.0  0.04315  0.53744  0.88376  1.0000
  H   H1305     1.0  0.33088  0.78422  0.72408  1.0000
  C   C736      1.0  0.32735  0.59050  0.80951  1.0000
  H   H1306     1.0  0.17983  0.51729  0.94179  1.0000
  C   C737      1.0  0.32530  0.57008  0.78730  1.0000
  C   C738      1.0  0.32775  0.79836  0.81757  1.0000
  H   H1307     1.0  0.32453  0.59584  0.74211  1.0000
  H   H1308     1.0  0.29138  0.77239  0.86737  1.0000
  H   H1309     1.0  0.25159  0.70056  0.73023  1.0000
  H   H1310     1.0  0.29122  0.55953  0.75874  1.0000
  C   C739      1.0  0.00708  0.59414  0.91341  1.0000
  C   C740      1.0  0.31836  0.78140  0.84880  1.0000
  C   C741      1.0  0.30596  0.57105  0.75846  1.0000
  H   H1311     1.0  0.33039  0.82775  0.79999  1.0000
  H   H1312     1.0  0.30864  0.51773  0.77751  1.0000
  C   C742      1.0  0.32983  0.93642  0.95487  1.0000
  H   H1313     1.0  0.20595  0.52040  0.95040  1.0000
  H   H1314     1.0  0.31541  0.90521  0.94906  1.0000
  H   H1315     1.0  0.30244  0.77246  0.72581  1.0000
  H   H1316     1.0  0.20141  0.51862  0.72954  1.0000
  H   H1317     1.0  0.32534  0.70766  0.75657  1.0000
  H   H1318     1.0  0.21063  0.53077  0.86754  1.0000
  C   C743      1.0  0.32994  0.75679  0.74861  1.0000
  H   H1319     1.0  0.30695  0.59280  0.81219  1.0000
  H   H1320     1.0  0.30024  0.68224  0.73687  1.0000
  C   C744      1.0  0.31162  0.77264  0.86502  1.0000
  H   H1321     1.0  0.14021  0.71822  0.72681  1.0000
  C   C745      1.0  0.20037  0.52046  0.87675  1.0000
  H   H1322     1.0  0.03144  0.52647  0.92813  1.0000
  H   H1323     1.0  0.17583  0.52208  0.96063  1.0000
  C   C746      1.0  0.32913  0.66029  0.78099  1.0000
  C   C747      1.0  0.01121  0.54979  0.87316  1.0000
  H   H1324     1.0  0.11641  0.57671  0.96898  1.0000
  H   H1325     1.0  0.14619  0.74954  0.72620  1.0000
  C   C748      1.0  0.05251  0.50254  0.90549  1.0000
  H   H1326     1.0  0.06354  0.49720  0.88248  1.0000
  C   C749      1.0  0.32275  0.76738  0.72341  1.0000
  H   H1327     1.0  0.31920  0.71931  0.72436  1.0000
  N   N41       1.0  0.02662  0.49788  0.90486  1.0000
  H   H1328     1.0  0.33178  0.55146  0.80915  1.0000
  H   H1329     1.0  0.33255  0.60727  0.80266  1.0000
  H   H1330     1.0  0.33340  0.58534  0.78027  1.0000
  H   H1331     1.0  0.29227  0.99646  0.73437  1.0000
  N   N42       1.0  0.33242  0.74672  0.73431  1.0000
  H   H1332     1.0  0.33331  0.53855  0.75763  1.0000
  H   H1333     1.0  0.55818  0.11077  0.99649  1.0000
  Fe  Fe77      1.0  0.60504  0.22298  0.16512  1.0000
  S   S152      1.0  0.61225  0.18469  0.17619  1.0000
  S   S153      1.0  0.56665  0.23876  0.15893  1.0000
  Fe  Fe78      1.0  0.63796  0.19956  0.18820  1.0000
  Fe  Fe79      1.0  0.64427  0.17989  0.15884  1.0000
  C   C750      1.0  0.66422  0.08311  0.99540  1.0000
  S   S154      1.0  0.62874  0.23873  0.17826  1.0000
  S   S155      1.0  0.63609  0.21757  0.14725  1.0000
  Fe  Fe80      1.0  0.63937  0.09351  0.04449  1.0000
  S   S156      1.0  0.60365  0.07897  0.05137  1.0000
  C   C751      1.0  0.49840  0.07567  0.98153  1.0000
  Fe  Fe81      1.0  0.63216  0.12431  0.06986  1.0000
  S   S157      1.0  0.59585  0.11168  0.07857  1.0000
  H   H1334     1.0  0.58288  0.14391  0.01904  1.0000
  Fe  Fe82      1.0  0.61490  0.07442  0.07349  1.0000
  Fe  Fe83      1.0  0.58840  0.11753  0.05554  1.0000
  S   S158      1.0  0.55178  0.13747  0.04980  1.0000
  S   S159      1.0  0.62329  0.13278  0.04695  1.0000
  Fe  Fe84      1.0  0.43564  0.18386  0.16869  1.0000
  S   S160      1.0  0.42813  0.14480  0.17016  1.0000
  S   S161      1.0  0.47186  0.18457  0.17778  1.0000
  Fe  Fe85      1.0  0.38741  0.20382  0.15572  1.0000
  S   S162      1.0  0.37791  0.16576  0.15619  1.0000
  S   S163      1.0  0.35781  0.23165  0.14547  1.0000
  Fe  Fe86      1.0  0.38915  0.15914  0.17859  1.0000
  S   S164      1.0  0.36260  0.14010  0.19574  1.0000
  Fe  Fe87      1.0  0.41756  0.15496  0.14767  1.0000
  S   S165      1.0  0.43494  0.12853  0.13107  1.0000
  S   S166      1.0  0.39682  0.19771  0.17858  1.0000
  S   S167      1.0  0.42687  0.19338  0.14580  1.0000
  Fe  Fe88      1.0  0.41049  0.06349  0.02874  1.0000
  S   S168      1.0  0.44407  0.03523  0.03003  1.0000
  S   S169      1.0  0.38731  0.05872  0.01169  1.0000
  Fe  Fe89      1.0  0.41999  0.08610  0.05515  1.0000
  S   S170      1.0  0.45472  0.05968  0.05792  1.0000
  S   S171      1.0  0.40328  0.11469  0.07038  1.0000
  Fe  Fe90      1.0  0.46260  0.06621  0.03378  1.0000
  S   S172      1.0  0.50050  0.06667  0.02154  1.0000
  Fe  Fe91      1.0  0.43286  0.03125  0.05378  1.0000
  C   C752      1.0  0.55732  0.23867  0.19974  1.0000
  S   S173      1.0  0.42970  0.09525  0.03104  1.0000
  S   S174      1.0  0.39747  0.05701  0.05244  1.0000
  C   C753      1.0  0.42464  0.12403  0.11470  1.0000
  C   C754      1.0  0.43756  0.10506  0.10691  1.0000
  C   C755      1.0  0.43125  0.10182  0.09338  1.0000
  C   C756      1.0  0.41176  0.11748  0.08752  1.0000
  C   C757      1.0  0.39867  0.13628  0.09538  1.0000
  C   C758      1.0  0.40496  0.13949  0.10891  1.0000
  H   H1335     1.0  0.45272  0.09289  0.11132  1.0000
  H   H1336     1.0  0.44151  0.08728  0.08748  1.0000
  H   H1337     1.0  0.38350  0.14846  0.09097  1.0000
  H   H1338     1.0  0.39464  0.15400  0.11481  1.0000
  C   C759      1.0  0.46594  0.04814  0.99094  1.0000
  H   H1339     1.0  0.52415  0.08715  0.06877  1.0000
  C   C760      1.0  0.39149  0.02394  0.09727  1.0000
  H   H1340     1.0  0.36430  0.04089  0.08290  1.0000
  H   H1341     1.0  0.51660  0.22963  0.19243  1.0000
  C   C761      1.0  0.34207  0.25921  0.15184  1.0000
  C   C762      1.0  0.35187  0.00066  0.06310  1.0000
  H   H1342     1.0  0.65830  0.11306  0.10064  1.0000
  H   H1343     1.0  0.58900  0.03960  0.99131  1.0000
  C   C763      1.0  0.40834  0.09102  0.99056  1.0000
  C   C764      1.0  0.39717  0.06973  0.99374  1.0000
  H   H1344     1.0  0.41194  0.10034  0.99921  1.0000
  C   C765      1.0  0.53794  0.12057  0.03964  1.0000
  C   C766      1.0  0.55211  0.10228  0.03197  1.0000
  C   C767      1.0  0.54055  0.08665  0.02554  1.0000
  C   C768      1.0  0.51478  0.08914  0.02698  1.0000
  C   C769      1.0  0.50062  0.10848  0.03377  1.0000
  C   C770      1.0  0.51226  0.12442  0.03993  1.0000
  H   H1345     1.0  0.57197  0.10001  0.03107  1.0000
  H   H1346     1.0  0.55155  0.07195  0.02006  1.0000
  H   H1347     1.0  0.48069  0.11066  0.03471  1.0000
  H   H1348     1.0  0.50130  0.13900  0.04545  1.0000
  H   H1349     1.0  0.51033  0.06225  0.98841  1.0000
  S   S175      1.0  0.63590  0.19301  0.21263  1.0000
  C   C771      1.0  0.49835  0.19874  0.17086  1.0000
  C   C772      1.0  0.52113  0.18807  0.17553  1.0000
  C   C773      1.0  0.54236  0.19958  0.17138  1.0000
  C   C774      1.0  0.54091  0.22241  0.16295  1.0000
  C   C775      1.0  0.51824  0.23290  0.15804  1.0000
  C   C776      1.0  0.49710  0.22102  0.16184  1.0000
  H   H1350     1.0  0.52230  0.17084  0.18251  1.0000
  H   H1351     1.0  0.55965  0.19114  0.17512  1.0000
  H   H1352     1.0  0.51690  0.25053  0.15146  1.0000
  H   H1353     1.0  0.47964  0.22958  0.15827  1.0000
  H   H1354     1.0  0.50302  0.02430  0.04913  1.0000
  H   H1355     1.0  0.62874  0.14893  0.01377  1.0000
  C   C777      1.0  0.66588  0.16739  0.99593  1.0000
  H   H1356     1.0  0.60005  0.06202  0.97723  1.0000
  H   H1357     1.0  0.42289  0.06835  0.20873  1.0000
  H   H1358     1.0  0.33850  0.21140  0.19379  1.0000
  H   H1359     1.0  0.56068  0.17127  0.02026  1.0000
  C   C778      1.0  0.54703  0.12652  0.99067  1.0000
  H   H1360     1.0  0.61498  0.10537  0.01812  1.0000
  C   C779      1.0  0.64978  0.08801  0.00842  1.0000
  C   C780      1.0  0.62634  0.10180  0.00813  1.0000
  H   H1361     1.0  0.56123  0.22997  0.18958  1.0000
  H   H1362     1.0  0.43612  0.17306  0.04455  1.0000
  H   H1363     1.0  0.66648  0.13123  0.00905  1.0000
  H   H1364     1.0  0.63071  0.25974  0.10170  1.0000
  H   H1365     1.0  0.53620  0.26955  0.18756  1.0000
  H   H1366     1.0  0.59654  0.15317  0.21621  1.0000
  H   H1367     1.0  0.50249  0.00319  0.06496  1.0000
  H   H1368     1.0  0.49501  0.08301  0.07960  1.0000
  C   C781      1.0  0.65279  0.12920  0.10625  1.0000
  H   H1369     1.0  0.56417  0.00477  0.07354  1.0000
  C   C782      1.0  0.39236  0.05789  0.98241  1.0000
  H   H1370     1.0  0.35328  0.00105  0.11300  1.0000
  H   H1371     1.0  0.61866  0.21023  0.02629  1.0000
  C   C783      1.0  0.53392  0.09779  0.97540  1.0000
  C   C784      1.0  0.64068  0.24832  0.11028  1.0000
  H   H1372     1.0  0.61982  0.16113  0.99675  1.0000
  H   H1373     1.0  0.62589  0.27373  0.22068  1.0000
  H   H1374     1.0  0.45752  0.06075  0.99906  1.0000
  H   H1375     1.0  0.56549  0.29931  0.18600  1.0000
  H   H1376     1.0  0.55899  0.13473  0.98140  1.0000
  H   H1377     1.0  0.34209  0.00006  0.04173  1.0000
  H   H1378     1.0  0.61282  0.19536  0.98187  1.0000
  C   C785      1.0  0.63738  0.17254  0.10603  1.0000
  C   C786      1.0  0.34108  0.29639  0.16297  1.0000
  C   C787      1.0  0.54965  0.26666  0.19556  1.0000
  H   H1379     1.0  0.45151  0.14341  0.05134  1.0000
  S   S176      1.0  0.60854  0.03914  0.08722  1.0000
  H   H1380     1.0  0.63277  0.18679  0.12650  1.0000
  H   H1381     1.0  0.57548  0.23604  0.20388  1.0000
  C   C788      1.0  0.35344  0.27342  0.15932  1.0000
  H   H1382     1.0  0.60032  0.17817  0.02642  1.0000
  N   N43       1.0  0.48149  0.16834  0.08454  1.0000
  C   C789      1.0  0.49252  0.19090  0.07755  1.0000
  C   C790      1.0  0.46333  0.17525  0.09735  1.0000
  C   C791      1.0  0.50223  0.14978  0.09010  1.0000
  C   C792      1.0  0.46925  0.15678  0.07432  1.0000
  C   C793      1.0  0.45778  0.17424  0.06187  1.0000
  C   C794      1.0  0.51477  0.18623  0.06579  1.0000
  C   C795      1.0  0.49463  0.12589  0.09892  1.0000
  C   C796      1.0  0.44008  0.19371  0.09407  1.0000
  C   C797      1.0  0.42513  0.20174  0.10794  1.0000
  C   C798      1.0  0.44159  0.16135  0.05443  1.0000
  C   C799      1.0  0.52002  0.20994  0.05639  1.0000
  C   C800      1.0  0.51714  0.10653  0.10139  1.0000
  H   H1383     1.0  0.49904  0.20000  0.08583  1.0000
  H   H1384     1.0  0.47850  0.20503  0.07275  1.0000
  H   H1385     1.0  0.45596  0.15882  0.10334  1.0000
  H   H1386     1.0  0.47280  0.18267  0.10513  1.0000
  H   H1387     1.0  0.51261  0.15831  0.09692  1.0000
  H   H1388     1.0  0.51581  0.14373  0.08093  1.0000
  H   H1389     1.0  0.48256  0.14243  0.06904  1.0000
  H   H1390     1.0  0.45455  0.14656  0.08045  1.0000
  H   H1391     1.0  0.47249  0.18038  0.05357  1.0000
  H   H1392     1.0  0.44624  0.19087  0.06565  1.0000
  H   H1393     1.0  0.53170  0.17836  0.07090  1.0000
  H   H1394     1.0  0.51149  0.17306  0.05871  1.0000
  H   H1395     1.0  0.48229  0.11783  0.09321  1.0000
  H   H1396     1.0  0.48501  0.12961  0.10971  1.0000
  H   H1397     1.0  0.44476  0.21060  0.08726  1.0000
  H   H1398     1.0  0.42792  0.18482  0.08862  1.0000
  H   H1399     1.0  0.43581  0.21228  0.11337  1.0000
  H   H1400     1.0  0.40776  0.21369  0.10542  1.0000
  H   H1401     1.0  0.42021  0.18553  0.11542  1.0000
  H   H1402     1.0  0.42454  0.15830  0.06173  1.0000
  H   H1403     1.0  0.50409  0.21795  0.05043  1.0000
  H   H1404     1.0  0.52384  0.22354  0.06308  1.0000
  H   H1405     1.0  0.53646  0.20579  0.04840  1.0000
  H   H1406     1.0  0.51099  0.08941  0.10729  1.0000
  H   H1407     1.0  0.52792  0.10211  0.09100  1.0000
  H   H1408     1.0  0.52934  0.11317  0.10787  1.0000
  C   C801      1.0  0.64433  0.15173  0.09865  1.0000
  H   H1409     1.0  0.60743  0.24108  0.97907  1.0000
  H   H1410     1.0  0.41874  0.04587  0.10092  1.0000
  H   H1411     1.0  0.54418  0.19239  0.20034  1.0000
  H   H1412     1.0  0.63552  0.22272  0.04651  1.0000
  C   C802      1.0  0.33977  0.00680  0.07827  1.0000
  H   H1413     1.0  0.36661  0.07862  0.20843  1.0000
  H   H1414     1.0  0.52330  0.04480  0.08232  1.0000
  S   S177      1.0  0.65209  0.08636  0.06656  1.0000
  H   H1415     1.0  0.38371  0.04141  0.98484  1.0000
  H   H1416     1.0  0.48854  0.08914  0.98884  1.0000
  H   H1417     1.0  0.61831  0.01996  0.03180  1.0000
  C   C803      1.0  0.41359  0.10104  0.97617  1.0000
  C   C804      1.0  0.36218  0.13672  0.21472  1.0000
  C   C805      1.0  0.63704  0.01735  0.06484  1.0000
  H   H1418     1.0  0.40659  0.00306  0.04270  1.0000
  H   H1419     1.0  0.49787  0.08305  0.06046  1.0000
  C   C806      1.0  0.61839  0.11258  0.99491  1.0000
  H   H1420     1.0  0.40629  0.06148  0.19484  1.0000
  H   H1421     1.0  0.59016  0.01535  0.05461  1.0000
  H   H1422     1.0  0.58588  0.27711  0.19622  1.0000
  H   H1423     1.0  0.34889  0.16902  0.97344  1.0000
  C   C807      1.0  0.62945  0.20464  0.98066  1.0000
  H   H1424     1.0  0.51336  0.11123  0.99528  1.0000
  C   C808      1.0  0.64820  0.14855  0.12841  1.0000
  H   H1425     1.0  0.60089  0.12445  0.99477  1.0000
  C   C809      1.0  0.40702  0.04469  0.09248  1.0000
  H   H1426     1.0  0.59423  0.01617  0.02163  1.0000
  H   H1427     1.0  0.41928  0.04111  0.08241  1.0000
  C   C810      1.0  0.63886  0.17084  0.12090  1.0000
  H   H1428     1.0  0.64514  0.22515  0.02012  1.0000
  H   H1429     1.0  0.33997  0.25752  0.11438  1.0000
  H   H1430     1.0  0.54081  0.27587  0.20509  1.0000
  H   H1431     1.0  0.57674  0.15669  0.20225  1.0000
  H   H1432     1.0  0.59265  0.19712  0.00998  1.0000
  C   C811      1.0  0.62343  0.16655  0.00708  1.0000
  N   N44       1.0  0.56219  0.14868  0.13684  1.0000
  C   C812      1.0  0.56671  0.12530  0.12978  1.0000
  C   C813      1.0  0.53528  0.15334  0.14283  1.0000
  C   C814      1.0  0.56915  0.16945  0.12573  1.0000
  C   C815      1.0  0.57759  0.14667  0.14906  1.0000
  C   C816      1.0  0.57640  0.12351  0.16026  1.0000
  C   C817      1.0  0.59391  0.11643  0.12401  1.0000
  C   C818      1.0  0.56353  0.19546  0.13076  1.0000
  C   C819      1.0  0.51650  0.15886  0.13162  1.0000
  C   C820      1.0  0.49005  0.16354  0.13903  1.0000
  C   C821      1.0  0.59151  0.12436  0.17250  1.0000
  C   C822      1.0  0.59663  0.09113  0.11880  1.0000
  C   C823      1.0  0.57118  0.21499  0.11865  1.0000
  H   H1433     1.0  0.55644  0.12769  0.12029  1.0000
  H   H1434     1.0  0.55931  0.11008  0.13721  1.0000
  H   H1435     1.0  0.53003  0.13717  0.15026  1.0000
  H   H1436     1.0  0.53183  0.16872  0.14958  1.0000
  H   H1437     1.0  0.56031  0.16982  0.11580  1.0000
  H   H1438     1.0  0.58928  0.16637  0.12213  1.0000
  H   H1439     1.0  0.59733  0.14754  0.14489  1.0000
  H   H1440     1.0  0.57190  0.16280  0.15520  1.0000
  H   H1441     1.0  0.58398  0.10649  0.15525  1.0000
  H   H1442     1.0  0.55717  0.12212  0.16514  1.0000
  H   H1443     1.0  0.60024  0.12935  0.11469  1.0000
  H   H1444     1.0  0.60647  0.11499  0.13235  1.0000
  H   H1445     1.0  0.57396  0.19639  0.13983  1.0000
  H   H1446     1.0  0.54357  0.20056  0.13423  1.0000
  H   H1447     1.0  0.51970  0.17540  0.12397  1.0000
  H   H1448     1.0  0.51762  0.14305  0.12545  1.0000
  H   H1449     1.0  0.47685  0.16613  0.13092  1.0000
  H   H1450     1.0  0.48576  0.14770  0.14704  1.0000
  H   H1451     1.0  0.48722  0.18037  0.14456  1.0000
  H   H1452     1.0  0.61113  0.12545  0.16824  1.0000
  H   H1453     1.0  0.58393  0.14050  0.17835  1.0000
  H   H1454     1.0  0.59076  0.10744  0.18025  1.0000
  H   H1455     1.0  0.61597  0.08583  0.11400  1.0000
  H   H1456     1.0  0.59217  0.07703  0.12793  1.0000
  H   H1457     1.0  0.58429  0.09134  0.11044  1.0000
  H   H1458     1.0  0.56718  0.23332  0.12265  1.0000
  H   H1459     1.0  0.59128  0.21120  0.11506  1.0000
  H   H1460     1.0  0.56077  0.21551  0.10935  1.0000
  H   H1461     1.0  0.54470  0.08266  0.98189  1.0000
  H   H1462     1.0  0.63139  0.24974  0.20907  1.0000
  H   H1463     1.0  0.66205  0.11031  0.12677  1.0000
  C   C824      1.0  0.62037  0.01432  0.07732  1.0000
  C   C825      1.0  0.38295  0.07191  0.21429  1.0000
  C   C826      1.0  0.40590  0.07359  0.20333  1.0000
  N   N45       1.0  0.53853  0.01429  0.05754  1.0000
  C   C827      1.0  0.57760  0.16027  0.21344  1.0000
  H   H1464     1.0  0.37204  0.26707  0.16188  1.0000
  C   C828      1.0  0.53498  0.04130  0.05939  1.0000
  H   H1465     1.0  0.37203  0.14657  0.98138  1.0000
  C   C829      1.0  0.55781  0.00999  0.04475  1.0000
  C   C830      1.0  0.61958  0.02494  0.97610  1.0000
  C   C831      1.0  0.51541  0.04965  0.07192  1.0000
  C   C832      1.0  0.57805  0.16317  0.01415  1.0000
  H   H1466     1.0  0.62901  0.23446  0.11578  1.0000
  H   H1467     1.0  0.62261  0.21793  0.00138  1.0000
  C   C833      1.0  0.57198  0.18783  0.21470  1.0000
  C   C834      1.0  0.50775  0.07747  0.07007  1.0000
  C   C835      1.0  0.60576  0.04548  0.98471  1.0000
  C   C836      1.0  0.63768  0.20600  0.99557  1.0000
  C   C837      1.0  0.62839  0.00177  0.98632  1.0000
  H   H1468     1.0  0.55001  0.01838  0.03463  1.0000
  H   H1469     1.0  0.53014  0.05240  0.04917  1.0000
  H   H1470     1.0  0.55238  0.04692  0.06162  1.0000
  C   C838      1.0  0.60144  0.01126  0.03222  1.0000
  C   C839      1.0  0.57170  0.27936  0.18871  1.0000
  H   H1471     1.0  0.35027  0.30758  0.16841  1.0000
  C   C840      1.0  0.64470  0.20606  0.04154  1.0000
  H   H1472     1.0  0.57893  0.04089  0.04209  1.0000
  H   H1473     1.0  0.40558  0.09285  0.19811  1.0000
  H   H1474     1.0  0.65834  0.00016  0.04702  1.0000
  H   H1475     1.0  0.49856  0.04089  0.07281  1.0000
  C   C841      1.0  0.52507  0.11813  0.98553  1.0000
  C   C842      1.0  0.51415  0.23242  0.20404  1.0000
  S   S178      1.0  0.64385  0.15494  0.07982  1.0000
  H   H1476     1.0  0.64352  0.03485  0.06145  1.0000
  H   H1477     1.0  0.64433  0.19458  0.97362  1.0000
  C   C843      1.0  0.63371  0.10951  0.98195  1.0000
  H   H1478     1.0  0.45415  0.21741  0.21130  1.0000
  C   C844      1.0  0.38081  0.14342  0.22132  1.0000
  H   H1479     1.0  0.57476  0.16323  0.00281  1.0000
  Fe  Fe92      1.0  0.66072  0.22913  0.16140  1.0000
  H   H1480     1.0  0.65373  0.21638  0.99372  1.0000
  H   H1481     1.0  0.45104  0.03930  0.98794  1.0000
  H   H1482     1.0  0.36594  0.01273  0.05871  1.0000
  C   C845      1.0  0.65619  0.09382  0.98216  1.0000
  H   H1483     1.0  0.63072  0.18999  0.10023  1.0000
  H   H1484     1.0  0.63778  0.18974  0.04806  1.0000
  H   H1485     1.0  0.39573  0.15162  0.21477  1.0000
  C   C846      1.0  0.65247  0.18555  0.01852  1.0000
  H   H1486     1.0  0.63971  0.00806  0.99357  1.0000
  H   H1487     1.0  0.46972  0.22955  0.19445  1.0000
  C   C847      1.0  0.62297  0.23035  0.97277  1.0000
  C   C848      1.0  0.51411  0.00798  0.05462  1.0000
  H   H1488     1.0  0.58002  0.27167  0.17859  1.0000
  C   C849      1.0  0.59864  0.17816  0.01484  1.0000
  N   N46       1.0  0.64433  0.18165  0.00445  1.0000
  S   S179      1.0  0.66265  0.07976  0.02477  1.0000
  C   C850      1.0  0.63891  0.20804  0.02601  1.0000
  H   H1489     1.0  0.47962  0.03365  0.99585  1.0000
  H   H1490     1.0  0.65150  0.16868  0.02638  1.0000
  H   H1491     1.0  0.58627  0.19657  0.20732  1.0000
  H   H1492     1.0  0.37628  0.03488  0.21340  1.0000
  H   H1493     1.0  0.65977  0.16100  0.98649  1.0000
  C   C851      1.0  0.64540  0.99768  0.05665  1.0000
  N   N47       1.0  0.53861  0.22607  0.21013  1.0000
  H   H1494     1.0  0.64347  0.26045  0.11817  1.0000
  C   C852      1.0  0.65498  0.12770  0.12104  1.0000
  C   C853      1.0  0.63943  0.26484  0.21244  1.0000
  H   H1495     1.0  0.61788  0.05075  0.99187  1.0000
  H   H1496     1.0  0.34092  0.27152  0.09595  1.0000
  C   C854      1.0  0.58223  0.02053  0.04431  1.0000
  S   S180      1.0  0.65175  0.14611  0.14691  1.0000
  H   H1497     1.0  0.66139  0.22373  0.09600  1.0000
  C   C855      1.0  0.47814  0.06247  0.97758  1.0000
  H   H1498     1.0  0.64275  0.27875  0.20300  1.0000
  C   C856      1.0  0.37448  0.02223  0.08579  1.0000
  H   H1499     1.0  0.54023  0.14053  0.99820  1.0000
  C   C857      1.0  0.66103  0.17716  0.22147  1.0000
  C   C858      1.0  0.54584  0.19852  0.21083  1.0000
  H   H1500     1.0  0.50687  0.25227  0.20436  1.0000
  H   H1501     1.0  0.38702  0.01809  0.07590  1.0000
  C   C859      1.0  0.35372  0.14925  0.97736  1.0000
  C   C860      1.0  0.49326  0.21787  0.21159  1.0000
  H   H1502     1.0  0.33989  0.14382  0.98647  1.0000
  H   H1503     1.0  0.53319  0.03678  0.97320  1.0000
  H   H1504     1.0  0.39504  0.06267  0.09063  1.0000
  H   H1505     1.0  0.56432  0.15018  0.22096  1.0000
  H   H1506     1.0  0.51442  0.13454  0.98000  1.0000
  H   H1507     1.0  0.53289  0.00478  0.08060  1.0000
  C   C861      1.0  0.66545  0.23564  0.10361  1.0000
  H   H1508     1.0  0.42120  0.11813  0.97380  1.0000
  H   H1509     1.0  0.53293  0.18886  0.21892  1.0000
  H   H1510     1.0  0.49719  0.19856  0.20902  1.0000
  H   H1511     1.0  0.46265  0.24785  0.20938  1.0000
  C   C862      1.0  0.46847  0.22895  0.20634  1.0000
  H   H1512     1.0  0.38078  0.02768  0.10777  1.0000
  H   H1513     1.0  0.33822  0.20121  0.21938  1.0000
  C   C863      1.0  0.54653  0.99985  0.07127  1.0000
  H   H1514     1.0  0.46333  0.07619  0.97326  1.0000
  N   N48       1.0  0.35697  0.00348  0.08970  1.0000
  C   C864      1.0  0.38169  0.04515  0.22154  1.0000
  H   H1515     1.0  0.34054  0.04690  0.10404  1.0000
  C   C865      1.0  0.34170  0.00677  0.10403  1.0000
  H   H1516     1.0  0.40444  0.00659  0.09894  1.0000
  C   C866      1.0  0.66345  0.25461  0.21881  1.0000
  H   H1517     1.0  0.66491  0.20444  0.04186  1.0000
  H   H1518     1.0  0.54587  0.00578  0.39235  1.0000
  S   S181      1.0  0.64077  0.07011  0.39422  1.0000
  H   H1519     1.0  0.39495  0.14417  0.24142  1.0000
  Fe  Fe93      1.0  0.62473  0.10117  0.42952  1.0000
  S   S182      1.0  0.60536  0.07081  0.42522  1.0000
  S   S183      1.0  0.61261  0.11529  0.45137  1.0000
  Fe  Fe94      1.0  0.64311  0.05359  0.41693  1.0000
  H   H1520     1.0  0.65553  0.03526  0.30938  1.0000
  Fe  Fe95      1.0  0.60444  0.09030  0.40288  1.0000
  S   S184      1.0  0.57384  0.09023  0.38945  1.0000
  H   H1521     1.0  0.56299  0.03945  0.45468  1.0000
  S   S185      1.0  0.62037  0.12277  0.40757  1.0000
  S   S186      1.0  0.35211  0.05891  0.28871  1.0000
  C   C867      1.0  0.56873  0.02009  0.45253  1.0000
  Fe  Fe96      1.0  0.44333  0.07725  0.41953  1.0000
  S   S187      1.0  0.40230  0.08060  0.42552  1.0000
  S   S188      1.0  0.46473  0.10792  0.42066  1.0000
  Fe  Fe97      1.0  0.44800  0.02412  0.41518  1.0000
  S   S189      1.0  0.40748  0.02262  0.42095  1.0000
  H   H1522     1.0  0.39467  0.13604  0.40790  1.0000
  Fe  Fe98      1.0  0.40274  0.05888  0.40686  1.0000
  S   S190      1.0  0.37232  0.07106  0.39211  1.0000
  Fe  Fe99      1.0  0.41062  0.04427  0.43897  1.0000
  S   S191      1.0  0.39284  0.03434  0.46181  1.0000
  S   S192      1.0  0.44338  0.05868  0.39990  1.0000
  S   S193      1.0  0.45158  0.04249  0.43422  1.0000
  H   H1523     1.0  0.55084  0.22677  0.25274  1.0000
  C   C868      1.0  0.39202  0.13600  0.34063  1.0000
  C   C869      1.0  0.37158  0.06614  0.37398  1.0000
  H   H1524     1.0  0.45198  0.12856  0.33377  1.0000
  H   H1525     1.0  0.50890  0.08577  0.45045  1.0000
  C   C870      1.0  0.36146  0.12785  0.24507  1.0000
  C   C871      1.0  0.59650  0.01397  0.45339  1.0000
  C   C872      1.0  0.43774  0.13694  0.35596  1.0000
  H   H1526     1.0  0.56030  0.03358  0.40788  1.0000
  H   H1527     1.0  0.57395  0.00036  0.43373  1.0000
  C   C873      1.0  0.38542  0.99851  0.24339  1.0000
  H   H1528     1.0  0.48646  0.15268  0.33033  1.0000
  H   H1529     1.0  0.48763  0.07533  0.46544  1.0000
  H   H1530     1.0  0.59683  0.05541  0.36141  1.0000
  H   H1531     1.0  0.40758  0.06697  0.23931  1.0000
  H   H1532     1.0  0.37413  0.12275  0.39904  1.0000
  H   H1533     1.0  0.61773  0.02478  0.40355  1.0000
  C   C874      1.0  0.54363  0.09582  0.39814  1.0000
  C   C875      1.0  0.52401  0.09115  0.39149  1.0000
  C   C876      1.0  0.49982  0.09427  0.39852  1.0000
  C   C877      1.0  0.49503  0.10312  0.41196  1.0000
  C   C878      1.0  0.51453  0.10858  0.41840  1.0000
  C   C879      1.0  0.53890  0.10445  0.41164  1.0000
  H   H1534     1.0  0.52764  0.08457  0.38102  1.0000
  H   H1535     1.0  0.48483  0.09030  0.39343  1.0000
  H   H1536     1.0  0.51081  0.11587  0.42866  1.0000
  H   H1537     1.0  0.55395  0.10834  0.41674  1.0000
  H   H1538     1.0  0.50458  0.04502  0.43173  1.0000
  H   H1539     1.0  0.40578  0.04145  0.37201  1.0000
  C   C880      1.0  0.38890  0.04751  0.35221  1.0000
  C   C881      1.0  0.55376  0.09357  0.46582  1.0000
  H   H1540     1.0  0.41110  0.03489  0.24546  1.0000
  C   C882      1.0  0.38035  0.13909  0.23643  1.0000
  H   H1541     1.0  0.36432  0.04493  0.25805  1.0000
  H   H1542     1.0  0.34114  0.02645  0.38972  1.0000
  C   C883      1.0  0.40136  0.12570  0.37164  1.0000
  C   C884      1.0  0.39030  0.05084  0.36660  1.0000
  C   C885      1.0  0.37218  0.05376  0.24745  1.0000
  C   C886      1.0  0.35005  0.07457  0.35239  1.0000
  H   H1543     1.0  0.43336  0.06154  0.46264  1.0000
  S   S194      1.0  0.36747  0.05289  0.32722  1.0000
  C   C887      1.0  0.53380  0.01130  0.42112  1.0000
  H   H1544     1.0  0.37927  0.15431  0.39357  1.0000
  H   H1545     1.0  0.35404  0.00858  0.23120  1.0000
  H   H1546     1.0  0.39621  0.12400  0.31918  1.0000
  H   H1547     1.0  0.36914  0.14598  0.32318  1.0000
  H   H1548     1.0  0.39194  0.14448  0.36832  1.0000
  C   C888      1.0  0.36871  0.05912  0.34505  1.0000
  H   H1549     1.0  0.33690  0.08989  0.37238  1.0000
  H   H1550     1.0  0.43585  0.00729  0.39242  1.0000
  H   H1551     1.0  0.62012  0.11321  0.29315  1.0000
  H   H1552     1.0  0.66051  0.08550  0.45387  1.0000
  H   H1553     1.0  0.40355  0.03574  0.34659  1.0000
  H   H1554     1.0  0.66292  0.09164  0.32131  1.0000
  N   N49       1.0  0.65683  0.05378  0.32807  1.0000
  H   H1555     1.0  0.40056  0.99934  0.23439  1.0000
  C   C889      1.0  0.38126  0.12967  0.32775  1.0000
  H   H1556     1.0  0.65834  0.00437  0.45362  1.0000
  H   H1557     1.0  0.34840  0.01381  0.24965  1.0000
  C   C890      1.0  0.63796  0.06148  0.34040  1.0000
  C   C891      1.0  0.40622  0.05821  0.26215  1.0000
  H   H1558     1.0  0.62000  0.09531  0.31814  1.0000
  H   H1559     1.0  0.56946  0.03246  0.43001  1.0000
  H   H1560     1.0  0.64668  0.12017  0.30000  1.0000
  C   C892      1.0  0.38807  0.13554  0.39737  1.0000
  H   H1561     1.0  0.65046  0.00042  0.38404  1.0000
  H   H1562     1.0  0.38073  0.00136  0.36606  1.0000
  N   N50       1.0  0.36427  0.04275  0.23533  1.0000
  H   H1563     1.0  0.37617  0.14222  0.34851  1.0000
  H   H1564     1.0  0.37291  0.01232  0.38784  1.0000
  H   H1565     1.0  0.55974  0.00787  0.46123  1.0000
  H   H1566     1.0  0.42652  0.15519  0.35348  1.0000
  H   H1567     1.0  0.35457  0.19326  0.23488  1.0000
  H   H1568     1.0  0.57058  0.25027  0.24951  1.0000
  C   C893      1.0  0.61665  0.00664  0.40923  1.0000
  H   H1569     1.0  0.62545  0.07136  0.30651  1.0000
  C   C894      1.0  0.45872  0.13304  0.34347  1.0000
  H   H1570     1.0  0.57516  0.22778  0.22839  1.0000
  C   C895      1.0  0.65924  0.00639  0.32661  1.0000
  C   C896      1.0  0.63537  0.04251  0.35392  1.0000
  H   H1571     1.0  0.39147  0.00322  0.25326  1.0000
  H   H1572     1.0  0.53792  0.25872  0.24854  1.0000
  C   C897      1.0  0.47102  0.15616  0.33903  1.0000
  C   C898      1.0  0.54062  0.03123  0.40865  1.0000
  N   N51       1.0  0.42128  0.11725  0.35991  1.0000
  H   H1573     1.0  0.39615  0.07628  0.26487  1.0000
  C   C899      1.0  0.43552  0.09317  0.36580  1.0000
  C   C900      1.0  0.65804  0.07584  0.31677  1.0000
  H   H1574     1.0  0.60694  0.02519  0.44475  1.0000
  C   C901      1.0  0.36175  0.01596  0.23975  1.0000
  H   H1575     1.0  0.47862  0.16126  0.34831  1.0000
  H   H1576     1.0  0.33527  0.00274  0.41447  1.0000
  C   C902      1.0  0.44827  0.07511  0.35485  1.0000
  C   C903      1.0  0.46449  0.05326  0.36212  1.0000
  H   H1577     1.0  0.42352  0.13960  0.38575  1.0000
  H   H1578     1.0  0.40105  0.04359  0.27080  1.0000
  H   H1579     1.0  0.41827  0.10840  0.39119  1.0000
  H   H1580     1.0  0.52453  0.00000  0.45784  1.0000
  H   H1581     1.0  0.42215  0.10651  0.33849  1.0000
  H   H1582     1.0  0.44973  0.09667  0.37226  1.0000
  H   H1583     1.0  0.42287  0.08234  0.37341  1.0000
  H   H1584     1.0  0.49408  0.03399  0.45745  1.0000
  H   H1585     1.0  0.45757  0.17177  0.33492  1.0000
  C   C904      1.0  0.62806  0.10200  0.46637  1.0000
  H   H1586     1.0  0.61883  0.07059  0.36789  1.0000
  C   C905      1.0  0.63801  0.10510  0.29708  1.0000
  H   H1587     1.0  0.40267  0.15143  0.33676  1.0000
  H   H1588     1.0  0.65283  0.03795  0.35884  1.0000
  C   C906      1.0  0.55407  0.24448  0.24623  1.0000
  C   C907      1.0  0.40041  0.05288  0.24765  1.0000
  C   C908      1.0  0.64917  0.03344  0.32120  1.0000
  H   H1589     1.0  0.43419  0.06754  0.35017  1.0000
  H   H1590     1.0  0.45989  0.08401  0.34582  1.0000
  H   H1591     1.0  0.45309  0.04229  0.37040  1.0000
  H   H1592     1.0  0.47380  0.04107  0.35398  1.0000
  H   H1593     1.0  0.47886  0.05959  0.36725  1.0000
  C   C909      1.0  0.40987  0.12674  0.38655  1.0000
  H   H1594     1.0  0.33437  0.08363  0.34705  1.0000
  C   C910      1.0  0.33920  0.05595  0.23202  1.0000
  C   C911      1.0  0.40865  0.11336  0.34739  1.0000
  C   C912      1.0  0.61524  0.05266  0.36529  1.0000
  C   C913      1.0  0.63371  0.08604  0.31011  1.0000
  H   H1595     1.0  0.33989  0.07587  0.22900  1.0000
  H   H1596     1.0  0.64583  0.12766  0.36888  1.0000
  H   H1597     1.0  0.42631  0.05874  0.26167  1.0000
  H   H1598     1.0  0.52928  0.04918  0.41020  1.0000
  H   H1599     1.0  0.54279  0.03791  0.38534  1.0000
  H   H1600     1.0  0.39690  0.09860  0.35085  1.0000
  H   H1601     1.0  0.52228  0.04226  0.46147  1.0000
  H   H1602     1.0  0.36421  0.07351  0.24737  1.0000
  C   C914      1.0  0.55848  0.24145  0.23019  1.0000
  H   H1603     1.0  0.57353  0.19012  0.22599  1.0000
  H   H1604     1.0  0.62868  0.03515  0.32214  1.0000
  H   H1605     1.0  0.37002  0.11449  0.33112  1.0000
  C   C915      1.0  0.35151  0.07802  0.36677  1.0000
  C   C916      1.0  0.52040  0.04164  0.43823  1.0000
  C   C917      1.0  0.50849  0.04605  0.45373  1.0000
  H   H1606     1.0  0.35765  0.00049  0.31575  1.0000
  Fe  Fe100     1.0  0.65699  0.10103  0.40023  1.0000
  H   H1607     1.0  0.47328  0.11815  0.34705  1.0000
  H   H1608     1.0  0.61928  0.06607  0.33681  1.0000
  H   H1609     1.0  0.53157  0.05668  0.43397  1.0000
  S   S195      1.0  0.36199  0.12234  0.26398  1.0000
  H   H1610     1.0  0.38673  0.11358  0.37346  1.0000
  C   C918      1.0  0.56240  0.01713  0.43746  1.0000
  H   H1611     1.0  0.44708  0.13894  0.36534  1.0000
  C   C919      1.0  0.49568  0.07254  0.45424  1.0000
  Fe  Fe101     1.0  0.34002  0.06915  0.31113  1.0000
  H   H1612     1.0  0.64151  0.18074  0.24270  1.0000
  S   S196      1.0  0.66284  0.08245  0.42256  1.0000
  H   H1613     1.0  0.51879  0.11465  0.47190  1.0000
  N   N52       1.0  0.53558  0.01677  0.43616  1.0000
  H   H1614     1.0  0.61470  0.03960  0.37533  1.0000
  H   H1615     1.0  0.51596  0.02463  0.39396  1.0000
  H   H1616     1.0  0.64165  0.07884  0.34386  1.0000
  H   H1617     1.0  0.55827  0.10797  0.45686  1.0000
  C   C920      1.0  0.53542  0.23422  0.22502  1.0000
  C   C921      1.0  0.66064  0.13262  0.34635  1.0000
  C   C922      1.0  0.33697  0.20275  0.23106  1.0000
  C   C923      1.0  0.34292  0.12608  0.22341  1.0000
  Fe  Fe102     1.0  0.33917  0.09795  0.28023  1.0000
  C   C924      1.0  0.65877  0.17403  0.23661  1.0000
  H   H1618     1.0  0.48048  0.07651  0.44735  1.0000
  H   H1619     1.0  0.58840  0.99956  0.39744  1.0000
  H   H1620     1.0  0.64276  0.13892  0.34269  1.0000
  H   H1621     1.0  0.34178  0.02662  0.36577  1.0000
  C   C925      1.0  0.53604  0.02439  0.39420  1.0000
  H   H1622     1.0  0.51469  0.00819  0.42028  1.0000
  H   H1623     1.0  0.52090  0.25058  0.22586  1.0000
  S   S197      1.0  0.65481  0.01357  0.42311  1.0000
  H   H1624     1.0  0.57111  0.08531  0.47037  1.0000
  H   H1625     1.0  0.62968  0.02565  0.35124  1.0000
  C   C926      1.0  0.33744  0.00040  0.31646  1.0000
  H   H1626     1.0  0.52835  0.21973  0.23320  1.0000
  H   H1627     1.0  0.33461  0.22251  0.23261  1.0000
  C   C927      1.0  0.65176  0.08869  0.46456  1.0000
  C   C928      1.0  0.66232  0.12616  0.36119  1.0000
  H   H1628     1.0  0.65587  0.00232  0.33843  1.0000
  H   H1629     1.0  0.33915  0.16040  0.29734  1.0000
  H   H1630     1.0  0.65004  0.09632  0.28820  1.0000
  H   H1631     1.0  0.36787  0.00156  0.34220  1.0000
  C   C929      1.0  0.35362  0.00648  0.40897  1.0000
  H   H1632     1.0  0.60070  0.01783  0.46394  1.0000
  H   H1633     1.0  0.40071  0.03638  0.22316  1.0000
  H   H1634     1.0  0.36863  0.00131  0.44849  1.0000
  H   H1635     1.0  0.56277  0.25927  0.22428  1.0000
  C   C930      1.0  0.34262  0.12154  0.23850  1.0000
  H   H1636     1.0  0.54636  0.07924  0.46133  1.0000
  C   C931      1.0  0.35395  0.00952  0.39263  1.0000
  H   H1637     1.0  0.35746  0.02372  0.41238  1.0000
  H   H1638     1.0  0.65892  0.24107  0.22826  1.0000
  C   C932      1.0  0.63262  0.99687  0.41951  1.0000
  H   H1639     1.0  0.49135  0.21783  0.22345  1.0000
  H   H1640     1.0  0.33373  0.04922  0.22249  1.0000
  H   H1641     1.0  0.50529  0.99698  0.44499  1.0000
  C   C933      1.0  0.52500  0.99672  0.44649  1.0000
  H   H1642     1.0  0.38299  0.08463  0.22236  1.0000
  H   H1643     1.0  0.36920  0.13329  0.70151  1.0000
  S   S198      1.0  0.63449  0.08231  0.56929  1.0000
  H   H1644     1.0  0.63643  0.03745  0.59304  1.0000
  C   C934      1.0  0.61272  0.01940  0.51278  1.0000
  S   S199      1.0  0.62421  0.06425  0.53887  1.0000
  H   H1645     1.0  0.48601  0.13647  0.60852  1.0000
  Fe  Fe103     1.0  0.61447  0.09809  0.55019  1.0000
  S   S200      1.0  0.57510  0.11691  0.55141  1.0000
  H   H1646     1.0  0.63642  0.17695  0.50688  1.0000
  C   C935      1.0  0.66463  0.08030  0.47653  1.0000
  H   H1647     1.0  0.63177  0.14545  0.50834  1.0000
  C   C936      1.0  0.61696  0.10598  0.48036  1.0000
  Fe  Fe104     1.0  0.65678  0.08151  0.52803  1.0000
  Fe  Fe105     1.0  0.46152  0.04831  0.56147  1.0000
  S   S201      1.0  0.44330  0.08313  0.55026  1.0000
  S   S202      1.0  0.49970  0.04032  0.56817  1.0000
  Fe  Fe106     1.0  0.41528  0.02379  0.56438  1.0000
  S   S203      1.0  0.39352  0.05657  0.55290  1.0000
  H   H1648     1.0  0.60318  0.16796  0.69596  1.0000
  Fe  Fe107     1.0  0.42862  0.05825  0.53755  1.0000
  S   S204      1.0  0.43701  0.06811  0.51340  1.0000
  Fe  Fe108     1.0  0.41027  0.07798  0.56662  1.0000
  C   C937      1.0  0.62979  0.09735  0.49239  1.0000
  S   S205      1.0  0.44902  0.02347  0.54805  1.0000
  S   S206      1.0  0.42994  0.04509  0.57873  1.0000
  C   C938      1.0  0.42430  0.05818  0.49941  1.0000
  C   C939      1.0  0.40407  0.04529  0.50203  1.0000
  C   C940      1.0  0.39430  0.03848  0.49040  1.0000
  C   C941      1.0  0.43471  0.06399  0.48514  1.0000
  H   H1649     1.0  0.45009  0.07427  0.48301  1.0000
  C   C942      1.0  0.38294  0.10279  0.59795  1.0000
  C   C943      1.0  0.39949  0.08591  0.60557  1.0000
  C   C944      1.0  0.39730  0.08401  0.62067  1.0000
  H   H1650     1.0  0.41469  0.07514  0.59986  1.0000
  H   H1651     1.0  0.41070  0.07153  0.62645  1.0000
  H   H1652     1.0  0.54354  0.11889  0.48146  1.0000
  H   H1653     1.0  0.40390  0.14456  0.71213  1.0000
  H   H1654     1.0  0.54360  0.99986  0.55747  1.0000
  H   H1655     1.0  0.60943  0.02095  0.55321  1.0000
  C   C945      1.0  0.55416  0.09557  0.55557  1.0000
  C   C946      1.0  0.56189  0.07167  0.56170  1.0000
  C   C947      1.0  0.54497  0.05491  0.56543  1.0000
  C   C948      1.0  0.52035  0.06176  0.56282  1.0000
  C   C949      1.0  0.51266  0.08551  0.55639  1.0000
  C   C950      1.0  0.52953  0.10248  0.55288  1.0000
  H   H1656     1.0  0.58081  0.06625  0.56387  1.0000
  H   H1657     1.0  0.55101  0.03661  0.57044  1.0000
  H   H1658     1.0  0.49370  0.09092  0.55435  1.0000
  H   H1659     1.0  0.52351  0.12098  0.54815  1.0000
  H   H1660     1.0  0.62217  0.16995  0.71824  1.0000
  H   H1661     1.0  0.62138  0.10097  0.50308  1.0000
  Fe  Fe109     1.0  0.64721  0.05010  0.55682  1.0000
  C   C951      1.0  0.60619  0.17084  0.49656  1.0000
  C   C952      1.0  0.43756  0.13714  0.62219  1.0000
  H   H1662     1.0  0.43494  0.15723  0.60118  1.0000
  H   H1663     1.0  0.47666  0.15647  0.59351  1.0000
  C   C953      1.0  0.63216  0.16274  0.50085  1.0000
  C   C954      1.0  0.44305  0.14386  0.55833  1.0000
  H   H1664     1.0  0.44631  0.09188  0.61094  1.0000
  C   C955      1.0  0.65131  0.15803  0.48745  1.0000
  H   H1665     1.0  0.43071  0.15831  0.57831  1.0000
  H   H1666     1.0  0.37250  0.04610  0.70252  1.0000
  H   H1667     1.0  0.62180  0.01708  0.52264  1.0000
  H   H1668     1.0  0.42013  0.13055  0.60425  1.0000
  H   H1669     1.0  0.65693  0.01151  0.62064  1.0000
  C   C956      1.0  0.43734  0.13752  0.60570  1.0000
  N   N53       1.0  0.65286  0.99845  0.49855  1.0000
  H   H1670     1.0  0.45952  0.13324  0.55272  1.0000
  H   H1671     1.0  0.64723  0.17296  0.47857  1.0000
  H   H1672     1.0  0.45378  0.14467  0.62451  1.0000
  S   S207      1.0  0.37824  0.09806  0.64705  1.0000
  C   C957      1.0  0.44762  0.14728  0.57346  1.0000
  H   H1673     1.0  0.46312  0.07281  0.58973  1.0000
  C   C958      1.0  0.38638  0.14321  0.71871  1.0000
  H   H1674     1.0  0.65634  0.10222  0.61620  1.0000
  C   C959      1.0  0.52660  0.08521  0.48953  1.0000
  H   H1675     1.0  0.65882  0.02365  0.52344  1.0000
  H   H1676     1.0  0.34515  0.22978  0.71112  1.0000
  H   H1677     1.0  0.49726  0.02606  0.52604  1.0000
  C   C960      1.0  0.48138  0.13664  0.59742  1.0000
  C   C961      1.0  0.65333  0.01097  0.60944  1.0000
  C   C962      1.0  0.48263  0.05267  0.60671  1.0000
  H   H1678     1.0  0.41368  0.17224  0.62420  1.0000
  H   H1679     1.0  0.38659  0.05989  0.71488  1.0000
  C   C963      1.0  0.37822  0.09859  0.62834  1.0000
  H   H1680     1.0  0.60514  0.18893  0.48980  1.0000
  H   H1681     1.0  0.46325  0.15794  0.57227  1.0000
  H   H1682     1.0  0.43787  0.11822  0.62787  1.0000
  H   H1683     1.0  0.43709  0.11234  0.58346  1.0000
  H   H1684     1.0  0.66021  0.07211  0.69321  1.0000
  H   H1685     1.0  0.51368  0.10852  0.59406  1.0000
  H   H1686     1.0  0.52924  0.14637  0.59789  1.0000
  C   C964      1.0  0.41441  0.15266  0.62881  1.0000
  H   H1687     1.0  0.62032  0.01957  0.49008  1.0000
  H   H1688     1.0  0.47515  0.09764  0.61471  1.0000
  C   C965      1.0  0.36454  0.01811  0.64275  1.0000
  H   H1689     1.0  0.65243  0.05055  0.60474  1.0000
  H   H1690     1.0  0.44965  0.14929  0.49696  1.0000
  H   H1691     1.0  0.49684  0.05484  0.61348  1.0000
  H   H1692     1.0  0.54231  0.13550  0.58092  1.0000
  C   C966      1.0  0.59481  0.04339  0.51262  1.0000
  H   H1693     1.0  0.41452  0.15144  0.64065  1.0000
  H   H1694     1.0  0.44080  0.01666  0.60566  1.0000
  H   H1695     1.0  0.37043  0.04440  0.65650  1.0000
  N   N54       1.0  0.51194  0.09465  0.50291  1.0000
  C   C967      1.0  0.65288  0.08364  0.70203  1.0000
  C   C968      1.0  0.50484  0.07343  0.51379  1.0000
  C   C969      1.0  0.48834  0.10976  0.49846  1.0000
  C   C970      1.0  0.52540  0.11101  0.50956  1.0000
  C   C971      1.0  0.55209  0.10071  0.51271  1.0000
  S   S208      1.0  0.64579  0.11677  0.53810  1.0000
  C   C972      1.0  0.46986  0.12049  0.51080  1.0000
  C   C973      1.0  0.52372  0.04956  0.51488  1.0000
  C   C974      1.0  0.51540  0.03103  0.52740  1.0000
  C   C975      1.0  0.56553  0.12129  0.51545  1.0000
  H   H1696     1.0  0.63875  0.03735  0.49717  1.0000
  H   H1697     1.0  0.60496  0.05937  0.51154  1.0000
  H   H1698     1.0  0.54352  0.07265  0.49210  1.0000
  H   H1699     1.0  0.50002  0.07933  0.52478  1.0000
  H   H1700     1.0  0.48784  0.06740  0.51126  1.0000
  C   C976      1.0  0.40499  0.04395  0.47614  1.0000
  H   H1701     1.0  0.43290  0.14065  0.51426  1.0000
  H   H1702     1.0  0.52564  0.12907  0.50278  1.0000
  H   H1703     1.0  0.51519  0.11568  0.52009  1.0000
  H   H1704     1.0  0.56338  0.09189  0.50369  1.0000
  H   H1705     1.0  0.55164  0.08727  0.52258  1.0000
  H   H1706     1.0  0.51844  0.16171  0.58121  1.0000
  H   H1707     1.0  0.58367  0.04543  0.50351  1.0000
  H   H1708     1.0  0.47778  0.13419  0.51558  1.0000
  H   H1709     1.0  0.46494  0.10590  0.51949  1.0000
  H   H1710     1.0  0.52564  0.04053  0.50490  1.0000
  H   H1711     1.0  0.54196  0.05343  0.51651  1.0000
  C   C977      1.0  0.44595  0.13358  0.50519  1.0000
  C   C978      1.0  0.63161  0.01938  0.49901  1.0000
  H   H1712     1.0  0.52915  0.01407  0.52786  1.0000
  H   H1713     1.0  0.55465  0.13189  0.52396  1.0000
  H   H1714     1.0  0.58370  0.11332  0.51907  1.0000
  H   H1715     1.0  0.56866  0.13396  0.50542  1.0000
  H   H1716     1.0  0.37839  0.02442  0.63392  1.0000
  H   H1717     1.0  0.51568  0.07370  0.48487  1.0000
  C   C979      1.0  0.36676  0.13677  0.71266  1.0000
  C   C980      1.0  0.44596  0.99859  0.61192  1.0000
  C   C981      1.0  0.34757  0.05822  0.72104  1.0000
  C   C982      1.0  0.36354  0.11706  0.60565  1.0000
  C   C983      1.0  0.64038  0.03652  0.60433  1.0000
  H   H1718     1.0  0.37819  0.02928  0.49242  1.0000
  C   C984      1.0  0.35736  0.04884  0.59327  1.0000
  H   H1719     1.0  0.34973  0.06870  0.59210  1.0000
  H   H1720     1.0  0.50280  0.12397  0.57749  1.0000
  H   H1721     1.0  0.57426  0.17514  0.71767  1.0000
  H   H1722     1.0  0.38144  0.00893  0.61031  1.0000
  H   H1723     1.0  0.38408  0.00452  0.54913  1.0000
  H   H1724     1.0  0.37770  0.04707  0.59067  1.0000
  H   H1725     1.0  0.49321  0.08052  0.58991  1.0000
  C   C985      1.0  0.35497  0.03924  0.65178  1.0000
  H   H1726     1.0  0.65036  0.10320  0.69729  1.0000
  C   C986      1.0  0.52500  0.14363  0.58711  1.0000
  C   C987      1.0  0.37298  0.04758  0.71409  1.0000
  H   H1727     1.0  0.42679  0.13420  0.55887  1.0000
  H   H1728     1.0  0.46590  0.04772  0.61378  1.0000
  C   C988      1.0  0.50567  0.12636  0.58854  1.0000
  H   H1729     1.0  0.39569  0.04102  0.51297  1.0000
  H   H1730     1.0  0.64663  0.14123  0.48391  1.0000
  C   C989      1.0  0.34320  0.00893  0.63689  1.0000
  H   H1731     1.0  0.47053  0.00195  0.58438  1.0000
  H   H1732     1.0  0.43697  0.12065  0.50038  1.0000
  H   H1733     1.0  0.34975  0.03977  0.58544  1.0000
  H   H1734     1.0  0.59857  0.11616  0.48185  1.0000
  H   H1735     1.0  0.39753  0.14578  0.62686  1.0000
  H   H1736     1.0  0.47838  0.09856  0.49289  1.0000
  H   H1737     1.0  0.35062  0.13018  0.59987  1.0000
  H   H1738     1.0  0.35796  0.04759  0.61599  1.0000
  C   C990      1.0  0.47620  0.07641  0.59683  1.0000
  H   H1739     1.0  0.46837  0.11104  0.57637  1.0000
  H   H1740     1.0  0.51382  0.03884  0.53774  1.0000
  S   S209      1.0  0.38719  0.10772  0.57890  1.0000
  C   C991      1.0  0.61689  0.00176  0.55326  1.0000
  C   C992      1.0  0.65388  0.08489  0.49045  1.0000
  C   C993      1.0  0.36109  0.00960  0.61077  1.0000
  H   H1741     1.0  0.43916  0.16210  0.55194  1.0000
  H   H1742     1.0  0.49011  0.03743  0.60013  1.0000
  C   C994      1.0  0.36098  0.11475  0.62082  1.0000
  N   N55       1.0  0.45956  0.12330  0.59770  1.0000
  C   C995      1.0  0.45336  0.12216  0.58274  1.0000
  C   C996      1.0  0.46407  0.09771  0.60571  1.0000
  H   H1743     1.0  0.60105  0.15709  0.49044  1.0000
  H   H1744     1.0  0.63463  0.07871  0.70698  1.0000
  C   C997      1.0  0.42523  0.05681  0.47356  1.0000
  H   H1745     1.0  0.49233  0.12581  0.49053  1.0000
  H   H1746     1.0  0.60249  0.13537  0.70128  1.0000
  H   H1747     1.0  0.58237  0.04330  0.52294  1.0000
  C   C998      1.0  0.34393  0.13539  0.72096  1.0000
  H   H1748     1.0  0.62277  0.04109  0.61132  1.0000
  S   S210      1.0  0.65341  0.01135  0.56756  1.0000
  H   H1749     1.0  0.60376  0.20736  0.72023  1.0000
  H   H1750     1.0  0.59270  0.17261  0.50639  1.0000
  H   H1751     1.0  0.34307  0.07721  0.71567  1.0000
  C   C999      1.0  0.35043  0.03741  0.60868  1.0000
  H   H1752     1.0  0.35878  0.00138  0.60099  1.0000
  Fe  Fe110     1.0  0.34162  0.10508  0.66103  1.0000
  H   H1753     1.0  0.63151  0.14721  0.69728  1.0000
  H   H1754     1.0  0.34681  0.05559  0.64493  1.0000
  H   H1755     1.0  0.37913  0.02911  0.71968  1.0000
  H   H1756     1.0  0.66215  0.17757  0.71936  1.0000
  C   C1000     1.0  0.61202  0.15116  0.70216  1.0000
  H   H1757     1.0  0.66168  0.09127  0.72200  1.0000
  H   H1758     1.0  0.65765  0.10330  0.58981  1.0000
  H   H1759     1.0  0.34626  0.12619  0.62665  1.0000
  H   H1760     1.0  0.60163  0.00415  0.51350  1.0000
  H   H1761     1.0  0.37412  0.00287  0.64977  1.0000
  S   S211      1.0  0.33924  0.08279  0.68277  1.0000
  H   H1762     1.0  0.66409  0.04013  0.65321  1.0000
  C   C1001     1.0  0.53484  0.10506  0.47732  1.0000
  H   H1763     1.0  0.35357  0.99757  0.49111  1.0000
  H   H1764     1.0  0.65775  0.20501  0.49481  1.0000
  H   H1765     1.0  0.46135  0.99977  0.61807  1.0000
  H   H1766     1.0  0.34783  0.18778  0.70462  1.0000
  H   H1767     1.0  0.34085  0.03379  0.66070  1.0000
  C   C1002     1.0  0.61130  0.15507  0.71793  1.0000
  H   H1768     1.0  0.65102  0.03273  0.47263  1.0000
  H   H1769     1.0  0.33565  0.02303  0.72028  1.0000
  H   H1770     1.0  0.33387  0.99756  0.64607  1.0000
  C   C1003     1.0  0.66700  0.01782  0.47263  1.0000
  Fe  Fe111     1.0  0.66685  0.09805  0.55645  1.0000
  Fe  Fe112     1.0  0.62058  0.19945  0.78511  1.0000
  S   S212      1.0  0.62763  0.15851  0.79005  1.0000
  S   S213      1.0  0.58524  0.21781  0.77591  1.0000
  H   H1771     1.0  0.59019  0.20196  0.84928  1.0000
  H   H1772     1.0  0.39516  0.24995  0.72306  1.0000
  C   C1004     1.0  0.62191  0.00881  0.92528  1.0000
  H   H1773     1.0  0.39761  0.00099  0.95039  1.0000
  C   C1005     1.0  0.33636  0.09483  0.95211  1.0000
  Fe  Fe113     1.0  0.64023  0.16610  0.81050  1.0000
  H   H1774     1.0  0.56605  0.01498  0.95746  1.0000
  H   H1775     1.0  0.56687  0.04164  0.94436  1.0000
  S   S214      1.0  0.63138  0.20726  0.80603  1.0000
  Fe  Fe114     1.0  0.64022  0.11236  0.91287  1.0000
  S   S215      1.0  0.61204  0.08813  0.91186  1.0000
  H   H1776     1.0  0.64442  0.07567  0.82416  1.0000
  Fe  Fe115     1.0  0.62640  0.11331  0.94573  1.0000
  S   S216      1.0  0.59746  0.08898  0.94683  1.0000
  C   C1006     1.0  0.35051  0.23822  0.73815  1.0000
  Fe  Fe116     1.0  0.62509  0.06727  0.93205  1.0000
  C   C1007     1.0  0.53292  0.17418  0.74195  1.0000
  Fe  Fe117     1.0  0.58759  0.11226  0.92669  1.0000
  S   S217      1.0  0.54857  0.12640  0.92352  1.0000
  H   H1777     1.0  0.66547  0.05507  0.74681  1.0000
  S   S218      1.0  0.61447  0.13841  0.92631  1.0000
  Fe  Fe118     1.0  0.44565  0.18022  0.78176  1.0000
  S   S219      1.0  0.42969  0.14636  0.77938  1.0000
  S   S220      1.0  0.48547  0.17005  0.78724  1.0000
  Fe  Fe119     1.0  0.39472  0.21221  0.77943  1.0000
  S   S221      1.0  0.37568  0.18006  0.77777  1.0000
  S   S222      1.0  0.37627  0.25185  0.77462  1.0000
  Fe  Fe120     1.0  0.39819  0.16038  0.79525  1.0000
  S   S223      1.0  0.38521  0.13122  0.81275  1.0000
  Fe  Fe121     1.0  0.40875  0.16870  0.76220  1.0000
  S   S224      1.0  0.40862  0.15694  0.73997  1.0000
  S   S225      1.0  0.41459  0.19353  0.79835  1.0000
  S   S226      1.0  0.42736  0.20156  0.76311  1.0000
  Fe  Fe122     1.0  0.40465  0.04343  0.91183  1.0000
  H   H1778     1.0  0.63435  0.12725  0.76535  1.0000
  Fe  Fe123     1.0  0.45455  0.06032  0.90669  1.0000
  S   S227      1.0  0.43818  0.09941  0.90868  1.0000
  S   S228      1.0  0.49530  0.04635  0.90453  1.0000
  Fe  Fe124     1.0  0.41394  0.08458  0.92767  1.0000
  C   C1008     1.0  0.36757  0.15971  0.91633  1.0000
  Fe  Fe125     1.0  0.41050  0.09328  0.89482  1.0000
  S   S229      1.0  0.40159  0.12681  0.87859  1.0000
  S   S230      1.0  0.43213  0.04594  0.92672  1.0000
  S   S231      1.0  0.42875  0.05476  0.89145  1.0000
  H   H1779     1.0  0.63547  0.03228  0.96935  1.0000
  H   H1780     1.0  0.62089  0.13801  0.72348  1.0000
  Fe  Fe126     1.0  0.66618  0.16187  0.77950  1.0000
  C   C1009     1.0  0.39034  0.13005  0.83094  1.0000
  C   C1010     1.0  0.39297  0.15119  0.83676  1.0000
  C   C1011     1.0  0.39635  0.14980  0.85137  1.0000
  C   C1012     1.0  0.39759  0.12724  0.86026  1.0000
  C   C1013     1.0  0.39534  0.10599  0.85441  1.0000
  C   C1014     1.0  0.39139  0.10748  0.83985  1.0000
  H   H1781     1.0  0.39192  0.16869  0.83006  1.0000
  H   H1782     1.0  0.39614  0.08854  0.86115  1.0000
  H   H1783     1.0  0.38924  0.09106  0.83545  1.0000
  C   C1015     1.0  0.51142  0.15994  0.74767  1.0000
  H   H1784     1.0  0.64289  0.11995  0.74705  1.0000
  H   H1785     1.0  0.47141  0.00871  0.86891  1.0000
  H   H1786     1.0  0.37678  0.21106  0.72640  1.0000
  C   C1016     1.0  0.38351  0.14805  0.73313  1.0000
  C   C1017     1.0  0.36083  0.14608  0.74155  1.0000
  H   H1787     1.0  0.34417  0.19439  0.75512  1.0000
  H   H1788     1.0  0.61798  0.20093  0.73678  1.0000
  H   H1789     1.0  0.35849  0.14941  0.75272  1.0000
  C   C1018     1.0  0.48584  0.10560  0.94878  1.0000
  C   C1019     1.0  0.53568  0.10408  0.91699  1.0000
  C   C1020     1.0  0.54584  0.07921  0.91894  1.0000
  C   C1021     1.0  0.53379  0.06132  0.91482  1.0000
  C   C1022     1.0  0.51173  0.06846  0.90867  1.0000
  C   C1023     1.0  0.50243  0.09338  0.90618  1.0000
  C   C1024     1.0  0.51421  0.11115  0.91042  1.0000
  H   H1790     1.0  0.56255  0.07373  0.92399  1.0000
  H   H1791     1.0  0.54128  0.04205  0.91661  1.0000
  H   H1792     1.0  0.48622  0.09913  0.90091  1.0000
  H   H1793     1.0  0.50645  0.13038  0.90878  1.0000
  C   C1025     1.0  0.60499  0.01962  0.91570  1.0000
  H   H1794     1.0  0.59788  0.03896  0.91538  1.0000
  H   H1795     1.0  0.39750  0.24659  0.74223  1.0000
  C   C1026     1.0  0.60331  0.12960  0.75303  1.0000
  H   H1796     1.0  0.53990  0.02609  0.94768  1.0000
  H   H1797     1.0  0.62921  0.09832  0.76057  1.0000
  C   C1027     1.0  0.55730  0.20481  0.77951  1.0000
  C   C1028     1.0  0.53589  0.21767  0.77396  1.0000
  C   C1029     1.0  0.51362  0.20751  0.77623  1.0000
  C   C1030     1.0  0.51264  0.18425  0.78400  1.0000
  C   C1031     1.0  0.53413  0.17130  0.78934  1.0000
  C   C1032     1.0  0.55626  0.18153  0.78721  1.0000
  H   H1798     1.0  0.53649  0.23565  0.76793  1.0000
  H   H1799     1.0  0.49727  0.21765  0.77200  1.0000
  H   H1800     1.0  0.53370  0.15313  0.79513  1.0000
  H   H1801     1.0  0.57252  0.17133  0.79150  1.0000
  H   H1802     1.0  0.59927  0.16635  0.75912  1.0000
  C   C1033     1.0  0.60095  0.20905  0.73193  1.0000
  C   C1034     1.0  0.62778  0.13266  0.87457  1.0000
  S   S232      1.0  0.66497  0.12302  0.89230  1.0000
  H   H1803     1.0  0.55742  0.14143  0.74854  1.0000
  C   C1035     1.0  0.61348  0.02238  0.85951  1.0000
  C   C1036     1.0  0.46969  0.12887  0.94301  1.0000
  H   H1804     1.0  0.63873  0.04699  0.89871  1.0000
  H   H1805     1.0  0.33546  0.23193  0.79333  1.0000
  H   H1806     1.0  0.48557  0.04933  0.96966  1.0000
  H   H1807     1.0  0.36585  0.17928  0.91161  1.0000
  S   S233      1.0  0.62327  0.14662  0.83155  1.0000
  S   S234      1.0  0.38438  0.08162  0.91419  1.0000
  N   N56       1.0  0.58080  0.16923  0.74005  1.0000
  H   H1808     1.0  0.33920  0.03722  0.94001  1.0000
  C   C1037     1.0  0.58434  0.16103  0.72515  1.0000
  H   H1809     1.0  0.36943  0.13912  0.95658  1.0000
  H   H1810     1.0  0.55512  0.16533  0.75956  1.0000
  H   H1811     1.0  0.50938  0.15679  0.75961  1.0000
  C   C1038     1.0  0.48706  0.00301  0.87541  1.0000
  C   C1039     1.0  0.55707  0.16162  0.74811  1.0000
  H   H1812     1.0  0.66240  0.17260  0.74592  1.0000
  C   C1040     1.0  0.65659  0.05594  0.87651  1.0000
  C   C1041     1.0  0.66062  0.13838  0.84922  1.0000
  H   H1813     1.0  0.63057  0.01768  0.87871  1.0000
  H   H1814     1.0  0.34875  0.05954  0.73253  1.0000
  H   H1815     1.0  0.45458  0.13477  0.95142  1.0000
  C   C1042     1.0  0.39843  0.06745  0.96798  1.0000
  H   H1816     1.0  0.53799  0.08126  0.94971  1.0000
  H   H1817     1.0  0.52776  0.19299  0.74525  1.0000
  C   C1043     1.0  0.63795  0.06964  0.85431  1.0000
  H   H1818     1.0  0.46648  0.00050  0.92003  1.0000
  H   H1819     1.0  0.63483  0.19189  0.84397  1.0000
  H   H1820     1.0  0.36474  0.05039  0.94394  1.0000
  H   H1821     1.0  0.55076  0.09374  0.87458  1.0000
  H   H1822     1.0  0.58449  0.06611  0.86241  1.0000
  H   H1823     1.0  0.65908  0.04554  0.72355  1.0000
  H   H1824     1.0  0.46281  0.99727  0.89487  1.0000
  H   H1825     1.0  0.60072  0.22021  0.83304  1.0000
  C   C1044     1.0  0.37571  0.22144  0.73577  1.0000
  H   H1826     1.0  0.34896  0.25235  0.72862  1.0000
  H   H1827     1.0  0.59458  0.23950  0.74502  1.0000
  N   N57       1.0  0.47288  0.13562  0.83319  1.0000
  C   C1045     1.0  0.46832  0.13245  0.84944  1.0000
  C   C1046     1.0  0.46045  0.16074  0.82767  1.0000
  C   C1047     1.0  0.46042  0.11673  0.82797  1.0000
  C   C1048     1.0  0.50001  0.13202  0.82739  1.0000
  C   C1049     1.0  0.51831  0.13879  0.83681  1.0000
  C   C1050     1.0  0.47515  0.10584  0.85671  1.0000
  C   C1051     1.0  0.45964  0.11878  0.81150  1.0000
  C   C1052     1.0  0.47027  0.18310  0.83174  1.0000
  C   C1053     1.0  0.45485  0.20714  0.82631  1.0000
  C   C1054     1.0  0.54413  0.13901  0.82855  1.0000
  C   C1055     1.0  0.47734  0.10541  0.87264  1.0000
  C   C1056     1.0  0.45179  0.09580  0.80730  1.0000
  H   H1828     1.0  0.44841  0.13813  0.85313  1.0000
  H   H1829     1.0  0.47794  0.14489  0.85416  1.0000
  H   H1830     1.0  0.46228  0.16324  0.81573  1.0000
  H   H1831     1.0  0.44027  0.16254  0.83128  1.0000
  H   H1832     1.0  0.44104  0.11743  0.83322  1.0000
  H   H1833     1.0  0.46972  0.09784  0.83118  1.0000
  H   H1834     1.0  0.50656  0.11248  0.82561  1.0000
  H   H1835     1.0  0.50287  0.14252  0.81649  1.0000
  H   H1836     1.0  0.52001  0.12507  0.84648  1.0000
  H   H1837     1.0  0.51229  0.15704  0.84061  1.0000
  H   H1838     1.0  0.46040  0.09478  0.85594  1.0000
  H   H1839     1.0  0.49281  0.09669  0.85145  1.0000
  H   H1840     1.0  0.47792  0.12126  0.80543  1.0000
  H   H1841     1.0  0.44583  0.13463  0.80814  1.0000
  H   H1842     1.0  0.46965  0.18254  0.84356  1.0000
  H   H1843     1.0  0.48945  0.18376  0.82651  1.0000
  H   H1844     1.0  0.45585  0.20913  0.81437  1.0000
  H   H1845     1.0  0.43525  0.20767  0.83109  1.0000
  H   H1846     1.0  0.46212  0.22295  0.82940  1.0000
  H   H1847     1.0  0.54392  0.15418  0.81956  1.0000
  H   H1848     1.0  0.55715  0.14210  0.83586  1.0000
  H   H1849     1.0  0.55101  0.12122  0.82420  1.0000
  H   H1850     1.0  0.48071  0.08604  0.87767  1.0000
  H   H1851     1.0  0.49297  0.11480  0.87407  1.0000
  H   H1852     1.0  0.45998  0.11465  0.87820  1.0000
  H   H1853     1.0  0.46526  0.07927  0.81006  1.0000
  H   H1854     1.0  0.43320  0.09308  0.81292  1.0000
  H   H1855     1.0  0.45089  0.09795  0.79552  1.0000
  H   H1856     1.0  0.61497  0.13063  0.88428  1.0000
  C   C1057     1.0  0.57833  0.19688  0.73920  1.0000
  H   H1857     1.0  0.59333  0.09541  0.86333  1.0000
  C   C1058     1.0  0.63528  0.14114  0.84831  1.0000
  H   H1858     1.0  0.39449  0.05838  0.95932  1.0000
  H   H1859     1.0  0.41753  0.00590  0.89042  1.0000
  H   H1860     1.0  0.57581  0.14411  0.72526  1.0000
  H   H1861     1.0  0.34543  0.11825  0.92501  1.0000
  C   C1059     1.0  0.59699  0.00524  0.90660  1.0000
  H   H1862     1.0  0.64193  0.23408  0.83051  1.0000
  H   H1863     1.0  0.62656  0.20655  0.86035  1.0000
  H   H1864     1.0  0.62182  0.07059  0.84839  1.0000
  H   H1865     1.0  0.57347  0.20258  0.75021  1.0000
  H   H1866     1.0  0.34544  0.16795  0.93602  1.0000
  H   H1867     1.0  0.44380  0.99889  0.94471  1.0000
  H   H1868     1.0  0.55942  0.05323  0.96894  1.0000
  H   H1869     1.0  0.58370  0.01356  0.89932  1.0000
  H   H1870     1.0  0.61303  0.24497  0.72792  1.0000
  C   C1060     1.0  0.56629  0.08419  0.88047  1.0000
  S   S235      1.0  0.63276  0.02612  0.93668  1.0000
  H   H1871     1.0  0.35654  0.09088  0.95300  1.0000
  H   H1872     1.0  0.60518  0.05196  0.88659  1.0000
  H   H1873     1.0  0.58982  0.12566  0.76265  1.0000
  H   H1874     1.0  0.34925  0.29965  0.76783  1.0000
  H   H1875     1.0  0.46128  0.12509  0.93366  1.0000
  H   H1876     1.0  0.47422  0.09083  0.95160  1.0000
  H   H1877     1.0  0.63883  0.08903  0.85580  1.0000
  H   H1878     1.0  0.36843  0.14815  0.90749  1.0000
  H   H1879     1.0  0.49283  0.01982  0.87828  1.0000
  N   N58       1.0  0.51396  0.08834  0.96920  1.0000
  H   H1880     1.0  0.49395  0.17058  0.74429  1.0000
  C   C1061     1.0  0.64395  0.22952  0.84221  1.0000
  H   H1881     1.0  0.37886  0.20809  0.74543  1.0000
  H   H1882     1.0  0.34005  0.04402  0.95809  1.0000
  C   C1062     1.0  0.61166  0.06581  0.87778  1.0000
  S   S236      1.0  0.65531  0.08973  0.93238  1.0000
  H   H1883     1.0  0.56063  0.06713  0.88672  1.0000
  C   C1063     1.0  0.62903  0.11816  0.75672  1.0000
  H   H1884     1.0  0.39798  0.16634  0.85582  1.0000
  H   H1885     1.0  0.36059  0.11409  0.96969  1.0000
  H   H1886     1.0  0.51064  0.12443  0.95681  1.0000
  H   H1887     1.0  0.61604  0.08091  0.88317  1.0000
  H   H1888     1.0  0.34574  0.02136  0.74493  1.0000
  C   C1064     1.0  0.33683  0.28895  0.77497  1.0000
  H   H1889     1.0  0.37340  0.00765  0.96489  1.0000
  C   C1065     1.0  0.39701  0.23657  0.73288  1.0000
  S   S237      1.0  0.62701  0.12952  0.96637  1.0000
  S   S238      1.0  0.41198  0.10456  0.94719  1.0000
  H   H1890     1.0  0.49985  0.10023  0.93977  1.0000
  C   C1066     1.0  0.54367  0.04801  0.96458  1.0000
  C   C1067     1.0  0.65311  0.12997  0.87550  1.0000
  H   H1891     1.0  0.59931  0.14034  0.86044  1.0000
  C   C1068     1.0  0.59682  0.23653  0.73347  1.0000
  C   C1069     1.0  0.62768  0.20942  0.84844  1.0000
  H   H1892     1.0  0.65847  0.07555  0.87698  1.0000
  H   H1893     1.0  0.59518  0.02627  0.86593  1.0000
  H   H1894     1.0  0.56996  0.09651  0.88803  1.0000
  H   H1895     1.0  0.65594  0.20441  0.88865  1.0000
  H   H1896     1.0  0.36646  0.12216  0.93656  1.0000
  C   C1070     1.0  0.58921  0.07795  0.86980  1.0000
  H   H1897     1.0  0.66130  0.04167  0.84192  1.0000
  H   H1898     1.0  0.60701  0.02084  0.96885  1.0000
  C   C1071     1.0  0.63378  0.02792  0.86777  1.0000
  H   H1899     1.0  0.61340  0.03323  0.84875  1.0000
  C   C1072     1.0  0.60141  0.15786  0.74887  1.0000
  C   C1073     1.0  0.60120  0.21697  0.84486  1.0000
  H   H1900     1.0  0.59252  0.23390  0.84971  1.0000
  H   H1901     1.0  0.65435  0.27747  0.83756  1.0000
  C   C1074     1.0  0.34108  0.13997  0.73545  1.0000
  H   H1902     1.0  0.35178  0.24867  0.74723  1.0000
  C   C1075     1.0  0.34451  0.05039  0.94648  1.0000
  H   H1903     1.0  0.38513  0.15502  0.92124  1.0000
  C   C1076     1.0  0.40846  0.08943  0.96486  1.0000
  H   H1904     1.0  0.41475  0.22409  0.73120  1.0000
  H   H1905     1.0  0.48433  0.11925  0.96942  1.0000
  H   H1906     1.0  0.61725  0.22881  0.96215  1.0000
  C   C1077     1.0  0.52664  0.07102  0.95851  1.0000
  H   H1907     1.0  0.61956  0.16194  0.74331  1.0000
  H   H1908     1.0  0.51441  0.14189  0.74338  1.0000
  N   N59       1.0  0.63463  0.05462  0.86887  1.0000
  H   H1909     1.0  0.63513  0.24608  0.84741  1.0000
  H   H1910     1.0  0.65966  0.23273  0.86599  1.0000
  C   C1078     1.0  0.61895  0.13823  0.86104  1.0000
  H   H1911     1.0  0.48094  0.14394  0.93931  1.0000
  S   S239      1.0  0.38505  0.00998  0.91733  1.0000
  H   H1912     1.0  0.51306  0.06410  0.95307  1.0000
  C   C1079     1.0  0.55470  0.03173  0.95277  1.0000
  H   H1913     1.0  0.59901  0.12031  0.74420  1.0000
  H   H1914     1.0  0.58013  0.24592  0.72859  1.0000
  C   C1080     1.0  0.49872  0.11020  0.96158  1.0000
  H   H1915     1.0  0.56282  0.20586  0.73311  1.0000
  H   H1916     1.0  0.53504  0.17564  0.73002  1.0000
  H   H1917     1.0  0.40524  0.00441  0.96790  1.0000
  H   H1918     1.0  0.34295  0.19269  0.73090  1.0000
  C   C1081     1.0  0.66101  0.07693  0.82929  1.0000
  S   S240      1.0  0.65858  0.20248  0.77297  1.0000
  C   C1082     1.0  0.34551  0.15569  0.92769  1.0000
  H   H1919     1.0  0.66030  0.18467  0.86616  1.0000
  H   H1920     1.0  0.65966  0.02202  0.89177  1.0000
  H   H1921     1.0  0.33562  0.08152  0.93101  1.0000
  C   C1083     1.0  0.66098  0.06099  0.84386  1.0000
  H   H1922     1.0  0.54734  0.10511  0.96652  1.0000
  H   H1923     1.0  0.65202  0.01897  0.86300  1.0000
  C   C1084     1.0  0.34534  0.26444  0.78008  1.0000
  C   C1085     1.0  0.65645  0.04224  0.89203  1.0000
  H   H1924     1.0  0.66328  0.00190  0.96217  1.0000
  C   C1086     1.0  0.39207  0.99738  0.96218  1.0000
  C   C1087     1.0  0.34723  0.12838  0.93407  1.0000
  H   H1925     1.0  0.66124  0.09648  0.83062  1.0000
  C   C1088     1.0  0.35499  0.13338  0.96519  1.0000
  H   H1926     1.0  0.63922  0.24032  0.97091  1.0000
  Fe  Fe127     1.0  0.63484  0.79575  0.20019  1.0000
  S   S241      1.0  0.61852  0.76110  0.20021  1.0000
  Fe  Fe128     1.0  0.64007  0.80396  0.16682  1.0000
  S   S242      1.0  0.62569  0.76903  0.16491  1.0000
  H   H1927     1.0  0.56678  0.88088  0.11468  1.0000
  Fe  Fe129     1.0  0.59615  0.78064  0.18273  1.0000
  S   S243      1.0  0.55425  0.78912  0.18144  1.0000
  S   S244      1.0  0.61020  0.81600  0.18417  1.0000
  Fe  Fe130     1.0  0.57333  0.90561  0.05837  1.0000
  S   S245      1.0  0.53255  0.91890  0.06269  1.0000
  S   S246      1.0  0.60130  0.90673  0.07328  1.0000
  S   S247      1.0  0.59478  0.92266  0.03875  1.0000
  Fe  Fe131     1.0  0.42977  0.74442  0.16756  1.0000
  S   S248      1.0  0.40959  0.78122  0.17248  1.0000
  S   S249      1.0  0.47089  0.73070  0.16817  1.0000
  Fe  Fe132     1.0  0.38133  0.72574  0.16316  1.0000
  S   S250      1.0  0.35793  0.76167  0.16753  1.0000
  S   S251      1.0  0.36987  0.68973  0.15909  1.0000
  Fe  Fe133     1.0  0.38903  0.77891  0.15369  1.0000
  S   S252      1.0  0.38642  0.81235  0.13682  1.0000
  Fe  Fe134     1.0  0.38061  0.76075  0.18577  1.0000
  C   C1089     1.0  0.49556  0.92119  0.01807  1.0000
  S   S253      1.0  0.41089  0.74308  0.14811  1.0000
  S   S254      1.0  0.40231  0.72384  0.18205  1.0000
  Fe  Fe135     1.0  0.39796  0.88376  0.03878  1.0000
  S   S255      1.0  0.37524  0.85622  0.03398  1.0000
  S   S256      1.0  0.38382  0.92427  0.03657  1.0000
  Fe  Fe136     1.0  0.44180  0.84547  0.04384  1.0000
  S   S257      1.0  0.42311  0.81527  0.03924  1.0000
  S   S258      1.0  0.47964  0.83397  0.05018  1.0000
  Fe  Fe137     1.0  0.41012  0.84143  0.02051  1.0000
  S   S259      1.0  0.41978  0.82859  0.99817  1.0000
  Fe  Fe138     1.0  0.39066  0.83282  0.05324  1.0000
  S   S260      1.0  0.37270  0.80749  0.07129  1.0000
  S   S261      1.0  0.43175  0.87043  0.02426  1.0000
  S   S262      1.0  0.41043  0.86168  0.05887  1.0000
  C   C1090     1.0  0.38217  0.81050  0.11874  1.0000
  C   C1091     1.0  0.37867  0.78855  0.11411  1.0000
  C   C1092     1.0  0.37550  0.78791  0.09960  1.0000
  C   C1093     1.0  0.37636  0.80902  0.08952  1.0000
  C   C1094     1.0  0.37979  0.83094  0.09419  1.0000
  C   C1095     1.0  0.38255  0.83169  0.10873  1.0000
  H   H1928     1.0  0.37816  0.77213  0.12172  1.0000
  H   H1929     1.0  0.37258  0.77093  0.09612  1.0000
  H   H1930     1.0  0.37989  0.84745  0.08665  1.0000
  H   H1931     1.0  0.38498  0.84881  0.11223  1.0000
  H   H1932     1.0  0.55461  0.83216  0.98385  1.0000
  C   C1096     1.0  0.45445  0.62607  0.15865  1.0000
  C   C1097     1.0  0.35736  0.81053  0.21270  1.0000
  H   H1933     1.0  0.38560  0.97614  0.08090  1.0000
  H   H1934     1.0  0.57227  0.88554  0.16086  1.0000
  C   C1098     1.0  0.56661  0.96728  0.01224  1.0000
  H   H1935     1.0  0.47599  0.99178  0.04328  1.0000
  H   H1936     1.0  0.44978  0.93984  0.03102  1.0000
  H   H1937     1.0  0.57230  0.96276  0.08953  1.0000
  H   H1938     1.0  0.52464  0.79951  0.99391  1.0000
  H   H1939     1.0  0.43822  0.95789  0.01539  1.0000
  H   H1940     1.0  0.46612  0.56166  0.16402  1.0000
  C   C1099     1.0  0.38098  0.85113  0.98281  1.0000
  C   C1100     1.0  0.40521  0.83888  0.98240  1.0000
  H   H1941     1.0  0.50820  0.78355  0.01907  1.0000
  C   C1101     1.0  0.47497  0.86465  0.98549  1.0000
  H   H1942     1.0  0.63673  0.79611  0.10568  1.0000
  H   H1943     1.0  0.37052  0.85478  0.99306  1.0000
  H   H1944     1.0  0.65347  0.97659  0.00896  1.0000
  C   C1102     1.0  0.45792  0.66988  0.15669  1.0000
  C   C1103     1.0  0.39968  0.94285  0.04447  1.0000
  C   C1104     1.0  0.41440  0.93304  0.05539  1.0000
  C   C1105     1.0  0.42583  0.94864  0.06201  1.0000
  H   H1945     1.0  0.47461  0.79472  0.13931  1.0000
  H   H1946     1.0  0.44693  0.72224  0.19930  1.0000
  C   C1106     1.0  0.39720  0.96808  0.03984  1.0000
  H   H1947     1.0  0.41648  0.91356  0.05893  1.0000
  H   H1948     1.0  0.43673  0.94112  0.07068  1.0000
  H   H1949     1.0  0.45766  0.71203  0.13769  1.0000
  H   H1950     1.0  0.38600  0.97574  0.03133  1.0000
  C   C1107     1.0  0.51541  0.89537  0.06173  1.0000
  C   C1108     1.0  0.49165  0.90087  0.05753  1.0000
  C   C1109     1.0  0.47993  0.88196  0.05431  1.0000
  C   C1110     1.0  0.49191  0.85767  0.05566  1.0000
  C   C1111     1.0  0.51472  0.85211  0.06091  1.0000
  C   C1112     1.0  0.52625  0.87091  0.06409  1.0000
  H   H1951     1.0  0.48281  0.91978  0.05610  1.0000
  H   H1952     1.0  0.46210  0.88627  0.05037  1.0000
  H   H1953     1.0  0.52390  0.83331  0.06210  1.0000
  H   H1954     1.0  0.54369  0.86639  0.06825  1.0000
  C   C1113     1.0  0.53184  0.77250  0.17714  1.0000
  C   C1114     1.0  0.50830  0.78527  0.17479  1.0000
  C   C1115     1.0  0.48947  0.77281  0.17200  1.0000
  C   C1116     1.0  0.49401  0.74740  0.17146  1.0000
  C   C1117     1.0  0.51768  0.73473  0.17348  1.0000
  C   C1118     1.0  0.53651  0.74718  0.17631  1.0000
  H   H1955     1.0  0.50457  0.80490  0.17524  1.0000
  H   H1956     1.0  0.47151  0.78284  0.17022  1.0000
  H   H1957     1.0  0.52146  0.71510  0.17299  1.0000
  H   H1958     1.0  0.55451  0.73713  0.17805  1.0000
  H   H1959     1.0  0.48686  0.63902  0.17398  1.0000
  H   H1960     1.0  0.51953  0.99454  0.03337  1.0000
  H   H1961     1.0  0.64604  0.54982  0.15950  1.0000
  C   C1119     1.0  0.52241  0.91854  0.99512  1.0000
  H   H1962     1.0  0.64646  0.89636  0.00002  1.0000
  C   C1120     1.0  0.63885  0.83418  0.13076  1.0000
  S   S263      1.0  0.64664  0.95114  0.04989  1.0000
  H   H1963     1.0  0.44918  0.59723  0.17718  1.0000
  C   C1121     1.0  0.45647  0.78973  0.13803  1.0000
  H   H1964     1.0  0.50032  0.64994  0.19702  1.0000
  H   H1965     1.0  0.46332  0.62772  0.18657  1.0000
  H   H1966     1.0  0.42456  0.68471  0.14635  1.0000
  H   H1967     1.0  0.42007  0.67322  0.17609  1.0000
  H   H1968     1.0  0.54782  0.85057  0.16408  1.0000
  H   H1969     1.0  0.45462  0.77175  0.14455  1.0000
  H   H1970     1.0  0.45451  0.68684  0.16214  1.0000
  C   C1122     1.0  0.42380  0.65440  0.17274  1.0000
  H   H1971     1.0  0.56300  0.99007  0.04389  1.0000
  N   N60       1.0  0.50722  0.82708  0.97842  1.0000
  H   H1972     1.0  0.57954  0.86308  0.17583  1.0000
  C   C1123     1.0  0.56690  0.84817  0.15853  1.0000
  C   C1124     1.0  0.58065  0.86628  0.16390  1.0000
  C   C1125     1.0  0.41338  0.63663  0.18536  1.0000
  H   H1973     1.0  0.60039  0.86378  0.15933  1.0000
  H   H1974     1.0  0.43775  0.62551  0.15338  1.0000
  H   H1975     1.0  0.52979  0.97142  0.04724  1.0000
  C   C1126     1.0  0.48822  0.81594  0.97244  1.0000
  C   C1127     1.0  0.60487  0.87191  0.98513  1.0000
  H   H1976     1.0  0.55528  0.98457  0.00813  1.0000
  H   H1977     1.0  0.47869  0.78914  0.20098  1.0000
  C   C1128     1.0  0.44398  0.67667  0.14318  1.0000
  H   H1978     1.0  0.59968  0.98917  0.09137  1.0000
  H   H1979     1.0  0.42410  0.63437  0.19465  1.0000
  C   C1129     1.0  0.36537  0.92415  0.97679  1.0000
  H   H1980     1.0  0.65585  0.94192  0.98551  1.0000
  C   C1130     1.0  0.53653  0.89710  0.01846  1.0000
  H   H1981     1.0  0.47267  0.82500  0.00461  1.0000
  C   C1131     1.0  0.54886  0.97157  0.07217  1.0000
  S   S264      1.0  0.64660  0.83425  0.14834  1.0000
  C   C1132     1.0  0.55442  0.95902  0.08706  1.0000
  C   C1133     1.0  0.52617  0.87256  0.01889  1.0000
  H   H1982     1.0  0.51982  0.87078  0.00851  1.0000
  C   C1134     1.0  0.55854  0.94499  0.00731  1.0000
  H   H1983     1.0  0.36307  0.91630  0.09523  1.0000
  H   H1984     1.0  0.65888  0.56579  0.14292  1.0000
  C   C1135     1.0  0.54537  0.85034  0.02258  1.0000
  H   H1985     1.0  0.47206  0.64378  0.20825  1.0000
  H   H1986     1.0  0.53761  0.89965  0.02987  1.0000
  H   H1987     1.0  0.55599  0.89448  0.01350  1.0000
  H   H1988     1.0  0.61560  0.93066  0.10042  1.0000
  H   H1989     1.0  0.53044  0.94274  0.02574  1.0000
  H   H1990     1.0  0.60662  0.99100  0.03422  1.0000
  H   H1991     1.0  0.36200  0.81394  0.20115  1.0000
  S   S265      1.0  0.60554  0.87035  0.01407  1.0000
  H   H1992     1.0  0.45839  0.77841  0.97711  1.0000
  H   H1993     1.0  0.54786  0.88502  0.99041  1.0000
  C   C1136     1.0  0.37417  0.93169  0.09326  1.0000
  H   H1994     1.0  0.51014  0.87178  0.02733  1.0000
  C   C1137     1.0  0.35015  0.83036  0.22097  1.0000
  H   H1995     1.0  0.41326  0.61850  0.18174  1.0000
  C   C1138     1.0  0.63251  0.85673  0.12239  1.0000
  H   H1996     1.0  0.57182  0.92859  0.01047  1.0000
  H   H1997     1.0  0.35499  0.90828  0.97755  1.0000
  C   C1139     1.0  0.38485  0.91544  0.98749  1.0000
  H   H1998     1.0  0.46022  0.85370  0.98504  1.0000
  H   H1999     1.0  0.56364  0.96417  0.06401  1.0000
  H   H2000     1.0  0.36073  0.98123  0.06341  1.0000
  C   C1140     1.0  0.63650  0.97518  0.06063  1.0000
  H   H2001     1.0  0.53961  0.96540  0.09551  1.0000
  C   C1141     1.0  0.51079  0.81650  0.99376  1.0000
  C   C1142     1.0  0.49094  0.97704  0.04650  1.0000
  H   H2002     1.0  0.56057  0.84852  0.01359  1.0000
  Fe  Fe139     1.0  0.61719  0.86912  0.06731  1.0000
  H   H2003     1.0  0.56951  0.86358  0.09131  1.0000
  H   H2004     1.0  0.52161  0.79437  0.21385  1.0000
  Fe  Fe140     1.0  0.64948  0.75226  0.18253  1.0000
  H   H2005     1.0  0.35950  0.89676  0.00353  1.0000
  H   H2006     1.0  0.62953  0.95413  0.99649  1.0000
  C   C1143     1.0  0.47732  0.94362  0.01239  1.0000
  H   H2007     1.0  0.49246  0.96220  0.03955  1.0000
  H   H2008     1.0  0.47300  0.58168  0.14772  1.0000
  H   H2009     1.0  0.38586  0.93032  0.08277  1.0000
  C   C1144     1.0  0.62742  0.85748  0.10810  1.0000
  H   H2010     1.0  0.53102  0.96633  0.07067  1.0000
  H   H2011     1.0  0.45776  0.82715  0.19210  1.0000
  H   H2012     1.0  0.47777  0.94514  0.00051  1.0000
  H   H2013     1.0  0.61313  0.95480  0.07626  1.0000
  H   H2014     1.0  0.34933  0.84902  0.21572  1.0000
  H   H2015     1.0  0.43977  0.88563  0.07689  1.0000
  C   C1145     1.0  0.56768  0.85255  0.14191  1.0000
  H   H2016     1.0  0.47814  0.66681  0.15303  1.0000
  H   H2017     1.0  0.47721  0.79542  0.02611  1.0000
  C   C1146     1.0  0.46732  0.64381  0.17874  1.0000
  C   C1147     1.0  0.46544  0.89085  0.97931  1.0000
  H   H2018     1.0  0.49485  0.92134  0.02988  1.0000
  H   H2019     1.0  0.62238  0.87488  0.10178  1.0000
  H   H2020     1.0  0.56373  0.87277  0.13894  1.0000
  H   H2021     1.0  0.46959  0.77311  0.11868  1.0000
  C   C1148     1.0  0.55162  0.87136  0.11263  1.0000
  H   H2022     1.0  0.48042  0.79419  0.00001  1.0000
  H   H2023     1.0  0.47571  0.87292  0.14079  1.0000
  H   H2024     1.0  0.48067  0.59837  0.16972  1.0000
  H   H2025     1.0  0.51875  0.82957  0.99909  1.0000
  H   H2026     1.0  0.44451  0.70199  0.12347  1.0000
  H   H2027     1.0  0.56315  0.91129  0.98911  1.0000
  C   C1149     1.0  0.42115  0.84158  0.18712  1.0000
  H   H2028     1.0  0.39739  0.92912  0.98739  1.0000
  H   H2029     1.0  0.35179  0.93915  0.98127  1.0000
  C   C1150     1.0  0.33664  0.65721  0.16054  1.0000
  N   N61       1.0  0.45064  0.64816  0.16699  1.0000
  C   C1151     1.0  0.62938  0.83566  0.10191  1.0000
  N   N62       1.0  0.52201  0.91955  0.01106  1.0000
  H   H2030     1.0  0.47731  0.86485  0.99698  1.0000
  H   H2031     1.0  0.63140  0.87365  0.12708  1.0000
  C   C1152     1.0  0.64733  0.95873  0.99056  1.0000
  H   H2032     1.0  0.50720  0.90897  0.99320  1.0000
  H   H2033     1.0  0.35280  0.64361  0.15882  1.0000
  H   H2034     1.0  0.53387  0.88153  0.11704  1.0000
  C   C1153     1.0  0.46147  0.60032  0.16701  1.0000
  C   C1154     1.0  0.46657  0.66559  0.18758  1.0000
  N   N63       1.0  0.55039  0.83982  0.13555  1.0000
  C   C1155     1.0  0.55402  0.81252  0.14029  1.0000
  C   C1156     1.0  0.52414  0.85010  0.14077  1.0000
  C   C1157     1.0  0.55560  0.84410  0.11936  1.0000
  C   C1158     1.0  0.58053  0.79868  0.13715  1.0000
  C   C1159     1.0  0.50374  0.84397  0.13267  1.0000
  C   C1160     1.0  0.47807  0.85282  0.14013  1.0000
  C   C1161     1.0  0.58125  0.77109  0.14172  1.0000
  H   H2035     1.0  0.54185  0.80331  0.13503  1.0000
  H   H2036     1.0  0.54823  0.80872  0.15205  1.0000
  H   H2037     1.0  0.52196  0.87046  0.14051  1.0000
  H   H2038     1.0  0.54470  0.83320  0.11426  1.0000
  H   H2039     1.0  0.57522  0.83726  0.11572  1.0000
  H   H2040     1.0  0.57574  0.82924  0.16188  1.0000
  H   H2041     1.0  0.58729  0.80090  0.12550  1.0000
  H   H2042     1.0  0.59357  0.80535  0.14310  1.0000
  H   H2043     1.0  0.50505  0.85313  0.12143  1.0000
  H   H2044     1.0  0.50522  0.82391  0.13234  1.0000
  H   H2045     1.0  0.47523  0.84295  0.15117  1.0000
  H   H2046     1.0  0.46362  0.84920  0.13397  1.0000
  H   H2047     1.0  0.60028  0.76152  0.13910  1.0000
  H   H2048     1.0  0.57582  0.76742  0.15350  1.0000
  H   H2049     1.0  0.56865  0.76340  0.13593  1.0000
  C   C1162     1.0  0.62911  0.93523  0.10693  1.0000
  H   H2050     1.0  0.54968  0.89273  0.09167  1.0000
  N   N64       1.0  0.45969  0.81282  0.09658  1.0000
  C   C1163     1.0  0.44751  0.83735  0.08997  1.0000
  C   C1164     1.0  0.44705  0.79306  0.09246  1.0000
  C   C1165     1.0  0.45608  0.81279  0.11280  1.0000
  C   C1166     1.0  0.48670  0.81025  0.09082  1.0000
  C   C1167     1.0  0.50274  0.78580  0.09556  1.0000
  C   C1168     1.0  0.45613  0.86059  0.09401  1.0000
  C   C1169     1.0  0.45473  0.78766  0.12224  1.0000
  C   C1170     1.0  0.44759  0.79175  0.07611  1.0000
  C   C1171     1.0  0.43691  0.76924  0.07347  1.0000
  C   C1172     1.0  0.52896  0.78484  0.08769  1.0000
  C   C1173     1.0  0.43957  0.88397  0.08874  1.0000
  H   H2051     1.0  0.42719  0.83899  0.09285  1.0000
  H   H2052     1.0  0.45066  0.83878  0.07802  1.0000
  H   H2053     1.0  0.45485  0.77454  0.09717  1.0000
  H   H2054     1.0  0.42729  0.79555  0.09713  1.0000
  H   H2055     1.0  0.43834  0.82439  0.11629  1.0000
  H   H2056     1.0  0.47088  0.82130  0.11617  1.0000
  H   H2057     1.0  0.48903  0.81329  0.07886  1.0000
  H   H2058     1.0  0.49546  0.82495  0.09411  1.0000
  H   H2059     1.0  0.49515  0.76973  0.09314  1.0000
  H   H2060     1.0  0.50424  0.78425  0.10725  1.0000
  H   H2061     1.0  0.45571  0.86022  0.10581  1.0000
  H   H2062     1.0  0.47522  0.86220  0.08885  1.0000
  H   H2063     1.0  0.43676  0.78145  0.12170  1.0000
  H   H2064     1.0  0.43625  0.80818  0.07107  1.0000
  H   H2065     1.0  0.46668  0.79034  0.07053  1.0000
  H   H2066     1.0  0.41761  0.76970  0.07873  1.0000
  H   H2067     1.0  0.43682  0.76916  0.06172  1.0000
  H   H2068     1.0  0.44821  0.75203  0.07767  1.0000
  H   H2069     1.0  0.54036  0.76736  0.09143  1.0000
  H   H2070     1.0  0.52871  0.78569  0.07588  1.0000
  H   H2071     1.0  0.53772  0.80040  0.08989  1.0000
  H   H2072     1.0  0.42027  0.88380  0.09394  1.0000
  H   H2073     1.0  0.44640  0.90035  0.09142  1.0000
  C   C1174     1.0  0.33958  0.68175  0.16122  1.0000
  H   H2074     1.0  0.55312  0.85219  0.03255  1.0000
  H   H2075     1.0  0.41201  0.65525  0.16401  1.0000
  C   C1175     1.0  0.45092  0.94132  0.01911  1.0000
  H   H2076     1.0  0.38332  0.97552  0.09972  1.0000
  H   H2077     1.0  0.47543  0.68052  0.18087  1.0000
  H   H2078     1.0  0.58934  0.86192  0.98817  1.0000
  H   H2079     1.0  0.38567  0.96767  0.97856  1.0000
  S   S266      1.0  0.43520  0.99386  0.06660  1.0000
  H   H2080     1.0  0.46967  0.62765  0.14961  1.0000
  H   H2081     1.0  0.44378  0.66053  0.13748  1.0000
  H   H2082     1.0  0.40281  0.83554  0.18758  1.0000
  S   S267      1.0  0.64269  0.88218  0.04789  1.0000
  H   H2083     1.0  0.34489  0.95609  0.10338  1.0000
  H   H2084     1.0  0.44126  0.58029  0.15541  1.0000
  H   H2085     1.0  0.33509  0.66581  0.20593  1.0000
  H   H2086     1.0  0.44144  0.80370  0.14226  1.0000
  C   C1176     1.0  0.49999  0.85465  0.97717  1.0000
  C   C1177     1.0  0.63983  0.81233  0.12474  1.0000
  C   C1178     1.0  0.42289  0.97397  0.05753  1.0000
  H   H2087     1.0  0.53622  0.86480  0.09384  1.0000
  Fe  Fe141     1.0  0.62443  0.91988  0.05303  1.0000
  S   S268      1.0  0.58786  0.86733  0.05354  1.0000
  H   H2088     1.0  0.59065  0.98362  0.97746  1.0000
  C   C1179     1.0  0.55182  0.87314  0.09636  1.0000
  H   H2089     1.0  0.51944  0.84317  0.15231  1.0000
  H   H2090     1.0  0.58708  0.84725  0.13721  1.0000
  S   S269      1.0  0.36642  0.76077  0.20961  1.0000
  C   C1180     1.0  0.53178  0.94211  0.01388  1.0000
  C   C1181     1.0  0.63528  0.81311  0.11036  1.0000
  C   C1182     1.0  0.49402  0.80018  0.01907  1.0000
  C   C1183     1.0  0.43893  0.76782  0.21020  1.0000
  C   C1184     1.0  0.45599  0.69577  0.13241  1.0000
  C   C1185     1.0  0.63706  0.89130  0.99183  1.0000
  C   C1186     1.0  0.48770  0.80932  0.00384  1.0000
  C   C1187     1.0  0.66316  0.96216  0.00227  1.0000
  H   H2091     1.0  0.53671  0.83332  0.02443  1.0000
  C   C1188     1.0  0.48094  0.65769  0.20055  1.0000
  H   H2092     1.0  0.65912  0.64287  0.16377  1.0000
  H   H2093     1.0  0.38526  0.66486  0.19423  1.0000
  C   C1189     1.0  0.64623  0.89572  0.97712  1.0000
  S   S270      1.0  0.62504  0.83561  0.08368  1.0000
  H   H2094     1.0  0.58626  0.96818  0.00810  1.0000
  C   C1190     1.0  0.43954  0.82063  0.19340  1.0000
  H   H2095     1.0  0.66387  0.88048  0.07890  1.0000
  H   H2096     1.0  0.44740  0.67308  0.19161  1.0000
  H   H2097     1.0  0.55529  0.93884  0.08734  1.0000
  Fe  Fe142     1.0  0.61122  0.88431  0.03470  1.0000
  H   H2098     1.0  0.55964  0.94830  0.99540  1.0000
  H   H2099     1.0  0.65067  0.89969  0.10773  1.0000
  H   H2100     1.0  0.47467  0.68769  0.12782  1.0000
  H   H2101     1.0  0.48128  0.67391  0.20619  1.0000
  H   H2102     1.0  0.44604  0.76810  0.19856  1.0000
  H   H2103     1.0  0.44894  0.89832  0.98640  1.0000
  C   C1191     1.0  0.61657  0.87892  0.99587  1.0000
  H   H2104     1.0  0.42780  0.84713  0.17566  1.0000
  H   H2105     1.0  0.51861  0.93750  0.98947  1.0000
  H   H2106     1.0  0.37984  0.63366  0.20013  1.0000
  H   H2107     1.0  0.50095  0.81475  0.02364  1.0000
  H   H2108     1.0  0.44471  0.92490  0.01604  1.0000
  C   C1192     1.0  0.40901  0.98355  0.04623  1.0000
  H   H2109     1.0  0.48748  0.90468  0.01669  1.0000
  H   H2110     1.0  0.51396  0.86350  0.98113  1.0000
  C   C1193     1.0  0.38667  0.64627  0.19079  1.0000
  H   H2111     1.0  0.63142  0.95490  0.10415  1.0000
  H   H2112     1.0  0.39628  0.89795  0.98472  1.0000
  C   C1194     1.0  0.61228  0.99152  0.08162  1.0000
  H   H2113     1.0  0.56476  0.96575  0.02417  1.0000
  H   H2114     1.0  0.52047  0.95914  0.00949  1.0000
  H   H2115     1.0  0.34537  0.95703  0.08421  1.0000
  C   C1195     1.0  0.54610  0.90510  0.98704  1.0000
  C   C1196     1.0  0.61991  0.97212  0.07312  1.0000
  H   H2116     1.0  0.44121  0.80523  0.18688  1.0000
  H   H2117     1.0  0.48151  0.96104  0.01532  1.0000
  H   H2118     1.0  0.65024  0.93276  0.01791  1.0000
  H   H2119     1.0  0.62162  0.93231  0.11849  1.0000
  H   H2120     1.0  0.37461  0.64725  0.18220  1.0000
  H   H2121     1.0  0.48615  0.96909  0.05781  1.0000
  C   C1197     1.0  0.46037  0.57981  0.15794  1.0000
  C   C1198     1.0  0.48305  0.81128  0.21762  1.0000
  H   H2122     1.0  0.66279  0.90416  0.97401  1.0000
  C   C1199     1.0  0.50988  0.81224  0.21120  1.0000
  H   H2123     1.0  0.64479  0.79485  0.13104  1.0000
  C   C1200     1.0  0.37247  0.91033  0.00287  1.0000
  H   H2124     1.0  0.60261  0.95168  0.98206  1.0000
  H   H2125     1.0  0.47047  0.81768  0.97949  1.0000
  H   H2126     1.0  0.48335  0.77262  0.21789  1.0000
  H   H2127     1.0  0.38681  0.90249  0.01001  1.0000
  H   H2128     1.0  0.41913  0.85777  0.19315  1.0000
  H   H2129     1.0  0.47971  0.90306  0.97839  1.0000
  C   C1201     1.0  0.43110  0.81263  0.20950  1.0000
  C   C1202     1.0  0.66352  0.55387  0.15292  1.0000
  C   C1203     1.0  0.51536  0.98716  0.04486  1.0000
  H   H2130     1.0  0.66606  0.58394  0.16440  1.0000
  H   H2131     1.0  0.65073  0.92230  0.08140  1.0000
  H   H2132     1.0  0.51120  0.81665  0.19931  1.0000
  C   C1204     1.0  0.37194  0.97816  0.09066  1.0000
  H   H2133     1.0  0.47223  0.82930  0.21436  1.0000
  C   C1205     1.0  0.43979  0.72183  0.21092  1.0000
  C   C1206     1.0  0.35700  0.95624  0.09297  1.0000
  H   H2134     1.0  0.36234  0.92756  0.00682  1.0000
  N   N65       1.0  0.64291  0.98031  0.97917  1.0000
  H   H2135     1.0  0.38620  0.92964  0.10196  1.0000
  C   C1207     1.0  0.65389  0.91881  0.10435  1.0000
  H   H2136     1.0  0.41854  0.76911  0.21059  1.0000
  H   H2137     1.0  0.41124  0.81050  0.21034  1.0000
  C   C1208     1.0  0.47298  0.78963  0.21271  1.0000
  H   H2138     1.0  0.41928  0.72427  0.21219  1.0000
  C   C1209     1.0  0.35813  0.78639  0.21940  1.0000
  H   H2139     1.0  0.43124  0.82844  0.21558  1.0000
  H   H2140     1.0  0.46927  0.73861  0.21593  1.0000
  H   H2141     1.0  0.44651  0.70356  0.21651  1.0000
  N   N66       1.0  0.44555  0.78945  0.21621  1.0000
  C   C1210     1.0  0.60259  0.96736  0.97340  1.0000
  H   H2142     1.0  0.50316  0.77748  0.97959  1.0000
  C   C1211     1.0  0.44880  0.74195  0.21746  1.0000
  H   H2143     1.0  0.51722  0.82677  0.21561  1.0000
  S   S271      1.0  0.66625  0.78650  0.18304  1.0000
  H   H2144     1.0  0.66634  0.92378  0.11140  1.0000
  C   C1212     1.0  0.66531  0.92249  0.08842  1.0000
  H   H2145     1.0  0.61202  0.99611  0.99347  1.0000
  Fe  Fe143     1.0  0.58376  0.85987  0.42592  1.0000
  S   S272      1.0  0.55747  0.83226  0.43227  1.0000
  S   S273      1.0  0.58226  0.89270  0.43764  1.0000
  S   S274      1.0  0.59032  0.88018  0.40384  1.0000
  H   H2146     1.0  0.43474  0.95251  0.44228  1.0000
  H   H2147     1.0  0.39618  0.88353  0.29271  1.0000
  H   H2148     1.0  0.41823  0.78904  0.35332  1.0000
  S   S275      1.0  0.36718  0.83138  0.31292  1.0000
  H   H2149     1.0  0.48250  0.80891  0.22953  1.0000
  H   H2150     1.0  0.36152  0.74860  0.34701  1.0000
  Fe  Fe144     1.0  0.40448  0.87428  0.41581  1.0000
  S   S276      1.0  0.44147  0.88204  0.40452  1.0000
  S   S277      1.0  0.39081  0.88764  0.43764  1.0000
  Fe  Fe145     1.0  0.39042  0.85665  0.38875  1.0000
  S   S278      1.0  0.42629  0.86290  0.37566  1.0000
  S   S279      1.0  0.35924  0.84480  0.37934  1.0000
  Fe  Fe146     1.0  0.44310  0.84629  0.39569  1.0000
  S   S280      1.0  0.47663  0.81751  0.39436  1.0000
  Fe  Fe147     1.0  0.42118  0.89786  0.38565  1.0000
  S   S281      1.0  0.42482  0.93395  0.37231  1.0000
  S   S282      1.0  0.40745  0.83704  0.40832  1.0000
  S   S283      1.0  0.38402  0.89308  0.39742  1.0000
  C   C1213     1.0  0.36458  0.83493  0.33142  1.0000
  C   C1214     1.0  0.47351  0.95245  0.39550  1.0000
  C   C1215     1.0  0.34849  0.93999  0.37239  1.0000
  C   C1216     1.0  0.36162  0.84174  0.36079  1.0000
  C   C1217     1.0  0.38435  0.84034  0.35211  1.0000
  C   C1218     1.0  0.38588  0.83658  0.33755  1.0000
  C   C1219     1.0  0.40340  0.97961  0.34211  1.0000
  H   H2151     1.0  0.66625  0.92167  0.35947  1.0000
  H   H2152     1.0  0.40083  0.84173  0.35665  1.0000
  H   H2153     1.0  0.40356  0.83546  0.33093  1.0000
  H   H2154     1.0  0.57223  0.81004  0.36019  1.0000
  C   C1220     1.0  0.44358  0.70501  0.39197  1.0000
  H   H2155     1.0  0.66389  0.83962  0.26236  1.0000
  H   H2156     1.0  0.34470  0.90158  0.37263  1.0000
  C   C1221     1.0  0.53833  0.97008  0.44520  1.0000
  C   C1222     1.0  0.46371  0.97669  0.39767  1.0000
  C   C1223     1.0  0.39718  0.88668  0.46593  1.0000
  H   H2157     1.0  0.56473  0.78495  0.39139  1.0000
  C   C1224     1.0  0.61332  0.95994  0.42411  1.0000
  H   H2158     1.0  0.40875  0.83634  0.44787  1.0000
  H   H2159     1.0  0.61553  0.78327  0.38514  1.0000
  S   S284      1.0  0.33441  0.85160  0.24590  1.0000
  C   C1225     1.0  0.46188  0.93937  0.38742  1.0000
  C   C1226     1.0  0.44098  0.95088  0.38108  1.0000
  C   C1227     1.0  0.43221  0.97566  0.38244  1.0000
  H   H2160     1.0  0.39929  0.80128  0.23393  1.0000
  H   H2161     1.0  0.54794  0.89368  0.36334  1.0000
  H   H2162     1.0  0.47273  0.82461  0.43586  1.0000
  H   H2163     1.0  0.53517  0.96387  0.43502  1.0000
  C   C1228     1.0  0.37874  0.78000  0.40601  1.0000
  H   H2164     1.0  0.52405  0.78182  0.38541  1.0000
  C   C1229     1.0  0.38291  0.90128  0.33039  1.0000
  C   C1230     1.0  0.53641  0.82875  0.42066  1.0000
  C   C1231     1.0  0.52720  0.84810  0.41078  1.0000
  C   C1232     1.0  0.50833  0.84509  0.40285  1.0000
  C   C1233     1.0  0.49956  0.82240  0.40436  1.0000
  C   C1234     1.0  0.50976  0.80282  0.41368  1.0000
  C   C1235     1.0  0.52775  0.80613  0.42199  1.0000
  H   H2165     1.0  0.53409  0.86551  0.40956  1.0000
  H   H2166     1.0  0.50075  0.86018  0.39546  1.0000
  H   H2167     1.0  0.50320  0.78524  0.41481  1.0000
  H   H2168     1.0  0.53484  0.79113  0.42959  1.0000
  Fe  Fe148     1.0  0.62288  0.88114  0.43810  1.0000
  H   H2169     1.0  0.38524  0.89922  0.35342  1.0000
  H   H2170     1.0  0.48957  0.94354  0.40040  1.0000
  H   H2171     1.0  0.38376  0.96911  0.36961  1.0000
  H   H2172     1.0  0.38572  0.76650  0.33890  1.0000
  H   H2173     1.0  0.57808  0.94383  0.37098  1.0000
  C   C1236     1.0  0.37258  0.98135  0.44737  1.0000
  H   H2174     1.0  0.39635  0.89839  0.32067  1.0000
  H   H2175     1.0  0.36397  0.97804  0.43802  1.0000
  S   S285      1.0  0.47555  0.99152  0.40978  1.0000
  H   H2176     1.0  0.60291  0.99420  0.45230  1.0000
  C   C1237     1.0  0.63090  0.97356  0.42697  1.0000
  H   H2177     1.0  0.63368  0.84007  0.46749  1.0000
  H   H2178     1.0  0.49045  0.90825  0.41880  1.0000
  C   C1238     1.0  0.65477  0.82403  0.22976  1.0000
  C   C1239     1.0  0.40699  0.84733  0.45668  1.0000
  H   H2179     1.0  0.51198  0.88701  0.42888  1.0000
  H   H2180     1.0  0.54855  0.81514  0.38606  1.0000
  H   H2181     1.0  0.58316  0.86303  0.35597  1.0000
  C   C1240     1.0  0.39767  0.89983  0.34310  1.0000
  H   H2182     1.0  0.35350  0.93709  0.38351  1.0000
  H   H2183     1.0  0.43043  0.90761  0.44285  1.0000
  H   H2184     1.0  0.50548  0.90984  0.44873  1.0000
  C   C1241     1.0  0.49134  0.91562  0.44121  1.0000
  C   C1242     1.0  0.44961  0.79912  0.36081  1.0000
  H   H2185     1.0  0.37627  0.89639  0.27904  1.0000
  H   H2186     1.0  0.53353  0.91389  0.40997  1.0000
  H   H2187     1.0  0.35121  0.77615  0.36675  1.0000
  H   H2188     1.0  0.35986  0.79882  0.42403  1.0000
  C   C1243     1.0  0.36774  0.76690  0.34586  1.0000
  H   H2189     1.0  0.41373  0.99273  0.34574  1.0000
  H   H2190     1.0  0.48886  0.93608  0.43983  1.0000
  Fe  Fe149     1.0  0.59307  0.91168  0.41574  1.0000
  C   C1244     1.0  0.65786  0.87879  0.34022  1.0000
  N   N67       1.0  0.34752  0.92924  0.31764  1.0000
  H   H2191     1.0  0.61135  0.94243  0.43040  1.0000
  C   C1245     1.0  0.44134  0.94213  0.43292  1.0000
  C   C1246     1.0  0.44772  0.91425  0.43762  1.0000
  H   H2192     1.0  0.45256  0.90555  0.42755  1.0000
  C   C1247     1.0  0.43372  0.72809  0.38247  1.0000
  C   C1248     1.0  0.33384  0.96602  0.36906  1.0000
  C   C1249     1.0  0.59986  0.99248  0.40588  1.0000
  C   C1250     1.0  0.63794  0.88737  0.35012  1.0000
  H   H2193     1.0  0.39464  0.79023  0.40489  1.0000
  H   H2194     1.0  0.64290  0.81471  0.33351  1.0000
  H   H2195     1.0  0.47976  0.86769  0.42916  1.0000
  H   H2196     1.0  0.42983  0.69200  0.39435  1.0000
  H   H2197     1.0  0.48938  0.87239  0.45517  1.0000
  H   H2198     1.0  0.53003  0.79865  0.36792  1.0000
  C   C1251     1.0  0.59834  0.96902  0.41325  1.0000
  H   H2199     1.0  0.36157  0.96169  0.30618  1.0000
  C   C1252     1.0  0.39920  0.87265  0.45442  1.0000
  C   C1253     1.0  0.63834  0.88073  0.36505  1.0000
  H   H2200     1.0  0.55849  0.96861  0.44546  1.0000
  H   H2201     1.0  0.45770  0.94947  0.42684  1.0000
  H   H2202     1.0  0.62213  0.89919  0.34621  1.0000
  Fe  Fe150     1.0  0.63036  0.86877  0.40647  1.0000
  H   H2203     1.0  0.63150  0.80886  0.38443  1.0000
  C   C1254     1.0  0.55805  0.79772  0.38218  1.0000
  C   C1255     1.0  0.52440  0.92115  0.42009  1.0000
  H   H2204     1.0  0.37915  0.94025  0.32514  1.0000
  C   C1256     1.0  0.43905  0.78773  0.23234  1.0000
  H   H2205     1.0  0.64096  0.81285  0.25179  1.0000
  H   H2206     1.0  0.49564  0.83173  0.44585  1.0000
  C   C1257     1.0  0.46839  0.86289  0.43945  1.0000
  H   H2207     1.0  0.40788  0.91578  0.34207  1.0000
  C   C1258     1.0  0.50363  0.90653  0.42680  1.0000
  S   S286      1.0  0.63369  0.90204  0.41658  1.0000
  S   S287      1.0  0.63780  0.89156  0.45726  1.0000
  H   H2208     1.0  0.40587  0.90631  0.27842  1.0000
  C   C1259     1.0  0.38976  0.90051  0.28572  1.0000
  H   H2209     1.0  0.58212  0.80614  0.40380  1.0000
  H   H2210     1.0  0.66292  0.78686  0.33879  1.0000
  H   H2211     1.0  0.40649  0.76835  0.23461  1.0000
  H   H2212     1.0  0.60405  0.82675  0.40325  1.0000
  C   C1260     1.0  0.57118  0.85828  0.36608  1.0000
  C   C1261     1.0  0.34187  0.83610  0.34013  1.0000
  H   H2213     1.0  0.44251  0.80463  0.23640  1.0000
  H   H2214     1.0  0.57313  0.89333  0.37359  1.0000
  C   C1262     1.0  0.58630  0.84201  0.37745  1.0000
  H   H2215     1.0  0.64065  0.97800  0.27865  1.0000
  H   H2216     1.0  0.58913  0.78316  0.36823  1.0000
  C   C1263     1.0  0.40757  0.78260  0.25445  1.0000
  H   H2217     1.0  0.54634  0.87917  0.38165  1.0000
  H   H2218     1.0  0.42646  0.93714  0.41343  1.0000
  H   H2219     1.0  0.34231  0.97452  0.46338  1.0000
  H   H2220     1.0  0.61368  0.77076  0.41135  1.0000
  C   C1264     1.0  0.34364  0.95580  0.31109  1.0000
  H   H2221     1.0  0.65615  0.94984  0.34936  1.0000
  H   H2222     1.0  0.46085  0.79824  0.35013  1.0000
  H   H2223     1.0  0.37622  0.79239  0.35893  1.0000
  H   H2224     1.0  0.36805  0.99121  0.41231  1.0000
  H   H2225     1.0  0.39722  0.72847  0.39454  1.0000
  H   H2226     1.0  0.54723  0.76839  0.37225  1.0000
  H   H2227     1.0  0.39784  0.95966  0.24908  1.0000
  H   H2228     1.0  0.46075  0.69563  0.38628  1.0000
  H   H2229     1.0  0.62299  0.93318  0.36309  1.0000
  C   C1265     1.0  0.37417  0.77386  0.39114  1.0000
  H   H2230     1.0  0.59434  0.82182  0.47154  1.0000
  S   S288      1.0  0.65653  0.88742  0.32155  1.0000
  S   S289      1.0  0.57831  0.95076  0.40865  1.0000
  C   C1266     1.0  0.61263  0.80346  0.38573  1.0000
  H   H2231     1.0  0.45696  0.87343  0.46038  1.0000
  H   H2232     1.0  0.55630  0.84886  0.36362  1.0000
  C   C1267     1.0  0.57986  0.80185  0.37036  1.0000
  C   C1268     1.0  0.41304  0.78368  0.37703  1.0000
  H   H2233     1.0  0.41949  0.76625  0.25916  1.0000
  H   H2234     1.0  0.41146  0.79937  0.25841  1.0000
  H   H2235     1.0  0.38800  0.78046  0.25822  1.0000
  H   H2236     1.0  0.41639  0.74780  0.39977  1.0000
  C   C1269     1.0  0.65744  0.96490  0.27573  1.0000
  H   H2237     1.0  0.60075  0.85244  0.37954  1.0000
  H   H2238     1.0  0.56405  0.81697  0.46834  1.0000
  H   H2239     1.0  0.43032  0.72216  0.37228  1.0000
  C   C1270     1.0  0.36620  0.92644  0.32826  1.0000
  H   H2240     1.0  0.58404  0.97038  0.37820  1.0000
  H   H2241     1.0  0.64317  0.78667  0.36402  1.0000
  C   C1271     1.0  0.35569  0.91361  0.30546  1.0000
  C   C1272     1.0  0.34377  0.82620  0.23597  1.0000
  N   N68       1.0  0.34606  0.98723  0.37158  1.0000
  C   C1273     1.0  0.66597  0.83933  0.25082  1.0000
  H   H2242     1.0  0.66512  0.95637  0.28581  1.0000
  C   C1274     1.0  0.52858  0.95208  0.45762  1.0000
  H   H2243     1.0  0.40355  0.74823  0.36117  1.0000
  H   H2244     1.0  0.63122  0.97879  0.36370  1.0000
  C   C1275     1.0  0.37804  0.92108  0.29482  1.0000
  C   C1276     1.0  0.42086  0.94699  0.42310  1.0000
  H   H2245     1.0  0.35674  0.93049  0.33904  1.0000
  H   H2246     1.0  0.57361  0.84077  0.38764  1.0000
  H   H2247     1.0  0.60690  0.82951  0.35097  1.0000
  H   H2248     1.0  0.42513  0.78402  0.38549  1.0000
  H   H2249     1.0  0.53751  0.93307  0.45601  1.0000
  H   H2250     1.0  0.41704  0.96696  0.41946  1.0000
  H   H2251     1.0  0.53299  0.95638  0.46804  1.0000
  H   H2252     1.0  0.62911  0.83354  0.36201  1.0000
  H   H2253     1.0  0.44886  0.86537  0.43730  1.0000
  C   C1277     1.0  0.35616  0.79541  0.41326  1.0000
  C   C1278     1.0  0.36190  0.96654  0.46098  1.0000
  H   H2254     1.0  0.44237  0.73970  0.22916  1.0000
  H   H2255     1.0  0.41633  0.98477  0.37744  1.0000
  H   H2256     1.0  0.53841  0.91973  0.42758  1.0000
  C   C1279     1.0  0.41184  0.78490  0.23800  1.0000
  H   H2257     1.0  0.37432  0.96581  0.23711  1.0000
  H   H2258     1.0  0.65619  0.91864  0.38396  1.0000
  H   H2259     1.0  0.46447  0.82974  0.45446  1.0000
  C   C1280     1.0  0.42957  0.78263  0.36230  1.0000
  H   H2260     1.0  0.41167  0.96061  0.34577  1.0000
  H   H2261     1.0  0.33978  0.78569  0.41467  1.0000
  H   H2262     1.0  0.62155  0.78505  0.35169  1.0000
  C   C1281     1.0  0.61566  0.79001  0.41240  1.0000
  S   S290      1.0  0.62380  0.84636  0.42813  1.0000
  H   H2263     1.0  0.57901  0.84104  0.45759  1.0000
  N   N69       1.0  0.39680  0.76375  0.38157  1.0000
  C   C1282     1.0  0.63467  0.96343  0.37244  1.0000
  N   N70       1.0  0.46743  0.90653  0.44754  1.0000
  C   C1283     1.0  0.47580  0.83559  0.44426  1.0000
  N   N71       1.0  0.66184  0.95336  0.37134  1.0000
  H   H2264     1.0  0.51713  0.94091  0.41750  1.0000
  H   H2265     1.0  0.33632  0.96924  0.33246  1.0000
  H   H2266     1.0  0.46202  0.79306  0.36931  1.0000
  C   C1284     1.0  0.61689  0.94462  0.37201  1.0000
  H   H2267     1.0  0.46903  0.92037  0.38614  1.0000
  C   C1285     1.0  0.60192  0.80792  0.40142  1.0000
  H   H2268     1.0  0.45135  0.77246  0.23781  1.0000
  C   C1286     1.0  0.61652  0.82069  0.36035  1.0000
  C   C1287     1.0  0.59087  0.95766  0.36992  1.0000
  C   C1288     1.0  0.53876  0.78590  0.37652  1.0000
  H   H2269     1.0  0.40363  0.94083  0.42893  1.0000
  H   H2270     1.0  0.64290  0.96614  0.43513  1.0000
  C   C1289     1.0  0.55895  0.88256  0.37156  1.0000
  H   H2271     1.0  0.43890  0.76389  0.36067  1.0000
  H   H2272     1.0  0.41134  0.88281  0.34342  1.0000
  H   H2273     1.0  0.62293  0.88743  0.37257  1.0000
  H   H2274     1.0  0.37182  0.93746  0.28732  1.0000
  N   N72       1.0  0.59831  0.81689  0.37371  1.0000
  H   H2275     1.0  0.39188  0.90632  0.46403  1.0000
  H   H2276     1.0  0.36004  0.89386  0.30956  1.0000
  H   H2277     1.0  0.34020  0.91433  0.29893  1.0000
  H   H2278     1.0  0.61570  0.93224  0.38231  1.0000
  H   H2279     1.0  0.66497  0.81480  0.34593  1.0000
  H   H2280     1.0  0.36237  0.94747  0.45845  1.0000
  H   H2281     1.0  0.39242  0.92588  0.30058  1.0000
  H   H2282     1.0  0.45796  0.93840  0.45933  1.0000
  C   C1290     1.0  0.47102  0.87884  0.45130  1.0000
  H   H2283     1.0  0.65206  0.95040  0.27028  1.0000
  H   H2284     1.0  0.37206  0.88590  0.33235  1.0000
  C   C1291     1.0  0.63294  0.79722  0.35531  1.0000
  H   H2285     1.0  0.39284  0.97597  0.44525  1.0000
  H   H2286     1.0  0.60775  0.79403  0.42346  1.0000
  H   H2287     1.0  0.36044  0.76073  0.39325  1.0000
  H   H2288     1.0  0.44849  0.73996  0.38025  1.0000
  C   C1292     1.0  0.36995  0.77422  0.36060  1.0000
  C   C1293     1.0  0.65290  0.82423  0.24478  1.0000
  H   H2289     1.0  0.44123  0.81848  0.36163  1.0000
  C   C1294     1.0  0.57609  0.83108  0.46857  1.0000
  C   C1295     1.0  0.38793  0.75497  0.36901  1.0000
  C   C1296     1.0  0.37606  0.98404  0.34796  1.0000
  H   H2290     1.0  0.59069  0.96827  0.35906  1.0000
  C   C1297     1.0  0.34044  0.83933  0.35477  1.0000
  C   C1298     1.0  0.35199  0.78224  0.23440  1.0000
  H   H2291     1.0  0.36574  0.93729  0.36487  1.0000
  H   H2292     1.0  0.62730  0.98996  0.32361  1.0000
  H   H2293     1.0  0.40175  0.80227  0.37634  1.0000
  H   H2294     1.0  0.36463  0.79107  0.38559  1.0000
  H   H2295     1.0  0.44799  0.70989  0.40225  1.0000
  H   H2296     1.0  0.40546  0.98202  0.33015  1.0000
  H   H2297     1.0  0.35290  0.76359  0.23968  1.0000
  H   H2298     1.0  0.35400  0.78066  0.34045  1.0000
  C   C1299     1.0  0.38059  0.97182  0.24657  1.0000
  H   H2299     1.0  0.62844  0.97134  0.38276  1.0000
  C   C1300     1.0  0.41013  0.74198  0.39023  1.0000
  H   H2300     1.0  0.37820  0.73873  0.37279  1.0000
  H   H2301     1.0  0.36761  0.96885  0.34526  1.0000
  H   H2302     1.0  0.38263  0.76281  0.41338  1.0000
  H   H2303     1.0  0.35202  0.81350  0.40676  1.0000
  C   C1301     1.0  0.37232  0.98529  0.36443  1.0000
  H   H2304     1.0  0.35954  0.97058  0.39165  1.0000
  H   H2305     1.0  0.54597  0.99402  0.41867  1.0000
  H   H2306     1.0  0.34052  0.79863  0.25422  1.0000
  C   C1302     1.0  0.45838  0.91811  0.46128  1.0000
  H   H2307     1.0  0.65045  0.99146  0.30802  1.0000
  C   C1303     1.0  0.34493  0.80204  0.24267  1.0000
  C   C1304     1.0  0.34640  0.98661  0.38760  1.0000
  H   H2308     1.0  0.50828  0.95302  0.45807  1.0000
  H   H2309     1.0  0.65759  0.94222  0.39442  1.0000
  H   H2310     1.0  0.65591  0.96911  0.32334  1.0000
  C   C1305     1.0  0.66600  0.93456  0.38425  1.0000
  C   C1306     1.0  0.65846  0.86500  0.37018  1.0000
  H   H2311     1.0  0.43900  0.91495  0.46513  1.0000
  C   C1307     1.0  0.64744  0.98820  0.31997  1.0000
  C   C1308     1.0  0.44332  0.98846  0.39092  1.0000
  S   S291      1.0  0.63721  0.80503  0.22290  1.0000
  H   H2312     1.0  0.36636  0.96967  0.25603  1.0000
  H   H2313     1.0  0.49299  0.91258  0.47139  1.0000
  C   C1309     1.0  0.41163  0.83607  0.47055  1.0000
  C   C1310     1.0  0.65203  0.80388  0.34261  1.0000
  H   H2314     1.0  0.63554  0.79209  0.41090  1.0000
  H   H2315     1.0  0.39453  0.95362  0.47148  1.0000
  S   S292      1.0  0.65892  0.85440  0.38870  1.0000
  Fe  Fe151     1.0  0.59121  0.85766  0.56407  1.0000
  S   S293      1.0  0.55596  0.84294  0.57318  1.0000
  H   H2316     1.0  0.64099  0.93192  0.55544  1.0000
  S   S294      1.0  0.59388  0.87380  0.54101  1.0000
  Fe  Fe152     1.0  0.44075  0.87944  0.53517  1.0000
  S   S295      1.0  0.43554  0.84002  0.53607  1.0000
  S   S296      1.0  0.47680  0.89423  0.53244  1.0000
  Fe  Fe153     1.0  0.38598  0.89735  0.53614  1.0000
  S   S297      1.0  0.37633  0.85967  0.53632  1.0000
  S   S298      1.0  0.35733  0.93066  0.53755  1.0000
  Fe  Fe154     1.0  0.40306  0.84917  0.55279  1.0000
  S   S299      1.0  0.39212  0.82491  0.57340  1.0000
  Fe  Fe155     1.0  0.40945  0.85464  0.51951  1.0000
  S   S300      1.0  0.41326  0.83484  0.49961  1.0000
  S   S301      1.0  0.41108  0.88728  0.55331  1.0000
  S   S302      1.0  0.41645  0.89357  0.51788  1.0000
  H   H2317     1.0  0.36662  0.82188  0.69742  1.0000
  H   H2318     1.0  0.36671  0.90971  0.50550  1.0000
  H   H2319     1.0  0.65923  0.79981  0.58575  1.0000
  S   S303      1.0  0.37485  0.86406  0.63453  1.0000
  C   C1311     1.0  0.38373  0.95313  0.49878  1.0000
  H   H2320     1.0  0.36848  0.91933  0.56674  1.0000
  C   C1312     1.0  0.40870  0.85001  0.48220  1.0000
  H   H2321     1.0  0.34290  0.97104  0.51615  1.0000
  H   H2322     1.0  0.65911  0.81960  0.66686  1.0000
  H   H2323     1.0  0.47342  0.91462  0.49644  1.0000
  C   C1313     1.0  0.40194  0.87550  0.47977  1.0000
  C   C1314     1.0  0.34250  0.83247  0.71617  1.0000
  C   C1315     1.0  0.46258  0.92184  0.48731  1.0000
  H   H2324     1.0  0.39996  0.88644  0.48859  1.0000
  C   C1316     1.0  0.38433  0.83716  0.59006  1.0000
  C   C1317     1.0  0.38677  0.86141  0.59139  1.0000
  C   C1318     1.0  0.38289  0.86985  0.60502  1.0000
  C   C1319     1.0  0.37537  0.85451  0.61740  1.0000
  C   C1320     1.0  0.37165  0.83065  0.61601  1.0000
  C   C1321     1.0  0.37661  0.82185  0.60242  1.0000
  H   H2325     1.0  0.39229  0.87349  0.58197  1.0000
  H   H2326     1.0  0.38598  0.88828  0.60602  1.0000
  H   H2327     1.0  0.57025  0.91299  0.48223  1.0000
  S   S304      1.0  0.40063  0.99089  0.57715  1.0000
  H   H2328     1.0  0.40631  0.98268  0.49049  1.0000
  C   C1322     1.0  0.63891  0.87346  0.50030  1.0000
  H   H2329     1.0  0.41771  0.94675  0.62203  1.0000
  C   C1323     1.0  0.36640  0.94853  0.54920  1.0000
  C   C1324     1.0  0.37168  0.93798  0.56296  1.0000
  H   H2330     1.0  0.42487  0.98257  0.51291  1.0000
  H   H2331     1.0  0.39824  0.79612  0.71151  1.0000
  H   H2332     1.0  0.61523  0.91422  0.59668  1.0000
  H   H2333     1.0  0.62624  0.95617  0.58906  1.0000
  C   C1325     1.0  0.64490  0.86969  0.62344  1.0000
  C   C1326     1.0  0.53295  0.85754  0.56259  1.0000
  C   C1327     1.0  0.53429  0.88127  0.55562  1.0000
  C   C1328     1.0  0.51684  0.89242  0.54645  1.0000
  C   C1329     1.0  0.49752  0.88021  0.54455  1.0000
  C   C1330     1.0  0.49565  0.85674  0.55185  1.0000
  C   C1331     1.0  0.51358  0.84530  0.56074  1.0000
  H   H2334     1.0  0.54882  0.89111  0.55728  1.0000
  H   H2335     1.0  0.51835  0.91058  0.54082  1.0000
  H   H2336     1.0  0.48091  0.84711  0.55027  1.0000
  H   H2337     1.0  0.51296  0.82671  0.56578  1.0000
  H   H2338     1.0  0.55597  0.96745  0.55906  1.0000
  H   H2339     1.0  0.66311  0.95953  0.56560  1.0000
  C   C1332     1.0  0.52293  0.90086  0.59280  1.0000
  C   C1333     1.0  0.66395  0.95145  0.50550  1.0000
  H   H2340     1.0  0.40758  0.92317  0.61387  1.0000
  Fe  Fe156     1.0  0.61119  0.90273  0.54830  1.0000
  H   H2341     1.0  0.45122  0.95017  0.57969  1.0000
  Fe  Fe157     1.0  0.34053  0.86341  0.65094  1.0000
  C   C1334     1.0  0.61472  0.95254  0.59948  1.0000
  H   H2342     1.0  0.63038  0.86789  0.60350  1.0000
  C   C1335     1.0  0.60499  0.98631  0.54692  1.0000
  H   H2343     1.0  0.47382  0.88900  0.47730  1.0000
  H   H2344     1.0  0.66434  0.99052  0.52755  1.0000
  N   N73       1.0  0.46290  0.82591  0.60172  1.0000
  C   C1336     1.0  0.48316  0.82836  0.61034  1.0000
  C   C1337     1.0  0.44038  0.82097  0.61207  1.0000
  C   C1338     1.0  0.47174  0.80510  0.59266  1.0000
  C   C1339     1.0  0.45622  0.84911  0.59182  1.0000
  C   C1340     1.0  0.45082  0.87344  0.59882  1.0000
  C   C1341     1.0  0.50731  0.83548  0.60151  1.0000
  C   C1342     1.0  0.45220  0.79784  0.58437  1.0000
  C   C1343     1.0  0.44319  0.79660  0.62237  1.0000
  C   C1344     1.0  0.41866  0.79232  0.63128  1.0000
  C   C1345     1.0  0.44392  0.89538  0.58773  1.0000
  C   C1346     1.0  0.52561  0.83914  0.61148  1.0000
  C   C1347     1.0  0.46338  0.77696  0.57540  1.0000
  H   H2345     1.0  0.48876  0.81063  0.61691  1.0000
  H   H2346     1.0  0.47636  0.84175  0.61830  1.0000
  H   H2347     1.0  0.43455  0.83595  0.61907  1.0000
  H   H2348     1.0  0.42443  0.82132  0.60610  1.0000
  H   H2349     1.0  0.47997  0.78838  0.59923  1.0000
  H   H2350     1.0  0.48705  0.80993  0.58436  1.0000
  H   H2351     1.0  0.47091  0.85121  0.58257  1.0000
  H   H2352     1.0  0.43945  0.84792  0.58682  1.0000
  H   H2353     1.0  0.46719  0.87693  0.60335  1.0000
  H   H2354     1.0  0.43523  0.87299  0.60759  1.0000
  H   H2355     1.0  0.51642  0.82067  0.59494  1.0000
  H   H2356     1.0  0.50384  0.85267  0.59414  1.0000
  H   H2357     1.0  0.44499  0.81360  0.57681  1.0000
  H   H2358     1.0  0.43650  0.79155  0.59184  1.0000
  H   H2359     1.0  0.44964  0.78045  0.61640  1.0000
  H   H2360     1.0  0.45644  0.79720  0.63007  1.0000
  H   H2361     1.0  0.42164  0.77609  0.63947  1.0000
  H   H2362     1.0  0.41041  0.80856  0.63695  1.0000
  H   H2363     1.0  0.40558  0.78860  0.62422  1.0000
  H   H2364     1.0  0.44037  0.91254  0.59295  1.0000
  H   H2365     1.0  0.45902  0.89691  0.57870  1.0000
  H   H2366     1.0  0.42687  0.89352  0.58328  1.0000
  H   H2367     1.0  0.51765  0.85405  0.61824  1.0000
  H   H2368     1.0  0.53064  0.82186  0.61857  1.0000
  H   H2369     1.0  0.54274  0.84429  0.60496  1.0000
  H   H2370     1.0  0.47040  0.76030  0.58242  1.0000
  H   H2371     1.0  0.44898  0.77231  0.56954  1.0000
  H   H2372     1.0  0.47868  0.78263  0.56732  1.0000
  C   C1348     1.0  0.38141  0.95142  0.57175  1.0000
  H   H2373     1.0  0.64217  0.78866  0.60241  1.0000
  H   H2374     1.0  0.51274  0.96089  0.56190  1.0000
  H   H2375     1.0  0.64985  0.79671  0.64778  1.0000
  H   H2376     1.0  0.55714  0.92699  0.49844  1.0000
  C   C1349     1.0  0.37059  0.97344  0.62848  1.0000
  H   H2377     1.0  0.45778  0.96090  0.60890  1.0000
  H   H2378     1.0  0.63037  0.99447  0.59817  1.0000
  C   C1350     1.0  0.63790  0.84822  0.50231  1.0000
  C   C1351     1.0  0.66259  0.79918  0.66778  1.0000
  H   H2379     1.0  0.64619  0.79205  0.67409  1.0000
  H   H2380     1.0  0.38595  0.94305  0.58226  1.0000
  H   H2381     1.0  0.54547  0.85688  0.47619  1.0000
  Fe  Fe158     1.0  0.64267  0.86644  0.56753  1.0000
  Fe  Fe159     1.0  0.63164  0.85249  0.53882  1.0000
  H   H2382     1.0  0.62067  0.99385  0.61702  1.0000
  H   H2383     1.0  0.46285  0.94198  0.48497  1.0000
  C   C1352     1.0  0.44696  0.94779  0.55209  1.0000
  H   H2384     1.0  0.63849  0.92819  0.61347  1.0000
  C   C1353     1.0  0.63793  0.99216  0.55996  1.0000
  H   H2385     1.0  0.49046  0.98654  0.59698  1.0000
  H   H2386     1.0  0.64530  0.96615  0.63429  1.0000
  H   H2387     1.0  0.49912  0.91063  0.57632  1.0000
  C   C1354     1.0  0.52850  0.97828  0.57678  1.0000
  C   C1355     1.0  0.49396  0.94082  0.58970  1.0000
  H   H2388     1.0  0.38422  0.96371  0.60652  1.0000
  H   H2389     1.0  0.48255  0.93347  0.55873  1.0000
  H   H2390     1.0  0.36604  0.81862  0.62551  1.0000
  H   H2391     1.0  0.43703  0.93418  0.55941  1.0000
  C   C1356     1.0  0.63658  0.87460  0.47455  1.0000
  S   S305      1.0  0.64971  0.88290  0.54432  1.0000
  H   H2392     1.0  0.33809  0.92812  0.51108  1.0000
  H   H2393     1.0  0.53553  0.96213  0.58413  1.0000
  C   C1357     1.0  0.50578  0.97368  0.57011  1.0000
  H   H2394     1.0  0.38736  0.98068  0.63032  1.0000
  C   C1358     1.0  0.35234  0.93636  0.48806  1.0000
  H   H2395     1.0  0.47795  0.93244  0.59564  1.0000
  H   H2396     1.0  0.58945  0.92664  0.60893  1.0000
  C   C1359     1.0  0.61358  0.96112  0.54776  1.0000
  H   H2397     1.0  0.58998  0.93502  0.58971  1.0000
  C   C1360     1.0  0.66027  0.96107  0.62553  1.0000
  C   C1361     1.0  0.45336  0.97843  0.60196  1.0000
  C   C1362     1.0  0.46404  0.96161  0.57275  1.0000
  N   N74       1.0  0.35089  0.99442  0.62419  1.0000
  C   C1363     1.0  0.56407  0.84927  0.47916  1.0000
  C   C1364     1.0  0.63862  0.88653  0.48644  1.0000
  H   H2398     1.0  0.36485  0.94303  0.61721  1.0000
  S   S306      1.0  0.59831  0.94189  0.54011  1.0000
  H   H2399     1.0  0.45274  0.97986  0.57037  1.0000
  H   H2400     1.0  0.36386  0.92454  0.48037  1.0000
  C   C1365     1.0  0.54957  0.98359  0.56510  1.0000
  C   C1366     1.0  0.66606  0.86986  0.63010  1.0000
  H   H2401     1.0  0.62814  0.97125  0.50148  1.0000
  H   H2402     1.0  0.62711  0.86995  0.62991  1.0000
  C   C1367     1.0  0.63428  0.95140  0.55475  1.0000
  N   N75       1.0  0.54837  0.85119  0.50656  1.0000
  C   C1368     1.0  0.54748  0.87866  0.50296  1.0000
  C   C1369     1.0  0.52227  0.84528  0.50949  1.0000
  C   C1370     1.0  0.56002  0.84381  0.52038  1.0000
  C   C1371     1.0  0.56337  0.83680  0.49497  1.0000
  N   N76       1.0  0.36421  0.95894  0.48863  1.0000
  C   C1372     1.0  0.57253  0.88825  0.50220  1.0000
  C   C1373     1.0  0.55935  0.81680  0.52724  1.0000
  C   C1374     1.0  0.50659  0.85142  0.49678  1.0000
  C   C1375     1.0  0.47986  0.84731  0.50172  1.0000
  H   H2403     1.0  0.37467  0.80304  0.60152  1.0000
  C   C1376     1.0  0.57236  0.91376  0.49369  1.0000
  C   C1377     1.0  0.57753  0.80914  0.53838  1.0000
  H   H2404     1.0  0.53439  0.88841  0.51116  1.0000
  H   H2405     1.0  0.53992  0.88524  0.49263  1.0000
  H   H2406     1.0  0.52217  0.82530  0.51284  1.0000
  H   H2407     1.0  0.51210  0.85477  0.51871  1.0000
  H   H2408     1.0  0.55100  0.85586  0.52873  1.0000
  H   H2409     1.0  0.57980  0.84656  0.51856  1.0000
  H   H2410     1.0  0.58307  0.83214  0.49699  1.0000
  H   H2411     1.0  0.55694  0.81867  0.49540  1.0000
  S   S307      1.0  0.60522  0.88870  0.57178  1.0000
  H   H2412     1.0  0.36616  0.98101  0.53377  1.0000
  H   H2413     1.0  0.57645  0.88964  0.51324  1.0000
  H   H2414     1.0  0.58791  0.87561  0.49718  1.0000
  H   H2415     1.0  0.56403  0.80383  0.51899  1.0000
  H   H2416     1.0  0.54063  0.81483  0.53291  1.0000
  H   H2417     1.0  0.50617  0.87081  0.49202  1.0000
  H   H2418     1.0  0.51404  0.83915  0.48835  1.0000
  H   H2419     1.0  0.47088  0.86048  0.50940  1.0000
  H   H2420     1.0  0.46924  0.85019  0.49233  1.0000
  H   H2421     1.0  0.47900  0.82825  0.50699  1.0000
  H   H2422     1.0  0.33446  0.87732  0.58824  1.0000
  H   H2423     1.0  0.39762  0.92639  0.63258  1.0000
  C   C1378     1.0  0.65463  0.92970  0.51519  1.0000
  C   C1379     1.0  0.47578  0.98380  0.59070  1.0000
  H   H2424     1.0  0.38349  0.98940  0.50565  1.0000
  C   C1380     1.0  0.64668  0.86859  0.60848  1.0000
  H   H2425     1.0  0.57423  0.82216  0.54659  1.0000
  H   H2426     1.0  0.57526  0.79050  0.54389  1.0000
  H   H2427     1.0  0.59680  0.80865  0.53308  1.0000
  H   H2428     1.0  0.66154  0.92101  0.63103  1.0000
  C   C1381     1.0  0.63040  0.94789  0.61227  1.0000
  H   H2429     1.0  0.61726  0.95001  0.62227  1.0000
  H   H2430     1.0  0.53587  0.90900  0.59812  1.0000
  C   C1382     1.0  0.39694  0.97478  0.50085  1.0000
  H   H2431     1.0  0.60041  0.96890  0.60077  1.0000
  C   C1383     1.0  0.47037  0.95130  0.55799  1.0000
  N   N77       1.0  0.64991  0.96442  0.61129  1.0000
  C   C1384     1.0  0.60152  0.93072  0.59872  1.0000
  C   C1385     1.0  0.65527  0.80152  0.59746  1.0000
  S   S308      1.0  0.62808  0.83388  0.56164  1.0000
  C   C1386     1.0  0.47366  0.90897  0.47410  1.0000
  C   C1387     1.0  0.64667  0.96700  0.56063  1.0000
  C   C1388     1.0  0.38039  0.98608  0.55307  1.0000
  H   H2432     1.0  0.45182  0.94106  0.54137  1.0000
  H   H2433     1.0  0.53378  0.88559  0.58720  1.0000
  H   H2434     1.0  0.52381  0.99444  0.58290  1.0000
  H   H2435     1.0  0.50417  0.94490  0.59826  1.0000
  H   H2436     1.0  0.63780  0.97639  0.51766  1.0000
  C   C1389     1.0  0.36392  0.82021  0.70907  1.0000
  C   C1390     1.0  0.51047  0.92010  0.58191  1.0000
  C   C1391     1.0  0.64448  0.97489  0.50613  1.0000
  H   H2437     1.0  0.43450  0.96554  0.55073  1.0000
  N   N78       1.0  0.48526  0.96440  0.58065  1.0000
  H   H2438     1.0  0.47963  0.96446  0.54992  1.0000
  H   H2439     1.0  0.59016  0.92038  0.49405  1.0000
  H   H2440     1.0  0.52546  0.92671  0.57404  1.0000
  H   H2441     1.0  0.50895  0.89335  0.60111  1.0000
  C   C1392     1.0  0.40202  0.93668  0.62180  1.0000
  H   H2442     1.0  0.63657  0.92666  0.51242  1.0000
  H   H2443     1.0  0.64648  0.82068  0.59874  1.0000
  H   H2444     1.0  0.34955  0.91556  0.59422  1.0000
  H   H2445     1.0  0.40803  0.95840  0.52180  1.0000
  H   H2446     1.0  0.42975  0.99437  0.61970  1.0000
  C   C1393     1.0  0.37941  0.95445  0.61751  1.0000
  H   H2447     1.0  0.44328  0.91830  0.49063  1.0000
  H   H2448     1.0  0.37597  0.94613  0.50970  1.0000
  H   H2449     1.0  0.43122  0.95261  0.50674  1.0000
  C   C1394     1.0  0.38618  0.97530  0.56668  1.0000
  S   S309      1.0  0.66336  0.86971  0.64905  1.0000
  C   C1395     1.0  0.41644  0.96649  0.51119  1.0000
  C   C1396     1.0  0.34861  0.91858  0.50214  1.0000
  C   C1397     1.0  0.34506  0.98041  0.49253  1.0000
  C   C1398     1.0  0.37017  0.97279  0.54440  1.0000
  H   H2450     1.0  0.64015  0.90592  0.48491  1.0000
  H   H2451     1.0  0.65252  0.93307  0.52664  1.0000
  H   H2452     1.0  0.34759  0.75887  0.70361  1.0000
  S   S310      1.0  0.63995  0.83121  0.51946  1.0000
  H   H2453     1.0  0.64053  0.88272  0.50939  1.0000
  H   H2454     1.0  0.63511  0.81669  0.49193  1.0000
  H   H2455     1.0  0.39801  0.93789  0.49519  1.0000
  H   H2456     1.0  0.36406  0.96306  0.63894  1.0000
  C   C1399     1.0  0.63575  0.83627  0.49045  1.0000
  H   H2457     1.0  0.43707  0.97725  0.59661  1.0000
  C   C1400     1.0  0.33481  0.89788  0.49996  1.0000
  H   H2458     1.0  0.57518  0.86460  0.47748  1.0000
  H   H2459     1.0  0.34524  0.88707  0.49139  1.0000
  H   H2460     1.0  0.66588  0.97183  0.58903  1.0000
  C   C1401     1.0  0.63481  0.84947  0.47663  1.0000
  H   H2461     1.0  0.36105  0.72557  0.72101  1.0000
  C   C1402     1.0  0.63726  0.99071  0.60892  1.0000
  H   H2462     1.0  0.64637  0.98712  0.47851  1.0000
  C   C1403     1.0  0.66091  0.99467  0.48293  1.0000
  H   H2463     1.0  0.66241  0.92929  0.58873  1.0000
  H   H2464     1.0  0.66613  0.93681  0.65353  1.0000
  H   H2465     1.0  0.51252  0.85289  0.72005  1.0000
  H   H2466     1.0  0.33418  0.94176  0.48382  1.0000
  H   H2467     1.0  0.65986  0.78752  0.62541  1.0000
  H   H2468     1.0  0.33453  0.97202  0.61223  1.0000
  C   C1404     1.0  0.37698  0.96626  0.47376  1.0000
  H   H2469     1.0  0.56530  0.98747  0.57013  1.0000
  H   H2470     1.0  0.38252  0.98485  0.47311  1.0000
  C   C1405     1.0  0.38179  0.80562  0.71709  1.0000
  H   H2471     1.0  0.49853  0.99112  0.56375  1.0000
  H   H2472     1.0  0.58882  0.99380  0.54164  1.0000
  S   S311      1.0  0.33509  0.88855  0.66833  1.0000
  H   H2473     1.0  0.33715  0.82451  0.55489  1.0000
  H   H2474     1.0  0.33564  0.85669  0.57036  1.0000
  H   H2475     1.0  0.66647  0.81824  0.62149  1.0000
  H   H2476     1.0  0.41703  0.81637  0.47232  1.0000
  Fe  Fe160     1.0  0.61935  0.81087  0.81073  1.0000
  S   S312      1.0  0.61060  0.77449  0.82175  1.0000
  H   H2477     1.0  0.50264  0.99297  0.86879  1.0000
  C   C1406     1.0  0.63451  0.88854  0.96642  1.0000
  S   S313      1.0  0.61419  0.75620  0.78973  1.0000
  C   C1407     1.0  0.60551  0.97995  0.90732  1.0000
  Fe  Fe161     1.0  0.58499  0.77629  0.80486  1.0000
  S   S314      1.0  0.54358  0.77684  0.81121  1.0000
  H   H2478     1.0  0.65233  0.55381  0.75842  1.0000
  S   S315      1.0  0.59246  0.81374  0.79463  1.0000
  Fe  Fe162     1.0  0.56891  0.88778  0.92818  1.0000
  S   S316      1.0  0.53139  0.88447  0.94025  1.0000
  S   S317      1.0  0.58909  0.91760  0.93182  1.0000
  S   S318      1.0  0.57439  0.89558  0.90414  1.0000
  Fe  Fe163     1.0  0.42623  0.74077  0.78863  1.0000
  S   S319      1.0  0.42283  0.78043  0.77981  1.0000
  S   S320      1.0  0.46485  0.72069  0.79112  1.0000
  Fe  Fe164     1.0  0.37006  0.74022  0.79087  1.0000
  S   S321      1.0  0.36346  0.78056  0.78243  1.0000
  C   C1408     1.0  0.37571  0.71460  0.84247  1.0000
  Fe  Fe165     1.0  0.39610  0.77192  0.76604  1.0000
  S   S322      1.0  0.40097  0.78381  0.74183  1.0000
  Fe  Fe166     1.0  0.39086  0.78521  0.79711  1.0000
  S   S323      1.0  0.38877  0.81754  0.80983  1.0000
  S   S324      1.0  0.40161  0.73129  0.77367  1.0000
  S   S325      1.0  0.39537  0.74576  0.80669  1.0000
  C   C1409     1.0  0.43758  0.90794  0.93926  1.0000
  Fe  Fe167     1.0  0.44412  0.83602  0.90529  1.0000
  S   S326      1.0  0.40994  0.81867  0.91243  1.0000
  S   S327      1.0  0.48268  0.81692  0.90760  1.0000
  Fe  Fe168     1.0  0.41605  0.88334  0.89214  1.0000
  S   S328      1.0  0.37928  0.86981  0.89790  1.0000
  S   S329      1.0  0.42425  0.92032  0.88112  1.0000
  Fe  Fe169     1.0  0.39318  0.85551  0.91931  1.0000
  S   S330      1.0  0.36948  0.86175  0.94053  1.0000
  Fe  Fe170     1.0  0.39933  0.83414  0.89040  1.0000
  S   S331      1.0  0.38660  0.80706  0.87795  1.0000
  S   S332      1.0  0.42837  0.87168  0.91386  1.0000
  S   S333      1.0  0.43493  0.84892  0.88293  1.0000
  C   C1410     1.0  0.38981  0.81409  0.82867  1.0000
  C   C1411     1.0  0.38940  0.83503  0.83561  1.0000
  C   C1412     1.0  0.38931  0.83306  0.85065  1.0000
  C   C1413     1.0  0.38880  0.81021  0.85893  1.0000
  C   C1414     1.0  0.38939  0.78923  0.85200  1.0000
  C   C1415     1.0  0.39054  0.79109  0.83690  1.0000
  H   H2479     1.0  0.38897  0.85290  0.82932  1.0000
  H   H2480     1.0  0.38879  0.84935  0.85589  1.0000
  H   H2481     1.0  0.38924  0.77145  0.85833  1.0000
  H   H2482     1.0  0.39195  0.77479  0.83163  1.0000
  C   C1416     1.0  0.37843  0.80313  0.73224  1.0000
  H   H2483     1.0  0.45026  0.83745  0.80352  1.0000
  H   H2484     1.0  0.55057  0.85390  0.96801  1.0000
  H   H2485     1.0  0.34109  0.64723  0.77469  1.0000
  H   H2486     1.0  0.41220  0.94150  0.93763  1.0000
  H   H2487     1.0  0.58055  0.77319  0.76004  1.0000
  H   H2488     1.0  0.64550  0.77845  0.87877  1.0000
  H   H2489     1.0  0.34195  0.73796  0.82558  1.0000
  S   S334      1.0  0.60155  0.85831  0.92957  1.0000
  H   H2490     1.0  0.35845  0.90514  0.95273  1.0000
  H   H2491     1.0  0.40060  0.91446  0.93419  1.0000
  H   H2492     1.0  0.41793  0.83672  0.94599  1.0000
  C   C1417     1.0  0.35717  0.81564  0.73933  1.0000
  C   C1418     1.0  0.37625  0.72663  0.74091  1.0000
  H   H2493     1.0  0.54169  0.83696  0.72544  1.0000
  S   S335      1.0  0.59432  0.96150  0.89674  1.0000
  H   H2494     1.0  0.38202  0.70154  0.85167  1.0000
  H   H2495     1.0  0.35749  0.68318  0.78085  1.0000
  Fe  Fe171     1.0  0.60871  0.86795  0.90538  1.0000
  C   C1419     1.0  0.42034  0.96821  0.88634  1.0000
  C   C1420     1.0  0.41306  0.94513  0.89119  1.0000
  C   C1421     1.0  0.39697  0.94223  0.90393  1.0000
  C   C1422     1.0  0.38809  0.96240  0.91169  1.0000
  H   H2496     1.0  0.43242  0.97065  0.87636  1.0000
  H   H2497     1.0  0.39096  0.92457  0.90762  1.0000
  C   C1423     1.0  0.51836  0.86377  0.93230  1.0000
  C   C1424     1.0  0.49328  0.86182  0.93574  1.0000
  C   C1425     1.0  0.48247  0.84647  0.92865  1.0000
  C   C1426     1.0  0.49670  0.83320  0.91805  1.0000
  C   C1427     1.0  0.52206  0.83415  0.91521  1.0000
  C   C1428     1.0  0.53286  0.84955  0.92225  1.0000
  H   H2498     1.0  0.48208  0.87259  0.94360  1.0000
  H   H2499     1.0  0.46310  0.84495  0.93136  1.0000
  H   H2500     1.0  0.53330  0.82357  0.90729  1.0000
  H   H2501     1.0  0.55237  0.85061  0.91972  1.0000
  C   C1429     1.0  0.52252  0.76118  0.80487  1.0000
  C   C1430     1.0  0.52994  0.73964  0.79829  1.0000
  C   C1431     1.0  0.51214  0.72744  0.79402  1.0000
  C   C1432     1.0  0.48688  0.73685  0.79609  1.0000
  C   C1433     1.0  0.47956  0.75859  0.80246  1.0000
  C   C1434     1.0  0.49728  0.77045  0.80698  1.0000
  H   H2502     1.0  0.54929  0.73210  0.79678  1.0000
  H   H2503     1.0  0.51794  0.71054  0.78917  1.0000
  H   H2504     1.0  0.46017  0.76593  0.80422  1.0000
  H   H2505     1.0  0.49140  0.78703  0.81209  1.0000
  C   C1435     1.0  0.61884  0.84120  0.84201  1.0000
  C   C1436     1.0  0.62306  0.86131  0.84844  1.0000
  H   H2506     1.0  0.62497  0.87586  0.86837  1.0000
  H   H2507     1.0  0.52891  0.82757  0.95737  1.0000
  H   H2508     1.0  0.61718  0.98343  0.86781  1.0000
  C   C1437     1.0  0.49349  0.76806  0.75251  1.0000
  C   C1438     1.0  0.40756  0.84088  0.95618  1.0000
  H   H2509     1.0  0.54242  0.97519  0.90956  1.0000
  N   N79       1.0  0.49552  0.95989  0.91159  1.0000
  C   C1439     1.0  0.46869  0.96081  0.91768  1.0000
  C   C1440     1.0  0.50530  0.93423  0.90786  1.0000
  C   C1441     1.0  0.50934  0.96447  0.92345  1.0000
  H   H2510     1.0  0.53798  0.80170  0.96982  1.0000
  H   H2511     1.0  0.43970  0.85033  0.78658  1.0000
  S   S336      1.0  0.65090  0.79483  0.79537  1.0000
  C   C1442     1.0  0.53762  0.96359  0.91979  1.0000
  C   C1443     1.0  0.49301  0.92509  0.89621  1.0000
  C   C1444     1.0  0.50127  0.89766  0.89538  1.0000
  H   H2512     1.0  0.66643  0.80529  0.85101  1.0000
  H   H2513     1.0  0.62545  0.74412  0.75639  1.0000
  H   H2514     1.0  0.52745  0.84517  0.75084  1.0000
  H   H2515     1.0  0.46639  0.94486  0.92600  1.0000
  C   C1445     1.0  0.56359  0.77919  0.76723  1.0000
  H   H2516     1.0  0.52528  0.93264  0.90376  1.0000
  H   H2517     1.0  0.50388  0.92076  0.91777  1.0000
  H   H2518     1.0  0.50602  0.95100  0.93318  1.0000
  C   C1446     1.0  0.45644  0.84373  0.79209  1.0000
  C   C1447     1.0  0.39059  0.53059  0.76337  1.0000
  H   H2519     1.0  0.65341  0.75919  0.84104  1.0000
  H   H2520     1.0  0.58173  0.80259  0.96878  1.0000
  C   C1448     1.0  0.51956  0.80147  0.76786  1.0000
  H   H2521     1.0  0.38893  0.53612  0.78551  1.0000
  H   H2522     1.0  0.54382  0.96212  0.94227  1.0000
  H   H2523     1.0  0.53323  0.86935  0.72680  1.0000
  H   H2524     1.0  0.54664  0.94446  0.91882  1.0000
  H   H2525     1.0  0.47262  0.92759  0.89842  1.0000
  H   H2526     1.0  0.49846  0.93494  0.88547  1.0000
  H   H2527     1.0  0.52158  0.89367  0.89257  1.0000
  H   H2528     1.0  0.49580  0.88696  0.90583  1.0000
  H   H2529     1.0  0.49193  0.89167  0.88711  1.0000
  C   C1449     1.0  0.49990  0.97881  0.89871  1.0000
  C   C1450     1.0  0.41827  0.83372  0.96902  1.0000
  H   H2530     1.0  0.46094  0.80730  0.78659  1.0000
  H   H2531     1.0  0.46712  0.85916  0.79177  1.0000
  H   H2532     1.0  0.36296  0.93143  0.94026  1.0000
  H   H2533     1.0  0.39032  0.72624  0.83834  1.0000
  H   H2534     1.0  0.47266  0.97049  0.88567  1.0000
  H   H2535     1.0  0.60893  0.80482  0.84607  1.0000
  H   H2536     1.0  0.47833  0.75785  0.96583  1.0000
  C   C1451     1.0  0.48044  0.83008  0.76885  1.0000
  H   H2537     1.0  0.37298  0.70385  0.83385  1.0000
  H   H2538     1.0  0.50800  0.75658  0.75852  1.0000
  H   H2539     1.0  0.45709  0.95838  0.90946  1.0000
  C   C1452     1.0  0.41136  0.92177  0.94128  1.0000
  C   C1453     1.0  0.39574  0.98535  0.90700  1.0000
  C   C1454     1.0  0.34190  0.74847  0.83480  1.0000
  C   C1455     1.0  0.62917  0.97283  0.96814  1.0000
  H   H2540     1.0  0.51714  0.97245  0.89177  1.0000
  H   H2541     1.0  0.33705  0.78713  0.84743  1.0000
  C   C1456     1.0  0.35934  0.73850  0.72926  1.0000
  C   C1457     1.0  0.61266  0.82022  0.85086  1.0000
  H   H2542     1.0  0.40135  0.70236  0.72729  1.0000
  S   S337      1.0  0.63318  0.89600  0.90734  1.0000
  H   H2543     1.0  0.64632  0.72030  0.74798  1.0000
  C   C1458     1.0  0.54833  0.97302  0.93172  1.0000
  S   S338      1.0  0.62095  0.84315  0.82297  1.0000
  H   H2544     1.0  0.35617  0.96924  0.96151  1.0000
  C   C1459     1.0  0.37493  0.95932  0.95850  1.0000
  H   H2545     1.0  0.48406  0.82623  0.96184  1.0000
  C   C1460     1.0  0.47228  0.82235  0.78503  1.0000
  H   H2546     1.0  0.53955  0.77753  0.75161  1.0000
  C   C1461     1.0  0.51355  0.84603  0.74330  1.0000
  C   C1462     1.0  0.39998  0.91768  0.95724  1.0000
  C   C1463     1.0  0.35164  0.73055  0.84746  1.0000
  Fe  Fe172     1.0  0.62250  0.88909  0.93142  1.0000
  C   C1464     1.0  0.38328  0.85272  0.95659  1.0000
  H   H2547     1.0  0.65972  0.69930  0.79498  1.0000
  H   H2548     1.0  0.56799  0.79240  0.77397  1.0000
  C   C1465     1.0  0.64280  0.73106  0.75734  1.0000
  H   H2549     1.0  0.51431  0.80878  0.73868  1.0000
  H   H2550     1.0  0.55041  0.80639  0.75073  1.0000
  H   H2551     1.0  0.41147  0.96068  0.96504  1.0000
  H   H2552     1.0  0.37828  0.74064  0.74778  1.0000
  C   C1466     1.0  0.35744  0.92542  0.95180  1.0000
  H   H2553     1.0  0.66227  0.54684  0.74023  1.0000
  Fe  Fe173     1.0  0.64070  0.75816  0.80553  1.0000
  C   C1467     1.0  0.61544  0.83925  0.87240  1.0000
  C   C1468     1.0  0.62208  0.96915  0.91706  1.0000
  H   H2554     1.0  0.37515  0.96030  0.92128  1.0000
  S   S339      1.0  0.61449  0.83638  0.89141  1.0000
  H   H2555     1.0  0.55801  0.76283  0.77429  1.0000
  H   H2556     1.0  0.44982  0.91519  0.94550  1.0000
  H   H2557     1.0  0.64026  0.71842  0.76746  1.0000
  H   H2558     1.0  0.66105  0.71949  0.85512  1.0000
  S   S340      1.0  0.64706  0.89279  0.94813  1.0000
  H   H2559     1.0  0.48467  0.82614  0.73998  1.0000
  H   H2560     1.0  0.51577  0.78697  0.77694  1.0000
  H   H2561     1.0  0.48864  0.81644  0.79089  1.0000
  H   H2562     1.0  0.56866  0.97135  0.92932  1.0000
  H   H2563     1.0  0.54398  0.92878  0.96662  1.0000
  S   S341      1.0  0.33438  0.72325  0.79799  1.0000
  C   C1469     1.0  0.40210  0.71700  0.73407  1.0000
  H   H2564     1.0  0.43664  0.82378  0.96849  1.0000
  C   C1470     1.0  0.59094  0.96031  0.96109  1.0000
  H   H2565     1.0  0.43754  0.88800  0.94281  1.0000
  Fe  Fe174     1.0  0.62304  0.79390  0.78043  1.0000
  C   C1471     1.0  0.65045  0.81497  0.74489  1.0000
  H   H2566     1.0  0.37360  0.56136  0.77496  1.0000
  H   H2567     1.0  0.62873  0.94965  0.91770  1.0000
  H   H2568     1.0  0.44506  0.91017  0.92769  1.0000
  H   H2569     1.0  0.35447  0.81409  0.75097  1.0000
  C   C1472     1.0  0.61099  0.81925  0.86595  1.0000
  C   C1473     1.0  0.45637  0.98476  0.92415  1.0000
  H   H2570     1.0  0.35255  0.52374  0.79380  1.0000
  H   H2571     1.0  0.46347  0.83726  0.76354  1.0000
  H   H2572     1.0  0.34607  0.78901  0.81334  1.0000
  H   H2573     1.0  0.35262  0.51288  0.77728  1.0000
  S   S342      1.0  0.62598  0.80219  0.75601  1.0000
  H   H2574     1.0  0.35618  0.76053  0.83107  1.0000
  H   H2575     1.0  0.62778  0.87769  0.84168  1.0000
  H   H2576     1.0  0.63464  0.81407  0.72539  1.0000
  C   C1474     1.0  0.55313  0.83404  0.97214  1.0000
  N   N80       1.0  0.53639  0.85438  0.85399  1.0000
  C   C1475     1.0  0.54432  0.85665  0.83795  1.0000
  C   C1476     1.0  0.55089  0.86955  0.86084  1.0000
  C   C1477     1.0  0.54326  0.82772  0.85980  1.0000
  C   C1478     1.0  0.50893  0.86171  0.85779  1.0000
  C   C1479     1.0  0.49577  0.88241  0.84749  1.0000
  C   C1480     1.0  0.53456  0.83863  0.82965  1.0000
  C   C1481     1.0  0.54048  0.82172  0.87644  1.0000
  C   C1482     1.0  0.54686  0.89768  0.85637  1.0000
  C   C1483     1.0  0.56499  0.91026  0.86254  1.0000
  C   C1484     1.0  0.46963  0.89149  0.85410  1.0000
  C   C1485     1.0  0.53556  0.84760  0.81357  1.0000
  C   C1486     1.0  0.54294  0.79398  0.88094  1.0000
  H   H2577     1.0  0.56489  0.85340  0.83573  1.0000
  H   H2578     1.0  0.53907  0.87560  0.83281  1.0000
  H   H2579     1.0  0.54635  0.86742  0.87276  1.0000
  H   H2580     1.0  0.57096  0.86276  0.85868  1.0000
  H   H2581     1.0  0.56271  0.82097  0.85574  1.0000
  H   H2582     1.0  0.53187  0.81598  0.85574  1.0000
  H   H2583     1.0  0.49884  0.84572  0.85836  1.0000
  H   H2584     1.0  0.50510  0.86715  0.86888  1.0000
  H   H2585     1.0  0.49435  0.87551  0.83720  1.0000
  H   H2586     1.0  0.50567  0.89851  0.84477  1.0000
  H   H2587     1.0  0.54616  0.82028  0.83087  1.0000
  H   H2588     1.0  0.51527  0.83616  0.83385  1.0000
  H   H2589     1.0  0.52228  0.83030  0.88139  1.0000
  H   H2590     1.0  0.55530  0.82848  0.88096  1.0000
  H   H2591     1.0  0.54948  0.90240  0.84453  1.0000
  H   H2592     1.0  0.52805  0.90564  0.86080  1.0000
  H   H2593     1.0  0.56117  0.93047  0.85961  1.0000
  H   H2594     1.0  0.56308  0.90644  0.87445  1.0000
  H   H2595     1.0  0.58427  0.90379  0.85811  1.0000
  H   H2596     1.0  0.45835  0.87628  0.85641  1.0000
  H   H2597     1.0  0.47011  0.89934  0.86425  1.0000
  H   H2598     1.0  0.46054  0.90613  0.84653  1.0000
  H   H2599     1.0  0.52259  0.86490  0.81172  1.0000
  H   H2600     1.0  0.55455  0.85089  0.80904  1.0000
  H   H2601     1.0  0.53021  0.83346  0.80782  1.0000
  H   H2602     1.0  0.56078  0.78461  0.87598  1.0000
  H   H2603     1.0  0.54229  0.79015  0.89283  1.0000
  H   H2604     1.0  0.52745  0.78636  0.87774  1.0000
  C   C1487     1.0  0.57767  0.82235  0.96464  1.0000
  C   C1488     1.0  0.63034  0.98355  0.92596  1.0000
  H   H2605     1.0  0.34496  0.56578  0.75974  1.0000
  H   H2606     1.0  0.37927  0.96527  0.94679  1.0000
  H   H2607     1.0  0.66064  0.79460  0.82804  1.0000
  H   H2608     1.0  0.36819  0.75461  0.72382  1.0000
  H   H2609     1.0  0.46351  0.79761  0.75671  1.0000
  H   H2610     1.0  0.45990  0.76186  0.74469  1.0000
  H   H2611     1.0  0.60184  0.99143  0.85185  1.0000
  H   H2612     1.0  0.60106  0.94275  0.95752  1.0000
  H   H2613     1.0  0.60436  0.87166  0.96229  1.0000
  C   C1489     1.0  0.37657  0.54098  0.77690  1.0000
  C   C1490     1.0  0.65526  0.75968  0.85258  1.0000
  H   H2614     1.0  0.37945  0.53486  0.75421  1.0000
  C   C1491     1.0  0.33646  0.56770  0.80173  1.0000
  H   H2615     1.0  0.39560  0.51032  0.76552  1.0000
  H   H2616     1.0  0.63934  0.95589  0.96378  1.0000
  C   C1492     1.0  0.35211  0.53017  0.78218  1.0000
  H   H2617     1.0  0.61918  0.73284  0.84801  1.0000
  H   H2618     1.0  0.65166  0.73261  0.87196  1.0000
  H   H2619     1.0  0.47692  0.78144  0.77202  1.0000
  H   H2620     1.0  0.41068  0.73223  0.72739  1.0000
  H   H2621     1.0  0.48357  0.73541  0.74578  1.0000
  C   C1493     1.0  0.54309  0.79128  0.75820  1.0000
  H   H2622     1.0  0.52495  0.81645  0.77297  1.0000
  H   H2623     1.0  0.33822  0.71802  0.85232  1.0000
  H   H2624     1.0  0.46551  0.74496  0.76196  1.0000
  H   H2625     1.0  0.35687  0.56601  0.79968  1.0000
  H   H2626     1.0  0.60949  0.74652  0.86464  1.0000
  N   N81       1.0  0.37481  0.93192  0.96122  1.0000
  Fe  Fe175     1.0  0.59809  0.92277  0.90785  1.0000
  H   H2627     1.0  0.49889  0.86178  0.74546  1.0000
  H   H2628     1.0  0.49024  0.84610  0.76873  1.0000
  H   H2629     1.0  0.46473  0.78749  0.95793  1.0000
  H   H2630     1.0  0.60609  0.80296  0.87271  1.0000
  H   H2631     1.0  0.64342  0.97503  0.93332  1.0000
  C   C1494     1.0  0.48149  0.79002  0.76083  1.0000
  C   C1495     1.0  0.33928  0.83014  0.73132  1.0000
  H   H2632     1.0  0.35099  0.86658  0.97036  1.0000
  N   N82       1.0  0.46560  0.76482  0.85780  1.0000
  C   C1496     1.0  0.45955  0.78562  0.84618  1.0000
  C   C1497     1.0  0.45696  0.74170  0.85469  1.0000
  C   C1498     1.0  0.45148  0.77207  0.87185  1.0000
  C   C1499     1.0  0.49270  0.76028  0.85964  1.0000
  C   C1500     1.0  0.51114  0.75597  0.84602  1.0000
  C   C1501     1.0  0.46536  0.81114  0.84836  1.0000
  C   C1502     1.0  0.45279  0.75197  0.88504  1.0000
  C   C1503     1.0  0.45797  0.73767  0.83862  1.0000
  C   C1504     1.0  0.45289  0.71193  0.83715  1.0000
  C   C1505     1.0  0.53777  0.75373  0.84934  1.0000
  C   C1506     1.0  0.46166  0.82946  0.83492  1.0000
  C   C1507     1.0  0.43816  0.76170  0.89855  1.0000
  H   H2633     1.0  0.43954  0.78793  0.84501  1.0000
  H   H2634     1.0  0.46909  0.78131  0.83551  1.0000
  H   H2635     1.0  0.46730  0.72509  0.86034  1.0000
  H   H2636     1.0  0.43717  0.74150  0.85910  1.0000
  H   H2637     1.0  0.43165  0.77789  0.87053  1.0000
  H   H2638     1.0  0.45803  0.78826  0.87506  1.0000
  H   H2639     1.0  0.49771  0.77573  0.86445  1.0000
  H   H2640     1.0  0.49681  0.74377  0.86749  1.0000
  H   H2641     1.0  0.50841  0.77139  0.83736  1.0000
  H   H2642     1.0  0.50930  0.73851  0.84212  1.0000
  H   H2643     1.0  0.45268  0.81865  0.85743  1.0000
  H   H2644     1.0  0.48468  0.81007  0.85057  1.0000
  H   H2645     1.0  0.47205  0.74606  0.88743  1.0000
  H   H2646     1.0  0.44501  0.73560  0.88319  1.0000
  H   H2647     1.0  0.44365  0.75107  0.83344  1.0000
  H   H2648     1.0  0.47605  0.74006  0.83243  1.0000
  H   H2649     1.0  0.43469  0.70862  0.84305  1.0000
  H   H2650     1.0  0.45273  0.71011  0.82558  1.0000
  H   H2651     1.0  0.46757  0.69777  0.84136  1.0000
  H   H2652     1.0  0.54153  0.77146  0.85211  1.0000
  H   H2653     1.0  0.54146  0.73907  0.85837  1.0000
  H   H2654     1.0  0.55071  0.74887  0.83970  1.0000
  H   H2655     1.0  0.44273  0.83049  0.83199  1.0000
  H   H2656     1.0  0.46406  0.84804  0.83703  1.0000
  H   H2657     1.0  0.47533  0.82398  0.82571  1.0000
  H   H2658     1.0  0.43881  0.74693  0.90777  1.0000
  H   H2659     1.0  0.44629  0.77723  0.90134  1.0000
  H   H2660     1.0  0.41853  0.76801  0.89690  1.0000
  C   C1508     1.0  0.62137  0.86037  0.86356  1.0000
  N   N83       1.0  0.49652  0.81056  0.76062  1.0000
  C   C1509     1.0  0.50196  0.82190  0.74525  1.0000
  H   H2661     1.0  0.57147  0.95792  0.96478  1.0000
  H   H2662     1.0  0.41391  0.70919  0.74267  1.0000
  H   H2663     1.0  0.40788  0.53879  0.76021  1.0000
  H   H2664     1.0  0.36891  0.71133  0.74807  1.0000
  H   H2665     1.0  0.59132  0.97487  0.95175  1.0000
  C   C1510     1.0  0.64919  0.73465  0.86039  1.0000
  H   H2666     1.0  0.57711  0.82412  0.95282  1.0000
  H   H2667     1.0  0.50160  0.77391  0.74143  1.0000
  C   C1511     1.0  0.47441  0.75163  0.75117  1.0000
  H   H2668     1.0  0.61847  0.71373  0.86507  1.0000
  C   C1512     1.0  0.62241  0.73187  0.85945  1.0000
  H   H2669     1.0  0.64040  0.77426  0.85620  1.0000
  C   C1513     1.0  0.45295  0.98143  0.94066  1.0000
  H   H2670     1.0  0.34180  0.77145  0.74770  1.0000
  H   H2671     1.0  0.47080  0.97622  0.94511  1.0000
  C   C1514     1.0  0.66415  0.78352  0.87849  1.0000
  C   C1515     1.0  0.47888  0.98656  0.88901  1.0000
  H   H2672     1.0  0.35582  0.74104  0.85579  1.0000
  C   C1516     1.0  0.36996  0.85776  0.96995  1.0000
  C   C1517     1.0  0.39218  0.96984  0.96685  1.0000
  H   H2673     1.0  0.33879  0.79005  0.87308  1.0000
  H   H2674     1.0  0.65526  0.79387  0.90016  1.0000
  H   H2675     1.0  0.54103  0.99274  0.93239  1.0000
  C   C1518     1.0  0.52597  0.85156  0.72793  1.0000
  C   C1519     1.0  0.33849  0.68073  0.78443  1.0000
  H   H2676     1.0  0.44111  0.96703  0.94471  1.0000
  H   H2677     1.0  0.50900  0.78639  0.96046  1.0000
  C   C1520     1.0  0.64989  0.81892  0.72990  1.0000
  H   H2678     1.0  0.62831  0.98707  0.95866  1.0000
  H   H2679     1.0  0.63486  0.99021  0.85046  1.0000
  H   H2680     1.0  0.65915  0.75652  0.76674  1.0000
  H   H2681     1.0  0.34136  0.69233  0.74145  1.0000
  H   H2682     1.0  0.45993  0.89070  0.96846  1.0000
  H   H2683     1.0  0.50257  0.98307  0.92676  1.0000
  H   H2684     1.0  0.33579  0.58859  0.81968  1.0000
  C   C1521     1.0  0.47273  0.77744  0.96761  1.0000
  C   C1522     1.0  0.41190  0.98820  0.89429  1.0000
  H   H2685     1.0  0.43771  0.99015  0.92066  1.0000
  H   H2686     1.0  0.52864  0.90208  0.96819  1.0000
  H   H2687     1.0  0.49994  0.86206  0.96560  1.0000
  H   H2688     1.0  0.59289  0.83165  0.96673  1.0000
  C   C1523     1.0  0.49519  0.78840  0.97014  1.0000
  C   C1524     1.0  0.54502  0.90902  0.97079  1.0000
  H   H2689     1.0  0.66519  0.75819  0.74743  1.0000
  H   H2690     1.0  0.41368  0.92150  0.96384  1.0000
  H   H2691     1.0  0.33706  0.74266  0.75712  1.0000
  H   H2692     1.0  0.66388  0.80312  0.87408  1.0000
  H   H2693     1.0  0.39912  0.89760  0.95978  1.0000
  C   C1525     1.0  0.66407  0.74544  0.75756  1.0000
  C   C1526     1.0  0.53143  0.82183  0.96894  1.0000
  H   H2694     1.0  0.56183  0.89891  0.96518  1.0000
  C   C1527     1.0  0.61344  0.87719  0.97048  1.0000
  H   H2695     1.0  0.50340  0.99614  0.90220  1.0000
  C   C1528     1.0  0.66688  0.98786  0.97156  1.0000
  C   C1529     1.0  0.61716  0.99520  0.85728  1.0000
  H   H2696     1.0  0.34004  0.99121  0.76619  1.0000
  Fe  Fe176     1.0  0.76888  0.35890  0.16229  1.0000
  S   S343      1.0  0.80566  0.33626  0.16583  1.0000
  S   S344      1.0  0.73160  0.34476  0.16382  1.0000
  Fe  Fe177     1.0  0.78973  0.40848  0.16148  1.0000
  S   S345      1.0  0.82725  0.38865  0.16555  1.0000
  S   S346      1.0  0.78225  0.45021  0.15501  1.0000
  Fe  Fe178     1.0  0.82174  0.36472  0.14910  1.0000
  S   S347      1.0  0.85384  0.35970  0.13120  1.0000
  Fe  Fe179     1.0  0.80781  0.36228  0.18188  1.0000
  S   S348      1.0  0.81150  0.35037  0.20581  1.0000
  S   S349      1.0  0.78490  0.38541  0.14443  1.0000
  S   S350      1.0  0.77034  0.38402  0.17891  1.0000
  C   C1530     1.0  0.88613  0.46804  0.97663  1.0000
  S   S351      1.0  0.69479  0.24682  0.15148  1.0000
  H   H2697     1.0  0.96889  0.46228  0.02441  1.0000
  H   H2698     1.0  0.89085  0.32352  0.07606  1.0000
  C   C1531     1.0  0.98008  0.35490  0.99510  1.0000
  Fe  Fe180     1.0  0.88641  0.40583  0.02513  1.0000
  S   S352      1.0  0.86677  0.37375  0.02440  1.0000
  S   S353      1.0  0.87354  0.44523  0.01739  1.0000
  Fe  Fe181     1.0  0.92747  0.37536  0.04056  1.0000
  S   S354      1.0  0.91153  0.34047  0.04127  1.0000
  S   S355      1.0  0.95856  0.38114  0.05219  1.0000
  Fe  Fe182     1.0  0.90501  0.35434  0.01820  1.0000
  S   S356      1.0  0.91719  0.32742  0.00170  1.0000
  Fe  Fe183     1.0  0.87482  0.36290  0.04740  1.0000
  S   S357      1.0  0.84534  0.35290  0.06557  1.0000
  S   S358      1.0  0.92403  0.38747  0.01720  1.0000
  S   S359      1.0  0.89127  0.39644  0.04844  1.0000
  C   C1532     1.0  0.88919  0.46288  0.02604  1.0000
  H   H2699     1.0  0.89050  0.26864  0.06167  1.0000
  H   H2700     1.0  0.91531  0.43204  0.03307  1.0000
  H   H2701     1.0  0.83751  0.28399  0.21360  1.0000
  H   H2702     1.0  0.72895  0.19299  0.17783  1.0000
  H   H2703     1.0  0.68010  0.17944  0.99143  1.0000
  H   H2704     1.0  0.83747  0.44018  0.15177  1.0000
  H   H2705     1.0  0.97911  0.35516  0.02744  1.0000
  H   H2706     1.0  0.94750  0.48792  0.00542  1.0000
  H   H2707     1.0  0.71038  0.15381  0.15409  1.0000
  H   H2708     1.0  0.86496  0.29758  0.13144  1.0000
  H   H2709     1.0  0.87894  0.30061  0.05729  1.0000
  H   H2710     1.0  0.89812  0.31518  0.21175  1.0000
  H   H2711     1.0  0.90386  0.45563  0.97738  1.0000
  H   H2712     1.0  0.95376  0.33589  0.08222  1.0000
  H   H2713     1.0  0.68843  0.14891  0.01306  1.0000
  H   H2714     1.0  0.94402  0.47203  0.11338  1.0000
  H   H2715     1.0  0.93668  0.45570  0.04626  1.0000
  H   H2716     1.0  0.72019  0.21163  0.12950  1.0000
  H   H2717     1.0  0.86410  0.33352  0.19714  1.0000
  H   H2718     1.0  0.73551  0.17906  0.08766  1.0000
  C   C1533     1.0  0.78992  0.47355  0.16401  1.0000
  H   H2719     1.0  0.86273  0.23733  0.22010  1.0000
  H   H2720     1.0  0.89585  0.36656  0.98009  1.0000
  C   C1534     1.0  0.67943  0.14414  0.00424  1.0000
  C   C1535     1.0  0.85276  0.27636  0.05697  1.0000
  C   C1536     1.0  0.84984  0.36146  0.11281  1.0000
  C   C1537     1.0  0.86996  0.36516  0.10228  1.0000
  C   C1538     1.0  0.86829  0.36412  0.08764  1.0000
  C   C1539     1.0  0.84673  0.35856  0.08345  1.0000
  C   C1540     1.0  0.82636  0.35565  0.09391  1.0000
  C   C1541     1.0  0.82778  0.35741  0.10851  1.0000
  H   H2721     1.0  0.88709  0.36832  0.10551  1.0000
  H   H2722     1.0  0.88407  0.36651  0.07969  1.0000
  H   H2723     1.0  0.80956  0.35147  0.09077  1.0000
  H   H2724     1.0  0.81215  0.35457  0.11652  1.0000
  C   C1542     1.0  0.72238  0.31660  0.16104  1.0000
  C   C1543     1.0  0.73854  0.29821  0.15439  1.0000
  C   C1544     1.0  0.72986  0.27685  0.15174  1.0000
  C   C1545     1.0  0.70509  0.27334  0.15595  1.0000
  C   C1546     1.0  0.68913  0.29133  0.16303  1.0000
  C   C1547     1.0  0.69768  0.31292  0.16540  1.0000
  H   H2725     1.0  0.75754  0.30078  0.15095  1.0000
  H   H2726     1.0  0.74238  0.26309  0.14624  1.0000
  H   H2727     1.0  0.80356  0.44934  0.18188  1.0000
  C   C1548     1.0  0.98877  0.36882  0.04583  1.0000
  C   C1549     1.0  0.87430  0.28303  0.06341  1.0000
  C   C1550     1.0  0.91294  0.30528  0.97852  1.0000
  C   C1551     1.0  0.90857  0.32770  0.98428  1.0000
  C   C1552     1.0  0.97060  0.42720  0.01685  1.0000
  H   H2728     1.0  0.95986  0.43574  0.00789  1.0000
  H   H2729     1.0  0.91508  0.32529  0.09575  1.0000
  H   H2730     1.0  0.92006  0.28867  0.98496  1.0000
  C   C1553     1.0  0.81791  0.28102  0.21519  1.0000
  C   C1554     1.0  0.90909  0.45137  0.03327  1.0000
  C   C1555     1.0  0.84775  0.44129  0.14076  1.0000
  H   H2731     1.0  0.74709  0.29668  0.19458  1.0000
  C   C1556     1.0  0.92155  0.46491  0.04050  1.0000
  C   C1557     1.0  0.99575  0.43561  0.03559  1.0000
  H   H2732     1.0  0.72313  0.18214  0.15242  1.0000
  H   H2733     1.0  0.85806  0.27507  0.04527  1.0000
  H   H2734     1.0  0.93493  0.47508  0.98357  1.0000
  H   H2735     1.0  0.71485  0.24379  0.10477  1.0000
  H   H2736     1.0  0.73849  0.15732  0.14229  1.0000
  C   C1558     1.0  0.72404  0.16928  0.09649  1.0000
  H   H2737     1.0  0.84713  0.48194  0.15502  1.0000
  H   H2738     1.0  0.74143  0.21593  0.16469  1.0000
  C   C1559     1.0  0.85065  0.29199  0.12590  1.0000
  C   C1560     1.0  0.91133  0.48554  0.12727  1.0000
  H   H2739     1.0  0.72864  0.30750  0.21055  1.0000
  C   C1561     1.0  0.71799  0.19640  0.12341  1.0000
  N   N84       1.0  0.88873  0.28736  0.08777  1.0000
  C   C1562     1.0  0.86738  0.28618  0.07963  1.0000
  C   C1563     1.0  0.87856  0.29600  0.10223  1.0000
  C   C1564     1.0  0.90338  0.30654  0.07933  1.0000
  C   C1565     1.0  0.90582  0.26323  0.08957  1.0000
  C   C1566     1.0  0.89409  0.23928  0.09085  1.0000
  C   C1567     1.0  0.72059  0.25975  0.21118  1.0000
  C   C1568     1.0  0.92361  0.31416  0.08694  1.0000
  C   C1569     1.0  0.86238  0.27935  0.11266  1.0000
  H   H2740     1.0  0.74367  0.21495  0.20418  1.0000
  C   C1570     1.0  0.91246  0.21667  0.09516  1.0000
  C   C1571     1.0  0.69962  0.13054  0.99424  1.0000
  C   C1572     1.0  0.93981  0.33018  0.07648  1.0000
  H   H2741     1.0  0.85383  0.30334  0.08021  1.0000
  H   H2742     1.0  0.85667  0.27135  0.08469  1.0000
  H   H2743     1.0  0.89370  0.29800  0.10838  1.0000
  H   H2744     1.0  0.86757  0.31458  0.10060  1.0000
  C   C1573     1.0  0.86976  0.42896  0.97385  1.0000
  H   H2745     1.0  0.91282  0.30009  0.06902  1.0000
  H   H2746     1.0  0.92068  0.26189  0.08030  1.0000
  H   H2747     1.0  0.91579  0.26242  0.09914  1.0000
  H   H2748     1.0  0.88851  0.23693  0.08034  1.0000
  H   H2749     1.0  0.87748  0.23933  0.09887  1.0000
  H   H2750     1.0  0.92838  0.34703  0.07192  1.0000
  C   C1574     1.0  0.72802  0.30249  0.19963  1.0000
  H   H2751     1.0  0.93564  0.29777  0.09148  1.0000
  H   H2752     1.0  0.99804  0.44846  0.07161  1.0000
  H   H2753     1.0  0.84714  0.27478  0.10753  1.0000
  H   H2754     1.0  0.87399  0.26219  0.11661  1.0000
  H   H2755     1.0  0.86780  0.46875  0.09610  1.0000
  H   H2756     1.0  0.84080  0.48128  0.08813  1.0000
  H   H2757     1.0  0.89347  0.47721  0.07159  1.0000
  H   H2758     1.0  0.92922  0.21536  0.08713  1.0000
  H   H2759     1.0  0.91789  0.21754  0.10595  1.0000
  H   H2760     1.0  0.90383  0.19978  0.09564  1.0000
  H   H2761     1.0  0.90697  0.46666  0.13079  1.0000
  H   H2762     1.0  0.66847  0.20735  0.12142  1.0000
  H   H2763     1.0  0.95780  0.41944  0.02579  1.0000
  H   H2764     1.0  0.75604  0.20120  0.09790  1.0000
  H   H2765     1.0  0.98058  0.43128  0.04417  1.0000
  H   H2766     1.0  0.84781  0.25837  0.06224  1.0000
  N   N85       1.0  0.85684  0.44531  0.08233  1.0000
  C   C1575     1.0  0.84436  0.43134  0.09543  1.0000
  C   C1576     1.0  0.88171  0.43084  0.07804  1.0000
  C   C1577     1.0  0.85937  0.47035  0.08592  1.0000
  C   C1578     1.0  0.84203  0.44846  0.06972  1.0000
  C   C1579     1.0  0.83171  0.42525  0.06707  1.0000
  C   C1580     1.0  0.81817  0.44332  0.10124  1.0000
  H   H2767     1.0  0.68680  0.18600  0.13908  1.0000
  C   C1581     1.0  0.90122  0.42833  0.08866  1.0000
  C   C1582     1.0  0.92560  0.41391  0.08269  1.0000
  C   C1583     1.0  0.82185  0.42873  0.05248  1.0000
  C   C1584     1.0  0.80435  0.42461  0.11124  1.0000
  H   H2768     1.0  0.85542  0.42895  0.10462  1.0000
  H   H2769     1.0  0.84348  0.41226  0.09335  1.0000
  H   H2770     1.0  0.87953  0.41182  0.07668  1.0000
  H   H2771     1.0  0.89002  0.43863  0.06728  1.0000
  C   C1585     1.0  0.98316  0.44645  0.02197  1.0000
  C   C1586     1.0  0.80533  0.48741  0.18397  1.0000
  H   H2772     1.0  0.82614  0.46348  0.07080  1.0000
  H   H2773     1.0  0.85343  0.45460  0.05956  1.0000
  H   H2774     1.0  0.81630  0.42119  0.07550  1.0000
  H   H2775     1.0  0.84603  0.40886  0.06728  1.0000
  H   H2776     1.0  0.81967  0.45851  0.10747  1.0000
  H   H2777     1.0  0.80675  0.45105  0.09249  1.0000
  H   H2778     1.0  0.87703  0.46728  0.14959  1.0000
  H   H2779     1.0  0.75628  0.23517  0.07759  1.0000
  H   H2780     1.0  0.90512  0.44654  0.09052  1.0000
  H   H2781     1.0  0.89500  0.41827  0.09918  1.0000
  H   H2782     1.0  0.93311  0.42348  0.07226  1.0000
  H   H2783     1.0  0.93936  0.41217  0.09041  1.0000
  H   H2784     1.0  0.92294  0.39512  0.08099  1.0000
  H   H2785     1.0  0.81443  0.41190  0.05102  1.0000
  H   H2786     1.0  0.80684  0.44461  0.05185  1.0000
  H   H2787     1.0  0.83689  0.43176  0.04360  1.0000
  H   H2788     1.0  0.79987  0.41063  0.10502  1.0000
  H   H2789     1.0  0.81561  0.41500  0.11975  1.0000
  H   H2790     1.0  0.78684  0.43405  0.11654  1.0000
  H   H2791     1.0  0.67555  0.25019  0.09740  1.0000
  H   H2792     1.0  0.75408  0.25721  0.09038  1.0000
  H   H2793     1.0  0.86629  0.43017  0.14117  1.0000
  H   H2794     1.0  0.98701  0.48575  0.03610  1.0000
  H   H2795     1.0  0.73698  0.18720  0.12041  1.0000
  H   H2796     1.0  0.99226  0.34179  0.00189  1.0000
  H   H2797     1.0  0.67588  0.99716  0.97870  1.0000
  C   C1587     1.0  0.99522  0.47445  0.04540  1.0000
  C   C1588     1.0  0.92682  0.48532  0.11251  1.0000
  H   H2798     1.0  0.68501  0.32703  0.17053  1.0000
  H   H2799     1.0  0.70579  0.13662  0.09898  1.0000
  H   H2800     1.0  0.72090  0.15070  0.21498  1.0000
  C   C1589     1.0  0.71991  0.22532  0.10084  1.0000
  H   H2801     1.0  0.96071  0.35328  0.99965  1.0000
  H   H2802     1.0  0.69246  0.19527  0.09197  1.0000
  H   H2803     1.0  0.91647  0.47965  0.10456  1.0000
  H   H2804     1.0  0.71693  0.20174  0.20301  1.0000
  H   H2805     1.0  0.70477  0.15471  0.08156  1.0000
  C   C1590     1.0  0.71219  0.28209  0.20027  1.0000
  C   C1591     1.0  0.86141  0.48042  0.14550  1.0000
  C   C1592     1.0  0.74848  0.22019  0.10009  1.0000
  C   C1593     1.0  0.68046  0.22046  0.11543  1.0000
  H   H2806     1.0  0.83095  0.47760  0.13365  1.0000
  H   H2807     1.0  0.86166  0.42725  0.98535  1.0000
  N   N86       1.0  0.70539  0.20689  0.11024  1.0000
  C   C1594     1.0  0.83699  0.33875  0.21556  1.0000
  C   C1595     1.0  0.71638  0.14787  0.09039  1.0000
  H   H2808     1.0  0.68237  0.07239  0.99557  1.0000
  H   H2809     1.0  0.86546  0.48962  0.06394  1.0000
  H   H2810     1.0  0.71493  0.22785  0.08964  1.0000
  H   H2811     1.0  0.91176  0.47399  0.99860  1.0000
  C   C1596     1.0  0.98488  0.34862  0.97960  1.0000
  H   H2812     1.0  0.94967  0.31998  0.06752  1.0000
  H   H2813     1.0  0.86103  0.46787  0.12419  1.0000
  C   C1597     1.0  0.68294  0.24183  0.20769  1.0000
  H   H2814     1.0  0.83643  0.29082  0.05827  1.0000
  H   H2815     1.0  0.78095  0.23422  0.08835  1.0000
  C   C1598     1.0  0.70111  0.18707  0.10179  1.0000
  H   H2816     1.0  0.88861  0.41837  0.97293  1.0000
  C   C1599     1.0  0.72668  0.22891  0.18524  1.0000
  C   C1600     1.0  0.73975  0.20858  0.17629  1.0000
  H   H2817     1.0  0.89398  0.26395  0.22135  1.0000
  C   C1601     1.0  0.84992  0.46803  0.13489  1.0000
  H   H2818     1.0  0.71327  0.27704  0.18926  1.0000
  H   H2819     1.0  0.70841  0.23510  0.18144  1.0000
  H   H2820     1.0  0.73786  0.24419  0.18294  1.0000
  H   H2821     1.0  0.75855  0.20186  0.17935  1.0000
  C   C1602     1.0  0.80009  0.46822  0.17703  1.0000
  H   H2822     1.0  0.68189  0.25305  0.19706  1.0000
  H   H2823     1.0  0.67652  0.22435  0.20632  1.0000
  H   H2824     1.0  0.69181  0.12545  0.98504  1.0000
  C   C1603     1.0  0.68342  0.16841  0.21373  1.0000
  H   H2825     1.0  0.98373  0.37383  0.99565  1.0000
  C   C1604     1.0  0.72029  0.16709  0.14647  1.0000
  H   H2826     1.0  0.67002  0.28903  0.16627  1.0000
  C   C1605     1.0  0.70352  0.15710  0.22106  1.0000
  H   H2827     1.0  0.72002  0.31917  0.19299  1.0000
  H   H2828     1.0  0.68249  0.23324  0.12321  1.0000
  C   C1606     1.0  0.70496  0.17740  0.13416  1.0000
  C   C1607     1.0  0.81037  0.28002  0.20035  1.0000
  H   H2829     1.0  0.74108  0.25551  0.20908  1.0000
  C   C1608     1.0  0.72438  0.21953  0.20152  1.0000
  N   N87       1.0  0.70905  0.23668  0.21154  1.0000
  C   C1609     1.0  0.76060  0.23782  0.08836  1.0000
  C   C1610     1.0  0.86066  0.33135  0.20877  1.0000
  H   H2830     1.0  0.73529  0.16129  0.10527  1.0000
  H   H2831     1.0  0.99645  0.45282  0.01287  1.0000
  H   H2832     1.0  0.98225  0.32912  0.97995  1.0000
  H   H2833     1.0  0.99296  0.42073  0.06554  1.0000
  H   H2834     1.0  0.75415  0.22301  0.11052  1.0000
  H   H2835     1.0  0.81286  0.48308  0.19415  1.0000
  C   C1611     1.0  0.92141  0.48667  0.99045  1.0000
  H   H2836     1.0  0.70810  0.11337  0.00029  1.0000
  H   H2837     1.0  0.70221  0.16162  0.12881  1.0000
  H   H2838     1.0  0.68748  0.17588  0.10814  1.0000
  H   H2839     1.0  0.98455  0.41195  0.01305  1.0000
  H   H2840     1.0  0.69279  0.29001  0.20352  1.0000
  H   H2841     1.0  0.83750  0.30856  0.12275  1.0000
  H   H2842     1.0  0.68536  0.17059  0.20209  1.0000
  C   C1612     1.0  0.88232  0.48834  0.02559  1.0000
  H   H2843     1.0  0.82210  0.26482  0.19502  1.0000
  H   H2844     1.0  0.79067  0.27754  0.20124  1.0000
  H   H2845     1.0  0.81280  0.29763  0.19349  1.0000
  H   H2846     1.0  0.84029  0.27924  0.13363  1.0000
  C   C1613     1.0  0.91503  0.49033  0.03989  1.0000
  H   H2847     1.0  0.87657  0.46750  0.98786  1.0000
  C   C1614     1.0  0.87988  0.32091  0.21709  1.0000
  H   H2848     1.0  0.97900  0.46941  0.05298  1.0000
  C   C1615     1.0  0.89932  0.34912  0.97574  1.0000
  H   H2849     1.0  0.73305  0.13586  0.08603  1.0000
  H   H2850     1.0  0.83754  0.43320  0.13375  1.0000
  H   H2851     1.0  0.92298  0.49033  0.13482  1.0000
  C   C1616     1.0  0.99400  0.35721  0.03328  1.0000
  H   H2852     1.0  0.80635  0.29725  0.21954  1.0000
  H   H2853     1.0  0.67225  0.18830  0.01684  1.0000
  S   S360      1.0  0.67086  0.19064  0.17205  1.0000
  C   C1617     1.0  0.87421  0.48626  0.07405  1.0000
  H   H2854     1.0  0.82351  0.24161  0.21942  1.0000
  H   H2855     1.0  0.71422  0.14216  0.99003  1.0000
  H   H2856     1.0  0.94787  0.36309  0.97493  1.0000
  H   H2857     1.0  0.71693  0.26675  0.22190  1.0000
  Fe  Fe184     1.0  0.72858  0.12781  0.26860  1.0000
  S   S361      1.0  0.76002  0.09762  0.27308  1.0000
  S   S362      1.0  0.72779  0.14141  0.24474  1.0000
  Fe  Fe185     1.0  0.71039  0.12767  0.30097  1.0000
  S   S363      1.0  0.74080  0.09820  0.30731  1.0000
  C   C1618     1.0  0.97556  0.36510  0.42555  1.0000
  Fe  Fe186     1.0  0.76505  0.11981  0.29059  1.0000
  S   S364      1.0  0.80256  0.12786  0.29487  1.0000
  Fe  Fe187     1.0  0.73258  0.07919  0.28928  1.0000
  S   S365      1.0  0.71718  0.04255  0.29368  1.0000
  S   S366      1.0  0.73487  0.15061  0.28540  1.0000
  S   S367      1.0  0.70103  0.10825  0.28355  1.0000
  Fe  Fe188     1.0  0.92947  0.25191  0.28631  1.0000
  S   S368      1.0  0.92467  0.29261  0.28054  1.0000
  S   S369      1.0  0.96781  0.23105  0.28993  1.0000
  Fe  Fe189     1.0  0.87327  0.25050  0.28814  1.0000
  S   S370      1.0  0.86549  0.29195  0.28318  1.0000
  S   S371      1.0  0.83764  0.23351  0.28937  1.0000
  Fe  Fe190     1.0  0.89758  0.28732  0.26590  1.0000
  S   S372      1.0  0.90020  0.30330  0.24218  1.0000
  Fe  Fe191     1.0  0.89312  0.29327  0.29847  1.0000
  S   S373      1.0  0.89446  0.32173  0.31367  1.0000
  S   S374      1.0  0.90469  0.24603  0.27032  1.0000
  S   S375      1.0  0.89853  0.25244  0.30477  1.0000
  Fe  Fe192     1.0  0.88002  0.36917  0.42225  1.0000
  S   S376      1.0  0.91527  0.38484  0.41595  1.0000
  S   S377      1.0  0.85832  0.37768  0.44356  1.0000
  Fe  Fe193     1.0  0.88475  0.34562  0.39399  1.0000
  S   S378      1.0  0.92042  0.35969  0.38586  1.0000
  S   S379      1.0  0.86876  0.32071  0.38161  1.0000
  Fe  Fe194     1.0  0.92981  0.34819  0.40837  1.0000
  S   S380      1.0  0.96623  0.32651  0.41290  1.0000
  Fe  Fe195     1.0  0.90210  0.39482  0.39428  1.0000
  S   S381      1.0  0.90694  0.43093  0.38096  1.0000
  S   S382      1.0  0.89549  0.33155  0.41611  1.0000
  S   S383      1.0  0.86535  0.38188  0.40096  1.0000
  H   H2858     1.0  0.83682  0.46864  0.36701  1.0000
  H   H2859     1.0  0.87970  0.44892  0.34554  1.0000
  C   C1619     1.0  0.94129  0.23516  0.33095  1.0000
  C   C1620     1.0  0.88981  0.45170  0.40593  1.0000
  C   C1621     1.0  0.89932  0.45557  0.39141  1.0000
  H   H2860     1.0  0.70550  0.00950  0.25323  1.0000
  H   H2861     1.0  0.88633  0.43359  0.41076  1.0000
  H   H2862     1.0  0.83174  0.22865  0.44456  1.0000
  C   C1622     1.0  0.96215  0.32872  0.29664  1.0000
  H   H2863     1.0  0.86902  0.43269  0.36199  1.0000
  H   H2864     1.0  0.90195  0.41744  0.29943  1.0000
  H   H2865     1.0  0.95648  0.36695  0.43018  1.0000
  H   H2866     1.0  0.69440  0.99924  0.29904  1.0000
  C   C1623     1.0  0.68700  0.00853  0.38350  1.0000
  H   H2867     1.0  0.84800  0.48525  0.35012  1.0000
  H   H2868     1.0  0.97991  0.27749  0.27396  1.0000
  H   H2869     1.0  0.81594  0.48125  0.35393  1.0000
  C   C1624     1.0  0.87808  0.31874  0.36297  1.0000
  C   C1625     1.0  0.86682  0.30401  0.35562  1.0000
  C   C1626     1.0  0.87259  0.30359  0.34059  1.0000
  C   C1627     1.0  0.88940  0.31824  0.33277  1.0000
  C   C1628     1.0  0.90120  0.33232  0.34021  1.0000
  C   C1629     1.0  0.89583  0.33232  0.35523  1.0000
  H   H2870     1.0  0.85315  0.29331  0.36151  1.0000
  H   H2871     1.0  0.86327  0.29275  0.33499  1.0000
  H   H2872     1.0  0.91436  0.34352  0.33425  1.0000
  H   H2873     1.0  0.90499  0.34325  0.36081  1.0000
  C   C1630     1.0  0.72962  0.01142  0.29200  1.0000
  H   H2874     1.0  0.82142  0.27754  0.46926  1.0000
  C   C1631     1.0  0.69371  0.06532  0.33877  1.0000
  H   H2875     1.0  0.92490  0.41712  0.33192  1.0000
  C   C1632     1.0  0.99591  0.26817  0.27889  1.0000
  H   H2876     1.0  0.97765  0.30262  0.37503  1.0000
  H   H2877     1.0  0.95052  0.22888  0.32060  1.0000
  C   C1633     1.0  0.81083  0.27637  0.26357  1.0000
  H   H2878     1.0  0.75833  0.04243  0.24003  1.0000
  C   C1634     1.0  0.79660  0.29962  0.26943  1.0000
  C   C1635     1.0  0.84055  0.44836  0.34838  1.0000
  H   H2879     1.0  0.72448  0.11110  0.35975  1.0000
  C   C1636     1.0  0.81267  0.15724  0.29227  1.0000
  C   C1637     1.0  0.83692  0.15901  0.29455  1.0000
  C   C1638     1.0  0.84525  0.18208  0.29326  1.0000
  C   C1639     1.0  0.82925  0.20372  0.28989  1.0000
  C   C1640     1.0  0.80508  0.20192  0.28750  1.0000
  C   C1641     1.0  0.79690  0.17887  0.28856  1.0000
  H   H2880     1.0  0.84931  0.14242  0.29741  1.0000
  H   H2881     1.0  0.86385  0.18313  0.29520  1.0000
  H   H2882     1.0  0.79247  0.21851  0.28497  1.0000
  H   H2883     1.0  0.77826  0.17787  0.28673  1.0000
  C   C1642     1.0  0.70135  0.15409  0.23619  1.0000
  H   H2884     1.0  0.95660  0.45874  0.44376  1.0000
  C   C1643     1.0  0.99057  0.38186  0.42791  1.0000
  H   H2885     1.0  0.80370  0.21093  0.23416  1.0000
  H   H2886     1.0  0.72323  0.12889  0.45297  1.0000
  H   H2887     1.0  0.83076  0.18201  0.25896  1.0000
  C   C1644     1.0  0.87564  0.31754  0.23224  1.0000
  C   C1645     1.0  0.85202  0.32511  0.23902  1.0000
  C   C1646     1.0  0.96571  0.31792  0.36938  1.0000
  H   H2888     1.0  0.80907  0.34410  0.41907  1.0000
  C   C1647     1.0  0.74296  0.00813  0.24323  1.0000
  H   H2889     1.0  0.84854  0.32281  0.25066  1.0000
  H   H2890     1.0  0.69066  0.99799  0.45617  1.0000
  C   C1648     1.0  0.70494  0.12319  0.34118  1.0000
  C   C1649     1.0  0.88433  0.47144  0.41425  1.0000
  H   H2891     1.0  0.67712  0.02869  0.44985  1.0000
  C   C1650     1.0  0.97191  0.26469  0.33073  1.0000
  H   H2892     1.0  0.90793  0.38786  0.32141  1.0000
  H   H2893     1.0  0.95849  0.37006  0.46234  1.0000
  C   C1651     1.0  0.81417  0.25709  0.22537  1.0000
  H   H2894     1.0  0.69744  0.20776  0.22772  1.0000
  C   C1652     1.0  0.92143  0.41385  0.34382  1.0000
  H   H2895     1.0  0.87142  0.40931  0.29961  1.0000
  C   C1653     1.0  0.94421  0.26191  0.33156  1.0000
  H   H2896     1.0  0.72911  0.15354  0.37890  1.0000
  C   C1654     1.0  0.67373  0.01176  0.45715  1.0000
  H   H2897     1.0  0.99157  0.32103  0.35043  1.0000
  H   H2898     1.0  0.94756  0.47165  0.40479  1.0000
  C   C1655     1.0  0.86806  0.23867  0.23080  1.0000
  H   H2899     1.0  0.95325  0.47028  0.38037  1.0000
  H   H2900     1.0  0.98723  0.41707  0.40311  1.0000
  H   H2901     1.0  0.85267  0.26465  0.46976  1.0000
  H   H2902     1.0  0.80403  0.35910  0.43520  1.0000
  H   H2903     1.0  0.69540  0.03982  0.32331  1.0000
  H   H2904     1.0  0.78798  0.27763  0.24662  1.0000
  H   H2905     1.0  0.94576  0.29681  0.34902  1.0000
  H   H2906     1.0  0.94579  0.31105  0.32395  1.0000
  H   H2907     1.0  0.84547  0.33451  0.43193  1.0000
  C   C1656     1.0  0.80664  0.34095  0.43103  1.0000
  C   C1657     1.0  0.73129  0.20609  0.24826  1.0000
  H   H2908     1.0  0.93334  0.26721  0.34170  1.0000
  H   H2909     1.0  0.93586  0.27332  0.32237  1.0000
  H   H2910     1.0  0.67044  0.26986  0.22270  1.0000
  C   C1658     1.0  0.97814  0.41618  0.38151  1.0000
  H   H2911     1.0  0.85555  0.26300  0.44207  1.0000
  H   H2912     1.0  0.67300  0.07151  0.30787  1.0000
  C   C1659     1.0  0.73368  0.21261  0.23189  1.0000
  H   H2913     1.0  0.71580  0.03925  0.35311  1.0000
  H   H2914     1.0  0.90549  0.34861  0.44894  1.0000
  C   C1660     1.0  0.89918  0.39964  0.34888  1.0000
  H   H2915     1.0  0.96879  0.32652  0.28515  1.0000
  H   H2916     1.0  0.89833  0.38660  0.29698  1.0000
  H   H2917     1.0  0.97393  0.40650  0.46695  1.0000
  H   H2918     1.0  0.90055  0.24754  0.23860  1.0000
  H   H2919     1.0  0.99023  0.20293  0.25786  1.0000
  H   H2920     1.0  0.96217  0.42371  0.37548  1.0000
  C   C1661     1.0  0.68688  0.14404  0.46292  1.0000
  C   C1662     1.0  0.87735  0.41701  0.32757  1.0000
  N   N88       1.0  0.77148  0.16433  0.33785  1.0000
  C   C1663     1.0  0.78535  0.18466  0.33995  1.0000
  C   C1664     1.0  0.75437  0.15784  0.35136  1.0000
  C   C1665     1.0  0.79031  0.14191  0.33523  1.0000
  C   C1666     1.0  0.75736  0.17081  0.32496  1.0000
  C   C1667     1.0  0.73814  0.19434  0.32495  1.0000
  C   C1668     1.0  0.80385  0.19315  0.32703  1.0000
  C   C1669     1.0  0.77978  0.11794  0.33424  1.0000
  C   C1670     1.0  0.74278  0.17871  0.36071  1.0000
  H   H2921     1.0  0.98037  0.25040  0.33880  1.0000
  C   C1671     1.0  0.72675  0.19982  0.31080  1.0000
  C   C1672     1.0  0.81609  0.21414  0.33043  1.0000
  C   C1673     1.0  0.80036  0.09604  0.33328  1.0000
  H   H2922     1.0  0.79574  0.17888  0.34945  1.0000
  H   H2923     1.0  0.77254  0.20143  0.34253  1.0000
  H   H2924     1.0  0.73900  0.14952  0.34856  1.0000
  H   H2925     1.0  0.76411  0.14348  0.35890  1.0000
  H   H2926     1.0  0.80277  0.13793  0.34384  1.0000
  H   H2927     1.0  0.80235  0.14519  0.32488  1.0000
  H   H2928     1.0  0.77028  0.17221  0.31486  1.0000
  H   H2929     1.0  0.74694  0.15575  0.32388  1.0000
  H   H2930     1.0  0.74653  0.21061  0.32626  1.0000
  H   H2931     1.0  0.72279  0.19173  0.33366  1.0000
  H   H2932     1.0  0.81886  0.17807  0.32435  1.0000
  H   H2933     1.0  0.79424  0.19999  0.31741  1.0000
  H   H2934     1.0  0.77049  0.11988  0.32440  1.0000
  H   H2935     1.0  0.76633  0.11328  0.34369  1.0000
  H   H2936     1.0  0.75714  0.18368  0.36648  1.0000
  H   H2937     1.0  0.73486  0.19552  0.35423  1.0000
  C   C1674     1.0  0.97508  0.30758  0.30627  1.0000
  H   H2938     1.0  0.93304  0.27385  0.44952  1.0000
  H   H2939     1.0  0.81795  0.16921  0.24564  1.0000
  C   C1675     1.0  0.95517  0.46914  0.43291  1.0000
  H   H2940     1.0  0.71308  0.21683  0.31101  1.0000
  H   H2941     1.0  0.74119  0.20258  0.30152  1.0000
  H   H2942     1.0  0.82602  0.20837  0.34006  1.0000
  H   H2943     1.0  0.82972  0.21942  0.32117  1.0000
  H   H2944     1.0  0.80214  0.23054  0.33231  1.0000
  H   H2945     1.0  0.81420  0.09955  0.32378  1.0000
  H   H2946     1.0  0.80966  0.09240  0.34320  1.0000
  H   H2947     1.0  0.79242  0.07940  0.33203  1.0000
  H   H2948     1.0  0.74565  0.03384  0.25833  1.0000
  H   H2949     1.0  0.97213  0.27876  0.35590  1.0000
  N   N89       1.0  0.82262  0.25523  0.24008  1.0000
  H   H2950     1.0  0.71729  0.19354  0.25184  1.0000
  H   H2951     1.0  0.88823  0.43240  0.32384  1.0000
  C   C1676     1.0  0.81883  0.20854  0.24106  1.0000
  H   H2952     1.0  0.94965  0.38148  0.34473  1.0000
  H   H2953     1.0  0.97341  0.29308  0.44838  1.0000
  C   C1677     1.0  0.98031  0.49574  0.37633  1.0000
  H   H2954     1.0  0.90701  0.23189  0.22269  1.0000
  H   H2955     1.0  0.96055  0.41006  0.34579  1.0000
  C   C1678     1.0  0.97580  0.42908  0.39534  1.0000
  H   H2956     1.0  0.94608  0.31551  0.37271  1.0000
  C   C1679     1.0  0.89438  0.28618  0.45631  1.0000
  C   C1680     1.0  0.83993  0.27691  0.46283  1.0000
  H   H2957     1.0  0.76690  0.01751  0.28433  1.0000
  C   C1681     1.0  0.83507  0.47233  0.35529  1.0000
  C   C1682     1.0  0.86710  0.43539  0.35027  1.0000
  H   H2958     1.0  0.90431  0.38089  0.34563  1.0000
  C   C1683     1.0  0.87166  0.30255  0.45035  1.0000
  S   S384      1.0  0.67940  0.14077  0.31781  1.0000
  C   C1684     1.0  0.70664  0.11707  0.35601  1.0000
  H   H2959     1.0  0.72143  0.12197  0.33355  1.0000
  H   H2960     1.0  0.70615  0.99905  0.38424  1.0000
  H   H2961     1.0  0.91821  0.43185  0.34815  1.0000
  H   H2962     1.0  0.96237  0.33430  0.45567  1.0000
  H   H2963     1.0  0.97113  0.29017  0.30320  1.0000
  C   C1685     1.0  0.70830  0.22329  0.22665  1.0000
  C   C1686     1.0  0.81617  0.18541  0.25164  1.0000
  C   C1687     1.0  0.97545  0.29604  0.45954  1.0000
  C   C1688     1.0  0.86293  0.38015  0.47186  1.0000
  C   C1689     1.0  0.68196  0.13139  0.33630  1.0000
  H   H2964     1.0  0.85562  0.25535  0.25007  1.0000
  C   C1690     1.0  0.81693  0.23157  0.24907  1.0000
  H   H2965     1.0  0.80875  0.31534  0.45702  1.0000
  H   H2966     1.0  0.81467  0.34157  0.23606  1.0000
  H   H2967     1.0  0.83037  0.27562  0.26523  1.0000
  H   H2968     1.0  0.71701  0.18448  0.30932  1.0000
  C   C1691     1.0  0.82734  0.32048  0.45296  1.0000
  H   H2969     1.0  0.80385  0.31622  0.26354  1.0000
  C   C1692     1.0  0.89644  0.35522  0.45888  1.0000
  H   H2970     1.0  0.79886  0.29887  0.28100  1.0000
  C   C1693     1.0  0.83824  0.26388  0.44960  1.0000
  C   C1694     1.0  0.83332  0.23744  0.45422  1.0000
  H   H2971     1.0  0.78994  0.33193  0.43463  1.0000
  N   N90       1.0  0.84724  0.30231  0.45977  1.0000
  H   H2972     1.0  0.74926  0.19658  0.25154  1.0000
  C   C1695     1.0  0.96976  0.45383  0.42141  1.0000
  H   H2973     1.0  0.83810  0.45291  0.33681  1.0000
  C   C1696     1.0  0.75442  0.00399  0.28713  1.0000
  H   H2974     1.0  0.79761  0.23397  0.25454  1.0000
  N   N91       1.0  0.97751  0.28961  0.33292  1.0000
  H   H2975     1.0  0.89103  0.26685  0.45916  1.0000
  H   H2976     1.0  0.94254  0.39601  0.36116  1.0000
  H   H2977     1.0  0.82693  0.33917  0.45622  1.0000
  H   H2978     1.0  0.92140  0.23344  0.33184  1.0000
  C   C1697     1.0  0.96624  0.30974  0.32238  1.0000
  C   C1698     1.0  0.68543  0.11889  0.36609  1.0000
  N   N92       1.0  0.98195  0.45502  0.39364  1.0000
  C   C1699     1.0  0.88865  0.49505  0.40814  1.0000
  C   C1700     1.0  0.89394  0.24600  0.22823  1.0000
  H   H2979     1.0  0.87771  0.37975  0.32155  1.0000
  S   S385      1.0  0.68877  0.11370  0.38466  1.0000
  C   C1701     1.0  0.82814  0.37308  0.36815  1.0000
  C   C1702     1.0  0.96764  0.46777  0.40608  1.0000
  C   C1703     1.0  0.99482  0.24548  0.28729  1.0000
  H   H2980     1.0  0.94928  0.22300  0.34001  1.0000
  H   H2981     1.0  0.70122  0.10730  0.45696  1.0000
  C   C1704     1.0  0.90302  0.47929  0.38518  1.0000
  H   H2982     1.0  0.95620  0.42870  0.40014  1.0000
  H   H2983     1.0  0.80346  0.26044  0.27017  1.0000
  H   H2984     1.0  0.71503  0.18519  0.37905  1.0000
  C   C1705     1.0  0.88887  0.39505  0.31901  1.0000
  H   H2985     1.0  0.69763  0.08046  0.33022  1.0000
  H   H2986     1.0  0.81342  0.29421  0.24194  1.0000
  H   H2987     1.0  0.87595  0.32168  0.44809  1.0000
  H   H2988     1.0  0.77663  0.30113  0.26843  1.0000
  H   H2989     1.0  0.82473  0.36767  0.37995  1.0000
  H   H2990     1.0  0.83244  0.35605  0.36275  1.0000
  C   C1706     1.0  0.94497  0.39937  0.34921  1.0000
  N   N93       1.0  0.87496  0.41154  0.34378  1.0000
  C   C1707     1.0  0.89018  0.40271  0.30278  1.0000
  H   H2991     1.0  0.90988  0.48248  0.37388  1.0000
  H   H2992     1.0  0.84437  0.40459  0.37046  1.0000
  H   H2993     1.0  0.82658  0.43664  0.35361  1.0000
  H   H2994     1.0  0.81110  0.38421  0.36450  1.0000
  H   H2995     1.0  0.92243  0.30505  0.44255  1.0000
  H   H2996     1.0  0.89738  0.39702  0.36086  1.0000
  C   C1708     1.0  0.84969  0.38790  0.36486  1.0000
  H   H2997     1.0  0.68134  0.07300  0.34789  1.0000
  H   H2998     1.0  0.83890  0.40113  0.34349  1.0000
  H   H2999     1.0  0.98045  0.25930  0.32004  1.0000
  C   C1709     1.0  0.85624  0.39412  0.34839  1.0000
  H   H3000     1.0  0.85889  0.42369  0.32396  1.0000
  H   H3001     1.0  0.86298  0.37613  0.34422  1.0000
  H   H3002     1.0  0.86573  0.37657  0.36954  1.0000
  H   H3003     1.0  0.98920  0.44980  0.42373  1.0000
  H   H3004     1.0  0.85303  0.27618  0.23439  1.0000
  C   C1710     1.0  0.84968  0.25741  0.23914  1.0000
  H   H3005     1.0  0.82263  0.27351  0.44385  1.0000
  H   H3006     1.0  0.68654  0.02140  0.37341  1.0000
  C   C1711     1.0  0.72219  0.17047  0.37203  1.0000
  H   H3007     1.0  0.72584  0.22294  0.25376  1.0000
  H   H3008     1.0  0.96215  0.43624  0.42267  1.0000
  H   H3009     1.0  0.68988  0.16305  0.45860  1.0000
  H   H3010     1.0  0.70665  0.16674  0.36676  1.0000
  C   C1712     1.0  0.83288  0.33575  0.23071  1.0000
  C   C1713     1.0  0.87419  0.37131  0.45892  1.0000
  H   H3011     1.0  0.84875  0.22656  0.45973  1.0000
  H   H3012     1.0  0.69841  0.23568  0.23459  1.0000
  H   H3013     1.0  0.81580  0.23707  0.46157  1.0000
  H   H3014     1.0  0.82885  0.22682  0.25796  1.0000
  C   C1714     1.0  0.71838  0.05415  0.34415  1.0000
  H   H3015     1.0  0.79774  0.18724  0.25813  1.0000
  H   H3016     1.0  0.87071  0.29708  0.43961  1.0000
  H   H3017     1.0  0.68249  0.02961  0.34095  1.0000
  H   H3018     1.0  0.76143  0.99763  0.24488  1.0000
  H   H3019     1.0  0.69858  0.13105  0.44201  1.0000
  H   H3020     1.0  0.92988  0.41052  0.46302  1.0000
  C   C1715     1.0  0.97358  0.46931  0.37995  1.0000
  H   H3021     1.0  0.99509  0.38003  0.39009  1.0000
  H   H3022     1.0  0.96617  0.34668  0.29892  1.0000
  H   H3023     1.0  0.99509  0.30866  0.30388  1.0000
  H   H3024     1.0  0.91404  0.27962  0.43509  1.0000
  C   C1716     1.0  0.80806  0.27654  0.24743  1.0000
  H   H3025     1.0  0.73156  0.04672  0.33523  1.0000
  C   C1717     1.0  0.74300  0.03418  0.24684  1.0000
  H   H3026     1.0  0.72653  0.06853  0.34818  1.0000
  H   H3027     1.0  0.99530  0.32624  0.45202  1.0000
  C   C1718     1.0  0.68226  0.04584  0.33266  1.0000
  C   C1719     1.0  0.82951  0.32475  0.43623  1.0000
  H   H3028     1.0  0.98294  0.39684  0.43415  1.0000
  H   H3029     1.0  0.94190  0.32871  0.29829  1.0000
  C   C1720     1.0  0.70356  0.12673  0.45317  1.0000
  H   H3030     1.0  0.98124  0.45989  0.37035  1.0000
  C   C1721     1.0  0.97880  0.32276  0.45974  1.0000
  H   H3031     1.0  0.99179  0.28336  0.46301  1.0000
  C   C1722     1.0  0.98537  0.34579  0.41738  1.0000
  H   H3032     1.0  0.97013  0.32792  0.32443  1.0000
  H   H3033     1.0  0.89895  0.29311  0.46594  1.0000
  H   H3034     1.0  0.67698  0.16031  0.25562  1.0000
  H   H3035     1.0  0.83218  0.30740  0.43132  1.0000
  H   H3036     1.0  0.93535  0.47331  0.43122  1.0000
  H   H3037     1.0  0.96897  0.33539  0.37277  1.0000
  H   H3038     1.0  0.83655  0.20519  0.23411  1.0000
  H   H3039     1.0  0.95862  0.29171  0.46673  1.0000
  C   C1723     1.0  0.96623  0.29472  0.34795  1.0000
  H   H3040     1.0  0.74711  0.22584  0.22890  1.0000
  H   H3041     1.0  0.97352  0.48594  0.40627  1.0000
  H   H3042     1.0  0.67949  0.00267  0.32348  1.0000
  C   C1724     1.0  0.97193  0.31846  0.35307  1.0000
  H   H3043     1.0  0.99510  0.41883  0.37416  1.0000
  H   H3044     1.0  0.74035  0.00929  0.23170  1.0000
  H   H3045     1.0  0.97791  0.37993  0.37531  1.0000
  H   H3046     1.0  0.72536  0.04606  0.24479  1.0000
  H   H3047     1.0  0.87684  0.46837  0.42546  1.0000
  H   H3048     1.0  0.96056  0.33481  0.34794  1.0000
  H   H3049     1.0  0.96173  0.38467  0.39290  1.0000
  H   H3050     1.0  0.86939  0.22033  0.23726  1.0000
  C   C1725     1.0  0.97815  0.38852  0.38522  1.0000
  C   C1726     1.0  0.67881  0.16242  0.24397  1.0000
  C   C1727     1.0  0.91728  0.28625  0.44515  1.0000
  H   H3051     1.0  0.68147  0.01947  0.39275  1.0000
  H   H3052     1.0  0.74130  0.19542  0.22700  1.0000
  H   H3053     1.0  0.79415  0.25544  0.22658  1.0000
  H   H3054     1.0  0.96261  0.48670  0.43252  1.0000
  H   H3055     1.0  0.85731  0.32849  0.47202  1.0000
  H   H3056     1.0  0.66754  0.14214  0.46189  1.0000
  H   H3057     1.0  0.92211  0.33226  0.47199  1.0000
  H   H3058     1.0  0.84573  0.39262  0.47195  1.0000
  C   C1728     1.0  0.90597  0.34615  0.47193  1.0000
  Fe  Fe196     1.0  0.91765  0.35509  0.55119  1.0000
  S   S386      1.0  0.92579  0.39369  0.54982  1.0000
  S   S387      1.0  0.92549  0.32593  0.57007  1.0000
  Fe  Fe197     1.0  0.90577  0.36162  0.51978  1.0000
  S   S388      1.0  0.91163  0.40099  0.51617  1.0000
  S   S389      1.0  0.90455  0.33987  0.50128  1.0000
  Fe  Fe198     1.0  0.94474  0.38840  0.52766  1.0000
  H   H3059     1.0  0.86113  0.48920  0.52078  1.0000
  Fe  Fe199     1.0  0.89193  0.40391  0.53842  1.0000
  S   S390      1.0  0.86620  0.43906  0.54212  1.0000
  S   S391      1.0  0.94049  0.34871  0.53001  1.0000
  S   S392      1.0  0.88216  0.36529  0.54118  1.0000
  Fe  Fe200     1.0  0.73190  0.07057  0.67536  1.0000
  S   S393      1.0  0.69678  0.09567  0.67192  1.0000
  S   S394      1.0  0.72551  0.03182  0.68519  1.0000
  Fe  Fe201     1.0  0.76191  0.11348  0.66558  1.0000
  S   S395      1.0  0.72833  0.14053  0.66067  1.0000
  S   S396      1.0  0.80040  0.12346  0.66597  1.0000
  Fe  Fe202     1.0  0.71113  0.12374  0.68202  1.0000
  H   H3060     1.0  0.71273  0.13720  0.47858  1.0000
  Fe  Fe203     1.0  0.71690  0.10978  0.65085  1.0000
  H   H3061     1.0  0.67112  0.00750  0.60251  1.0000
  S   S397      1.0  0.74476  0.09771  0.68731  1.0000
  S   S398      1.0  0.75194  0.08365  0.65404  1.0000
  Fe  Fe204     1.0  0.87808  0.27553  0.68458  1.0000
  S   S399      1.0  0.89152  0.23704  0.67901  1.0000
  S   S400      1.0  0.86842  0.27555  0.70889  1.0000
  Fe  Fe205     1.0  0.88469  0.29654  0.65247  1.0000
  S   S401      1.0  0.89876  0.25957  0.64531  1.0000
  S   S402      1.0  0.87925  0.32982  0.63560  1.0000
  Fe  Fe206     1.0  0.86765  0.24622  0.66102  1.0000
  S   S403      1.0  0.83737  0.22880  0.65354  1.0000
  Fe  Fe207     1.0  0.92117  0.25441  0.66399  1.0000
  S   S404      1.0  0.96199  0.23820  0.66264  1.0000
  S   S405      1.0  0.85256  0.28382  0.66750  1.0000
  S   S406      1.0  0.90879  0.29228  0.67033  1.0000
  C   C1729     1.0  0.67290  0.10603  0.60924  1.0000
  C   C1730     1.0  0.68840  0.17870  0.48630  1.0000
  H   H3062     1.0  0.71717  0.18100  0.67957  1.0000
  C   C1731     1.0  0.84945  0.32454  0.71118  1.0000
  H   H3063     1.0  0.79809  0.16096  0.71257  1.0000
  H   H3064     1.0  0.68779  0.08753  0.70831  1.0000
  H   H3065     1.0  0.96316  0.29016  0.66463  1.0000
  C   C1732     1.0  0.97048  0.33530  0.61368  1.0000
  H   H3066     1.0  0.92758  0.45060  0.51382  1.0000
  H   H3067     1.0  0.91266  0.24885  0.61102  1.0000
  S   S407      1.0  0.68676  0.14846  0.69732  1.0000
  H   H3068     1.0  0.98974  0.26506  0.69607  1.0000
  H   H3069     1.0  0.81156  0.30915  0.61343  1.0000
  H   H3070     1.0  0.73560  0.17896  0.70202  1.0000
  H   H3071     1.0  0.90126  0.45345  0.49510  1.0000
  C   C1733     1.0  0.71516  0.11642  0.59110  1.0000
  C   C1734     1.0  0.71452  0.11572  0.60616  1.0000
  H   H3072     1.0  0.68232  0.23484  0.50030  1.0000
  H   H3073     1.0  0.73024  0.11950  0.61068  1.0000
  C   C1735     1.0  0.80998  0.15309  0.66284  1.0000
  C   C1736     1.0  0.79697  0.17302  0.65500  1.0000
  C   C1737     1.0  0.80553  0.19602  0.65246  1.0000
  C   C1738     1.0  0.82720  0.19949  0.65768  1.0000
  C   C1739     1.0  0.84010  0.17965  0.66565  1.0000
  C   C1740     1.0  0.83163  0.15655  0.66810  1.0000
  H   H3074     1.0  0.78043  0.17062  0.65077  1.0000
  H   H3075     1.0  0.79539  0.21118  0.64630  1.0000
  H   H3076     1.0  0.85688  0.18193  0.66966  1.0000
  H   H3077     1.0  0.84200  0.14121  0.67405  1.0000
  S   S408      1.0  0.67173  0.07572  0.50489  1.0000
  H   H3078     1.0  0.97649  0.26925  0.62625  1.0000
  C   C1741     1.0  0.95545  0.47300  0.51429  1.0000
  C   C1742     1.0  0.67141  0.00665  0.52105  1.0000
  H   H3079     1.0  0.87411  0.27885  0.61434  1.0000
  H   H3080     1.0  0.85293  0.32764  0.69955  1.0000
  C   C1743     1.0  0.87978  0.46248  0.54754  1.0000
  C   C1744     1.0  0.90513  0.45960  0.54847  1.0000
  H   H3081     1.0  0.78477  0.28164  0.61723  1.0000
  H   H3082     1.0  0.91689  0.44329  0.54544  1.0000
  C   C1745     1.0  0.91097  0.48924  0.51016  1.0000
  H   H3083     1.0  0.79591  0.11723  0.71749  1.0000
  C   C1746     1.0  0.89433  0.35442  0.48494  1.0000
  H   H3084     1.0  0.97086  0.22477  0.70331  1.0000
  H   H3085     1.0  0.97445  0.41823  0.58833  1.0000
  C   C1747     1.0  0.87326  0.37210  0.48479  1.0000
  C   C1748     1.0  0.98132  0.28012  0.66584  1.0000
  H   H3086     1.0  0.69289  0.06000  0.58141  1.0000
  H   H3087     1.0  0.86401  0.37832  0.49480  1.0000
  C   C1749     1.0  0.91284  0.32796  0.58822  1.0000
  C   C1750     1.0  0.89582  0.34799  0.59240  1.0000
  C   C1751     1.0  0.88573  0.34838  0.60696  1.0000
  C   C1752     1.0  0.89254  0.32879  0.61743  1.0000
  C   C1753     1.0  0.90994  0.30903  0.61325  1.0000
  C   C1754     1.0  0.91999  0.30861  0.59873  1.0000
  H   H3088     1.0  0.89021  0.36303  0.58440  1.0000
  H   H3089     1.0  0.87243  0.36385  0.61010  1.0000
  H   H3090     1.0  0.91576  0.29408  0.62120  1.0000
  H   H3091     1.0  0.93323  0.29309  0.59560  1.0000
  H   H3092     1.0  0.79907  0.06941  0.60818  1.0000
  H   H3093     1.0  0.95060  0.43244  0.56721  1.0000
  H   H3094     1.0  0.91543  0.22076  0.70912  1.0000
  H   H3095     1.0  0.96628  0.33171  0.58494  1.0000
  H   H3096     1.0  0.68710  0.00248  0.71673  1.0000
  H   H3097     1.0  0.83438  0.34438  0.49459  1.0000
  H   H3098     1.0  0.93855  0.46542  0.49662  1.0000
  C   C1755     1.0  0.94123  0.42910  0.57832  1.0000
  H   H3099     1.0  0.71824  0.15279  0.50656  1.0000
  H   H3100     1.0  0.99201  0.31863  0.50369  1.0000
  C   C1756     1.0  0.86121  0.43431  0.49227  1.0000
  H   H3101     1.0  0.96911  0.35317  0.56124  1.0000
  C   C1757     1.0  0.74704  0.19375  0.69802  1.0000
  C   C1758     1.0  0.69249  0.13769  0.47882  1.0000
  H   H3102     1.0  0.68995  0.22909  0.48175  1.0000
  H   H3103     1.0  0.99014  0.33322  0.61528  1.0000
  H   H3104     1.0  0.92342  0.42256  0.57785  1.0000
  H   H3105     1.0  0.71424  0.21412  0.67795  1.0000
  H   H3106     1.0  0.97182  0.35957  0.49891  1.0000
  H   H3107     1.0  0.93105  0.35138  0.69668  1.0000
  H   H3108     1.0  0.70001  0.03201  0.60838  1.0000
  H   H3109     1.0  0.96695  0.42272  0.54311  1.0000
  C   C1759     1.0  0.92351  0.31385  0.70355  1.0000
  H   H3110     1.0  0.71400  0.04297  0.56880  1.0000
  C   C1760     1.0  0.96098  0.39780  0.47540  1.0000
  C   C1761     1.0  0.98673  0.34505  0.56552  1.0000
  C   C1762     1.0  0.70577  0.04264  0.58024  1.0000
  H   H3111     1.0  0.81903  0.19423  0.70866  1.0000
  H   H3112     1.0  0.75778  0.00482  0.62594  1.0000
  H   H3113     1.0  0.88285  0.45336  0.51194  1.0000
  H   H3114     1.0  0.93495  0.47537  0.55431  1.0000
  H   H3115     1.0  0.97486  0.39002  0.57032  1.0000
  H   H3116     1.0  0.82106  0.29418  0.59112  1.0000
  H   H3117     1.0  0.73007  0.19768  0.66332  1.0000
  H   H3118     1.0  0.84031  0.23143  0.70208  1.0000
  H   H3119     1.0  0.78665  0.03029  0.62132  1.0000
  C   C1763     1.0  0.85819  0.30215  0.58828  1.0000
  H   H3120     1.0  0.79849  0.16583  0.69368  1.0000
  C   C1764     1.0  0.92012  0.33812  0.69370  1.0000
  H   H3121     1.0  0.83411  0.21907  0.68653  1.0000
  H   H3122     1.0  0.68741  0.05889  0.65404  1.0000
  H   H3123     1.0  0.75952  0.21149  0.67639  1.0000
  C   C1765     1.0  0.81083  0.31599  0.64130  1.0000
  H   H3124     1.0  0.84332  0.26831  0.58776  1.0000
  H   H3125     1.0  0.95109  0.47387  0.52607  1.0000
  C   C1766     1.0  0.82786  0.29799  0.61801  1.0000
  H   H3126     1.0  0.87227  0.32204  0.56821  1.0000
  H   H3127     1.0  0.97084  0.45779  0.51251  1.0000
  C   C1767     1.0  0.91270  0.49458  0.47634  1.0000
  H   H3128     1.0  0.70880  0.17568  0.48619  1.0000
  C   C1768     1.0  0.98982  0.35574  0.49202  1.0000
  C   C1769     1.0  0.93290  0.46816  0.50805  1.0000
  H   H3129     1.0  0.84486  0.46844  0.49987  1.0000
  H   H3130     1.0  0.84544  0.48693  0.55007  1.0000
  C   C1770     1.0  0.69308  0.03924  0.63513  1.0000
  H   H3131     1.0  0.80703  0.27989  0.63725  1.0000
  C   C1771     1.0  0.70938  0.13593  0.50782  1.0000
  H   H3132     1.0  0.84469  0.43292  0.48714  1.0000
  H   H3133     1.0  0.93718  0.44685  0.58298  1.0000
  H   H3134     1.0  0.81526  0.24655  0.69231  1.0000
  C   C1772     1.0  0.99523  0.32045  0.55954  1.0000
  C   C1773     1.0  0.76302  0.19423  0.72096  1.0000
  H   H3135     1.0  0.81438  0.32546  0.50612  1.0000
  H   H3136     1.0  0.68327  0.07069  0.47494  1.0000
  C   C1774     1.0  0.95753  0.41031  0.58762  1.0000
  C   C1775     1.0  0.67458  0.00471  0.50466  1.0000
  H   H3137     1.0  0.82082  0.29524  0.48907  1.0000
  C   C1776     1.0  0.69597  0.00855  0.52617  1.0000
  H   H3138     1.0  0.84702  0.31460  0.50298  1.0000
  C   C1777     1.0  0.98262  0.34161  0.58230  1.0000
  H   H3139     1.0  0.90522  0.48731  0.52199  1.0000
  C   C1778     1.0  0.96214  0.37025  0.47359  1.0000
  H   H3140     1.0  0.91127  0.47550  0.47470  1.0000
  H   H3141     1.0  0.94691  0.37998  0.57878  1.0000
  H   H3142     1.0  0.82071  0.24784  0.62473  1.0000
  H   H3143     1.0  0.94044  0.19549  0.70870  1.0000
  H   H3144     1.0  0.79372  0.32509  0.63678  1.0000
  H   H3145     1.0  0.68907  0.02154  0.63263  1.0000
  N   N94       1.0  0.83730  0.27593  0.61001  1.0000
  N   N95       1.0  0.77020  0.19021  0.70532  1.0000
  H   H3146     1.0  0.75721  0.00578  0.60726  1.0000
  H   H3147     1.0  0.96557  0.32273  0.48262  1.0000
  H   H3148     1.0  0.73012  0.11973  0.52558  1.0000
  C   C1779     1.0  0.85560  0.30103  0.71833  1.0000
  N   N96       1.0  0.98573  0.35360  0.47672  1.0000
  H   H3149     1.0  0.96077  0.31491  0.70620  1.0000
  H   H3150     1.0  0.85990  0.42350  0.50310  1.0000
  H   H3151     1.0  0.80636  0.31151  0.65312  1.0000
  C   C1780     1.0  0.00034  0.29252  0.66837  1.0000
  S   S409      1.0  0.97875  0.40211  0.51592  1.0000
  C   C1781     1.0  0.95572  0.33449  0.62867  1.0000
  H   H3152     1.0  0.75847  0.01749  0.65958  1.0000
  H   H3153     1.0  0.87782  0.42627  0.48550  1.0000
  C   C1782     1.0  0.94419  0.25869  0.70363  1.0000
  H   H3154     1.0  0.78973  0.27198  0.71083  1.0000
  H   H3155     1.0  0.83366  0.36222  0.71349  1.0000
  H   H3156     1.0  0.86510  0.29222  0.56634  1.0000
  H   H3157     1.0  0.92593  0.33507  0.68226  1.0000
  C   C1783     1.0  0.77689  0.24553  0.61608  1.0000
  C   C1784     1.0  0.82540  0.22837  0.69606  1.0000
  C   C1785     1.0  0.71061  0.12384  0.52331  1.0000
  C   C1786     1.0  0.80814  0.21243  0.70579  1.0000
  C   C1787     1.0  0.74514  0.00925  0.61745  1.0000
  H   H3158     1.0  0.70023  0.13618  0.53113  1.0000
  H   H3159     1.0  0.78108  0.30483  0.70648  1.0000
  C   C1788     1.0  0.78939  0.11891  0.70674  1.0000
  H   H3160     1.0  0.67851  0.19131  0.50790  1.0000
  H   H3161     1.0  0.72208  0.05297  0.71143  1.0000
  C   C1789     1.0  0.95207  0.23101  0.70862  1.0000
  H   H3162     1.0  0.77668  0.24006  0.62785  1.0000
  H   H3163     1.0  0.73773  0.02196  0.58874  1.0000
  C   C1790     1.0  0.79277  0.26596  0.61111  1.0000
  H   H3164     1.0  0.91726  0.31824  0.71472  1.0000
  H   H3165     1.0  0.69306  0.01003  0.53792  1.0000
  N   N97       1.0  0.73353  0.03586  0.61686  1.0000
  C   C1791     1.0  0.71558  0.04271  0.60579  1.0000
  C   C1792     1.0  0.72092  0.04171  0.63159  1.0000
  C   C1793     1.0  0.75386  0.05159  0.61254  1.0000
  C   C1794     1.0  0.75103  0.19506  0.68137  1.0000
  N   N98       1.0  0.88897  0.48965  0.50216  1.0000
  C   C1795     1.0  0.72627  0.04006  0.58988  1.0000
  C   C1796     1.0  0.77421  0.04784  0.62276  1.0000
  H   H3166     1.0  0.92380  0.26272  0.70565  1.0000
  H   H3167     1.0  0.94699  0.40808  0.59848  1.0000
  H   H3168     1.0  0.91135  0.30189  0.70057  1.0000
  C   C1797     1.0  0.68934  0.14581  0.71592  1.0000
  C   C1798     1.0  0.79002  0.06858  0.61948  1.0000
  H   H3169     1.0  0.70698  0.06222  0.60611  1.0000
  H   H3170     1.0  0.97685  0.48778  0.54592  1.0000
  H   H3171     1.0  0.73072  0.03020  0.64023  1.0000
  H   H3172     1.0  0.72200  0.06107  0.63314  1.0000
  H   H3173     1.0  0.74573  0.07140  0.61145  1.0000
  H   H3174     1.0  0.76387  0.04808  0.60180  1.0000
  H   H3175     1.0  0.71802  0.11482  0.71586  1.0000
  N   N99       1.0  0.95643  0.27628  0.71013  1.0000
  H   H3176     1.0  0.85330  0.31953  0.59327  1.0000
  H   H3177     1.0  0.72033  0.12276  0.50070  1.0000
  H   H3178     1.0  0.73765  0.05483  0.58561  1.0000
  H   H3179     1.0  0.69524  0.02689  0.58287  1.0000
  C   C1799     1.0  0.73247  0.00424  0.67685  1.0000
  H   H3180     1.0  0.76638  0.04713  0.63423  1.0000
  H   H3181     1.0  0.76313  0.17843  0.67801  1.0000
  H   H3182     1.0  0.96746  0.31913  0.60876  1.0000
  H   H3183     1.0  0.94832  0.26115  0.69166  1.0000
  C   C1800     1.0  0.85895  0.30885  0.57199  1.0000
  N   N100      1.0  0.97836  0.36456  0.58989  1.0000
  H   H3184     1.0  0.68197  0.05433  0.62879  1.0000
  C   C1801     1.0  0.82012  0.25681  0.61345  1.0000
  S   S410      1.0  0.68078  0.06462  0.54515  1.0000
  H   H3185     1.0  0.70350  0.02517  0.52050  1.0000
  H   H3186     1.0  0.92138  0.40399  0.48222  1.0000
  H   H3187     1.0  0.75761  0.25219  0.61382  1.0000
  C   C1802     1.0  0.78573  0.16540  0.70393  1.0000
  H   H3188     1.0  0.80455  0.06532  0.62682  1.0000
  H   H3189     1.0  0.77852  0.08655  0.62118  1.0000
  C   C1803     1.0  0.74933  0.00201  0.66442  1.0000
  C   C1804     1.0  0.96437  0.38560  0.58102  1.0000
  C   C1805     1.0  0.98579  0.25478  0.66505  1.0000
  C   C1806     1.0  0.79322  0.29042  0.71261  1.0000
  H   H3190     1.0  0.96015  0.34874  0.63469  1.0000
  H   H3191     1.0  0.91171  0.21978  0.60478  1.0000
  C   C1807     1.0  0.95085  0.30175  0.70225  1.0000
  C   C1808     1.0  0.83091  0.32515  0.49794  1.0000
  H   H3192     1.0  0.89820  0.22514  0.62277  1.0000
  H   H3193     1.0  0.82645  0.24156  0.60669  1.0000
  C   C1809     1.0  0.69327  0.11064  0.61528  1.0000
  C   C1810     1.0  0.82115  0.29240  0.63451  1.0000
  C   C1811     1.0  0.90131  0.23390  0.61148  1.0000
  C   C1812     1.0  0.98402  0.26828  0.70753  1.0000
  H   H3194     1.0  0.67216  0.15333  0.51285  1.0000
  H   H3195     1.0  0.75577  0.14268  0.71224  1.0000
  H   H3196     1.0  0.96558  0.40030  0.48612  1.0000
  H   H3197     1.0  0.69401  0.02581  0.65793  1.0000
  C   C1813     1.0  0.93479  0.21499  0.70451  1.0000
  C   C1814     1.0  0.68418  0.04111  0.65106  1.0000
  C   C1815     1.0  0.98664  0.42100  0.54004  1.0000
  H   H3198     1.0  0.90032  0.34626  0.69483  1.0000
  H   H3199     1.0  0.79114  0.27180  0.59953  1.0000
  H   H3200     1.0  0.79303  0.20645  0.68704  1.0000
  H   H3201     1.0  0.93560  0.33765  0.62791  1.0000
  H   H3202     1.0  0.82465  0.32892  0.63938  1.0000
  H   H3203     1.0  0.73150  0.12070  0.58408  1.0000
  C   C1816     1.0  0.96245  0.35963  0.60411  1.0000
  H   H3204     1.0  0.96175  0.37469  0.61088  1.0000
  C   C1817     1.0  0.87666  0.24398  0.60580  1.0000
  C   C1818     1.0  0.69468  0.11191  0.58508  1.0000
  S   S411      1.0  0.69576  0.11345  0.56610  1.0000
  C   C1819     1.0  0.86505  0.48455  0.55076  1.0000
  C   C1820     1.0  0.86235  0.46125  0.49354  1.0000
  H   H3205     1.0  0.67944  0.02277  0.49937  1.0000
  H   H3206     1.0  0.95773  0.30155  0.69060  1.0000
  C   C1821     1.0  0.88496  0.46376  0.50097  1.0000
  H   H3207     1.0  0.84200  0.31061  0.61656  1.0000
  C   C1822     1.0  0.72658  0.19711  0.67523  1.0000
  H   H3208     1.0  0.85986  0.25622  0.62601  1.0000
  H   H3209     1.0  0.88080  0.25092  0.59427  1.0000
  H   H3210     1.0  0.86615  0.22835  0.60659  1.0000
  H   H3211     1.0  0.76540  0.14341  0.69343  1.0000
  C   C1823     1.0  0.77204  0.14304  0.70402  1.0000
  C   C1824     1.0  0.78554  0.20990  0.69830  1.0000
  H   H3212     1.0  0.73505  0.21107  0.70073  1.0000
  H   H3213     1.0  0.81265  0.29223  0.70833  1.0000
  C   C1825     1.0  0.86209  0.26453  0.61457  1.0000
  H   H3214     1.0  0.77387  0.22829  0.69742  1.0000
  C   C1826     1.0  0.83916  0.28435  0.59406  1.0000
  H   H3215     1.0  0.71849  0.00838  0.71422  1.0000
  C   C1827     1.0  0.91547  0.47808  0.55322  1.0000
  H   H3216     1.0  0.68896  0.11843  0.48232  1.0000
  S   S412      1.0  0.69073  0.10979  0.63423  1.0000
  H   H3217     1.0  0.78402  0.22918  0.61030  1.0000
  H   H3218     1.0  0.84053  0.31771  0.56910  1.0000
  H   H3219     1.0  0.87705  0.29379  0.59050  1.0000
  H   H3220     1.0  0.83781  0.28375  0.63956  1.0000
  H   H3221     1.0  0.94300  0.35932  0.60226  1.0000
  H   H3222     1.0  0.80555  0.11793  0.69828  1.0000
  H   H3223     1.0  0.99417  0.43508  0.55899  1.0000
  H   H3224     1.0  0.76801  0.05469  0.71098  1.0000
  H   H3225     1.0  0.68385  0.04301  0.70932  1.0000
  H   H3226     1.0  0.93594  0.21623  0.69260  1.0000
  H   H3227     1.0  0.70285  0.10627  0.52495  1.0000
  H   H3228     1.0  0.94620  0.36343  0.48070  1.0000
  C   C1828     1.0  0.98199  0.32774  0.47515  1.0000
  H   H3229     1.0  0.71062  0.21547  0.49493  1.0000
  N   N101      1.0  0.67841  0.15454  0.48946  1.0000
  H   H3230     1.0  0.98160  0.30760  0.56342  1.0000
  H   H3231     1.0  0.93471  0.43139  0.47509  1.0000
  H   H3232     1.0  0.86330  0.47122  0.48250  1.0000
  H   H3233     1.0  0.96037  0.31618  0.63487  1.0000
  C   C1829     1.0  0.69095  0.22078  0.49309  1.0000
  H   H3234     1.0  0.86392  0.29749  0.47971  1.0000
  H   H3235     1.0  0.95247  0.22761  0.72044  1.0000
  H   H3236     1.0  0.68293  0.02491  0.47569  1.0000
  C   C1830     1.0  0.67730  0.19841  0.49643  1.0000
  H   H3237     1.0  0.77958  0.10310  0.70648  1.0000
  C   C1831     1.0  0.67680  0.05240  0.71909  1.0000
  C   C1832     1.0  0.83848  0.34409  0.71910  1.0000
  C   C1833     1.0  0.68228  0.14219  0.50442  1.0000
  H   H3238     1.0  0.99652  0.31204  0.66925  1.0000
  H   H3239     1.0  0.98924  0.25028  0.71396  1.0000
  C   C1834     1.0  0.67362  0.10653  0.59425  1.0000
  H   H3240     1.0  0.96163  0.49044  0.50895  1.0000
  H   H3241     1.0  0.80191  0.22143  0.71576  1.0000
  H   H3242     1.0  0.68524  0.18742  0.47527  1.0000
  C   C1835     1.0  0.82642  0.31348  0.48496  1.0000
  C   C1836     1.0  0.99601  0.26026  0.62501  1.0000
  C   C1837     1.0  0.85010  0.31059  0.47397  1.0000
  H   H3243     1.0  0.67419  0.12478  0.50640  1.0000
  C   C1838     1.0  0.67076  0.08006  0.71336  1.0000
  H   H3244     1.0  0.81079  0.32528  0.48014  1.0000
  H   H3245     1.0  0.99839  0.24527  0.63403  1.0000
  C   C1839     1.0  0.99696  0.41185  0.52708  1.0000
  H   H3246     1.0  0.99359  0.29335  0.72151  1.0000
  C   C1840     1.0  0.93512  0.41174  0.47382  1.0000
  C   C1841     1.0  0.70360  0.00208  0.72230  1.0000
  H   H3247     1.0  0.93094  0.49533  0.47971  1.0000
  H   H3248     1.0  0.99586  0.34727  0.52127  1.0000
  H   H3249     1.0  0.99831  0.32847  0.58633  1.0000
  H   H3250     1.0  0.99900  0.38705  0.59930  1.0000
  H   H3251     1.0  0.99687  0.32340  0.54759  1.0000
  H   H3252     1.0  0.75358  0.21345  0.72169  1.0000
  H   H3253     1.0  0.99765  0.31405  0.47850  1.0000
  H   H3254     1.0  0.99938  0.37188  0.49222  1.0000
  H   H3255     1.0  0.99985  0.25221  0.61464  1.0000
  Fe  Fe208     1.0  0.76507  0.34910  0.79046  1.0000
  S   S413      1.0  0.80334  0.33023  0.78360  1.0000
  S   S414      1.0  0.72828  0.33451  0.79162  1.0000
  Fe  Fe209     1.0  0.78312  0.39946  0.79007  1.0000
  S   S415      1.0  0.82217  0.38423  0.78273  1.0000
  S   S416      1.0  0.77085  0.43797  0.79680  1.0000
  Fe  Fe210     1.0  0.80670  0.36398  0.76773  1.0000
  S   S417      1.0  0.81934  0.36549  0.74360  1.0000
  Fe  Fe211     1.0  0.81562  0.35201  0.79933  1.0000
  S   S418      1.0  0.84661  0.33848  0.81332  1.0000
  S   S419      1.0  0.76790  0.38206  0.77381  1.0000
  S   S420      1.0  0.77707  0.36809  0.80743  1.0000
  Fe  Fe212     1.0  0.87390  0.36941  0.88993  1.0000
  S   S421      1.0  0.89742  0.39961  0.88508  1.0000
  S   S422      1.0  0.84288  0.36984  0.87626  1.0000
  Fe  Fe213     1.0  0.89533  0.35030  0.91844  1.0000
  S   S423      1.0  0.92071  0.37856  0.91546  1.0000
  S   S424      1.0  0.89529  0.32150  0.93793  1.0000
  Fe  Fe214     1.0  0.88830  0.40461  0.90845  1.0000
  S   S425      1.0  0.88068  0.44129  0.91686  1.0000
  Fe  Fe215     1.0  0.92804  0.37101  0.89249  1.0000
  S   S426      1.0  0.96636  0.37344  0.88108  1.0000
  S   S427      1.0  0.86205  0.37702  0.91301  1.0000
  S   S428      1.0  0.90539  0.34000  0.89571  1.0000
  C   C1842     1.0  0.90360  0.45890  0.90889  1.0000
  C   C1843     1.0  0.92123  0.45055  0.89783  1.0000
  H   H3256     1.0  0.92227  0.43225  0.89496  1.0000
  H   H3257     1.0  0.80246  0.27983  0.73410  1.0000
  H   H3258     1.0  0.88787  0.36427  0.95480  1.0000
  H   H3259     1.0  0.89021  0.48842  0.92184  1.0000
  C   C1844     1.0  0.88731  0.49521  0.85700  1.0000
  C   C1845     1.0  0.96753  0.30148  0.93790  1.0000
  S   S429      1.0  0.67950  0.16541  0.80044  1.0000
  C   C1846     1.0  0.74325  0.03983  0.72894  1.0000
  C   C1847     1.0  0.78395  0.46455  0.78918  1.0000
  C   C1848     1.0  0.79893  0.46549  0.77596  1.0000
  C   C1849     1.0  0.69718  0.01870  0.73466  1.0000
  H   H3260     1.0  0.94331  0.49290  0.96135  1.0000
  C   C1850     1.0  0.77844  0.48562  0.79646  1.0000
  H   H3261     1.0  0.80327  0.44940  0.77025  1.0000
  H   H3262     1.0  0.67383  0.06853  0.90082  1.0000
  C   C1851     1.0  0.67446  0.22054  0.86002  1.0000
  C   C1852     1.0  0.84538  0.34673  0.83095  1.0000
  C   C1853     1.0  0.82317  0.35639  0.83852  1.0000
  C   C1854     1.0  0.82277  0.36288  0.85247  1.0000
  C   C1855     1.0  0.84455  0.35996  0.85900  1.0000
  C   C1856     1.0  0.86678  0.35003  0.85151  1.0000
  C   C1857     1.0  0.86715  0.34339  0.83756  1.0000
  H   H3263     1.0  0.80624  0.35877  0.83367  1.0000
  H   H3264     1.0  0.80547  0.37038  0.85821  1.0000
  H   H3265     1.0  0.88365  0.34749  0.85645  1.0000
  H   H3266     1.0  0.88438  0.33569  0.83185  1.0000
  C   C1858     1.0  0.83359  0.34036  0.73421  1.0000
  C   C1859     1.0  0.83996  0.31688  0.74136  1.0000
  C   C1860     1.0  0.85091  0.29732  0.73344  1.0000
  C   C1861     1.0  0.78532  0.26568  0.76380  1.0000
  H   H3267     1.0  0.67735  0.20371  0.82559  1.0000
  C   C1862     1.0  0.92304  0.41936  0.94198  1.0000
  H   H3268     1.0  0.83651  0.31387  0.75299  1.0000
  H   H3269     1.0  0.85563  0.27918  0.73905  1.0000
  H   H3270     1.0  0.67268  0.27364  0.79208  1.0000
  C   C1863     1.0  0.72129  0.30399  0.79396  1.0000
  C   C1864     1.0  0.69736  0.30020  0.79223  1.0000
  C   C1865     1.0  0.69111  0.27626  0.79350  1.0000
  C   C1866     1.0  0.70881  0.25582  0.79648  1.0000
  C   C1867     1.0  0.73261  0.25964  0.79847  1.0000
  C   C1868     1.0  0.73887  0.28356  0.79719  1.0000
  H   H3271     1.0  0.68360  0.31590  0.78981  1.0000
  H   H3272     1.0  0.74639  0.24396  0.80091  1.0000
  H   H3273     1.0  0.75729  0.28619  0.79866  1.0000
  C   C1869     1.0  0.74643  0.17656  0.73029  1.0000
  N   N102      1.0  0.84463  0.44143  0.81690  1.0000
  C   C1870     1.0  0.85108  0.42028  0.80785  1.0000
  C   C1871     1.0  0.81773  0.44376  0.82315  1.0000
  C   C1872     1.0  0.84844  0.46473  0.80697  1.0000
  C   C1873     1.0  0.86115  0.43907  0.82861  1.0000
  C   C1874     1.0  0.86241  0.41504  0.83913  1.0000
  C   C1875     1.0  0.87835  0.41553  0.80095  1.0000
  H   H3274     1.0  0.82577  0.43233  0.87320  1.0000
  C   C1876     1.0  0.80644  0.41967  0.82782  1.0000
  C   C1877     1.0  0.78087  0.42444  0.83632  1.0000
  C   C1878     1.0  0.88364  0.41275  0.84821  1.0000
  C   C1879     1.0  0.88290  0.39338  0.79245  1.0000
  C   C1880     1.0  0.73470  0.27873  0.75705  1.0000
  H   H3275     1.0  0.83901  0.42320  0.79905  1.0000
  H   H3276     1.0  0.84713  0.40263  0.81414  1.0000
  H   H3277     1.0  0.81439  0.45469  0.83247  1.0000
  H   H3278     1.0  0.80595  0.45416  0.81509  1.0000
  H   H3279     1.0  0.83925  0.46549  0.79708  1.0000
  H   H3280     1.0  0.86837  0.46495  0.80317  1.0000
  H   H3281     1.0  0.88029  0.44155  0.82382  1.0000
  H   H3282     1.0  0.85521  0.45407  0.83555  1.0000
  H   H3283     1.0  0.86534  0.39846  0.83344  1.0000
  H   H3284     1.0  0.84519  0.41517  0.84674  1.0000
  H   H3285     1.0  0.88337  0.43151  0.79334  1.0000
  H   H3286     1.0  0.89104  0.41158  0.80936  1.0000
  C   C1881     1.0  0.68244  0.20150  0.83676  1.0000
  H   H3287     1.0  0.93339  0.36940  0.94792  1.0000
  H   H3288     1.0  0.80444  0.41100  0.81818  1.0000
  H   H3289     1.0  0.81811  0.40629  0.83458  1.0000
  H   H3290     1.0  0.78204  0.43177  0.84653  1.0000
  H   H3291     1.0  0.76823  0.43764  0.82981  1.0000
  H   H3292     1.0  0.77308  0.40689  0.83898  1.0000
  H   H3293     1.0  0.88380  0.39560  0.85581  1.0000
  H   H3294     1.0  0.90166  0.41172  0.84127  1.0000
  H   H3295     1.0  0.88138  0.42852  0.85458  1.0000
  H   H3296     1.0  0.87189  0.39697  0.78322  1.0000
  H   H3297     1.0  0.90272  0.38978  0.78815  1.0000
  H   H3298     1.0  0.87799  0.37666  0.79946  1.0000
  C   C1882     1.0  0.91526  0.27716  0.74762  1.0000
  C   C1883     1.0  0.76209  0.28932  0.73504  1.0000
  C   C1884     1.0  0.77346  0.29257  0.75964  1.0000
  C   C1885     1.0  0.73975  0.32167  0.74993  1.0000
  C   C1886     1.0  0.75543  0.34250  0.74435  1.0000
  H   H3299     1.0  0.71615  0.06448  0.75304  1.0000
  H   H3300     1.0  0.76637  0.30051  0.76992  1.0000
  H   H3301     1.0  0.78840  0.30331  0.75468  1.0000
  H   H3302     1.0  0.77968  0.19226  0.72663  1.0000
  H   H3303     1.0  0.73079  0.32498  0.76099  1.0000
  C   C1887     1.0  0.70587  0.12434  0.73746  1.0000
  H   H3304     1.0  0.67004  0.27000  0.85347  1.0000
  H   H3305     1.0  0.77089  0.34167  0.75081  1.0000
  C   C1888     1.0  0.85270  0.46782  0.87950  1.0000
  H   H3306     1.0  0.66822  0.09149  0.97221  1.0000
  C   C1889     1.0  0.73738  0.18518  0.74507  1.0000
  C   C1890     1.0  0.78875  0.29350  0.72866  1.0000
  H   H3307     1.0  0.84409  0.41917  0.88755  1.0000
  H   H3308     1.0  0.76147  0.26955  0.73433  1.0000
  C   C1891     1.0  0.76549  0.05286  0.72296  1.0000
  H   H3309     1.0  0.81112  0.42556  0.89128  1.0000
  H   H3310     1.0  0.85098  0.46529  0.96893  1.0000
  H   H3311     1.0  0.81835  0.49236  0.81522  1.0000
  C   C1892     1.0  0.67442  0.15985  0.73944  1.0000
  H   H3312     1.0  0.93267  0.42281  0.93091  1.0000
  H   H3313     1.0  0.74934  0.29959  0.72741  1.0000
  H   H3314     1.0  0.85970  0.48943  0.90090  1.0000
  C   C1893     1.0  0.68438  0.06646  0.76883  1.0000
  C   C1894     1.0  0.71031  0.28178  0.75017  1.0000
  H   H3315     1.0  0.85827  0.42076  0.96758  1.0000
  Fe  Fe216     1.0  0.67009  0.20634  0.79445  1.0000
  C   C1895     1.0  0.82758  0.43224  0.88478  1.0000
  H   H3316     1.0  0.66826  0.05673  0.77284  1.0000
  H   H3317     1.0  0.69801  0.29855  0.75337  1.0000
  H   H3318     1.0  0.84230  0.49083  0.85036  1.0000
  H   H3319     1.0  0.81691  0.24524  0.77353  1.0000
  H   H3320     1.0  0.69213  0.25759  0.76715  1.0000
  H   H3321     1.0  0.95560  0.41457  0.95257  1.0000
  H   H3322     1.0  0.75316  0.18696  0.75076  1.0000
  H   H3323     1.0  0.85529  0.46165  0.86866  1.0000
  H   H3324     1.0  0.99064  0.40511  0.93831  1.0000
  H   H3325     1.0  0.89611  0.48888  0.94846  1.0000
  C   C1896     1.0  0.67248  0.27080  0.84156  1.0000
  S   S430      1.0  0.70244  0.22517  0.79786  1.0000
  H   H3326     1.0  0.99808  0.39969  0.95669  1.0000
  H   H3327     1.0  0.87769  0.45681  0.95642  1.0000
  H   H3328     1.0  0.95530  0.29219  0.94656  1.0000
  H   H3329     1.0  0.96310  0.29775  0.92735  1.0000
  H   H3330     1.0  0.89639  0.27284  0.75162  1.0000
  H   H3331     1.0  0.67855  0.26307  0.75056  1.0000
  H   H3332     1.0  0.92638  0.48797  0.85986  1.0000
  C   C1897     1.0  0.67395  0.19438  0.88440  1.0000
  H   H3333     1.0  0.95144  0.29414  0.72954  1.0000
  H   H3334     1.0  0.74800  0.46768  0.76846  1.0000
  C   C1898     1.0  0.67418  0.16253  0.72442  1.0000
  H   H3335     1.0  0.67826  0.06264  0.84812  1.0000
  S   S431      1.0  0.68939  0.13521  0.76495  1.0000
  H   H3336     1.0  0.70726  0.24273  0.75177  1.0000
  H   H3337     1.0  0.94971  0.46027  0.88094  1.0000
  C   C1899     1.0  0.89956  0.32514  0.95575  1.0000
  C   C1900     1.0  0.90337  0.48214  0.91304  1.0000
  H   H3338     1.0  0.86898  0.45780  0.88470  1.0000
  C   C1901     1.0  0.69944  0.05526  0.75585  1.0000
  H   H3339     1.0  0.90695  0.40987  0.94159  1.0000
  H   H3340     1.0  0.76693  0.48498  0.80673  1.0000
  H   H3341     1.0  0.67949  0.01406  0.74082  1.0000
  H   H3342     1.0  0.71114  0.01264  0.74224  1.0000
  H   H3343     1.0  0.95625  0.38117  0.93491  1.0000
  C   C1902     1.0  0.95022  0.37841  0.94672  1.0000
  H   H3344     1.0  0.84586  0.48968  0.82377  1.0000
  H   H3345     1.0  0.88702  0.47567  0.85585  1.0000
  C   C1903     1.0  0.68439  0.05955  0.74285  1.0000
  H   H3346     1.0  0.72951  0.28123  0.76860  1.0000
  H   H3347     1.0  0.68226  0.07976  0.73978  1.0000
  H   H3348     1.0  0.99223  0.29134  0.86682  1.0000
  C   C1904     1.0  0.93550  0.49023  0.89349  1.0000
  C   C1905     1.0  0.71935  0.05414  0.72324  1.0000
  C   C1906     1.0  0.89494  0.34785  0.96141  1.0000
  C   C1907     1.0  0.72773  0.47331  0.77045  1.0000
  H   H3349     1.0  0.98441  0.32301  0.95674  1.0000
  H   H3350     1.0  0.82324  0.27297  0.76226  1.0000
  H   H3351     1.0  0.80592  0.27463  0.77996  1.0000
  H   H3352     1.0  0.75157  0.38232  0.74177  1.0000
  H   H3353     1.0  0.97548  0.33774  0.92979  1.0000
  H   H3354     1.0  0.96873  0.38485  0.97149  1.0000
  H   H3355     1.0  0.72514  0.20309  0.74395  1.0000
  H   H3356     1.0  0.78246  0.04201  0.72686  1.0000
  H   H3357     1.0  0.77256  0.25623  0.77208  1.0000
  H   H3358     1.0  0.69220  0.29152  0.82350  1.0000
  H   H3359     1.0  0.72983  0.17522  0.72528  1.0000
  H   H3360     1.0  0.91534  0.29697  0.74832  1.0000
  C   C1908     1.0  0.96331  0.32919  0.93862  1.0000
  H   H3361     1.0  0.69298  0.18251  0.86467  1.0000
  C   C1909     1.0  0.68992  0.14043  0.74604  1.0000
  H   H3362     1.0  0.72458  0.32466  0.74303  1.0000
  H   H3363     1.0  0.74720  0.02113  0.72548  1.0000
  C   C1910     1.0  0.98969  0.36230  0.89212  1.0000
  H   H3364     1.0  0.67635  0.03824  0.91063  1.0000
  C   C1911     1.0  0.80750  0.48763  0.76983  1.0000
  H   H3365     1.0  0.72660  0.17157  0.75178  1.0000
  C   C1912     1.0  0.92207  0.27156  0.73203  1.0000
  C   C1913     1.0  0.99550  0.36625  0.94698  1.0000
  C   C1914     1.0  0.73970  0.36769  0.74523  1.0000
  H   H3366     1.0  0.74316  0.25914  0.75690  1.0000
  H   H3367     1.0  0.94408  0.33610  0.93648  1.0000
  H   H3368     1.0  0.81539  0.48288  0.86163  1.0000
  H   H3369     1.0  0.93601  0.47230  0.93396  1.0000
  H   H3370     1.0  0.67769  0.08623  0.76592  1.0000
  C   C1915     1.0  0.96769  0.33545  0.95352  1.0000
  H   H3371     1.0  0.92837  0.26587  0.75465  1.0000
  H   H3372     1.0  0.90813  0.28276  0.72566  1.0000
  H   H3373     1.0  0.70767  0.28487  0.83954  1.0000
  H   H3374     1.0  0.70321  0.24228  0.83803  1.0000
  H   H3375     1.0  0.71894  0.07390  0.72422  1.0000
  C   C1916     1.0  0.67677  0.04859  0.89967  1.0000
  C   C1917     1.0  0.83883  0.48935  0.81341  1.0000
  H   H3376     1.0  0.91146  0.28635  0.96034  1.0000
  H   H3377     1.0  0.69606  0.06488  0.77767  1.0000
  H   H3378     1.0  0.73107  0.36961  0.75646  1.0000
  H   H3379     1.0  0.68098  0.30819  0.83875  1.0000
  C   C1918     1.0  0.71106  0.19584  0.83556  1.0000
  H   H3380     1.0  0.78923  0.25520  0.75434  1.0000
  H   H3381     1.0  0.71980  0.45860  0.77800  1.0000
  H   H3382     1.0  0.99796  0.36197  0.93565  1.0000
  H   H3383     1.0  0.68910  0.13065  0.86339  1.0000
  C   C1919     1.0  0.72049  0.16949  0.83238  1.0000
  C   C1920     1.0  0.94059  0.40395  0.95197  1.0000
  H   H3384     1.0  0.93387  0.46339  0.96039  1.0000
  H   H3385     1.0  0.71830  0.10961  0.74249  1.0000
  H   H3386     1.0  0.95196  0.32979  0.96132  1.0000
  H   H3387     1.0  0.67559  0.17521  0.88983  1.0000
  H   H3388     1.0  0.68920  0.20313  0.88703  1.0000
  C   C1921     1.0  0.90813  0.30396  0.96451  1.0000
  H   H3389     1.0  0.81842  0.48846  0.75936  1.0000
  H   H3390     1.0  0.93008  0.40157  0.96288  1.0000
  N   N103      1.0  0.75306  0.29564  0.75016  1.0000
  N   N104      1.0  0.97023  0.36197  0.95433  1.0000
  H   H3391     1.0  0.71931  0.20833  0.82662  1.0000
  H   H3392     1.0  0.71804  0.19867  0.84557  1.0000
  H   H3393     1.0  0.96462  0.47583  0.93988  1.0000
  C   C1922     1.0  0.82958  0.45794  0.88815  1.0000
  C   C1923     1.0  0.68942  0.28994  0.83546  1.0000
  H   H3394     1.0  0.99180  0.46280  0.91520  1.0000
  H   H3395     1.0  0.97495  0.32896  0.90066  1.0000
  C   C1924     1.0  0.80932  0.26467  0.77027  1.0000
  H   H3396     1.0  0.74194  0.03771  0.74082  1.0000
  H   H3397     1.0  0.67405  0.04783  0.87051  1.0000
  C   C1925     1.0  0.99001  0.33936  0.90037  1.0000
  H   H3398     1.0  0.67770  0.07061  0.82199  1.0000
  H   H3399     1.0  0.71418  0.16612  0.82226  1.0000
  H   H3400     1.0  0.74098  0.16646  0.83103  1.0000
  H   H3401     1.0  0.71384  0.15617  0.84140  1.0000
  H   H3402     1.0  0.71387  0.28340  0.73824  1.0000
  C   C1926     1.0  0.69629  0.25994  0.75524  1.0000
  H   H3403     1.0  0.68251  0.24685  0.82480  1.0000
  C   C1927     1.0  0.93701  0.46633  0.89000  1.0000
  H   H3404     1.0  0.91601  0.43731  0.94600  1.0000
  H   H3405     1.0  0.70498  0.03552  0.75937  1.0000
  H   H3406     1.0  0.67337  0.14009  0.83946  1.0000
  C   C1928     1.0  0.94882  0.27635  0.72617  1.0000
  H   H3407     1.0  0.96111  0.26213  0.73240  1.0000
  H   H3408     1.0  0.83085  0.45667  0.89990  1.0000
  N   N105      1.0  0.69509  0.04605  0.73002  1.0000
  H   H3409     1.0  0.92022  0.25201  0.73180  1.0000
  H   H3410     1.0  0.89156  0.49184  0.87972  1.0000
  H   H3411     1.0  0.72830  0.49419  0.78785  1.0000
  C   C1929     1.0  0.93252  0.48289  0.95566  1.0000
  H   H3412     1.0  0.75722  0.15798  0.73222  1.0000
  H   H3413     1.0  0.79267  0.31195  0.72989  1.0000
  H   H3414     1.0  0.69200  0.22679  0.86154  1.0000
  C   C1930     1.0  0.68325  0.24527  0.83663  1.0000
  H   H3415     1.0  0.81234  0.47027  0.88588  1.0000
  C   C1931     1.0  0.99940  0.30687  0.87030  1.0000
  C   C1932     1.0  0.94478  0.48351  0.94007  1.0000
  H   H3416     1.0  0.69520  0.04361  0.89359  1.0000
  H   H3417     1.0  0.98703  0.42920  0.90194  1.0000
  H   H3418     1.0  0.76274  0.34161  0.73287  1.0000
  H   H3419     1.0  0.98539  0.32356  0.86905  1.0000
  H   H3420     1.0  0.98709  0.29375  0.93896  1.0000
  H   H3421     1.0  0.99097  0.47324  0.89633  1.0000
  H   H3422     1.0  0.72498  0.37033  0.73805  1.0000
  C   C1933     1.0  0.66947  0.13284  0.86276  1.0000
  H   H3423     1.0  0.76300  0.07141  0.72660  1.0000
  H   H3424     1.0  0.67487  0.18482  0.84207  1.0000
  C   C1934     1.0  0.96699  0.36574  0.97007  1.0000
  C   C1935     1.0  0.87038  0.45598  0.96799  1.0000
  N   N106      1.0  0.67100  0.22373  0.84421  1.0000
  C   C1936     1.0  0.67542  0.19408  0.86814  1.0000
  H   H3425     1.0  0.71976  0.47504  0.76013  1.0000
  C   C1937     1.0  0.90545  0.49567  0.95649  1.0000
  N   N107      1.0  0.85241  0.49525  0.87863  1.0000
  N   N108      1.0  0.89034  0.49408  0.97113  1.0000
  C   C1938     1.0  0.70567  0.12712  0.72243  1.0000
  Fe  Fe217     1.0  0.79347  0.62452  0.16216  1.0000
  S   S432      1.0  0.83111  0.63619  0.15855  1.0000
  S   S433      1.0  0.76229  0.65175  0.15313  1.0000
  Fe  Fe218     1.0  0.81280  0.57425  0.17709  1.0000
  S   S434      1.0  0.85123  0.58365  0.17549  1.0000
  S   S435      1.0  0.80711  0.53561  0.18726  1.0000
  Fe  Fe219     1.0  0.83348  0.62068  0.18177  1.0000
  S   S436      1.0  0.84764  0.64707  0.19431  1.0000
  Fe  Fe220     1.0  0.84550  0.59827  0.15260  1.0000
  S   S437      1.0  0.87638  0.58388  0.13590  1.0000
  S   S438      1.0  0.79519  0.61017  0.18547  1.0000
  S   S439      1.0  0.80770  0.58766  0.15408  1.0000
  H   H3426     1.0  0.98732  0.64646  0.99124  1.0000
  C   C1939     1.0  0.81495  0.54751  0.12234  1.0000
  H   H3427     1.0  0.76308  0.57499  0.17481  1.0000
  H   H3428     1.0  0.73859  0.57796  0.12935  1.0000
  Fe  Fe221     1.0  0.92609  0.54724  0.04127  1.0000
  S   S440      1.0  0.88954  0.57080  0.03883  1.0000
  C   C1940     1.0  0.97813  0.58552  0.09055  1.0000
  Fe  Fe222     1.0  0.95512  0.58954  0.03409  1.0000
  S   S441      1.0  0.92100  0.61673  0.03152  1.0000
  H   H3429     1.0  0.67062  0.66427  0.14920  1.0000
  Fe  Fe223     1.0  0.90383  0.59583  0.05147  1.0000
  S   S442      1.0  0.87881  0.61626  0.06848  1.0000
  Fe  Fe224     1.0  0.91004  0.58945  0.01905  1.0000
  S   S443      1.0  0.89479  0.60553  0.99809  1.0000
  S   S444      1.0  0.93914  0.57101  0.05516  1.0000
  S   S445      1.0  0.94532  0.56343  0.02046  1.0000
  H   H3430     1.0  0.72197  0.91043  0.12000  1.0000
  C   C1941     1.0  0.69515  0.83355  0.08369  1.0000
  N   N109      1.0  0.97293  0.63027  0.07755  1.0000
  H   H3431     1.0  0.79375  0.63428  0.21951  1.0000
  H   H3432     1.0  0.71440  0.86730  0.10463  1.0000
  H   H3433     1.0  0.78717  0.53626  0.16006  1.0000
  H   H3434     1.0  0.86992  0.52742  0.18690  1.0000
  H   H3435     1.0  0.68812  0.95320  0.06618  1.0000
  H   H3436     1.0  0.97108  0.55351  0.08156  1.0000
  C   C1942     1.0  0.86202  0.66394  0.21741  1.0000
  H   H3437     1.0  0.67774  0.83047  0.08013  1.0000
  C   C1943     1.0  0.93403  0.64454  0.06450  1.0000
  H   H3438     1.0  0.97160  0.63738  0.05451  1.0000
  C   C1944     1.0  0.74665  0.56288  0.19598  1.0000
  H   H3439     1.0  0.68451  0.62070  0.14483  1.0000
  C   C1945     1.0  0.70044  0.85962  0.07822  1.0000
  C   C1946     1.0  0.87591  0.59233  0.11718  1.0000
  C   C1947     1.0  0.85893  0.61166  0.11177  1.0000
  C   C1948     1.0  0.85992  0.61864  0.09680  1.0000
  C   C1949     1.0  0.87761  0.60615  0.08714  1.0000
  C   C1950     1.0  0.89421  0.58640  0.09253  1.0000
  C   C1951     1.0  0.89346  0.57965  0.10751  1.0000
  H   H3440     1.0  0.84537  0.62157  0.11911  1.0000
  H   H3441     1.0  0.84701  0.63392  0.09270  1.0000
  H   H3442     1.0  0.90774  0.57657  0.08517  1.0000
  H   H3443     1.0  0.90663  0.56469  0.11164  1.0000
  C   C1952     1.0  0.73874  0.67030  0.16318  1.0000
  C   C1953     1.0  0.72538  0.69100  0.15601  1.0000
  C   C1954     1.0  0.70543  0.70529  0.16343  1.0000
  C   C1955     1.0  0.69836  0.69868  0.17808  1.0000
  C   C1956     1.0  0.71191  0.67811  0.18529  1.0000
  C   C1957     1.0  0.73213  0.66410  0.17792  1.0000
  H   H3444     1.0  0.73030  0.69587  0.14458  1.0000
  H   H3445     1.0  0.69509  0.72096  0.15773  1.0000
  H   H3446     1.0  0.70646  0.67277  0.19660  1.0000
  H   H3447     1.0  0.74209  0.64808  0.18354  1.0000
  H   H3448     1.0  0.72670  0.90050  0.08680  1.0000
  C   C1958     1.0  0.99790  0.55841  0.99091  1.0000
  S   S446      1.0  0.93215  0.50675  0.04830  1.0000
  C   C1959     1.0  0.88259  0.51228  0.15154  1.0000
  H   H3449     1.0  0.85256  0.50594  0.97969  1.0000
  H   H3450     1.0  0.96813  0.56337  0.22066  1.0000
  H   H3451     1.0  0.69066  0.88713  0.11387  1.0000
  C   C1960     1.0  0.76361  0.60457  0.12568  1.0000
  H   H3452     1.0  0.88585  0.52235  0.06998  1.0000
  H   H3453     1.0  0.99339  0.56713  0.05345  1.0000
  H   H3454     1.0  0.77901  0.73083  0.21947  1.0000
  C   C1961     1.0  0.96311  0.64107  0.09146  1.0000
  C   C1962     1.0  0.90447  0.59334  0.98156  1.0000
  C   C1963     1.0  0.83851  0.52895  0.12257  1.0000
  H   H3455     1.0  0.96527  0.66413  0.06329  1.0000
  H   H3456     1.0  0.92852  0.56212  0.99027  1.0000
  H   H3457     1.0  0.89030  0.52181  0.03192  1.0000
  H   H3458     1.0  0.70774  0.92363  0.09606  1.0000
  C   C1964     1.0  0.95041  0.67795  0.10550  1.0000
  N   N110      1.0  0.68786  0.90457  0.08402  1.0000
  H   H3459     1.0  0.67603  0.98266  0.21314  1.0000
  H   H3460     1.0  0.98689  0.54353  0.99559  1.0000
  H   H3461     1.0  0.72450  0.60895  0.13106  1.0000
  C   C1965     1.0  0.92117  0.57169  0.98068  1.0000
  C   C1966     1.0  0.89542  0.50213  0.03243  1.0000
  H   H3462     1.0  0.71756  0.94150  0.07237  1.0000
  H   H3463     1.0  0.79181  0.74538  0.20277  1.0000
  H   H3464     1.0  0.72909  0.56618  0.20321  1.0000
  H   H3465     1.0  0.96581  0.58550  0.98929  1.0000
  H   H3466     1.0  0.97150  0.59702  0.06837  1.0000
  C   C1967     1.0  0.70825  0.90475  0.09313  1.0000
  H   H3467     1.0  0.75449  0.66930  0.20392  1.0000
  C   C1968     1.0  0.93572  0.50094  0.99835  1.0000
  C   C1969     1.0  0.86642  0.51744  0.16595  1.0000
  H   H3468     1.0  0.79999  0.54104  0.13038  1.0000
  H   H3469     1.0  0.83846  0.61052  0.21934  1.0000
  H   H3470     1.0  0.95581  0.61968  0.21874  1.0000
  H   H3471     1.0  0.67829  0.92334  0.00637  1.0000
  H   H3472     1.0  0.82240  0.68740  0.16319  1.0000
  C   C1970     1.0  0.68421  0.96329  0.21614  1.0000
  H   H3473     1.0  0.72775  0.87812  0.12628  1.0000
  H   H3474     1.0  0.97658  0.63521  0.09944  1.0000
  C   C1971     1.0  0.79086  0.51740  0.16481  1.0000
  H   H3475     1.0  0.95565  0.65346  0.01246  1.0000
  H   H3476     1.0  0.92351  0.64638  0.07530  1.0000
  C   C1972     1.0  0.96256  0.63332  0.97842  1.0000
  H   H3477     1.0  0.80874  0.55009  0.11147  1.0000
  H   H3478     1.0  0.99949  0.52422  0.06357  1.0000
  H   H3479     1.0  0.97108  0.67922  0.08448  1.0000
  H   H3480     1.0  0.68241  0.91158  0.06144  1.0000
  H   H3481     1.0  0.93313  0.66384  0.04279  1.0000
  H   H3482     1.0  0.74058  0.59760  0.18308  1.0000
  H   H3483     1.0  0.77760  0.50252  0.14784  1.0000
  H   H3484     1.0  0.88794  0.51169  0.99055  1.0000
  H   H3485     1.0  0.73405  0.93005  0.04787  1.0000
  H   H3486     1.0  0.76536  0.62263  0.12895  1.0000
  H   H3487     1.0  0.74924  0.75803  0.20119  1.0000
  H   H3488     1.0  0.71059  0.74488  0.19475  1.0000
  C   C1973     1.0  0.88744  0.50438  0.12647  1.0000
  C   C1974     1.0  0.96773  0.56128  0.09202  1.0000
  H   H3489     1.0  0.83027  0.75562  0.20940  1.0000
  H   H3490     1.0  0.86708  0.67914  0.20970  1.0000
  C   C1975     1.0  0.71671  0.94308  0.04959  1.0000
  H   H3491     1.0  0.73155  0.55070  0.17130  1.0000
  H   H3492     1.0  0.97693  0.54781  0.10012  1.0000
  C   C1976     1.0  0.96640  0.60456  0.07887  1.0000
  H   H3493     1.0  0.75119  0.54294  0.19480  1.0000
  C   C1977     1.0  0.88206  0.52304  0.17689  1.0000
  H   H3494     1.0  0.89122  0.52914  0.14737  1.0000
  C   C1978     1.0  0.92307  0.66517  0.05377  1.0000
  C   C1979     1.0  0.72477  0.57005  0.17354  1.0000
  H   H3495     1.0  0.68905  0.60725  0.17277  1.0000
  H   H3496     1.0  0.92287  0.51342  0.00517  1.0000
  H   H3497     1.0  0.76259  0.60699  0.11390  1.0000
  C   C1980     1.0  0.67793  0.56676  0.16155  1.0000
  H   H3498     1.0  0.70102  0.86196  0.06629  1.0000
  C   C1981     1.0  0.70880  0.88648  0.10720  1.0000
  H   H3499     1.0  0.91106  0.52039  0.97667  1.0000
  C   C1982     1.0  0.70447  0.61028  0.16409  1.0000
  H   H3500     1.0  0.97503  0.50577  0.06591  1.0000
  H   H3501     1.0  0.71663  0.62011  0.16895  1.0000
  C   C1983     1.0  0.81817  0.71952  0.21395  1.0000
  H   H3502     1.0  0.69459  0.86604  0.21983  1.0000
  H   H3503     1.0  0.80997  0.71855  0.15692  1.0000
  H   H3504     1.0  0.76159  0.56825  0.20108  1.0000
  H   H3505     1.0  0.92987  0.66664  0.21715  1.0000
  C   C1984     1.0  0.75582  0.71833  0.19992  1.0000
  C   C1985     1.0  0.78458  0.68485  0.21105  1.0000
  C   C1986     1.0  0.85223  0.64492  0.21272  1.0000
  C   C1987     1.0  0.99714  0.59900  0.97476  1.0000
  C   C1988     1.0  0.77391  0.66384  0.20601  1.0000
  H   H3506     1.0  0.78027  0.59137  0.12794  1.0000
  H   H3507     1.0  0.72122  0.96213  0.04734  1.0000
  H   H3508     1.0  0.97458  0.59256  0.10121  1.0000
  C   C1989     1.0  0.74192  0.58953  0.15020  1.0000
  C   C1990     1.0  0.70264  0.57239  0.15273  1.0000
  C   C1991     1.0  0.72736  0.89178  0.11651  1.0000
  H   H3509     1.0  0.93117  0.62684  0.06123  1.0000
  H   H3510     1.0  0.72160  0.77010  0.18274  1.0000
  H   H3511     1.0  0.85658  0.52157  0.08099  1.0000
  H   H3512     1.0  0.66950  0.94163  0.08681  1.0000
  C   C1992     1.0  0.87541  0.51129  0.07875  1.0000
  H   H3513     1.0  0.75049  0.60420  0.15367  1.0000
  H   H3514     1.0  0.99007  0.58491  0.21522  1.0000
  H   H3515     1.0  0.74431  0.71694  0.21061  1.0000
  C   C1993     1.0  0.95022  0.65275  0.00165  1.0000
  C   C1994     1.0  0.69430  0.62909  0.15190  1.0000
  C   C1995     1.0  0.74471  0.57799  0.18127  1.0000
  C   C1996     1.0  0.74041  0.59512  0.13372  1.0000
  H   H3516     1.0  0.70813  0.56924  0.18162  1.0000
  H   H3517     1.0  0.68444  0.65855  0.16571  1.0000
  H   H3518     1.0  0.70975  0.63758  0.14536  1.0000
  H   H3519     1.0  0.67445  0.53622  0.15002  1.0000
  H   H3520     1.0  0.71354  0.55455  0.14995  1.0000
  H   H3521     1.0  0.75572  0.57257  0.15135  1.0000
  H   H3522     1.0  0.94495  0.69821  0.10452  1.0000
  H   H3523     1.0  0.69369  0.83025  0.09564  1.0000
  H   H3524     1.0  0.85146  0.54292  0.13953  1.0000
  H   H3525     1.0  0.92398  0.68340  0.05709  1.0000
  N   N111      1.0  0.78261  0.70921  0.20160  1.0000
  H   H3526     1.0  0.72701  0.73973  0.17724  1.0000
  H   H3527     1.0  0.71903  0.86126  0.08078  1.0000
  C   C1997     1.0  0.67017  0.83897  0.22083  1.0000
  C   C1998     1.0  0.79864  0.70727  0.18728  1.0000
  C   C1999     1.0  0.78669  0.70088  0.17457  1.0000
  C   C2000     1.0  0.75034  0.74532  0.19291  1.0000
  H   H3528     1.0  0.79709  0.69311  0.15244  1.0000
  H   H3529     1.0  0.74618  0.89044  0.11047  1.0000
  C   C2001     1.0  0.80523  0.69993  0.16097  1.0000
  C   C2002     1.0  0.72587  0.75024  0.18657  1.0000
  C   C2003     1.0  0.98982  0.51294  0.05802  1.0000
  H   H3530     1.0  0.74833  0.70645  0.19357  1.0000
  H   H3531     1.0  0.68117  0.55436  0.17158  1.0000
  H   H3532     1.0  0.85262  0.53682  0.11445  1.0000
  H   H3533     1.0  0.94697  0.67181  0.99616  1.0000
  H   H3534     1.0  0.89304  0.52297  0.12306  1.0000
  H   H3535     1.0  0.80594  0.72487  0.18329  1.0000
  H   H3536     1.0  0.81537  0.69341  0.18864  1.0000
  H   H3537     1.0  0.77088  0.71493  0.17180  1.0000
  H   H3538     1.0  0.77994  0.68293  0.17707  1.0000
  H   H3539     1.0  0.93490  0.66921  0.11180  1.0000
  H   H3540     1.0  0.76507  0.74993  0.18416  1.0000
  N   N112      1.0  0.71821  0.58600  0.15988  1.0000
  H   H3541     1.0  0.78538  0.65784  0.19620  1.0000
  C   C2004     1.0  0.69677  0.91260  0.06845  1.0000
  C   C2005     1.0  0.95619  0.66946  0.09050  1.0000
  H   H3542     1.0  0.71326  0.89983  0.06458  1.0000
  H   H3543     1.0  0.94606  0.60488  0.08139  1.0000
  S   S447      1.0  0.67194  0.71434  0.18769  1.0000
  H   H3544     1.0  0.85189  0.53349  0.16426  1.0000
  H   H3545     1.0  0.98139  0.52483  0.04901  1.0000
  H   H3546     1.0  0.94601  0.63354  0.09657  1.0000
  C   C2006     1.0  0.79177  0.72726  0.20949  1.0000
  H   H3547     1.0  0.89165  0.53908  0.17253  1.0000
  C   C2007     1.0  0.98209  0.57838  0.98200  1.0000
  H   H3548     1.0  0.93277  0.64472  0.00304  1.0000
  H   H3549     1.0  0.82759  0.54760  0.97682  1.0000
  H   H3550     1.0  0.83488  0.51177  0.11910  1.0000
  H   H3551     1.0  0.69225  0.95285  0.97432  1.0000
  H   H3552     1.0  0.90339  0.66356  0.05342  1.0000
  C   C2008     1.0  0.70441  0.93875  0.06509  1.0000
  H   H3553     1.0  0.96542  0.58479  0.20460  1.0000
  H   H3554     1.0  0.89593  0.50686  0.17967  1.0000
  H   H3555     1.0  0.94762  0.56411  0.09564  1.0000
  H   H3556     1.0  0.83153  0.52092  0.14584  1.0000
  C   C2009     1.0  0.82797  0.74107  0.21862  1.0000
  H   H3557     1.0  0.69789  0.58248  0.14229  1.0000
  H   H3558     1.0  0.96689  0.67321  0.11139  1.0000
  H   H3559     1.0  0.70401  0.94080  0.04189  1.0000
  H   H3560     1.0  0.67407  0.87214  0.09592  1.0000
  C   C2010     1.0  0.96204  0.64472  0.06461  1.0000
  C   C2011     1.0  0.68033  0.87939  0.08471  1.0000
  S   S448      1.0  0.99187  0.60306  0.02817  1.0000
  N   N113      1.0  0.86948  0.50511  0.14007  1.0000
  H   H3561     1.0  0.93947  0.67558  0.08494  1.0000
  H   H3562     1.0  0.69553  0.76362  0.21660  1.0000
  C   C2012     1.0  0.80080  0.51207  0.17791  1.0000
  C   C2013     1.0  0.78547  0.49823  0.15791  1.0000
  C   C2014     1.0  0.67601  0.64990  0.15806  1.0000
  H   H3563     1.0  0.81866  0.56554  0.12472  1.0000
  H   H3564     1.0  0.80424  0.67740  0.21216  1.0000
  H   H3565     1.0  0.83133  0.71255  0.20493  1.0000
  C   C2015     1.0  0.77447  0.64148  0.21746  1.0000
  C   C2016     1.0  0.84745  0.52464  0.13771  1.0000
  H   H3566     1.0  0.99835  0.58108  0.08766  1.0000
  H   H3567     1.0  0.86704  0.49739  0.01990  1.0000
  H   H3568     1.0  0.71032  0.81999  0.07920  1.0000
  C   C2017     1.0  0.97071  0.63712  0.99291  1.0000
  H   H3569     1.0  0.94694  0.62237  0.98094  1.0000
  H   H3570     1.0  0.94767  0.51206  0.99051  1.0000
  C   C2018     1.0  0.90224  0.50442  0.98199  1.0000
  C   C2019     1.0  0.97042  0.58237  0.21576  1.0000
  H   H3571     1.0  0.68132  0.96737  0.99746  1.0000
  H   H3572     1.0  0.97495  0.61915  0.99949  1.0000
  H   H3573     1.0  0.70155  0.95878  0.20890  1.0000
  H   H3574     1.0  0.89791  0.49761  0.15443  1.0000
  H   H3575     1.0  0.97571  0.56950  0.97365  1.0000
  H   H3576     1.0  0.67178  0.83906  0.20927  1.0000
  H   H3577     1.0  0.95413  0.65164  0.97356  1.0000
  H   H3578     1.0  0.76658  0.62669  0.21367  1.0000
  H   H3579     1.0  0.67100  0.95105  0.21458  1.0000
  H   H3580     1.0  0.88503  0.50906  0.08851  1.0000
  H   H3581     1.0  0.85736  0.50143  0.17097  1.0000
  H   H3582     1.0  0.87320  0.54525  0.97477  1.0000
  C   C2020     1.0  0.66793  0.93839  0.01240  1.0000
  H   H3583     1.0  0.67904  0.94133  0.02077  1.0000
  H   H3584     1.0  0.87868  0.50034  0.11738  1.0000
  H   H3585     1.0  0.93197  0.50384  0.10855  1.0000
  H   H3586     1.0  0.94573  0.68967  0.22207  1.0000
  H   H3587     1.0  0.77544  0.68750  0.22215  1.0000
  Fe  Fe225     1.0  0.87781  0.72096  0.27834  1.0000
  S   S449      1.0  0.85411  0.69193  0.28711  1.0000
  S   S450      1.0  0.86141  0.76066  0.27190  1.0000
  Fe  Fe226     1.0  0.92604  0.68476  0.27985  1.0000
  S   S451      1.0  0.90506  0.65320  0.28863  1.0000
  Fe  Fe227     1.0  0.87930  0.66839  0.27198  1.0000
  S   S452      1.0  0.86406  0.64157  0.26041  1.0000
  Fe  Fe228     1.0  0.88195  0.67950  0.30282  1.0000
  S   S453      1.0  0.86793  0.67088  0.32643  1.0000
  S   S454      1.0  0.90172  0.69814  0.26216  1.0000
  S   S455      1.0  0.90417  0.71032  0.29514  1.0000
  Fe  Fe229     1.0  0.73427  0.89971  0.28922  1.0000
  S   S456      1.0  0.69471  0.90607  0.28516  1.0000
  S   S457      1.0  0.75828  0.93012  0.28662  1.0000
  Fe  Fe230     1.0  0.73528  0.84370  0.29458  1.0000
  S   S458      1.0  0.69526  0.84657  0.29138  1.0000
  S   S459      1.0  0.75460  0.80460  0.29938  1.0000
  Fe  Fe231     1.0  0.70432  0.87378  0.27225  1.0000
  S   S460      1.0  0.69704  0.87480  0.24890  1.0000
  Fe  Fe232     1.0  0.68938  0.87824  0.30473  1.0000
  C   C2021     1.0  0.70074  0.92668  0.33716  1.0000
  S   S461      1.0  0.74461  0.86943  0.27490  1.0000
  S   S462      1.0  0.72868  0.87337  0.30941  1.0000
  Fe  Fe233     1.0  0.96189  0.54948  0.40938  1.0000
  S   S463      1.0  0.95669  0.59043  0.40620  1.0000
  H   H3588     1.0  0.81527  0.74902  0.22753  1.0000
  Fe  Fe234     1.0  0.90760  0.54771  0.41274  1.0000
  S   S464      1.0  0.89735  0.58896  0.40926  1.0000
  H   H3589     1.0  0.86929  0.63983  0.40265  1.0000
  Fe  Fe235     1.0  0.92920  0.58741  0.39142  1.0000
  S   S465      1.0  0.93889  0.60740  0.36922  1.0000
  Fe  Fe236     1.0  0.92576  0.58872  0.42427  1.0000
  S   S466      1.0  0.92359  0.61554  0.44073  1.0000
  S   S467      1.0  0.93656  0.54624  0.39364  1.0000
  S   S468      1.0  0.93385  0.54769  0.42887  1.0000
  H   H3590     1.0  0.71485  0.89855  0.40061  1.0000
  H   H3591     1.0  0.90049  0.51726  0.38865  1.0000
  H   H3592     1.0  0.96413  0.64831  0.23194  1.0000
  H   H3593     1.0  0.98023  0.73237  0.23792  1.0000
  H   H3594     1.0  0.98429  0.61829  0.43625  1.0000
  H   H3595     1.0  0.69627  0.79091  0.30171  1.0000
  C   C2022     1.0  0.69519  0.90610  0.39974  1.0000
  H   H3596     1.0  0.94751  0.51129  0.36597  1.0000
  C   C2023     1.0  0.96792  0.50953  0.36348  1.0000
  C   C2024     1.0  0.66927  0.98985  0.38409  1.0000
  H   H3597     1.0  0.79573  0.72157  0.24746  1.0000
  H   H3598     1.0  0.67325  0.77090  0.30293  1.0000
  H   H3599     1.0  0.77464  0.82680  0.23499  1.0000
  H   H3600     1.0  0.91807  0.64144  0.46556  1.0000
  H   H3601     1.0  0.78218  0.97337  0.28182  1.0000
  H   H3602     1.0  0.97308  0.52834  0.36113  1.0000
  H   H3603     1.0  0.69397  0.84424  0.36415  1.0000
  H   H3604     1.0  0.69356  0.85664  0.33787  1.0000
  H   H3605     1.0  0.89656  0.55850  0.26582  1.0000
  H   H3606     1.0  0.91347  0.52958  0.46263  1.0000
  H   H3607     1.0  0.78014  0.84075  0.25017  1.0000
  H   H3608     1.0  0.95661  0.58955  0.27957  1.0000
  C   C2025     1.0  0.84934  0.62481  0.23736  1.0000
  C   C2026     1.0  0.88735  0.65159  0.33791  1.0000
  C   C2027     1.0  0.91256  0.64563  0.33355  1.0000
  C   C2028     1.0  0.92795  0.63156  0.34322  1.0000
  C   C2029     1.0  0.91822  0.62297  0.35721  1.0000
  C   C2030     1.0  0.89289  0.62841  0.36149  1.0000
  C   C2031     1.0  0.87754  0.64289  0.35189  1.0000
  H   H3609     1.0  0.92029  0.65229  0.32283  1.0000
  H   H3610     1.0  0.94754  0.62747  0.33985  1.0000
  H   H3611     1.0  0.88520  0.62181  0.37223  1.0000
  H   H3612     1.0  0.85800  0.64737  0.35529  1.0000
  C   C2032     1.0  0.85918  0.64379  0.24204  1.0000
  C   C2033     1.0  0.74083  0.92801  0.24488  1.0000
  H   H3613     1.0  0.72768  0.99291  0.26420  1.0000
  C   C2034     1.0  0.83063  0.77238  0.27822  1.0000
  C   C2035     1.0  0.82229  0.79771  0.27556  1.0000
  C   C2036     1.0  0.79860  0.80785  0.28148  1.0000
  C   C2037     1.0  0.78309  0.79267  0.29009  1.0000
  C   C2038     1.0  0.79095  0.76724  0.29213  1.0000
  C   C2039     1.0  0.81465  0.75715  0.28632  1.0000
  H   H3614     1.0  0.83447  0.80963  0.26922  1.0000
  H   H3615     1.0  0.79268  0.82747  0.27973  1.0000
  H   H3616     1.0  0.77897  0.75533  0.29866  1.0000
  H   H3617     1.0  0.82065  0.73764  0.28833  1.0000
  H   H3618     1.0  0.72127  0.81740  0.24720  1.0000
  H   H3619     1.0  0.96029  0.61596  0.46495  1.0000
  H   H3620     1.0  0.70489  0.75241  0.25532  1.0000
  H   H3621     1.0  0.69669  0.96205  0.34464  1.0000
  H   H3622     1.0  0.91158  0.60812  0.26682  1.0000
  H   H3623     1.0  0.71892  0.92936  0.33096  1.0000
  H   H3624     1.0  0.68492  0.89044  0.39983  1.0000
  S   S469      1.0  0.96792  0.67396  0.27516  1.0000
  H   H3625     1.0  0.67253  0.98799  0.36122  1.0000
  H   H3626     1.0  0.77211  0.91122  0.25636  1.0000
  H   H3627     1.0  0.74496  0.79694  0.23877  1.0000
  H   H3628     1.0  0.67028  0.97784  0.39445  1.0000
  C   C2040     1.0  0.69316  0.92348  0.38579  1.0000
  H   H3629     1.0  0.99761  0.62491  0.38949  1.0000
  H   H3630     1.0  0.94489  0.63182  0.26917  1.0000
  H   H3631     1.0  0.79617  0.74045  0.26146  1.0000
  H   H3632     1.0  0.86866  0.64621  0.42093  1.0000
  C   C2041     1.0  0.74702  0.96115  0.28932  1.0000
  C   C2042     1.0  0.72233  0.96858  0.29444  1.0000
  H   H3633     1.0  0.70983  0.95508  0.29728  1.0000
  H   H3634     1.0  0.84440  0.60954  0.24505  1.0000
  N   N114      1.0  0.84077  0.77689  0.32338  1.0000
  C   C2043     1.0  0.86289  0.76845  0.31298  1.0000
  C   C2044     1.0  0.82183  0.75944  0.32507  1.0000
  C   C2045     1.0  0.82912  0.80186  0.31699  1.0000
  C   C2046     1.0  0.84796  0.77969  0.33784  1.0000
  C   C2047     1.0  0.86270  0.75681  0.34561  1.0000
  C   C2048     1.0  0.88314  0.78549  0.30949  1.0000
  C   C2049     1.0  0.80392  0.81262  0.32492  1.0000
  C   C2050     1.0  0.83138  0.73191  0.32352  1.0000
  C   C2051     1.0  0.81025  0.71655  0.32707  1.0000
  C   C2052     1.0  0.87069  0.76297  0.35940  1.0000
  C   C2053     1.0  0.90576  0.77366  0.30031  1.0000
  C   C2054     1.0  0.79440  0.83798  0.31753  1.0000
  H   H3635     1.0  0.85671  0.76632  0.30256  1.0000
  H   H3636     1.0  0.87207  0.74987  0.31680  1.0000
  H   H3637     1.0  0.80985  0.76055  0.33555  1.0000
  H   H3638     1.0  0.80901  0.76508  0.31677  1.0000
  H   H3639     1.0  0.82628  0.80116  0.30560  1.0000
  H   H3640     1.0  0.84161  0.81582  0.31661  1.0000
  H   H3641     1.0  0.85856  0.79537  0.33692  1.0000
  H   H3642     1.0  0.83123  0.78468  0.34546  1.0000
  H   H3643     1.0  0.87965  0.74975  0.33879  1.0000
  H   H3644     1.0  0.85097  0.74208  0.34882  1.0000
  H   H3645     1.0  0.87615  0.80306  0.30325  1.0000
  H   H3646     1.0  0.88942  0.78952  0.31945  1.0000
  H   H3647     1.0  0.80560  0.81488  0.33621  1.0000
  H   H3648     1.0  0.78962  0.80067  0.32501  1.0000
  H   H3649     1.0  0.83951  0.72970  0.31224  1.0000
  H   H3650     1.0  0.84569  0.72407  0.33061  1.0000
  H   H3651     1.0  0.80229  0.71687  0.33853  1.0000
  H   H3652     1.0  0.79557  0.72357  0.32001  1.0000
  H   H3653     1.0  0.81727  0.69716  0.32527  1.0000
  H   H3654     1.0  0.88051  0.74618  0.36505  1.0000
  H   H3655     1.0  0.88336  0.77702  0.35683  1.0000
  H   H3656     1.0  0.85436  0.76996  0.36678  1.0000
  H   H3657     1.0  0.91954  0.78659  0.29753  1.0000
  H   H3658     1.0  0.91450  0.75658  0.30630  1.0000
  H   H3659     1.0  0.90051  0.76925  0.29011  1.0000
  H   H3660     1.0  0.77631  0.84512  0.32330  1.0000
  C   C2055     1.0  0.90787  0.58762  0.24939  1.0000
  H   H3661     1.0  0.79173  0.83685  0.30622  1.0000
  N   N115      1.0  0.93226  0.67440  0.38644  1.0000
  C   C2056     1.0  0.93803  0.67727  0.37022  1.0000
  C   C2057     1.0  0.95211  0.65577  0.39278  1.0000
  C   C2058     1.0  0.90828  0.66386  0.39024  1.0000
  C   C2059     1.0  0.92946  0.69844  0.39279  1.0000
  C   C2060     1.0  0.94506  0.71820  0.38475  1.0000
  C   C2061     1.0  0.91697  0.69163  0.36181  1.0000
  C   C2062     1.0  0.90032  0.65688  0.40655  1.0000
  C   C2063     1.0  0.97859  0.66245  0.39027  1.0000
  C   C2064     1.0  0.99711  0.64072  0.39565  1.0000
  C   C2065     1.0  0.94348  0.73961  0.39361  1.0000
  C   C2066     1.0  0.92650  0.70013  0.34622  1.0000
  H   H3662     1.0  0.96646  0.64547  0.44299  1.0000
  H   H3663     1.0  0.94277  0.65890  0.36625  1.0000
  H   H3664     1.0  0.95482  0.68605  0.36665  1.0000
  H   H3665     1.0  0.94784  0.65211  0.40468  1.0000
  H   H3666     1.0  0.95274  0.63788  0.38854  1.0000
  H   H3667     1.0  0.90920  0.64700  0.38487  1.0000
  H   H3668     1.0  0.89278  0.67705  0.38609  1.0000
  H   H3669     1.0  0.90991  0.70758  0.39344  1.0000
  H   H3670     1.0  0.93363  0.69487  0.40417  1.0000
  H   H3671     1.0  0.93812  0.72587  0.37435  1.0000
  H   H3672     1.0  0.96476  0.71068  0.38237  1.0000
  H   H3673     1.0  0.90292  0.67954  0.36151  1.0000
  H   H3674     1.0  0.90764  0.70791  0.36703  1.0000
  H   H3675     1.0  0.90297  0.67116  0.41310  1.0000
  H   H3676     1.0  0.91136  0.63928  0.41042  1.0000
  H   H3677     1.0  0.98466  0.66755  0.37871  1.0000
  H   H3678     1.0  0.97955  0.67784  0.39645  1.0000
  H   H3679     1.0  0.73081  0.76596  0.23032  1.0000
  H   H3680     1.0  0.98615  0.71782  0.25557  1.0000
  C   C2067     1.0  0.98009  0.60935  0.46599  1.0000
  H   H3681     1.0  0.95431  0.75371  0.38749  1.0000
  H   H3682     1.0  0.92401  0.74832  0.39590  1.0000
  H   H3683     1.0  0.95121  0.73315  0.40394  1.0000
  H   H3684     1.0  0.93879  0.71424  0.34583  1.0000
  H   H3685     1.0  0.93686  0.68434  0.34082  1.0000
  H   H3686     1.0  0.91069  0.70819  0.34018  1.0000
  C   C2068     1.0  0.90986  0.60854  0.45862  1.0000
  H   H3687     1.0  0.68781  0.91599  0.40926  1.0000
  H   H3688     1.0  0.86107  0.67104  0.40709  1.0000
  C   C2069     1.0  0.89793  0.49895  0.39356  1.0000
  H   H3689     1.0  0.97389  0.49982  0.35377  1.0000
  H   H3690     1.0  0.96914  0.71830  0.28857  1.0000
  C   C2070     1.0  0.70700  0.97672  0.23466  1.0000
  H   H3691     1.0  0.75489  0.96198  0.23894  1.0000
  H   H3692     1.0  0.73590  0.92802  0.23390  1.0000
  H   H3693     1.0  0.68842  0.78260  0.25324  1.0000
  H   H3694     1.0  0.69596  0.96880  0.36999  1.0000
  H   H3695     1.0  0.96373  0.57910  0.24427  1.0000
  H   H3696     1.0  0.70966  0.95448  0.27068  1.0000
  H   H3697     1.0  0.89819  0.57494  0.45506  1.0000
  H   H3698     1.0  0.89842  0.60249  0.24220  1.0000
  C   C2071     1.0  0.68096  0.85464  0.24188  1.0000
  H   H3699     1.0  0.95007  0.66652  0.24599  1.0000
  H   H3700     1.0  0.76516  0.89343  0.24324  1.0000
  H   H3701     1.0  0.99212  0.63482  0.40728  1.0000
  H   H3702     1.0  0.97178  0.63083  0.25651  1.0000
  H   H3703     1.0  0.97929  0.60487  0.23886  1.0000
  H   H3704     1.0  0.91544  0.64544  0.25197  1.0000
  H   H3705     1.0  0.98078  0.58369  0.26494  1.0000
  C   C2072     1.0  0.96069  0.59898  0.24007  1.0000
  S   S470      1.0  0.88200  0.51942  0.41882  1.0000
  C   C2073     1.0  0.93358  0.67556  0.22631  1.0000
  H   H3706     1.0  0.99547  0.64461  0.46074  1.0000
  H   H3707     1.0  0.87280  0.67825  0.23545  1.0000
  C   C2074     1.0  0.88802  0.57443  0.25882  1.0000
  C   C2075     1.0  0.95369  0.60118  0.22449  1.0000
  H   H3708     1.0  0.70804  0.79301  0.22963  1.0000
  C   C2076     1.0  0.70709  0.77176  0.25100  1.0000
  C   C2077     1.0  0.97033  0.59799  0.27147  1.0000
  H   H3709     1.0  0.69650  0.93962  0.23442  1.0000
  C   C2078     1.0  0.67815  0.86344  0.34538  1.0000
  N   N116      1.0  0.72567  0.78079  0.25864  1.0000
  C   C2079     1.0  0.73636  0.80200  0.24948  1.0000
  C   C2080     1.0  0.71209  0.79035  0.27227  1.0000
  C   C2081     1.0  0.74546  0.76005  0.26293  1.0000
  C   C2082     1.0  0.76305  0.74890  0.25051  1.0000
  C   C2083     1.0  0.75638  0.81251  0.25576  1.0000
  C   C2084     1.0  0.69753  0.77207  0.28274  1.0000
  C   C2085     1.0  0.78422  0.73071  0.25636  1.0000
  C   C2086     1.0  0.76601  0.83344  0.24537  1.0000
  H   H3710     1.0  0.87567  0.58720  0.26569  1.0000
  H   H3711     1.0  0.69890  0.80723  0.26952  1.0000
  H   H3712     1.0  0.72506  0.79600  0.27871  1.0000
  H   H3713     1.0  0.75672  0.76589  0.27041  1.0000
  H   H3714     1.0  0.73704  0.74442  0.26924  1.0000
  H   H3715     1.0  0.77136  0.76317  0.24285  1.0000
  H   H3716     1.0  0.75285  0.73858  0.24465  1.0000
  H   H3717     1.0  0.74891  0.82000  0.26602  1.0000
  H   H3718     1.0  0.77242  0.79817  0.25769  1.0000
  C   C2087     1.0  0.71167  0.77343  0.23431  1.0000
  H   H3719     1.0  0.77701  0.71625  0.26444  1.0000
  C   C2088     1.0  0.68334  0.78435  0.29558  1.0000
  N   N117      1.0  0.71742  0.97169  0.24894  1.0000
  H   H3720     1.0  0.71027  0.75617  0.28716  1.0000
  C   C2089     1.0  0.74165  0.95462  0.24782  1.0000
  H   H3721     1.0  0.70152  0.90698  0.34153  1.0000
  C   C2090     1.0  0.67836  0.85648  0.36028  1.0000
  H   H3722     1.0  0.66969  0.80013  0.29188  1.0000
  H   H3723     1.0  0.69920  0.73931  0.23129  1.0000
  H   H3724     1.0  0.70470  0.93793  0.38607  1.0000
  H   H3725     1.0  0.67483  0.76510  0.23298  1.0000
  H   H3726     1.0  0.68645  0.93139  0.32966  1.0000
  C   C2091     1.0  0.68925  0.95928  0.23186  1.0000
  H   H3727     1.0  0.93310  0.58091  0.26486  1.0000
  H   H3728     1.0  0.87661  0.56762  0.25187  1.0000
  H   H3729     1.0  0.89397  0.50981  0.45747  1.0000
  H   H3730     1.0  0.69639  0.99559  0.23334  1.0000
  H   H3731     1.0  0.98373  0.59186  0.46107  1.0000
  C   C2092     1.0  0.69995  0.96093  0.26102  1.0000
  H   H3732     1.0  0.70084  0.91255  0.37678  1.0000
  H   H3733     1.0  0.70958  0.93687  0.35671  1.0000
  C   C2093     1.0  0.91163  0.51022  0.46173  1.0000
  C   C2094     1.0  0.92405  0.59760  0.25870  1.0000
  C   C2095     1.0  0.99113  0.68453  0.28299  1.0000
  H   H3734     1.0  0.75072  0.84864  0.24329  1.0000
  H   H3735     1.0  0.98638  0.55754  0.43065  1.0000
  C   C2096     1.0  0.76617  0.91235  0.24549  1.0000
  C   C2097     1.0  0.69513  0.94284  0.34945  1.0000
  H   H3736     1.0  0.75041  0.95352  0.25788  1.0000
  C   C2098     1.0  0.91015  0.62465  0.46884  1.0000
  H   H3737     1.0  0.84627  0.73454  0.22246  1.0000
  C   C2099     1.0  0.76303  0.97896  0.28575  1.0000
  C   C2100     1.0  0.69427  0.75944  0.22849  1.0000
  N   N118      1.0  0.94293  0.61309  0.25077  1.0000
  H   H3738     1.0  0.68393  0.76510  0.27735  1.0000
  C   C2101     1.0  0.94616  0.65658  0.23729  1.0000
  C   C2102     1.0  0.92959  0.63675  0.24387  1.0000
  C   C2103     1.0  0.89898  0.58721  0.46290  1.0000
  C   C2104     1.0  0.67575  0.97480  0.37101  1.0000
  C   C2105     1.0  0.66878  0.94142  0.35750  1.0000
  C   C2106     1.0  0.95723  0.61977  0.26184  1.0000
  H   H3739     1.0  0.91879  0.63332  0.23549  1.0000
  H   H3740     1.0  0.80748  0.85116  0.31764  1.0000
  H   H3741     1.0  0.99752  0.64638  0.43419  1.0000
  H   H3742     1.0  0.69410  0.94409  0.25833  1.0000
  C   C2107     1.0  0.98716  0.70725  0.28840  1.0000
  C   C2108     1.0  0.71367  0.99360  0.29557  1.0000
  H   H3743     1.0  0.91591  0.68492  0.23143  1.0000
  C   C2109     1.0  0.68307  0.85426  0.22686  1.0000
  H   H3744     1.0  0.78016  0.92022  0.23731  1.0000
  H   H3745     1.0  0.72762  0.91880  0.25291  1.0000
  C   C2110     1.0  0.86540  0.66345  0.23199  1.0000
  C   C2111     1.0  0.87316  0.65330  0.40942  1.0000
  H   H3746     1.0  0.91938  0.57390  0.24282  1.0000
  H   H3747     1.0  0.99235  0.70012  0.24040  1.0000
  H   H3748     1.0  0.67123  0.96287  0.23861  1.0000
  C   C2112     1.0  0.99540  0.62752  0.45597  1.0000
  C   C2113     1.0  0.98526  0.63481  0.44147  1.0000
  H   H3749     1.0  0.99728  0.59077  0.28676  1.0000
  C   C2114     1.0  0.99292  0.71832  0.24390  1.0000
  H   H3750     1.0  0.97442  0.50672  0.38544  1.0000
  H   H3751     1.0  0.68113  0.99251  0.27199  1.0000
  C   C2115     1.0  0.72248  0.99566  0.25306  1.0000
  H   H3752     1.0  0.76337  0.64632  0.22769  1.0000
  C   C2116     1.0  0.67636  0.97861  0.26583  1.0000
  H   H3753     1.0  0.72231  0.97669  0.22562  1.0000
  C   C2117     1.0  0.98835  0.60664  0.27989  1.0000
  S   S471      1.0  0.00015  0.52892  0.40700  1.0000
  H   H3754     1.0  0.97843  0.62043  0.28698  1.0000
  H   H3755     1.0  0.81806  0.70481  0.22322  1.0000
  H   H3756     1.0  0.66758  0.98847  0.25640  1.0000
  H   H3757     1.0  0.92700  0.50290  0.45387  1.0000
  H   H3758     1.0  0.93439  0.59848  0.22426  1.0000
  C   C2118     1.0  0.84596  0.62530  0.22278  1.0000
  Fe  Fe237     1.0  0.89838  0.72024  0.65766  1.0000
  S   S472      1.0  0.87843  0.68997  0.65392  1.0000
  S   S473      1.0  0.88376  0.76057  0.65192  1.0000
  Fe  Fe238     1.0  0.94187  0.68466  0.66889  1.0000
  S   S474      1.0  0.92427  0.65189  0.66628  1.0000
  Fe  Fe239     1.0  0.91569  0.67191  0.64478  1.0000
  S   S475      1.0  0.92869  0.65241  0.62464  1.0000
  Fe  Fe240     1.0  0.88883  0.67280  0.67578  1.0000
  S   S476      1.0  0.85941  0.65564  0.69145  1.0000
  S   S477      1.0  0.93519  0.70357  0.64696  1.0000
  S   S478      1.0  0.90674  0.70416  0.68000  1.0000
  Fe  Fe241     1.0  0.73737  0.89456  0.66615  1.0000
  S   S479      1.0  0.69886  0.89293  0.67722  1.0000
  S   S480      1.0  0.75227  0.93058  0.65740  1.0000
  Fe  Fe242     1.0  0.74824  0.83809  0.66529  1.0000
  S   S481      1.0  0.70990  0.83350  0.67580  1.0000
  S   S482      1.0  0.76885  0.80021  0.66094  1.0000
  Fe  Fe243     1.0  0.69698  0.86705  0.66102  1.0000
  C   C2119     1.0  0.95868  0.54994  0.58946  1.0000
  Fe  Fe244     1.0  0.71558  0.85934  0.69088  1.0000
  S   S483      1.0  0.71198  0.85039  0.71536  1.0000
  S   S484      1.0  0.73476  0.86989  0.64941  1.0000
  S   S485      1.0  0.75460  0.86283  0.68093  1.0000
  Fe  Fe245     1.0  0.91026  0.55961  0.55105  1.0000
  S   S486      1.0  0.87536  0.58497  0.54740  1.0000
  S   S487      1.0  0.91375  0.52200  0.56358  1.0000
  Fe  Fe246     1.0  0.94234  0.59694  0.53592  1.0000
  S   S488      1.0  0.91008  0.62567  0.53103  1.0000
  H   H3759     1.0  0.94528  0.70625  0.61228  1.0000
  Fe  Fe247     1.0  0.89433  0.61411  0.55397  1.0000
  S   S489      1.0  0.87576  0.63909  0.57095  1.0000
  Fe  Fe248     1.0  0.89447  0.59395  0.52497  1.0000
  S   S490      1.0  0.87573  0.59115  0.50548  1.0000
  S   S491      1.0  0.92786  0.58792  0.55904  1.0000
  S   S492      1.0  0.92801  0.56615  0.52835  1.0000
  H   H3760     1.0  0.72788  0.79398  0.61217  1.0000
  H   H3761     1.0  0.78917  0.73534  0.69064  1.0000
  H   H3762     1.0  0.88381  0.72564  0.55974  1.0000
  H   H3763     1.0  0.86115  0.70726  0.62379  1.0000
  H   H3764     1.0  0.91814  0.50717  0.50771  1.0000
  H   H3765     1.0  0.96491  0.51942  0.54809  1.0000
  H   H3766     1.0  0.88558  0.67485  0.71152  1.0000
  C   C2120     1.0  0.87166  0.66474  0.71769  1.0000
  H   H3767     1.0  0.89509  0.73441  0.58256  1.0000
  H   H3768     1.0  0.86573  0.61017  0.61922  1.0000
  C   C2121     1.0  0.88010  0.60378  0.63957  1.0000
  H   H3769     1.0  0.91047  0.55005  0.58791  1.0000
  H   H3770     1.0  0.84556  0.54522  0.61911  1.0000
  C   C2122     1.0  0.88959  0.59776  0.48760  1.0000
  C   C2123     1.0  0.90030  0.61917  0.48329  1.0000
  C   C2124     1.0  0.68889  0.86970  0.62161  1.0000
  H   H3771     1.0  0.90041  0.63179  0.49105  1.0000
  H   H3772     1.0  0.98975  0.61943  0.59988  1.0000
  S   S493      1.0  0.67357  0.86410  0.58152  1.0000
  H   H3773     1.0  0.75601  0.95958  0.62675  1.0000
  C   C2125     1.0  0.86819  0.52686  0.51575  1.0000
  H   H3774     1.0  0.69288  0.91571  0.64782  1.0000
  H   H3775     1.0  0.84578  0.55562  0.52717  1.0000
  C   C2126     1.0  0.72124  0.98371  0.68321  1.0000
  H   H3776     1.0  0.86765  0.75431  0.57780  1.0000
  H   H3777     1.0  0.89539  0.75579  0.60134  1.0000
  H   H3778     1.0  0.70852  0.86806  0.60026  1.0000
  H   H3779     1.0  0.70526  0.87018  0.62651  1.0000
  H   H3780     1.0  0.82926  0.54207  0.51592  1.0000
  C   C2127     1.0  0.89250  0.76574  0.69217  1.0000
  H   H3781     1.0  0.95534  0.53804  0.58157  1.0000
  C   C2128     1.0  0.91286  0.64859  0.61022  1.0000
  C   C2129     1.0  0.88786  0.65754  0.60952  1.0000
  C   C2130     1.0  0.87662  0.65449  0.59746  1.0000
  C   C2131     1.0  0.89020  0.64227  0.58611  1.0000
  C   C2132     1.0  0.91496  0.63284  0.58706  1.0000
  C   C2133     1.0  0.92616  0.63598  0.59902  1.0000
  H   H3782     1.0  0.87725  0.66666  0.61828  1.0000
  H   H3783     1.0  0.85731  0.66154  0.59693  1.0000
  H   H3784     1.0  0.92556  0.62325  0.57852  1.0000
  H   H3785     1.0  0.94524  0.62850  0.59968  1.0000
  C   C2134     1.0  0.85677  0.65350  0.71055  1.0000
  C   C2135     1.0  0.70145  0.92992  0.58519  1.0000
  H   H3786     1.0  0.68143  0.95413  0.50913  1.0000
  H   H3787     1.0  0.86067  0.78351  0.62234  1.0000
  C   C2136     1.0  0.85191  0.77158  0.65536  1.0000
  C   C2137     1.0  0.83450  0.75538  0.65854  1.0000
  C   C2138     1.0  0.80915  0.76452  0.66019  1.0000
  C   C2139     1.0  0.80097  0.78996  0.65917  1.0000
  C   C2140     1.0  0.81839  0.80621  0.65642  1.0000
  C   C2141     1.0  0.84377  0.79703  0.65438  1.0000
  H   H3788     1.0  0.84061  0.73579  0.65949  1.0000
  H   H3789     1.0  0.79579  0.75183  0.66236  1.0000
  H   H3790     1.0  0.81229  0.82584  0.65558  1.0000
  H   H3791     1.0  0.85715  0.80971  0.65194  1.0000
  C   C2142     1.0  0.86626  0.50166  0.51088  1.0000
  H   H3792     1.0  0.85393  0.71934  0.56835  1.0000
  H   H3793     1.0  0.83791  0.71043  0.70231  1.0000
  C   C2143     1.0  0.74399  0.95880  0.66501  1.0000
  H   H3794     1.0  0.71824  0.94548  0.68242  1.0000
  C   C2144     1.0  0.87346  0.71890  0.57009  1.0000
  H   H3795     1.0  0.74459  0.71791  0.64691  1.0000
  H   H3796     1.0  0.70461  0.91132  0.58156  1.0000
  N   N119      1.0  0.98416  0.60480  0.48171  1.0000
  C   C2145     1.0  0.83842  0.57875  0.58155  1.0000
  H   H3797     1.0  0.86403  0.52032  0.55766  1.0000
  H   H3798     1.0  0.85360  0.73460  0.63198  1.0000
  H   H3799     1.0  0.84164  0.81713  0.60568  1.0000
  H   H3800     1.0  0.82612  0.81777  0.62376  1.0000
  C   C2146     1.0  0.83877  0.64046  0.71875  1.0000
  H   H3801     1.0  0.91475  0.58035  0.59010  1.0000
  C   C2147     1.0  0.96608  0.62229  0.49031  1.0000
  H   H3802     1.0  0.86318  0.54334  0.63412  1.0000
  H   H3803     1.0  0.87273  0.59602  0.59478  1.0000
  H   H3804     1.0  0.78249  0.69359  0.68959  1.0000
  H   H3805     1.0  0.84126  0.59786  0.57716  1.0000
  C   C2148     1.0  0.99219  0.66283  0.58350  1.0000
  H   H3806     1.0  0.86447  0.73456  0.70970  1.0000
  H   H3807     1.0  0.69055  0.93066  0.62275  1.0000
  C   C2149     1.0  0.94744  0.66097  0.54819  1.0000
  H   H3808     1.0  0.82247  0.57928  0.59014  1.0000
  C   C2150     1.0  0.93278  0.72382  0.61031  1.0000
  H   H3809     1.0  0.70811  0.98519  0.69278  1.0000
  H   H3810     1.0  0.97631  0.54202  0.59377  1.0000
  H   H3811     1.0  0.68782  0.75496  0.63439  1.0000
  H   H3812     1.0  0.74320  0.75857  0.63292  1.0000
  H   H3813     1.0  0.93855  0.73283  0.59939  1.0000
  C   C2151     1.0  0.80127  0.69668  0.69106  1.0000
  H   H3814     1.0  0.74966  0.96235  0.60823  1.0000
  H   H3815     1.0  0.96531  0.63643  0.57227  1.0000
  H   H3816     1.0  0.90760  0.59240  0.61375  1.0000
  H   H3817     1.0  0.87478  0.49835  0.63327  1.0000
  C   C2152     1.0  0.74127  0.96400  0.61952  1.0000
  C   C2153     1.0  0.68930  0.80078  0.64358  1.0000
  H   H3818     1.0  0.70481  0.79691  0.65022  1.0000
  C   C2154     1.0  0.95141  0.54599  0.49091  1.0000
  H   H3819     1.0  0.99634  0.57513  0.60627  1.0000
  H   H3820     1.0  0.71184  0.71885  0.64709  1.0000
  H   H3821     1.0  0.93999  0.58280  0.49587  1.0000
  C   C2155     1.0  0.81261  0.79555  0.70547  1.0000
  C   C2156     1.0  0.95288  0.57347  0.48753  1.0000
  H   H3822     1.0  0.71681  0.93151  0.59128  1.0000
  H   H3823     1.0  0.93914  0.67805  0.54200  1.0000
  C   C2157     1.0  0.89526  0.57864  0.61861  1.0000
  H   H3824     1.0  0.86409  0.61576  0.64464  1.0000
  H   H3825     1.0  0.89543  0.61480  0.63618  1.0000
  C   C2158     1.0  0.86068  0.72624  0.59620  1.0000
  H   H3826     1.0  0.80929  0.68099  0.69842  1.0000
  H   H3827     1.0  0.82883  0.76442  0.60285  1.0000
  H   H3828     1.0  0.95436  0.64714  0.54058  1.0000
  H   H3829     1.0  0.98219  0.67386  0.54700  1.0000
  S   S494      1.0  0.98142  0.60323  0.52857  1.0000
  C   C2159     1.0  0.91265  0.56193  0.59608  1.0000
  H   H3830     1.0  0.81694  0.77370  0.68761  1.0000
  H   H3831     1.0  0.93196  0.54306  0.49119  1.0000
  H   H3832     1.0  0.70988  0.82265  0.61490  1.0000
  C   C2160     1.0  0.73633  0.81202  0.62959  1.0000
  C   C2161     1.0  0.75729  0.82282  0.61979  1.0000
  H   H3833     1.0  0.67796  0.91934  0.60423  1.0000
  C   C2162     1.0  0.86875  0.57737  0.59958  1.0000
  H   H3834     1.0  0.83733  0.52546  0.53291  1.0000
  C   C2163     1.0  0.97948  0.57899  0.48765  1.0000
  C   C2164     1.0  0.66866  0.82955  0.72068  1.0000
  H   H3835     1.0  0.88691  0.52636  0.60489  1.0000
  N   N120      1.0  0.82661  0.74851  0.70628  1.0000
  C   C2165     1.0  0.67464  0.79868  0.62064  1.0000
  C   C2166     1.0  0.95028  0.66494  0.49729  1.0000
  H   H3836     1.0  0.73210  0.71799  0.63025  1.0000
  H   H3837     1.0  0.86791  0.74723  0.68344  1.0000
  H   H3838     1.0  0.88596  0.58835  0.64776  1.0000
  H   H3839     1.0  0.97519  0.65725  0.59005  1.0000
  H   H3840     1.0  0.96261  0.65662  0.47576  1.0000
  H   H3841     1.0  0.72714  0.82625  0.63655  1.0000
  H   H3842     1.0  0.74450  0.79611  0.63660  1.0000
  H   H3843     1.0  0.74996  0.83992  0.61321  1.0000
  H   H3844     1.0  0.77052  0.82743  0.62649  1.0000
  H   H3845     1.0  0.76724  0.80933  0.61255  1.0000
  C   C2167     1.0  0.85318  0.75213  0.70591  1.0000
  H   H3846     1.0  0.97340  0.62944  0.65003  1.0000
  H   H3847     1.0  0.99190  0.56532  0.48138  1.0000
  H   H3848     1.0  0.70972  0.75847  0.61911  1.0000
  H   H3849     1.0  0.87664  0.56393  0.57825  1.0000
  H   H3850     1.0  0.90145  0.52943  0.61987  1.0000
  H   H3851     1.0  0.93458  0.73591  0.61846  1.0000
  N   N121      1.0  0.86168  0.74018  0.60872  1.0000
  C   C2168     1.0  0.87556  0.50346  0.55504  1.0000
  H   H3852     1.0  0.88158  0.69955  0.57325  1.0000
  C   C2169     1.0  0.96799  0.65000  0.48667  1.0000
  H   H3853     1.0  0.95760  0.53885  0.50159  1.0000
  H   H3854     1.0  0.98948  0.71913  0.65844  1.0000
  C   C2170     1.0  0.81157  0.77114  0.69945  1.0000
  H   H3855     1.0  0.83378  0.73107  0.68669  1.0000
  H   H3856     1.0  0.82568  0.68898  0.63753  1.0000
  C   C2171     1.0  0.72864  0.72531  0.64085  1.0000
  H   H3857     1.0  0.89195  0.78079  0.69889  1.0000
  H   H3858     1.0  0.79500  0.70588  0.63732  1.0000
  H   H3859     1.0  0.95164  0.68480  0.49441  1.0000
  H   H3860     1.0  0.85747  0.58338  0.63056  1.0000
  C   C2172     1.0  0.70402  0.76441  0.63001  1.0000
  C   C2173     1.0  0.84301  0.78140  0.61870  1.0000
  H   H3861     1.0  0.67877  0.79241  0.67375  1.0000
  H   H3862     1.0  0.81979  0.71440  0.61411  1.0000
  H   H3863     1.0  0.90563  0.70696  0.60290  1.0000
  H   H3864     1.0  0.90560  0.56640  0.62681  1.0000
  C   C2174     1.0  0.86638  0.76119  0.69097  1.0000
  H   H3865     1.0  0.81686  0.71620  0.64667  1.0000
  H   H3866     1.0  0.69201  0.80812  0.59836  1.0000
  C   C2175     1.0  0.90628  0.71852  0.61147  1.0000
  C   C2176     1.0  0.87282  0.59403  0.62663  1.0000
  C   C2177     1.0  0.98044  0.64288  0.56440  1.0000
  H   H3867     1.0  0.81140  0.74168  0.62308  1.0000
  H   H3868     1.0  0.78914  0.71861  0.70839  1.0000
  H   H3869     1.0  0.98625  0.64166  0.63245  1.0000
  H   H3870     1.0  0.85674  0.77626  0.59664  1.0000
  H   H3871     1.0  0.93726  0.53219  0.60723  1.0000
  H   H3872     1.0  0.98386  0.57467  0.49900  1.0000
  C   C2178     1.0  0.84725  0.76552  0.60600  1.0000
  H   H3873     1.0  0.96075  0.68085  0.56260  1.0000
  H   H3874     1.0  0.83130  0.77308  0.62799  1.0000
  H   H3875     1.0  0.89577  0.52337  0.48881  1.0000
  H   H3876     1.0  0.87953  0.56593  0.48041  1.0000
  C   C2179     1.0  0.84358  0.53806  0.52341  1.0000
  C   C2180     1.0  0.87521  0.73514  0.58165  1.0000
  C   C2181     1.0  0.88614  0.53826  0.61360  1.0000
  H   H3877     1.0  0.90213  0.70756  0.62203  1.0000
  H   H3878     1.0  0.68460  0.82116  0.64229  1.0000
  C   C2182     1.0  0.93763  0.55118  0.60181  1.0000
  C   C2183     1.0  0.79974  0.72070  0.69754  1.0000
  H   H3879     1.0  0.69138  0.99135  0.50204  1.0000
  C   C2184     1.0  0.81478  0.70768  0.63704  1.0000
  H   H3880     1.0  0.88219  0.52503  0.52333  1.0000
  H   H3881     1.0  0.84129  0.72720  0.59402  1.0000
  C   C2185     1.0  0.82990  0.80720  0.61431  1.0000
  H   H3882     1.0  0.88850  0.75128  0.62025  1.0000
  N   N122      1.0  0.89017  0.56397  0.60721  1.0000
  C   C2186     1.0  0.72689  0.96114  0.67733  1.0000
  C   C2187     1.0  0.72733  0.98985  0.62093  1.0000
  H   H3883     1.0  0.81207  0.80627  0.61046  1.0000
  H   H3884     1.0  0.85650  0.77865  0.68609  1.0000
  C   C2188     1.0  0.96856  0.66638  0.55554  1.0000
  C   C2189     1.0  0.99410  0.57004  0.55157  1.0000
  C   C2190     1.0  0.85092  0.72620  0.62236  1.0000
  H   H3885     1.0  0.90182  0.77120  0.68125  1.0000
  H   H3886     1.0  0.79706  0.83417  0.70241  1.0000
  C   C2191     1.0  0.79617  0.81687  0.69795  1.0000
  C   C2192     1.0  0.75504  0.97941  0.65854  1.0000
  H   H3887     1.0  0.97530  0.56654  0.55328  1.0000
  C   C2193     1.0  0.72564  0.75340  0.63881  1.0000
  H   H3888     1.0  0.76852  0.97769  0.64913  1.0000
  H   H3889     1.0  0.94221  0.56266  0.60953  1.0000
  C   C2194     1.0  0.85885  0.50877  0.62802  1.0000
  C   C2195     1.0  0.86172  0.56463  0.58741  1.0000
  C   C2196     1.0  0.66970  0.86764  0.60009  1.0000
  C   C2197     1.0  0.82584  0.72720  0.69809  1.0000
  H   H3890     1.0  0.72840  0.95025  0.62268  1.0000
  H   H3891     1.0  0.85176  0.58073  0.60721  1.0000
  H   H3892     1.0  0.97912  0.60420  0.58675  1.0000
  H   H3893     1.0  0.98625  0.68175  0.57839  1.0000
  H   H3894     1.0  0.71857  0.98988  0.63225  1.0000
  H   H3895     1.0  0.70148  0.94380  0.57553  1.0000
  C   C2198     1.0  0.86218  0.53578  0.62397  1.0000
  C   C2199     1.0  0.98684  0.64129  0.64419  1.0000
  S   S495      1.0  0.97892  0.67501  0.67788  1.0000
  H   H3896     1.0  0.87326  0.54015  0.50640  1.0000
  H   H3897     1.0  0.82716  0.63172  0.71334  1.0000
  H   H3898     1.0  0.79172  0.76887  0.70077  1.0000
  C   C2200     1.0  0.82322  0.72351  0.62323  1.0000
  C   C2201     1.0  0.88788  0.74279  0.61031  1.0000
  H   H3899     1.0  0.86710  0.70631  0.59888  1.0000
  H   H3900     1.0  0.95504  0.65937  0.50845  1.0000
  H   H3901     1.0  0.81282  0.69723  0.68042  1.0000
  H   H3902     1.0  0.71295  0.99316  0.61355  1.0000
  C   C2202     1.0  0.71751  0.80492  0.62072  1.0000
  H   H3903     1.0  0.77663  0.81351  0.69965  1.0000
  H   H3904     1.0  0.83400  0.56949  0.57271  1.0000
  H   H3905     1.0  0.85809  0.54563  0.59132  1.0000
  H   H3906     1.0  0.68758  0.96573  0.60147  1.0000
  H   H3907     1.0  0.68738  0.77646  0.60248  1.0000
  C   C2203     1.0  0.67933  0.79555  0.60430  1.0000
  H   H3908     1.0  0.83164  0.80022  0.70381  1.0000
  H   H3909     1.0  0.72286  0.75952  0.64968  1.0000
  H   H3910     1.0  0.84181  0.50740  0.63568  1.0000
  C   C2204     1.0  0.67679  0.93338  0.59479  1.0000
  H   H3911     1.0  0.93092  0.66218  0.49693  1.0000
  H   H3912     1.0  0.93277  0.65402  0.55626  1.0000
  H   H3913     1.0  0.96053  0.56858  0.58381  1.0000
  H   H3914     1.0  0.99171  0.70110  0.59963  1.0000
  H   H3915     1.0  0.67780  0.98078  0.48186  1.0000
  H   H3916     1.0  0.98112  0.66017  0.64729  1.0000
  H   H3917     1.0  0.98680  0.65395  0.48726  1.0000
  H   H3918     1.0  0.90354  0.74881  0.69694  1.0000
  C   C2205     1.0  0.69068  0.86856  0.60670  1.0000
  H   H3919     1.0  0.80239  0.81937  0.68620  1.0000
  N   N123      1.0  0.69679  0.79195  0.62892  1.0000
  H   H3920     1.0  0.66812  0.91279  0.51383  1.0000
  H   H3921     1.0  0.96748  0.61722  0.50197  1.0000
  H   H3922     1.0  0.94687  0.62071  0.48894  1.0000
  H   H3923     1.0  0.85485  0.76519  0.71356  1.0000
  C   C2206     1.0  0.88857  0.58205  0.47729  1.0000
  H   H3924     1.0  0.98317  0.67496  0.61194  1.0000
  H   H3925     1.0  0.85707  0.50025  0.61829  1.0000
  H   H3926     1.0  0.75023  0.76677  0.72154  1.0000
  H   H3927     1.0  0.98593  0.62811  0.55719  1.0000
  C   C2207     1.0  0.99872  0.68273  0.60503  1.0000
  C   C2208     1.0  0.68222  0.93410  0.64513  1.0000
  C   C2209     1.0  0.99571  0.60802  0.59091  1.0000
  H   H3928     1.0  0.69443  0.94813  0.64523  1.0000
  H   H3929     1.0  0.96290  0.53567  0.48246  1.0000
  C   C2210     1.0  0.90075  0.50004  0.55650  1.0000
  H   H3930     1.0  0.71567  0.96391  0.71889  1.0000
  H   H3931     1.0  0.87425  0.50821  0.48277  1.0000
  H   H3932     1.0  0.97109  0.50998  0.53031  1.0000
  H   H3933     1.0  0.85010  0.50485  0.50470  1.0000
  C   C2211     1.0  0.89190  0.50479  0.48763  1.0000
  H   H3934     1.0  0.80601  0.79439  0.71715  1.0000
  H   H3935     1.0  0.94636  0.57973  0.47687  1.0000
  H   H3936     1.0  0.70956  0.99192  0.52424  1.0000
  C   C2212     1.0  0.97759  0.50711  0.54109  1.0000
  H   H3937     1.0  0.67419  0.97353  0.62528  1.0000
  C   C2213     1.0  0.67372  0.93522  0.63032  1.0000
  C   C2214     1.0  0.67036  0.95996  0.59907  1.0000
  H   H3938     1.0  0.67022  0.76999  0.65444  1.0000
  C   C2215     1.0  0.81587  0.74355  0.72183  1.0000
  H   H3939     1.0  0.66783  0.83285  0.70919  1.0000
  H   H3940     1.0  0.66786  0.94619  0.49438  1.0000
  C   C2216     1.0  0.66703  0.79036  0.65286  1.0000
  C   C2217     1.0  0.91968  0.49759  0.90551  1.0000
  H   H3941     1.0  0.69717  0.55955  0.81257  1.0000
  Fe  Fe249     1.0  0.77099  0.61745  0.78913  1.0000
  S   S496      1.0  0.80243  0.63332  0.79549  1.0000
  S   S497      1.0  0.73061  0.63429  0.78834  1.0000
  Fe  Fe250     1.0  0.80488  0.57186  0.77908  1.0000
  S   S498      1.0  0.83848  0.58496  0.78423  1.0000
  S   S499      1.0  0.81092  0.53673  0.76839  1.0000
  Fe  Fe251     1.0  0.81572  0.59446  0.80490  1.0000
  S   S500      1.0  0.83458  0.57637  0.82452  1.0000
  Fe  Fe252     1.0  0.82278  0.62228  0.77434  1.0000
  S   S501      1.0  0.84762  0.64730  0.76019  1.0000
  S   S502      1.0  0.78259  0.57927  0.80015  1.0000
  S   S503      1.0  0.79080  0.60860  0.76752  1.0000
  H   H3942     1.0  0.69436  0.74249  0.83737  1.0000
  H   H3943     1.0  0.73339  0.78052  0.79656  1.0000
  H   H3944     1.0  0.89374  0.60511  0.94623  1.0000
  C   C2218     1.0  0.71787  0.57065  0.79191  1.0000
  C   C2219     1.0  0.74792  0.56176  0.74645  1.0000
  H   H3945     1.0  0.78549  0.57021  0.74483  1.0000
  H   H3946     1.0  0.75215  0.66858  0.76541  1.0000
  C   C2220     1.0  0.85460  0.66229  0.81029  1.0000
  Fe  Fe253     1.0  0.90683  0.59809  0.88642  1.0000
  S   S504      1.0  0.94252  0.58363  0.87391  1.0000
  S   S505      1.0  0.87628  0.61965  0.87396  1.0000
  Fe  Fe254     1.0  0.92390  0.57564  0.91579  1.0000
  S   S506      1.0  0.96048  0.55971  0.90495  1.0000
  S   S507      1.0  0.92473  0.55921  0.93919  1.0000
  Fe  Fe255     1.0  0.96037  0.59562  0.89120  1.0000
  H   H3947     1.0  0.78350  0.52349  0.79629  1.0000
  Fe  Fe256     1.0  0.93958  0.54910  0.88895  1.0000
  H   H3948     1.0  0.74844  0.72631  0.76514  1.0000
  S   S508      1.0  0.92504  0.61298  0.90290  1.0000
  S   S509      1.0  0.90253  0.56251  0.90040  1.0000
  C   C2221     1.0  0.91798  0.57400  0.95496  1.0000
  H   H3949     1.0  0.86739  0.51023  0.80206  1.0000
  C   C2222     1.0  0.85011  0.52867  0.89577  1.0000
  H   H3950     1.0  0.84011  0.54223  0.88803  1.0000
  H   H3951     1.0  0.89565  0.61332  0.74793  1.0000
  H   H3952     1.0  0.71056  0.53346  0.79291  1.0000
  H   H3953     1.0  0.74239  0.53647  0.79024  1.0000
  C   C2223     1.0  0.95490  0.63677  0.94746  1.0000
  H   H3954     1.0  0.71113  0.79632  0.78494  1.0000
  C   C2224     1.0  0.84701  0.51126  0.80325  1.0000
  H   H3955     1.0  0.95202  0.59410  0.78165  1.0000
  C   C2225     1.0  0.84662  0.58924  0.83776  1.0000
  C   C2226     1.0  0.86323  0.57397  0.84630  1.0000
  C   C2227     1.0  0.87277  0.58311  0.85725  1.0000
  C   C2228     1.0  0.86554  0.60762  0.85989  1.0000
  C   C2229     1.0  0.84897  0.62288  0.85132  1.0000
  C   C2230     1.0  0.83960  0.61378  0.84028  1.0000
  H   H3956     1.0  0.86871  0.55495  0.84446  1.0000
  H   H3957     1.0  0.88548  0.57118  0.86377  1.0000
  H   H3958     1.0  0.84320  0.64180  0.85334  1.0000
  H   H3959     1.0  0.82661  0.62563  0.83393  1.0000
  H   H3960     1.0  0.94928  0.58464  0.80086  1.0000
  H   H3961     1.0  0.69912  0.79793  0.84821  1.0000
  H   H3962     1.0  0.73617  0.78329  0.75177  1.0000
  C   C2231     1.0  0.91402  0.61725  0.74967  1.0000
  H   H3963     1.0  0.96423  0.65332  0.94487  1.0000
  C   C2232     1.0  0.90038  0.54538  0.81169  1.0000
  C   C2233     1.0  0.69015  0.70616  0.80499  1.0000
  C   C2234     1.0  0.71475  0.69768  0.80747  1.0000
  C   C2235     1.0  0.72761  0.67601  0.80219  1.0000
  C   C2236     1.0  0.71587  0.66247  0.79448  1.0000
  C   C2237     1.0  0.69147  0.67129  0.79171  1.0000
  C   C2238     1.0  0.67983  0.79530  0.83001  1.0000
  H   H3964     1.0  0.72385  0.70777  0.81363  1.0000
  H   H3965     1.0  0.74639  0.66949  0.80437  1.0000
  H   H3966     1.0  0.70123  0.77037  0.74414  1.0000
  C   C2239     1.0  0.82529  0.71815  0.72980  1.0000
  C   C2240     1.0  0.90455  0.56469  0.79872  1.0000
  H   H3967     1.0  0.71651  0.69985  0.84014  1.0000
  H   H3968     1.0  0.83859  0.52868  0.80766  1.0000
  H   H3969     1.0  0.92971  0.63749  0.78855  1.0000
  C   C2241     1.0  0.68652  0.82028  0.82309  1.0000
  H   H3970     1.0  0.85023  0.52173  0.91906  1.0000
  C   C2242     1.0  0.85082  0.64942  0.74109  1.0000
  H   H3971     1.0  0.74936  0.71216  0.74142  1.0000
  H   H3972     1.0  0.88026  0.67145  0.73831  1.0000
  H   H3973     1.0  0.82213  0.62798  0.74006  1.0000
  H   H3974     1.0  0.66914  0.76233  0.89943  1.0000
  H   H3975     1.0  0.99090  0.50316  0.91778  1.0000
  H   H3976     1.0  0.67855  0.95789  0.95777  1.0000
  H   H3977     1.0  0.91969  0.51530  0.90890  1.0000
  H   H3978     1.0  0.93534  0.64434  0.92859  1.0000
  H   H3979     1.0  0.75639  0.75551  0.74739  1.0000
  H   H3980     1.0  0.72956  0.79414  0.72602  1.0000
  C   C2243     1.0  0.68870  0.72781  0.75884  1.0000
  H   H3981     1.0  0.90012  0.64361  0.76440  1.0000
  C   C2244     1.0  0.87776  0.50128  0.87249  1.0000
  C   C2245     1.0  0.99449  0.52933  0.93891  1.0000
  C   C2246     1.0  0.92806  0.56223  0.96739  1.0000
  H   H3982     1.0  0.83837  0.52841  0.86555  1.0000
  C   C2247     1.0  0.66721  0.55525  0.74925  1.0000
  C   C2248     1.0  0.97057  0.61508  0.95577  1.0000
  H   H3983     1.0  0.88041  0.54626  0.81558  1.0000
  H   H3984     1.0  0.80374  0.50782  0.83961  1.0000
  H   H3985     1.0  0.87538  0.54292  0.95582  1.0000
  C   C2249     1.0  0.71190  0.97531  0.72797  1.0000
  H   H3986     1.0  0.72913  0.97362  0.73305  1.0000
  C   C2250     1.0  0.74095  0.70182  0.75130  1.0000
  C   C2251     1.0  0.97316  0.61159  0.79346  1.0000
  C   C2252     1.0  0.81601  0.71685  0.74587  1.0000
  H   H3987     1.0  0.92441  0.56191  0.79465  1.0000
  C   C2253     1.0  0.78767  0.50748  0.79054  1.0000
  H   H3988     1.0  0.85694  0.50408  0.96074  1.0000
  H   H3989     1.0  0.73677  0.69139  0.85393  1.0000
  H   H3990     1.0  0.94102  0.54548  0.96676  1.0000
  H   H3991     1.0  0.87476  0.62759  0.81757  1.0000
  H   H3992     1.0  0.88690  0.65050  0.78620  1.0000
  H   H3993     1.0  0.81973  0.75771  0.72815  1.0000
  H   H3994     1.0  0.97231  0.61797  0.80420  1.0000
  N   N124      1.0  0.68016  0.76615  0.85406  1.0000
  H   H3995     1.0  0.73222  0.74124  0.78727  1.0000
  H   H3996     1.0  0.69116  0.74686  0.78098  1.0000
  C   C2254     1.0  0.74561  0.78071  0.72926  1.0000
  H   H3997     1.0  0.98451  0.60533  0.94805  1.0000
  C   C2255     1.0  0.91392  0.50018  0.85279  1.0000
  C   C2256     1.0  0.83588  0.63831  0.73393  1.0000
  H   H3998     1.0  0.69569  0.57299  0.76447  1.0000
  H   H3999     1.0  0.68550  0.71384  0.76831  1.0000
  C   C2257     1.0  0.72594  0.75874  0.78067  1.0000
  H   H4000     1.0  0.68784  0.78692  0.89455  1.0000
  H   H4001     1.0  0.86989  0.53094  0.89404  1.0000
  C   C2258     1.0  0.71345  0.56891  0.80834  1.0000
  H   H4002     1.0  0.97526  0.62732  0.78494  1.0000
  H   H4003     1.0  0.86491  0.62990  0.79098  1.0000
  H   H4004     1.0  0.70993  0.58773  0.81168  1.0000
  H   H4005     1.0  0.83798  0.65426  0.80912  1.0000
  H   H4006     1.0  0.91540  0.51965  0.85370  1.0000
  H   H4007     1.0  0.72582  0.69320  0.74849  1.0000
  C   C2259     1.0  0.83287  0.51012  0.86998  1.0000
  H   H4008     1.0  0.68489  0.54799  0.77586  1.0000
  H   H4009     1.0  0.71860  0.74440  0.73680  1.0000
  H   H4010     1.0  0.82019  0.53359  0.91332  1.0000
  H   H4011     1.0  0.69174  0.71777  0.74920  1.0000
  H   H4012     1.0  0.93159  0.62964  0.76557  1.0000
  C   C2260     1.0  0.70452  0.75516  0.77247  1.0000
  H   H4013     1.0  0.87840  0.52131  0.87205  1.0000
  H   H4014     1.0  0.76204  0.59694  0.74309  1.0000
  H   H4015     1.0  0.73351  0.58118  0.78839  1.0000
  C   C2261     1.0  0.72793  0.70711  0.84691  1.0000
  C   C2262     1.0  0.76787  0.57782  0.74040  1.0000
  C   C2263     1.0  0.73181  0.71910  0.76317  1.0000
  H   H4016     1.0  0.92016  0.49656  0.84148  1.0000
  H   H4017     1.0  0.72995  0.55869  0.81311  1.0000
  H   H4018     1.0  0.69477  0.77366  0.76876  1.0000
  H   H4019     1.0  0.71672  0.75832  0.84222  1.0000
  H   H4020     1.0  0.91664  0.58918  0.77489  1.0000
  H   H4021     1.0  0.67465  0.83537  0.82846  1.0000
  C   C2264     1.0  0.87757  0.64296  0.80899  1.0000
  H   H4022     1.0  0.69230  0.78099  0.82436  1.0000
  H   H4023     1.0  0.76043  0.55639  0.76754  1.0000
  C   C2265     1.0  0.90170  0.59594  0.95573  1.0000
  H   H4024     1.0  0.91958  0.63181  0.74109  1.0000
  N   N125      1.0  0.71101  0.73964  0.76007  1.0000
  H   H4025     1.0  0.77595  0.68775  0.76000  1.0000
  H   H4026     1.0  0.91034  0.54826  0.82062  1.0000
  C   C2266     1.0  0.73982  0.76846  0.74464  1.0000
  H   H4027     1.0  0.76801  0.66957  0.74740  1.0000
  H   H4028     1.0  0.68422  0.74788  0.87571  1.0000
  H   H4029     1.0  0.73114  0.57001  0.74138  1.0000
  C   C2267     1.0  0.76047  0.68076  0.75635  1.0000
  C   C2268     1.0  0.80166  0.50877  0.77701  1.0000
  H   H4030     1.0  0.68988  0.52214  0.75662  1.0000
  H   H4031     1.0  0.70266  0.77268  0.79917  1.0000
  H   H4032     1.0  0.92773  0.60039  0.74868  1.0000
  H   H4033     1.0  0.92525  0.62297  0.80636  1.0000
  H   H4034     1.0  0.79561  0.72132  0.74758  1.0000
  C   C2269     1.0  0.94930  0.62989  0.93327  1.0000
  H   H4035     1.0  0.82145  0.69799  0.75118  1.0000
  H   H4036     1.0  0.94194  0.61211  0.93492  1.0000
  H   H4037     1.0  0.82428  0.72988  0.75102  1.0000
  H   H4038     1.0  0.98780  0.59225  0.91612  1.0000
  C   C2270     1.0  0.67868  0.69307  0.79688  1.0000
  H   H4039     1.0  0.70618  0.82133  0.82382  1.0000
  H   H4040     1.0  0.74202  0.76421  0.77331  1.0000
  C   C2271     1.0  0.84027  0.53467  0.91103  1.0000
  H   H4041     1.0  0.79286  0.52509  0.85464  1.0000
  H   H4042     1.0  0.72347  0.73079  0.86356  1.0000
  H   H4043     1.0  0.87493  0.59234  0.80475  1.0000
  H   H4044     1.0  0.72625  0.70754  0.77338  1.0000
  C   C2272     1.0  0.68164  0.79180  0.84647  1.0000
  H   H4045     1.0  0.70415  0.83705  0.74589  1.0000
  H   H4046     1.0  0.89414  0.56099  0.79019  1.0000
  C   C2273     1.0  0.70063  0.74870  0.84679  1.0000
  H   H4047     1.0  0.89328  0.65154  0.81113  1.0000
  H   H4048     1.0  0.96627  0.62854  0.92544  1.0000
  C   C2274     1.0  0.68908  0.83185  0.74138  1.0000
  H   H4049     1.0  0.87607  0.50724  0.84922  1.0000
  C   C2275     1.0  0.71174  0.72544  0.85620  1.0000
  C   C2276     1.0  0.80964  0.51696  0.84803  1.0000
  H   H4050     1.0  0.88564  0.60297  0.77461  1.0000
  H   H4051     1.0  0.74266  0.71594  0.83985  1.0000
  H   H4052     1.0  0.68360  0.82298  0.81154  1.0000
  H   H4053     1.0  0.84318  0.55365  0.91212  1.0000
  H   H4054     1.0  0.90734  0.52673  0.80852  1.0000
  S   S510      1.0  0.99626  0.61113  0.88587  1.0000
  H   H4055     1.0  0.70219  0.77187  0.87013  1.0000
  H   H4056     1.0  0.90123  0.59230  0.81341  1.0000
  C   C2277     1.0  0.91285  0.62602  0.76446  1.0000
  C   C2278     1.0  0.86861  0.66277  0.73289  1.0000
  H   H4057     1.0  0.85201  0.66880  0.82110  1.0000
  C   C2279     1.0  0.71769  0.77832  0.79093  1.0000
  C   C2280     1.0  0.71683  0.75537  0.74602  1.0000
  H   H4058     1.0  0.85648  0.67828  0.80195  1.0000
  N   N126      1.0  0.90271  0.61245  0.79193  1.0000
  C   C2281     1.0  0.90406  0.60644  0.77666  1.0000
  C   C2282     1.0  0.89540  0.59116  0.80272  1.0000
  C   C2283     1.0  0.88261  0.63416  0.79377  1.0000
  C   C2284     1.0  0.92650  0.61961  0.79491  1.0000
  C   C2285     1.0  0.94994  0.60059  0.79240  1.0000
  C   C2286     1.0  0.69901  0.55254  0.76664  1.0000
  H   H4059     1.0  0.93700  0.64180  0.95412  1.0000
  H   H4060     1.0  0.81520  0.51454  0.87703  1.0000
  H   H4061     1.0  0.68223  0.66094  0.78577  1.0000
  H   H4062     1.0  0.70114  0.58118  0.78757  1.0000
  H   H4063     1.0  0.99081  0.55167  0.87536  1.0000
  H   H4064     1.0  0.75469  0.51379  0.76904  1.0000
  S   S511      1.0  0.95170  0.51142  0.88211  1.0000
  H   H4065     1.0  0.90673  0.51513  0.95229  1.0000
  H   H4066     1.0  0.88208  0.62237  0.96962  1.0000
  C   C2287     1.0  0.68822  0.83633  0.72641  1.0000
  H   H4067     1.0  0.77124  0.57831  0.72850  1.0000
  H   H4068     1.0  0.97524  0.53054  0.93648  1.0000
  C   C2288     1.0  0.86541  0.50946  0.96965  1.0000
  H   H4069     1.0  0.70147  0.50285  0.77854  1.0000
  H   H4070     1.0  0.69738  0.71572  0.86287  1.0000
  C   C2289     1.0  0.72423  0.54479  0.78669  1.0000
  H   H4071     1.0  0.99008  0.65895  0.95975  1.0000
  H   H4072     1.0  0.72262  0.96194  0.95344  1.0000
  H   H4073     1.0  0.73549  0.58045  0.76496  1.0000
  H   H4074     1.0  0.82826  0.49921  0.89863  1.0000
  H   H4075     1.0  0.76153  0.79085  0.72865  1.0000
  C   C2290     1.0  0.68380  0.76645  0.86961  1.0000
  H   H4076     1.0  0.70587  0.54308  0.74413  1.0000
  C   C2291     1.0  0.73478  0.51806  0.76757  1.0000
  C   C2292     1.0  0.74247  0.56108  0.76302  1.0000
  H   H4077     1.0  0.69727  0.96807  0.73596  1.0000
  H   H4078     1.0  0.98967  0.59743  0.79198  1.0000
  H   H4079     1.0  0.75462  0.54322  0.74312  1.0000
  N   N127      1.0  0.72480  0.54403  0.77069  1.0000
  H   H4080     1.0  0.81860  0.70312  0.72549  1.0000
  C   C2293     1.0  0.84734  0.50196  0.89388  1.0000
  C   C2294     1.0  0.69188  0.54185  0.75368  1.0000
  H   H4081     1.0  0.73441  0.51582  0.75613  1.0000
  H   H4082     1.0  0.99604  0.54643  0.94336  1.0000
  N   N128      1.0  0.98257  0.62183  0.96778  1.0000
  H   H4083     1.0  0.79538  0.74543  0.72284  1.0000
  H   H4084     1.0  0.99483  0.51528  0.89424  1.0000
  H   H4085     1.0  0.94329  0.50269  0.93464  1.0000
  H   H4086     1.0  0.95768  0.60166  0.96007  1.0000
  H   H4087     1.0  0.84111  0.51170  0.79245  1.0000
  C   C2295     1.0  0.72180  0.49757  0.77703  1.0000
  C   C2296     1.0  0.89502  0.60559  0.96901  1.0000
  H   H4088     1.0  0.82001  0.53191  0.84263  1.0000
  H   H4089     1.0  0.82983  0.54523  0.95768  1.0000
  H   H4090     1.0  0.84572  0.71455  0.72871  1.0000
  C   C2297     1.0  0.68617  0.96700  0.96555  1.0000
  S   S512      1.0  0.67418  0.73232  0.81293  1.0000
  C   C2298     1.0  0.67029  0.82124  0.75060  1.0000
  H   H4091     1.0  0.67089  0.81841  0.76212  1.0000
  C   C2299     1.0  0.66955  0.78141  0.89410  1.0000
  C   C2300     1.0  0.70910  0.97717  0.95763  1.0000
  C   C2301     1.0  0.00019  0.64012  0.96216  1.0000
  H   H4092     1.0  0.99843  0.51350  0.94723  1.0000
  H   H4093     1.0  0.66847  0.57496  0.74559  1.0000
  C   C2302     1.0  0.82591  0.49828  0.85739  1.0000
  H   H4094     1.0  0.83907  0.57133  0.96384  1.0000
  C   C2303     1.0  0.86508  0.53783  0.96648  1.0000
  H   H4095     1.0  0.71796  0.98600  0.96502  1.0000
  H   H4096     1.0  0.70414  0.99085  0.94835  1.0000
  C   C2304     1.0  0.83872  0.55120  0.96620  1.0000
