data_image0
_chemical_formula_structural       NC2H3C3HSH4CHCHFeCSCHCH2SFeCH3NCHSH2C2H2CH2C2SH7CHSHC4SH7FeHCHCHCH3SCHSH3C2HC2HC2HCHCHCH2CHCH3C2HCH3CH3CFeCH4CH2CHCH10CHC2H2CHCNH2FeS2FeS2FeSFeS3HCSFeSFeS2FeS2FeSFeS3FeSFeS2FeS2FeSFeS3H3CHFeCHC6H4C2H3SC2H3C6H5C6H4C6H4C6H4C4H2CH3C3HCH2C2H3CHNHNCNC11H15CH2C2H3NC2HC2H13CHSHSCHCHCHC7H9CH4CH2CH2CNCH2C4HCFeC2H3CH9CHCH2CH4S2H5CH2C2H5CH3CH2CHC2H7CH9C2H2C2HCHCH2C3HCHCH2CFeHSHNHCH2CHSHCH6CH3CH14NC3HCHCH5C3HCH5CH5FeH3CHCHCH3FeH8C3HCHCH2CHCH3C3H2NC2NCH5CH2CFeH6CH2C2H5SH4SHC2HCH2SH4CH5C2HCH3CHSHSHFeHSH2FeCSFeHSHCSC3H4CHC2H2C2HC4H3CHCH2CHC2H2NH4SH4CHC2HCH2CHCH2SCH2CHC2SCHC2H2CH4C2SH2NHCHNH7SCFeCHCSHCH6CHSFeSFeS2FeS2FeSFeS3FeS2FeS2FeSFeS3H3CH2C2FeSFeS2FeS2FeSFeS3HCH3CHC4H2C6H4C4HCH3C5H2CHC6H4C6H4C2H2CH2CHSC6H11CHC2HFeH6C2H3C3HCH7NC7H17CH2C2HCFeCH2CH5CH3C2H5NC12H28CH2NCH3CHC2H3CH6CH3CH4CH3NHC2H2CHC2HCSH5C2H3C2HC2HC2HCH2CH2CHNHCH2CH7FeH2CNH2SH5C2H2CHSCHCH2C2H3C3HCH5C2H2CH5CH5CH2C2H2CHCH8CFeCFeH6C4H3CHSH7SCH4C2H2CH2C3H2CHCNHCH4SHC2HCH2CH6CFeC3HSCH2SHCHCHCH3CHCHFeSFeS2FeS2FeSFeS3HS2HFeHFeS2FeS2FeSFeS3HSFeS2FeS2FeS2FeSFeS3CH7CH2C6H4C6H4C5H2CH2CHC4H4C6H4CH2C2HC7H4NC8H13NC12H35CH2CH4CHCH2C2H2CH3CH2C2HCHCNC5HC4H20CH3NC12H26CH4CH2CH2NC2H4CH2CNC4HC2H4C2H8CH2FeHFeCH2NHC4H8C3H3CH2CH6CH3C2HC3SHCH2C2H6SH5CH4CHCH5C3HNHCH3CSC2SCHCHCH3C2H3CH2C2H3CHNCNH3CHCH4CHCHCH3C3HSH2FeH2CHCH5C2H6Fe2CH3CSCSC2HCHCHSC2HCFeHSH2SH5CHNCH2FeHCHC2H8SHCH2C2H2C4H2SH2CSCH2CSH5C2H2CHSH2CHSH2CHCHCH2NCH3FeCH5C2HCHC3H2CH4C2H2C2HC3SH5C2HC2HSCH2NH3C3HCH3FeH3FeS2FeS2FeSFeS3HSFeSFeS2FeS2FeSFeS5FeSFeS2FeS2FeSFeS3C2H2CHC2HC6H4C3H3C2H3C6H5CH2C2HC6H4C6H4C2HC4H6CHC2NC10H21SHCH2CH2CHC6H2CHC3H2CH2CH5C2H2CNCH9CHCHC5SH2CH4C2NHFeC2H2CH3CH7C3H8CHNH8C2NH2NC6HCH2CH26C3HSC2H2C2H4CFeH8CHCSHC2H5CH3SH2CH7C2H4CHC2HC2HSH2C2H3SH15C2HCH3C2H3CH6CHNH2CNH2CHFeCH2C2HCHCH2CH2CH10C4H12CHCH2CHCHC2H5CH3CHCH3CHCH3C2HCHSCH2NHFeHCH3CH4C3SCHC2H3CHCH3CHC2H2FeC2H3CHC2H6SH4C2H4CSHC2SH2SCH3SCH2C2HCH5FeH2CH6CHSH2FeCHCH2FeHCHC2HCH4CHCH2C5HFeH4C3HNH2CHCH3CNH2C2H4CHCSH2CH2CSCH2SHC3H2SHC3H2CHCHFeCH4CHSHC2H6SNHCHCH3CHCHCH2FeCSCHCH2SHCHC2HCH8CHCHC3HCHCH3C2N2CHNFeH2CH5SH2CSCH6SH3CH2CH4FeSHCH2C2SH2CH5C2HCH3CFeH4C2H2CHC2H2CHSCSH2CSC2FeS2FeS2FeSFeS3H2NHSHFeSCFeS2FeS2FeSFeS3FeSFeS2FeS2FeSFeS3CH2CH2C6H11C2H3C6H8CHCHC2H2SC6H4C6H4C5H7NH4SNC12H16CH14CH2CH3C3H5CH7FeHCHCSH10C2SH2CSH5C5HCH2CH6CH3NC5HCH2C2H6CHCH4FeCH2C2SCH3C3H2NCHCH6FeCH3C3HCH7CHCH2C2H3CHCH5CH3CH8CHCHFeC3H2SCHCHSH2C3HC2H4C3H3SHC2H3CHCH3CH4NH3C2H2CH2C2HCHC3SC2H3C2H3FeCH2CH3C3H7C3H2CFeH10C4HCH2CH2SHC2NH2CH4CH6CH2CH2CH2C2H2C2H4Fe2H2CHFeSCSHSH2CHC3SC2HCHSH7C2H3CHCH2CSH3NH5C2H2SHC2FeH2CHNHCHC2H2CHC2H7CHC2HC2HCH5CH5CSCFeCS3FeS2FeS2FeSFeS3CSFeS2FeS2FeSFeS3FeS2FeS2FeSFeS3CHFeHNHCH3C2H3C4H2C6H4C2H8CH3C6H4C6H4CH3C2H3SH2C6H4NHNC12H32C2FeCH7CHCHCHCHC3H2C2H2C2H2CHCH3C2H2CH2CHCH3C2H17CH2CH3SNH2CH10CH2C3H3C2HC6H12CSH7NCHCNHC2HCH2CHC2H2CHCHC3SC2H5FeSH2CHC2H3CH3CHCH4CHC4HCSH3C3H10CHCH4C2H3NH2C2H3C2HNC3HCHNH7CH6CHCH3C2H3CH2CNH4C2HSH2C4H3CFeHCH6CHCHC2H3C3H2SC2H2CH6CH2NCHCH5FeH7SC2SHFeCHCH3C4HC3HCHSHC2H3NCH8FeH3CHC2HSH3CH4C2H3CFeSFeS2FeS2FeSFeS4HFeS2FeS2FeS2FeSFeS3HSH4SFe2S2FeS2FeSFeS3C7HSHC5H3C7H5C2H7C6H4C6H13C7H4C3H9NC12H29CH2C3H2NSH5CHCH5C2H2CH6NSHC2H2CH2NHC2H2C4H7CHCH6SHCHNC8H7C3H4CH5CHSNC2H2C2HCHC2H3CHCH2CH4CH10C2H2NH2CHFeCH4CH2FeH5C2HCHCNC11H24CH3C2H5CHCH4CH2C2H4CHC4HCH3CH11CHCH2CHCH4C5H3CH3C4H2FeH2CHCH2CHCHCH4CH3CHCHSCH11CH2CH5CHCH2C2H2SH3NH2CH3CHCH2CH4CSH4FeSCH2NS2H2SFeSH7CHC4FeCH2C3H2C3H2C7HFeH2CHCHCNH3CHCH3CH2C2FeCSCHC2H2CH5CH2CSCH2CNHSHCH6C5HSH9CH6C2H4C2FeHCH4CHC2H5SHCHC2H2C2H3FeS2FeS2FeSFeS3FeSFeS2FeS2FeSFeS3HSFeSCFeS2FeS2FeSFeS3C2FeHC3H3C6H6CH4C3H3C6H4C6H4C6H4CHC4H2C6H6C3HCH2CH3CH4CH5C2H2SH4SC2H2NC12H19NH6NC12H19CHCH8C4HSCH6CHSCH5CHCH3C2SC2H3C2H5C2H2CH2CHCFeCHCH2SHCH2CFeC2H8NHC2HC7H4CHNCH3CHC2NH10CSH2C3NHCH3CH2C2H8CHCHCNSH7CFeH2CH6CHC2H2CH5CH6CHSH2CH2C2HC2H2CHCH5CH3C2H2CHCH5SCH2CNHCHCH7CH2CHCH4SHNH6CH2CH8CH4CHCH3FeS2H2CFeCSH3SNH4S2CHC2H2CHCH2CHC3HC5H5CH2C2SH4CFeH3CH6CH7C2H3CH2C2HCHC2HCNH9FeHSH2FeHC5HNCH2SH3C4H3CHC3HC2FeHSC2H
_chemical_formula_sum              "N96 C1728 H3072 S384 Fe192"
_cell_length_a       71.7389
_cell_length_b       71.671
_cell_length_c       49.9078
_cell_angle_alpha    85.461
_cell_angle_beta     85.1675
_cell_angle_gamma    87.22

_space_group_name_H-M_alt    "P 1"
_space_group_IT_number       1

loop_
  _space_group_symop_operation_xyz
  'x, y, z'

loop_
  _atom_site_type_symbol
  _atom_site_label
  _atom_site_symmetry_multiplicity
  _atom_site_fract_x
  _atom_site_fract_y
  _atom_site_fract_z
  _atom_site_occupancy
  N   N1        1.0  0.14107  0.19526  0.06554  1.0000
  C   C1        1.0  0.33983  0.06745  0.48799  1.0000
  C   C2        1.0  0.32404  0.14317  0.45216  1.0000
  H   H1        1.0  0.27065  0.00856  0.14834  1.0000
  H   H2        1.0  0.36169  0.17057  0.38946  1.0000
  H   H3        1.0  0.08892  0.18158  0.12812  1.0000
  C   C3        1.0  0.35713  0.18397  0.39838  1.0000
  C   C4        1.0  0.02559  0.21516  0.03198  1.0000
  C   C5        1.0  0.11829  0.06898  0.02088  1.0000
  H   H4        1.0  0.08170  0.21870  0.05465  1.0000
  S   S1        1.0  0.39772  0.20621  0.48642  1.0000
  H   H5        1.0  0.16970  0.14838  0.01135  1.0000
  H   H6        1.0  0.10412  0.09633  0.01717  1.0000
  H   H7        1.0  0.25361  0.05512  0.48037  1.0000
  H   H8        1.0  0.17254  0.08198  0.01626  1.0000
  C   C6        1.0  0.38907  0.22700  0.50099  1.0000
  H   H9        1.0  0.16949  0.18979  0.07666  1.0000
  C   C7        1.0  0.16792  0.20182  0.12900  1.0000
  H   H10       1.0  0.00773  0.24011  0.03146  1.0000
  Fe  Fe1       1.0  0.09919  0.13902  0.03490  1.0000
  C   C8        1.0  0.33046  0.16161  0.43767  1.0000
  S   S2        1.0  0.12189  0.11951  0.05277  1.0000
  C   C9        1.0  0.48304  0.15553  0.48983  1.0000
  H   H11       1.0  0.16520  0.24382  0.02673  1.0000
  C   C10       1.0  0.14105  0.23103  0.04922  1.0000
  H   H12       1.0  0.33308  0.09528  0.47052  1.0000
  H   H13       1.0  0.13815  0.16509  0.06751  1.0000
  S   S3        1.0  0.08500  0.16412  0.05433  1.0000
  Fe  Fe2       1.0  0.09105  0.18063  0.01460  1.0000
  C   C11       1.0  0.01435  0.13423  0.02885  1.0000
  H   H14       1.0  0.34211  0.18604  0.39435  1.0000
  H   H15       1.0  0.16867  0.02483  0.49108  1.0000
  H   H16       1.0  0.02798  0.12705  0.02769  1.0000
  N   N2        1.0  0.35909  0.18250  0.42835  1.0000
  C   C12       1.0  0.35280  0.05606  0.50192  1.0000
  H   H17       1.0  0.16952  0.21379  0.14135  1.0000
  S   S4        1.0  0.19027  0.01823  0.03008  1.0000
  H   H18       1.0  0.19948  0.00838  0.48574  1.0000
  H   H19       1.0  0.36900  0.18730  0.34347  1.0000
  C   C13       1.0  0.33574  0.21621  0.48095  1.0000
  C   C14       1.0  0.15520  0.19229  0.08641  1.0000
  H   H20       1.0  0.15818  0.18096  0.01417  1.0000
  H   H21       1.0  0.15239  0.17922  0.09946  1.0000
  C   C15       1.0  0.09629  0.23083  0.01846  1.0000
  H   H22       1.0  0.09474  0.20577  0.12103  1.0000
  H   H23       1.0  0.12062  0.21367  0.08640  1.0000
  C   C16       1.0  0.34281  0.08674  0.48217  1.0000
  C   C17       1.0  0.08676  0.23144  0.04406  1.0000
  S   S5        1.0  0.36247  0.11902  0.48133  1.0000
  H   H24       1.0  0.32178  0.21829  0.47285  1.0000
  H   H25       1.0  0.16486  0.21981  0.09340  1.0000
  H   H26       1.0  0.30894  0.14164  0.44984  1.0000
  H   H27       1.0  0.35429  0.16179  0.46201  1.0000
  H   H28       1.0  0.08451  0.19346  0.09598  1.0000
  H   H29       1.0  0.35943  0.19700  0.48029  1.0000
  H   H30       1.0  0.14047  0.20809  0.02482  1.0000
  C   C18       1.0  0.15752  0.15153  0.02575  1.0000
  H   H31       1.0  0.22958  0.03077  0.48432  1.0000
  S   S6        1.0  0.13524  0.03372  0.02556  1.0000
  H   H32       1.0  0.41624  0.18630  0.40862  1.0000
  C   C19       1.0  0.11509  0.08792  0.02649  1.0000
  C   C20       1.0  0.12581  0.09580  0.04452  1.0000
  C   C21       1.0  0.14000  0.08457  0.05640  1.0000
  C   C22       1.0  0.14327  0.06562  0.05067  1.0000
  S   S7        1.0  0.40677  0.15141  0.49025  1.0000
  H   H33       1.0  0.32795  0.06124  0.48073  1.0000
  H   H34       1.0  0.14835  0.09047  0.07042  1.0000
  H   H35       1.0  0.15401  0.05709  0.06032  1.0000
  H   H36       1.0  0.05076  0.24340  0.02142  1.0000
  H   H37       1.0  0.00110  0.11334  0.00904  1.0000
  H   H38       1.0  0.36282  0.21389  0.38925  1.0000
  H   H39       1.0  0.39122  0.15439  0.43278  1.0000
  Fe  Fe3       1.0  0.05919  0.15585  0.03597  1.0000
  H   H40       1.0  0.32163  0.17308  0.44646  1.0000
  C   C23       1.0  0.02245  0.23616  0.03536  1.0000
  H   H41       1.0  0.11287  0.17157  0.09374  1.0000
  C   C24       1.0  0.01176  0.15091  0.04174  1.0000
  H   H42       1.0  0.12302  0.18451  0.11797  1.0000
  C   C25       1.0  0.35157  0.16413  0.44036  1.0000
  H   H43       1.0  0.12567  0.23327  0.04933  1.0000
  H   H44       1.0  0.14508  0.23505  0.06873  1.0000
  H   H45       1.0  0.19265  0.06156  0.04515  1.0000
  S   S8        1.0  0.07273  0.12943  0.02027  1.0000
  C   C26       1.0  0.18087  0.07030  0.00728  1.0000
  H   H46       1.0  0.14315  0.21413  0.11281  1.0000
  S   S9        1.0  0.03029  0.16025  0.05666  1.0000
  H   H47       1.0  0.35557  0.21219  0.43356  1.0000
  H   H48       1.0  0.32606  0.14285  0.47404  1.0000
  H   H49       1.0  0.33729  0.18635  0.47985  1.0000
  C   C27       1.0  0.34577  0.19831  0.47146  1.0000
  C   C28       1.0  0.37929  0.18309  0.43442  1.0000
  H   H50       1.0  0.33426  0.20101  0.43255  1.0000
  C   C29       1.0  0.41334  0.17360  0.42230  1.0000
  C   C30       1.0  0.14968  0.24466  0.02704  1.0000
  H   H51       1.0  0.41631  0.17654  0.44301  1.0000
  C   C31       1.0  0.12161  0.19977  0.07798  1.0000
  C   C32       1.0  0.39301  0.16828  0.42149  1.0000
  H   H52       1.0  0.12805  0.17752  0.03974  1.0000
  C   C33       1.0  0.36757  0.20012  0.38186  1.0000
  H   H53       1.0  0.11157  0.20092  0.06201  1.0000
  C   C34       1.0  0.13238  0.05769  0.03289  1.0000
  H   H54       1.0  0.32772  0.16135  0.41615  1.0000
  C   C35       1.0  0.35849  0.09497  0.49078  1.0000
  H   H55       1.0  0.38052  0.18070  0.45647  1.0000
  H   H56       1.0  0.41004  0.24399  0.47889  1.0000
  C   C36       1.0  0.15693  0.20842  0.10480  1.0000
  H   H57       1.0  0.18210  0.19621  0.12220  1.0000
  C   C37       1.0  0.11391  0.18568  0.10098  1.0000
  H   H58       1.0  0.16226  0.20948  0.03898  1.0000
  H   H59       1.0  0.35929  0.15220  0.43074  1.0000
  H   H60       1.0  0.39079  0.16671  0.40013  1.0000
  C   C38       1.0  0.09434  0.19208  0.11215  1.0000
  C   C39       1.0  0.19765  0.06629  0.02414  1.0000
  H   H61       1.0  0.02450  0.23826  0.05669  1.0000
  C   C40       1.0  0.15782  0.17178  0.03320  1.0000
  H   H62       1.0  0.14454  0.14920  0.01613  1.0000
  H   H63       1.0  0.48375  0.16124  0.46908  1.0000
  H   H64       1.0  0.34882  0.20310  0.34938  1.0000
  C   C41       1.0  0.14033  0.17709  0.05215  1.0000
  H   H65       1.0  0.38470  0.19733  0.42900  1.0000
  H   H66       1.0  0.38293  0.19836  0.38315  1.0000
  H   H67       1.0  0.04014  0.21041  0.03607  1.0000
  C   C42       1.0  0.36399  0.20067  0.35204  1.0000
  Fe  Fe4       1.0  0.15995  0.01224  0.02745  1.0000
  C   C43       1.0  0.14682  0.21038  0.04390  1.0000
  H   H68       1.0  0.25295  0.02123  0.48672  1.0000
  H   H69       1.0  0.37166  0.21227  0.34067  1.0000
  H   H70       1.0  0.20717  0.05513  0.01574  1.0000
  H   H71       1.0  0.17107  0.17319  0.04257  1.0000
  C   C44       1.0  0.24134  0.02926  0.49738  1.0000
  H   H72       1.0  0.16038  0.19078  0.14191  1.0000
  H   H73       1.0  0.33206  0.13110  0.44349  1.0000
  C   C45       1.0  0.39781  0.24394  0.49315  1.0000
  H   H74       1.0  0.20560  0.07916  0.02466  1.0000
  C   C46       1.0  0.34839  0.19899  0.44024  1.0000
  H   H75       1.0  0.34425  0.22856  0.47441  1.0000
  H   H76       1.0  0.42296  0.16194  0.41569  1.0000
  H   H77       1.0  0.45307  0.15230  0.49247  1.0000
  H   H78       1.0  0.21250  0.00086  0.17843  1.0000
  H   H79       1.0  0.01581  0.20710  0.04645  1.0000
  H   H80       1.0  0.15826  0.14166  0.04400  1.0000
  H   H81       1.0  0.20330  0.00247  0.13131  1.0000
  H   H82       1.0  0.17244  0.05761  0.00920  1.0000
  H   H83       1.0  0.10967  0.06300  0.00727  1.0000
  H   H84       1.0  0.02301  0.21189  0.01125  1.0000
  C   C47       1.0  0.99914  0.12651  0.01831  1.0000
  H   H85       1.0  0.22894  0.99910  0.48271  1.0000
  C   C48       1.0  0.10264  0.24756  0.00493  1.0000
  C   C49       1.0  0.24816  0.04880  0.50037  1.0000
  H   H86       1.0  0.20072  0.03023  0.50133  1.0000
  H   H87       1.0  0.33376  0.21519  0.50333  1.0000
  C   C50       1.0  0.03632  0.24769  0.01592  1.0000
  H   H88       1.0  0.14542  0.24151  0.00703  1.0000
  C   C51       1.0  0.46565  0.15052  0.50307  1.0000
  N   N3        1.0  0.33224  0.19787  0.80718  1.0000
  H   H89       1.0  0.33872  0.01954  0.59154  1.0000
  H   H90       1.0  0.16966  0.20183  0.71204  1.0000
  Fe  Fe5       1.0  0.23296  0.06326  0.79240  1.0000
  S   S10       1.0  0.22935  0.09485  0.78525  1.0000
  S   S11       1.0  0.21669  0.04809  0.82997  1.0000
  Fe  Fe6       1.0  0.25037  0.05969  0.73242  1.0000
  S   S12       1.0  0.24667  0.09069  0.72286  1.0000
  S   S13       1.0  0.26721  0.04120  0.70169  1.0000
  Fe  Fe7       1.0  0.25827  0.09392  0.76280  1.0000
  S   S14       1.0  0.27931  0.11761  0.75805  1.0000
  Fe  Fe8       1.0  0.21832  0.08921  0.74602  1.0000
  S   S15       1.0  0.19175  0.10260  0.72848  1.0000
  S   S16       1.0  0.26276  0.06273  0.77228  1.0000
  S   S17       1.0  0.22116  0.05776  0.75309  1.0000
  H   H91       1.0  0.22833  0.02928  0.53834  1.0000
  C   C52       1.0  0.15969  0.19237  0.70456  1.0000
  S   S18       1.0  0.27049  0.02119  0.57730  1.0000
  Fe  Fe9       1.0  0.37662  0.15479  0.55735  1.0000
  S   S19       1.0  0.35907  0.15774  0.59610  1.0000
  Fe  Fe10      1.0  0.42193  0.16833  0.77493  1.0000
  S   S20       1.0  0.41960  0.18417  0.73471  1.0000
  S   S21       1.0  0.44797  0.17337  0.79609  1.0000
  Fe  Fe11      1.0  0.38206  0.15278  0.77528  1.0000
  S   S22       1.0  0.37731  0.16780  0.73536  1.0000
  S   S23       1.0  0.35982  0.13341  0.79627  1.0000
  Fe  Fe12      1.0  0.40690  0.15832  0.72352  1.0000
  S   S24       1.0  0.41668  0.14589  0.68477  1.0000
  Fe  Fe13      1.0  0.39049  0.19239  0.75051  1.0000
  S   S25       1.0  0.37831  0.22155  0.74006  1.0000
  S   S26       1.0  0.41120  0.14158  0.76251  1.0000
  S   S27       1.0  0.39317  0.17821  0.79184  1.0000
  Fe  Fe14      1.0  0.08057  0.14813  0.98334  1.0000
  S   S28       1.0  0.08240  0.13712  0.94245  1.0000
  Fe  Fe15      1.0  0.05092  0.15956  0.77351  1.0000
  S   S29       1.0  0.04675  0.19011  0.77961  1.0000
  S   S30       1.0  0.02603  0.14107  0.77367  1.0000
  Fe  Fe16      1.0  0.09365  0.15918  0.78044  1.0000
  S   S31       1.0  0.09205  0.18993  0.78751  1.0000
  S   S32       1.0  0.12198  0.14483  0.78978  1.0000
  Fe  Fe17      1.0  0.06557  0.18419  0.81289  1.0000
  S   S33       1.0  0.05789  0.19704  0.85200  1.0000
  Fe  Fe18      1.0  0.07352  0.19335  0.75345  1.0000
  S   S34       1.0  0.07475  0.21829  0.72295  1.0000
  S   S35       1.0  0.06817  0.15330  0.80893  1.0000
  S   S36       1.0  0.07661  0.16295  0.74409  1.0000
  H   H92       1.0  0.34062  0.20756  0.62689  1.0000
  H   H93       1.0  0.42981  0.20466  0.55736  1.0000
  H   H94       1.0  0.00142  0.24382  0.76083  1.0000
  C   C53       1.0  0.13852  0.23088  0.70509  1.0000
  H   H95       1.0  0.01285  0.17716  0.74897  1.0000
  Fe  Fe19      1.0  0.19493  0.00343  0.99142  1.0000
  C   C54       1.0  0.16176  0.09823  0.96973  1.0000
  H   H96       1.0  0.10190  0.22493  0.76064  1.0000
  C   C55       1.0  0.07674  0.15480  0.91799  1.0000
  C   C56       1.0  0.08468  0.15397  0.89156  1.0000
  C   C57       1.0  0.07943  0.16746  0.87146  1.0000
  C   C58       1.0  0.06583  0.18143  0.87762  1.0000
  C   C59       1.0  0.05804  0.18244  0.90412  1.0000
  C   C60       1.0  0.06361  0.16917  0.92435  1.0000
  H   H97       1.0  0.09490  0.14291  0.88660  1.0000
  H   H98       1.0  0.08596  0.16702  0.85122  1.0000
  H   H99       1.0  0.04748  0.19322  0.90888  1.0000
  H   H100      1.0  0.05710  0.16959  0.94456  1.0000
  C   C61       1.0  0.47119  0.16614  0.78478  1.0000
  C   C62       1.0  0.47503  0.14974  0.77147  1.0000
  H   H101      1.0  0.34477  0.13532  0.65058  1.0000
  H   H102      1.0  0.46361  0.14145  0.76710  1.0000
  H   H103      1.0  0.48344  0.18919  0.80115  1.0000
  S   S37       1.0  0.06464  0.17367  0.99741  1.0000
  C   C63       1.0  0.39764  0.23649  0.77835  1.0000
  C   C64       1.0  0.34416  0.20827  0.60474  1.0000
  H   H104      1.0  0.20089  0.01431  0.54611  1.0000
  H   H105      1.0  0.40202  0.22225  0.78452  1.0000
  H   H106      1.0  0.32194  0.07482  0.68667  1.0000
  C   C65       1.0  0.37473  0.15438  0.62112  1.0000
  C   C66       1.0  0.39038  0.14220  0.61755  1.0000
  C   C67       1.0  0.40301  0.13939  0.63748  1.0000
  C   C68       1.0  0.40032  0.14921  0.66064  1.0000
  C   C69       1.0  0.38484  0.16169  0.66397  1.0000
  C   C70       1.0  0.37185  0.16406  0.64443  1.0000
  H   H107      1.0  0.39272  0.13470  0.59960  1.0000
  H   H108      1.0  0.41501  0.12978  0.63475  1.0000
  H   H109      1.0  0.38312  0.16993  0.68114  1.0000
  H   H110      1.0  0.35994  0.17376  0.64702  1.0000
  H   H111      1.0  0.32370  0.12389  0.64739  1.0000
  C   C71       1.0  0.26745  0.03531  0.66725  1.0000
  C   C72       1.0  0.28284  0.02469  0.65604  1.0000
  C   C73       1.0  0.28396  0.02000  0.62886  1.0000
  C   C74       1.0  0.26962  0.02581  0.61229  1.0000
  C   C75       1.0  0.25412  0.03625  0.62356  1.0000
  C   C76       1.0  0.25302  0.04095  0.65072  1.0000
  H   H112      1.0  0.29594  0.01187  0.62078  1.0000
  H   H113      1.0  0.11292  0.15084  0.67099  1.0000
  H   H114      1.0  0.24289  0.04086  0.61113  1.0000
  H   H115      1.0  0.24103  0.04902  0.65887  1.0000
  C   C77       1.0  0.30216  0.12085  0.76813  1.0000
  C   C78       1.0  0.31037  0.10909  0.78800  1.0000
  C   C79       1.0  0.32819  0.11285  0.79597  1.0000
  C   C80       1.0  0.33823  0.12812  0.78381  1.0000
  C   C81       1.0  0.33031  0.13946  0.76328  1.0000
  C   C82       1.0  0.31227  0.13609  0.75591  1.0000
  H   H116      1.0  0.30282  0.09734  0.79767  1.0000
  H   H117      1.0  0.33414  0.10397  0.81191  1.0000
  H   H118      1.0  0.33799  0.15102  0.75347  1.0000
  H   H119      1.0  0.30609  0.14532  0.74057  1.0000
  C   C83       1.0  0.14127  0.13367  0.77159  1.0000
  C   C84       1.0  0.13966  0.12601  0.74703  1.0000
  C   C85       1.0  0.15531  0.11683  0.73389  1.0000
  C   C86       1.0  0.17267  0.11495  0.74531  1.0000
  C   C87       1.0  0.17435  0.12294  0.76960  1.0000
  C   C88       1.0  0.15872  0.13210  0.78273  1.0000
  H   H120      1.0  0.12627  0.12679  0.73849  1.0000
  H   H121      1.0  0.15387  0.11082  0.71499  1.0000
  H   H122      1.0  0.18767  0.12188  0.77841  1.0000
  H   H123      1.0  0.16016  0.13802  0.80170  1.0000
  C   C89       1.0  0.11838  0.15308  0.69061  1.0000
  C   C90       1.0  0.19940  0.02329  0.90462  1.0000
  C   C91       1.0  0.20041  0.03045  0.87725  1.0000
  C   C92       1.0  0.21655  0.03902  0.86476  1.0000
  H   H124      1.0  0.17041  0.08734  0.91590  1.0000
  H   H125      1.0  0.17149  0.05016  0.92548  1.0000
  C   C93       1.0  0.00488  0.18095  0.95350  1.0000
  H   H126      1.0  0.18860  0.02921  0.86558  1.0000
  H   H127      1.0  0.21695  0.09825  0.90917  1.0000
  H   H128      1.0  0.06280  0.12651  0.85838  1.0000
  C   C94       1.0  0.33982  0.20119  0.77814  1.0000
  C   C95       1.0  0.15830  0.06637  0.95786  1.0000
  C   C96       1.0  0.32647  0.19664  0.75680  1.0000
  H   H129      1.0  0.24436  0.04660  0.87128  1.0000
  C   C97       1.0  0.33294  0.20503  0.72863  1.0000
  H   H130      1.0  0.35305  0.19265  0.77439  1.0000
  H   H131      1.0  0.34391  0.21587  0.77348  1.0000
  C   C98       1.0  0.48924  0.17451  0.59573  1.0000
  C   C99       1.0  0.43139  0.22002  0.55371  1.0000
  H   H132      1.0  0.36139  0.02774  0.57918  1.0000
  H   H133      1.0  0.32620  0.18128  0.75570  1.0000
  H   H134      1.0  0.31192  0.20186  0.76197  1.0000
  C   C100      1.0  0.48631  0.17405  0.62697  1.0000
  H   H135      1.0  0.31219  0.23037  0.77879  1.0000
  N   N4        1.0  0.47467  0.15869  0.64151  1.0000
  H   H136      1.0  0.34716  0.19932  0.72228  1.0000
  N   N5        1.0  0.22545  0.00116  0.52616  1.0000
  C   C101      1.0  0.15618  0.01521  0.83587  1.0000
  N   N6        1.0  0.30951  0.07148  0.58474  1.0000
  C   C102      1.0  0.30358  0.06731  0.55758  1.0000
  C   C103      1.0  0.32075  0.05472  0.59593  1.0000
  C   C104      1.0  0.29201  0.07375  0.60354  1.0000
  C   C105      1.0  0.32034  0.08918  0.58372  1.0000
  C   C106      1.0  0.33211  0.09487  0.55707  1.0000
  C   C107      1.0  0.28875  0.08134  0.54561  1.0000
  C   C108      1.0  0.29521  0.07579  0.63360  1.0000
  C   C109      1.0  0.33928  0.04946  0.57953  1.0000
  C   C110      1.0  0.34827  0.03128  0.59157  1.0000
  C   C111      1.0  0.04842  0.09695  0.97383  1.0000
  C   C112      1.0  0.27803  0.08465  0.64875  1.0000
  H   H137      1.0  0.29757  0.05315  0.55883  1.0000
  H   H138      1.0  0.31579  0.06635  0.54249  1.0000
  H   H139      1.0  0.32476  0.05687  0.61647  1.0000
  H   H140      1.0  0.31198  0.04216  0.59823  1.0000
  H   H141      1.0  0.28291  0.06166  0.60300  1.0000
  H   H142      1.0  0.28342  0.08628  0.59664  1.0000
  H   H143      1.0  0.31072  0.10153  0.58765  1.0000
  H   H144      1.0  0.32992  0.08824  0.60023  1.0000
  H   H145      1.0  0.32293  0.09906  0.54063  1.0000
  H   H146      1.0  0.34166  0.08331  0.55027  1.0000
  H   H147      1.0  0.27457  0.07765  0.55464  1.0000
  H   H148      1.0  0.30718  0.08462  0.63560  1.0000
  H   H149      1.0  0.29814  0.06175  0.64387  1.0000
  H   H150      1.0  0.33699  0.04724  0.55840  1.0000
  H   H151      1.0  0.34949  0.06055  0.57988  1.0000
  C   C113      1.0  0.01488  0.17385  0.83788  1.0000
  H   H152      1.0  0.35174  0.03282  0.61254  1.0000
  H   H153      1.0  0.25959  0.04799  0.51417  1.0000
  C   C114      1.0  0.40103  0.22676  0.58178  1.0000
  C   C115      1.0  0.37321  0.22712  0.51929  1.0000
  H   H154      1.0  0.28005  0.08401  0.67064  1.0000
  H   H155      1.0  0.27585  0.09955  0.64133  1.0000
  H   H156      1.0  0.26528  0.07704  0.64617  1.0000
  N   N7        1.0  0.14049  0.19507  0.71913  1.0000
  C   C116      1.0  0.12873  0.17813  0.71932  1.0000
  C   C117      1.0  0.14197  0.19975  0.74783  1.0000
  H   H157      1.0  0.23128  0.01181  0.57814  1.0000
  C   C118      1.0  0.15280  0.18532  0.76600  1.0000
  C   C119      1.0  0.15009  0.18982  0.79554  1.0000
  H   H158      1.0  0.11549  0.18004  0.73240  1.0000
  H   H159      1.0  0.13568  0.16544  0.72877  1.0000
  H   H160      1.0  0.14936  0.21294  0.74844  1.0000
  H   H161      1.0  0.12770  0.20225  0.75784  1.0000
  H   H162      1.0  0.16824  0.16549  0.72679  1.0000
  H   H163      1.0  0.46179  0.16894  0.72368  1.0000
  H   H164      1.0  0.14807  0.17105  0.76500  1.0000
  H   H165      1.0  0.16803  0.18553  0.75976  1.0000
  H   H166      1.0  0.15837  0.17944  0.80792  1.0000
  H   H167      1.0  0.15485  0.20405  0.79801  1.0000
  H   H168      1.0  0.13512  0.18889  0.80311  1.0000
  H   H169      1.0  0.13115  0.14388  0.69286  1.0000
  H   H170      1.0  0.10756  0.14906  0.70698  1.0000
  C   C120      1.0  0.14819  0.10926  0.95083  1.0000
  H   H171      1.0  0.41119  0.19099  0.67194  1.0000
  S   S38       1.0  0.29580  0.02321  0.50535  1.0000
  H   H172      1.0  0.36321  0.08166  0.61463  1.0000
  S   S39       1.0  0.10756  0.15646  0.99697  1.0000
  C   C121      1.0  0.13787  0.12535  0.96491  1.0000
  H   H173      1.0  0.29107  0.09593  0.55008  1.0000
  C   C122      1.0  0.19835  0.07501  0.91937  1.0000
  H   H174      1.0  0.30220  0.08624  0.50505  1.0000
  C   C123      1.0  0.30663  0.07729  0.72500  1.0000
  H   H175      1.0  0.36452  0.12666  0.68522  1.0000
  C   C124      1.0  0.01379  0.15128  0.92997  1.0000
  C   C125      1.0  0.49011  0.12748  0.62441  1.0000
  C   C126      1.0  0.45828  0.15443  0.62635  1.0000
  C   C127      1.0  0.46690  0.16526  0.66845  1.0000
  C   C128      1.0  0.44388  0.17102  0.62168  1.0000
  C   C129      1.0  0.16870  0.17213  0.70600  1.0000
  C   C130      1.0  0.43323  0.16889  0.59698  1.0000
  H   H176      1.0  0.30630  0.14690  0.86247  1.0000
  H   H177      1.0  0.45045  0.14268  0.63734  1.0000
  H   H178      1.0  0.12797  0.13277  0.95130  1.0000
  H   H179      1.0  0.30724  0.17106  0.66846  1.0000
  H   H180      1.0  0.45718  0.15486  0.67904  1.0000
  H   H181      1.0  0.45824  0.17847  0.66569  1.0000
  H   H182      1.0  0.43361  0.17153  0.63957  1.0000
  H   H183      1.0  0.45059  0.18471  0.61872  1.0000
  H   H184      1.0  0.46311  0.14917  0.60646  1.0000
  C   C131      1.0  0.12303  0.17360  0.69124  1.0000
  H   H185      1.0  0.44256  0.17119  0.57821  1.0000
  H   H186      1.0  0.42772  0.15467  0.59750  1.0000
  H   H187      1.0  0.42131  0.17929  0.59641  1.0000
  H   H188      1.0  0.29405  0.02007  0.66852  1.0000
  C   C132      1.0  0.38642  0.24003  0.75677  1.0000
  H   H189      1.0  0.36184  0.22380  0.80277  1.0000
  H   H190      1.0  0.16123  0.16303  0.69386  1.0000
  C   C133      1.0  0.31523  0.23083  0.80014  1.0000
  H   H191      1.0  0.42520  0.21072  0.66105  1.0000
  H   H192      1.0  0.48053  0.13420  0.56371  1.0000
  C   C134      1.0  0.48625  0.17659  0.79065  1.0000
  N   N8        1.0  0.01560  0.13021  0.93063  1.0000
  C   C135      1.0  0.02240  0.12466  0.90278  1.0000
  H   H193      1.0  0.18682  0.01693  0.91363  1.0000
  H   H194      1.0  0.24973  0.01607  0.53416  1.0000
  C   C136      1.0  0.02923  0.12333  0.95104  1.0000
  C   C137      1.0  0.03490  0.10213  0.95207  1.0000
  C   C138      1.0  0.04249  0.13023  0.89235  1.0000
  C   C139      1.0  0.08452  0.22079  0.91214  1.0000
  H   H195      1.0  0.22034  0.08555  0.94138  1.0000
  C   C140      1.0  0.34823  0.09750  0.66145  1.0000
  Fe  Fe20      1.0  0.39258  0.17727  0.50726  1.0000
  C   C141      1.0  0.04820  0.12272  0.86491  1.0000
  C   C142      1.0  0.23604  0.01902  0.52538  1.0000
  H   H196      1.0  0.38987  0.23759  0.64797  1.0000
  H   H197      1.0  0.48339  0.18010  0.72701  1.0000
  H   H198      1.0  0.37982  0.23226  0.83954  1.0000
  C   C143      1.0  0.20460  0.00537  0.52903  1.0000
  H   H199      1.0  0.28605  0.23744  0.81338  1.0000
  H   H200      1.0  0.02773  0.15732  0.92515  1.0000
  H   H201      1.0  0.04220  0.13142  0.94806  1.0000
  H   H202      1.0  0.02331  0.12603  0.97167  1.0000
  H   H203      1.0  0.04197  0.09817  0.93259  1.0000
  H   H204      1.0  0.05220  0.08173  0.97441  1.0000
  H   H205      1.0  0.04329  0.14568  0.88976  1.0000
  H   H206      1.0  0.05299  0.12459  0.90624  1.0000
  H   H207      1.0  0.47684  0.12131  0.62020  1.0000
  C   C144      1.0  0.00361  0.15021  0.76548  1.0000
  H   H208      1.0  0.36200  0.24141  0.59236  1.0000
  C   C145      1.0  0.21708  0.08422  0.92033  1.0000
  H   H209      1.0  0.37618  0.10929  0.65271  1.0000
  H   H210      1.0  0.37340  0.12361  0.74124  1.0000
  C   C146      1.0  0.13241  0.09653  0.82441  1.0000
  H   H211      1.0  0.12967  0.11995  0.98358  1.0000
  H   H212      1.0  0.04190  0.10024  0.99400  1.0000
  H   H213      1.0  0.14285  0.03154  0.96679  1.0000
  H   H214      1.0  0.04765  0.10721  0.86614  1.0000
  S   S40       1.0  0.38997  0.12753  0.54523  1.0000
  S   S41       1.0  0.40258  0.17094  0.54827  1.0000
  H   H215      1.0  0.19502  0.15726  0.69558  1.0000
  H   H216      1.0  0.35323  0.09767  0.73208  1.0000
  H   H217      1.0  0.16878  0.00284  0.51127  1.0000
  H   H218      1.0  0.14049  0.06177  0.78404  1.0000
  H   H219      1.0  0.19452  0.10256  0.86806  1.0000
  C   C147      1.0  0.16406  0.06033  0.73931  1.0000
  H   H220      1.0  0.30989  0.13912  0.69068  1.0000
  H   H221      1.0  0.34261  0.19724  0.84686  1.0000
  C   C148      1.0  0.37374  0.08765  0.62620  1.0000
  C   C149      1.0  0.48172  0.16890  0.68820  1.0000
  H   H222      1.0  0.18565  0.10177  0.92993  1.0000
  H   H223      1.0  0.31465  0.17556  0.79882  1.0000
  H   H224      1.0  0.32610  0.16558  0.64372  1.0000
  H   H225      1.0  0.03890  0.12892  0.84953  1.0000
  H   H226      1.0  0.19040  0.11179  0.83437  1.0000
  C   C150      1.0  0.31447  0.15960  0.65736  1.0000
  H   H227      1.0  0.33134  0.15129  0.68992  1.0000
  H   H228      1.0  0.19758  0.08654  0.97681  1.0000
  H   H229      1.0  0.30429  0.15373  0.64504  1.0000
  C   C151      1.0  0.31156  0.15133  0.84148  1.0000
  H   H230      1.0  0.30787  0.08346  0.74445  1.0000
  H   H231      1.0  0.17628  0.05530  0.72624  1.0000
  C   C152      1.0  0.08316  0.23899  0.73349  1.0000
  H   H232      1.0  0.40382  0.21377  0.68265  1.0000
  C   C153      1.0  0.31977  0.17068  0.84058  1.0000
  C   C154      1.0  0.21461  0.02446  0.92021  1.0000
  H   H233      1.0  0.20607  0.09148  0.83968  1.0000
  H   H234      1.0  0.17062  0.01149  0.82752  1.0000
  H   H235      1.0  0.37312  0.20025  0.60848  1.0000
  H   H236      1.0  0.12876  0.09863  0.80318  1.0000
  H   H237      1.0  0.15057  0.08386  0.77799  1.0000
  H   H238      1.0  0.15949  0.07446  0.73086  1.0000
  H   H239      1.0  0.33493  0.12365  0.56745  1.0000
  C   C155      1.0  0.18917  0.17193  0.69476  1.0000
  H   H240      1.0  0.15936  0.19674  0.68267  1.0000
  H   H241      1.0  0.13431  0.17670  0.67512  1.0000
  H   H242      1.0  0.19041  0.17780  0.67344  1.0000
  H   H243      1.0  0.29977  0.15146  0.82838  1.0000
  H   H244      1.0  0.14791  0.13555  0.97013  1.0000
  H   H245      1.0  0.11792  0.10069  0.86391  1.0000
  H   H246      1.0  0.18606  0.07581  0.80914  1.0000
  H   H247      1.0  0.18016  0.07257  0.85943  1.0000
  H   H248      1.0  0.15255  0.05056  0.73899  1.0000
  C   C156      1.0  0.19286  0.09871  0.84732  1.0000
  C   C157      1.0  0.34387  0.11162  0.56040  1.0000
  H   H249      1.0  0.36295  0.23321  0.62681  1.0000
  H   H250      1.0  0.01512  0.16582  0.81968  1.0000
  C   C158      1.0  0.15338  0.06928  0.78656  1.0000
  C   C159      1.0  0.17649  0.08579  0.84760  1.0000
  H   H251      1.0  0.14330  0.10645  0.82735  1.0000
  C   C160      1.0  0.32198  0.14443  0.67743  1.0000
  H   H252      1.0  0.35116  0.11617  0.54065  1.0000
  C   C161      1.0  0.16973  0.06120  0.76800  1.0000
  H   H253      1.0  0.18185  0.07031  0.76691  1.0000
  H   H254      1.0  0.11046  0.11670  0.83687  1.0000
  C   C162      1.0  0.17269  0.08183  0.81852  1.0000
  C   C163      1.0  0.11494  0.10192  0.84234  1.0000
  C   C164      1.0  0.23178  0.04015  0.88033  1.0000
  H   H255      1.0  0.09156  0.22080  0.93114  1.0000
  C   C165      1.0  0.33281  0.12852  0.66244  1.0000
  H   H256      1.0  0.19756  0.18015  0.70698  1.0000
  C   C166      1.0  0.00101  0.16832  0.75335  1.0000
  H   H257      1.0  0.33812  0.16812  0.80422  1.0000
  H   H258      1.0  0.30293  0.24521  0.83473  1.0000
  C   C167      1.0  0.13005  0.21135  0.70503  1.0000
  Fe  Fe21      1.0  0.38012  0.13673  0.50466  1.0000
  H   H259      1.0  0.10323  0.09288  0.83947  1.0000
  S   S42       1.0  0.21418  0.01597  0.95524  1.0000
  H   H260      1.0  0.16414  0.09272  0.85813  1.0000
  N   N9        1.0  0.15682  0.06920  0.81597  1.0000
  H   H261      1.0  0.30232  0.20453  0.81013  1.0000
  C   C168      1.0  0.13902  0.07587  0.83130  1.0000
  H   H262      1.0  0.17039  0.09545  0.80697  1.0000
  H   H263      1.0  0.12898  0.20887  0.68350  1.0000
  C   C169      1.0  0.17455  0.01704  0.50882  1.0000
  H   H264      1.0  0.14684  0.00403  0.83179  1.0000
  S   S43       1.0  0.44358  0.13473  0.54659  1.0000
  H   H265      1.0  0.15536  0.02097  0.93861  1.0000
  C   C170      1.0  0.48115  0.14036  0.54320  1.0000
  H   H266      1.0  0.03621  0.24060  0.79174  1.0000
  H   H267      1.0  0.36044  0.11489  0.62651  1.0000
  H   H268      1.0  0.11039  0.18238  0.68623  1.0000
  H   H269      1.0  0.17438  0.04686  0.77526  1.0000
  H   H270      1.0  0.12721  0.06720  0.82752  1.0000
  H   H271      1.0  0.38533  0.09282  0.61175  1.0000
  C   C171      1.0  0.08080  0.23832  0.86619  1.0000
  H   H272      1.0  0.36988  0.21364  0.86182  1.0000
  H   H273      1.0  0.14025  0.07382  0.85344  1.0000
  H   H274      1.0  0.17681  0.04562  0.81986  1.0000
  C   C172      1.0  0.16231  0.04982  0.82755  1.0000
  H   H275      1.0  0.36629  0.21420  0.52531  1.0000
  H   H276      1.0  0.32317  0.20139  0.71392  1.0000
  H   H277      1.0  0.32018  0.11131  0.71586  1.0000
  H   H278      1.0  0.34676  0.12856  0.71153  1.0000
  H   H279      1.0  0.13911  0.04049  0.93273  1.0000
  H   H280      1.0  0.29311  0.08226  0.71706  1.0000
  H   H281      1.0  0.39025  0.11674  0.71443  1.0000
  H   H282      1.0  0.32870  0.23769  0.80003  1.0000
  H   H283      1.0  0.21074  0.99823  0.58357  1.0000
  H   H284      1.0  0.16283  0.04975  0.84976  1.0000
  H   H285      1.0  0.15376  0.23027  0.69904  1.0000
  H   H286      1.0  0.35341  0.24413  0.54284  1.0000
  H   H287      1.0  0.47589  0.17454  0.58612  1.0000
  H   H288      1.0  0.14886  0.03230  0.80086  1.0000
  N   N10       1.0  0.33958  0.11181  0.67998  1.0000
  C   C173      1.0  0.32276  0.10401  0.69695  1.0000
  C   C174      1.0  0.35362  0.11850  0.69758  1.0000
  C   C175      1.0  0.36502  0.10388  0.64174  1.0000
  H   H289      1.0  0.30975  0.10682  0.68628  1.0000
  C   C176      1.0  0.14975  0.03441  0.94622  1.0000
  H   H290      1.0  0.13735  0.10024  0.94492  1.0000
  C   C177      1.0  0.14927  0.03399  0.82269  1.0000
  H   H291      1.0  0.33740  0.09288  0.64900  1.0000
  H   H292      1.0  0.13479  0.03693  0.83141  1.0000
  H   H293      1.0  0.15299  0.09407  0.98857  1.0000
  H   H294      1.0  0.37959  0.07649  0.64024  1.0000
  H   H295      1.0  0.00529  0.15704  0.91334  1.0000
  C   C178      1.0  0.32639  0.17777  0.81128  1.0000
  C   C179      1.0  0.47259  0.17802  0.71296  1.0000
  C   C180      1.0  0.37902  0.11172  0.72962  1.0000
  H   H296      1.0  0.44657  0.22272  0.55089  1.0000
  C   C181      1.0  0.36345  0.10335  0.71590  1.0000
  H   H297      1.0  0.38527  0.10094  0.74382  1.0000
  H   H298      1.0  0.05097  0.23666  0.83473  1.0000
  H   H299      1.0  0.48013  0.18805  0.63183  1.0000
  H   H300      1.0  0.06914  0.22136  0.91726  1.0000
  H   H301      1.0  0.35457  0.10779  0.57494  1.0000
  C   C182      1.0  0.28894  0.08074  0.51504  1.0000
  H   H302      1.0  0.36997  0.09178  0.70445  1.0000
  H   H303      1.0  0.49630  0.13463  0.60566  1.0000
  H   H304      1.0  0.14695  0.07156  0.94509  1.0000
  H   H305      1.0  0.35903  0.18887  0.82153  1.0000
  H   H306      1.0  0.35314  0.08462  0.67303  1.0000
  Fe  Fe22      1.0  0.41532  0.14444  0.53230  1.0000
  H   H307      1.0  0.01319  0.13119  0.88752  1.0000
  H   H308      1.0  0.06149  0.10473  0.96944  1.0000
  H   H309      1.0  0.33617  0.07761  0.71394  1.0000
  C   C183      1.0  0.32312  0.08259  0.70483  1.0000
  H   H310      1.0  0.27708  0.08957  0.50745  1.0000
  C   C184      1.0  0.46472  0.14266  0.52971  1.0000
  H   H311      1.0  0.30648  0.06181  0.72887  1.0000
  C   C185      1.0  0.23082  0.03288  0.90768  1.0000
  H   H312      1.0  0.40641  0.20126  0.62485  1.0000
  H   H313      1.0  0.19671  0.07314  0.89786  1.0000
  H   H314      1.0  0.32254  0.14086  0.83478  1.0000
  Fe  Fe23      1.0  0.29035  0.00658  0.54544  1.0000
  H   H315      1.0  0.42491  0.22497  0.53481  1.0000
  H   H316      1.0  0.15114  0.06310  0.97825  1.0000
  H   H317      1.0  0.08872  0.20755  0.90266  1.0000
  H   H318      1.0  0.22847  0.07541  0.91058  1.0000
  H   H319      1.0  0.02246  0.09353  0.95696  1.0000
  H   H320      1.0  0.36803  0.21087  0.57611  1.0000
  H   H321      1.0  0.15582  0.11544  0.93223  1.0000
  H   H322      1.0  0.06626  0.23378  0.87077  1.0000
  C   C186      1.0  0.37391  0.21816  0.84039  1.0000
  C   C187      1.0  0.37101  0.08372  0.50568  1.0000
  C   C188      1.0  0.16570  0.04774  0.94667  1.0000
  H   H323      1.0  0.30890  0.18040  0.84952  1.0000
  C   C189      1.0  0.12910  0.24529  0.68576  1.0000
  H   H324      1.0  0.11534  0.21256  0.71405  1.0000
  C   C190      1.0  0.36972  0.23139  0.60620  1.0000
  H   H325      1.0  0.24275  0.03391  0.91929  1.0000
  H   H326      1.0  0.02151  0.10928  0.90162  1.0000
  C   C191      1.0  0.09034  0.23762  0.89311  1.0000
  H   H327      1.0  0.37844  0.05571  0.52161  1.0000
  C   C192      1.0  0.48654  0.14099  0.64725  1.0000
  H   H328      1.0  0.19952  0.06064  0.92886  1.0000
  H   H329      1.0  0.41251  0.23651  0.63129  1.0000
  H   H330      1.0  0.17650  0.04077  0.95915  1.0000
  C   C193      1.0  0.18115  0.08704  0.93083  1.0000
  C   C194      1.0  0.34776  0.19981  0.82533  1.0000
  C   C195      1.0  0.36497  0.21175  0.59818  1.0000
  H   H331      1.0  0.05997  0.23155  0.78672  1.0000
  H   H332      1.0  0.33325  0.22053  0.72832  1.0000
  N   N11       1.0  0.39018  0.23604  0.60477  1.0000
  C   C196      1.0  0.39949  0.20974  0.64069  1.0000
  C   C197      1.0  0.41061  0.20619  0.66557  1.0000
  N   N12       1.0  0.17232  0.08128  0.95872  1.0000
  C   C198      1.0  0.49373  0.14368  0.76469  1.0000
  H   H333      1.0  0.39480  0.23137  0.56254  1.0000
  H   H334      1.0  0.17176  0.10841  0.97539  1.0000
  H   H335      1.0  0.33173  0.16921  0.85345  1.0000
  H   H336      1.0  0.33541  0.21955  0.59479  1.0000
  H   H337      1.0  0.38522  0.20470  0.64647  1.0000
  C   C199      1.0  0.09695  0.23825  0.75180  1.0000
  H   H338      1.0  0.38500  0.20831  0.83224  1.0000
  H   H339      1.0  0.46595  0.19190  0.70711  1.0000
  C   C200      1.0  0.05110  0.24400  0.79237  1.0000
  Fe  Fe24      1.0  0.32573  0.01306  0.50847  1.0000
  H   H340      1.0  0.42480  0.24539  0.57279  1.0000
  H   H341      1.0  0.28765  0.06618  0.50956  1.0000
  H   H342      1.0  0.02612  0.16782  0.85038  1.0000
  H   H343      1.0  0.08780  0.22702  0.85432  1.0000
  H   H344      1.0  0.01798  0.18866  0.83155  1.0000
  H   H345      1.0  0.15609  0.01582  0.85806  1.0000
  C   C201      1.0  0.18741  0.07524  0.97732  1.0000
  H   H346      1.0  0.39990  0.21133  0.58398  1.0000
  H   H347      1.0  0.31417  0.21209  0.83669  1.0000
  C   C202      1.0  0.35693  0.21903  0.82368  1.0000
  C   C203      1.0  0.31557  0.21074  0.81452  1.0000
  H   H348      1.0  0.34082  0.19476  0.59724  1.0000
  H   H349      1.0  0.23649  0.05799  0.50856  1.0000
  H   H350      1.0  0.47988  0.13237  0.66475  1.0000
  H   H351      1.0  0.19556  0.06264  0.97081  1.0000
  H   H352      1.0  0.01927  0.18620  0.94972  1.0000
  S   S44       1.0  0.36525  0.16335  0.51777  1.0000
  H   H353      1.0  0.34685  0.22966  0.83220  1.0000
  H   H354      1.0  0.48885  0.15554  0.69536  1.0000
  H   H355      1.0  0.13624  0.23623  0.72543  1.0000
  H   H356      1.0  0.01441  0.15532  0.97337  1.0000
  S   S45       1.0  0.35110  0.03132  0.50712  1.0000
  H   H357      1.0  0.08449  0.24354  0.81206  1.0000
  C   C204      1.0  0.36828  0.06437  0.51091  1.0000
  C   C205      1.0  0.39833  0.23084  0.63140  1.0000
  H   H358      1.0  0.99820  0.10621  0.93661  1.0000
  C   C206      1.0  0.00559  0.15956  0.95653  1.0000
  H   H359      1.0  0.38319  0.08978  0.51232  1.0000
  H   H360      1.0  0.49656  0.13073  0.75508  1.0000
  S   S46       1.0  0.10284  0.20945  0.00397  1.0000
  H   H361      1.0  0.49252  0.17837  0.67852  1.0000
  H   H362      1.0  0.11010  0.24724  0.98519  1.0000
  H   H363      1.0  0.03547  0.24268  0.99562  1.0000
  H   H364      1.0  0.11372  0.24613  0.69087  1.0000
  C   C207      1.0  0.42227  0.23030  0.57749  1.0000
  H   H365      1.0  0.13195  0.24153  0.66460  1.0000
  H   H366      1.0  0.42948  0.22516  0.59564  1.0000
  H   H367      1.0  0.17007  0.02465  0.52699  1.0000
  H   H368      1.0  0.10580  0.23634  0.88896  1.0000
  H   H369      1.0  0.49023  0.20493  0.58945  1.0000
  C   C208      1.0  0.36595  0.24410  0.52920  1.0000
  C   C209      1.0  0.30002  0.24345  0.81357  1.0000
  H   H370      1.0  0.99835  0.18648  0.97243  1.0000
  C   C210      1.0  0.19591  0.01569  0.50436  1.0000
  H   H371      1.0  0.40423  0.45924  0.49311  1.0000
  H   H372      1.0  0.45294  0.37601  0.47296  1.0000
  H   H373      1.0  0.17245  0.41718  0.11684  1.0000
  C   C211      1.0  0.20480  0.42525  0.07146  1.0000
  H   H374      1.0  0.17522  0.42927  0.07236  1.0000
  S   S47       1.0  0.38663  0.32932  0.49141  1.0000
  H   H375      1.0  0.12799  0.46285  0.12356  1.0000
  S   S48       1.0  0.35139  0.37569  0.49076  1.0000
  H   H376      1.0  0.48762  0.37600  0.47190  1.0000
  Fe  Fe25      1.0  0.16830  0.47225  0.01705  1.0000
  H   H377      1.0  0.12469  0.44755  0.03604  1.0000
  S   S49       1.0  0.34802  0.46432  0.50085  1.0000
  H   H378      1.0  0.05117  0.29345  0.08279  1.0000
  H   H379      1.0  0.14576  0.43510  0.10532  1.0000
  Fe  Fe26      1.0  0.09063  0.31430  0.03565  1.0000
  C   C212      1.0  0.19191  0.40054  0.15533  1.0000
  S   S50       1.0  0.08983  0.28608  0.06021  1.0000
  Fe  Fe27      1.0  0.09270  0.35739  0.02781  1.0000
  H   H380      1.0  0.40302  0.42862  0.47540  1.0000
  S   S51       1.0  0.09652  0.38579  0.04420  1.0000
  H   H381      1.0  0.39764  0.27382  0.49731  1.0000
  C   C213      1.0  0.41704  0.39421  0.46169  1.0000
  S   S52       1.0  0.06986  0.33800  0.04534  1.0000
  C   C214      1.0  0.33364  0.43077  0.48876  1.0000
  C   C215      1.0  0.41747  0.45214  0.48525  1.0000
  C   C216      1.0  0.46924  0.40105  0.46840  1.0000
  H   H382      1.0  0.20881  0.41577  0.12438  1.0000
  H   H383      1.0  0.02571  0.34490  0.04149  1.0000
  H   H384      1.0  0.02202  0.30252  0.04158  1.0000
  H   H385      1.0  0.18702  0.47934  0.13310  1.0000
  C   C217      1.0  0.09149  0.26514  0.04327  1.0000
  H   H386      1.0  0.47063  0.40410  0.48948  1.0000
  C   C218      1.0  0.48658  0.38931  0.45904  1.0000
  C   C219      1.0  0.10013  0.26464  0.01714  1.0000
  H   H387      1.0  0.14987  0.44833  0.07329  1.0000
  H   H388      1.0  0.20431  0.39439  0.16527  1.0000
  C   C220      1.0  0.39971  0.36998  0.44016  1.0000
  C   C221      1.0  0.14492  0.42606  0.02384  1.0000
  H   H389      1.0  0.40320  0.39855  0.47161  1.0000
  C   C222      1.0  0.13292  0.39449  0.02527  1.0000
  C   C223      1.0  0.11516  0.40113  0.03491  1.0000
  C   C224      1.0  0.11237  0.42036  0.03882  1.0000
  C   C225      1.0  0.12709  0.43282  0.03300  1.0000
  H   H390      1.0  0.22049  0.41244  0.03799  1.0000
  H   H391      1.0  0.18733  0.45000  0.06193  1.0000
  H   H392      1.0  0.20348  0.41150  0.08315  1.0000
  C   C226      1.0  0.18692  0.43776  0.07713  1.0000
  H   H393      1.0  0.11854  0.45569  0.09381  1.0000
  C   C227      1.0  0.01324  0.33634  0.00689  1.0000
  H   H394      1.0  0.04938  0.26822  0.05071  1.0000
  H   H395      1.0  0.04702  0.30261  0.03412  1.0000
  C   C228      1.0  0.14773  0.40685  0.02013  1.0000
  H   H396      1.0  0.16981  0.43266  0.14281  1.0000
  C   C229      1.0  0.21485  0.47343  0.14499  1.0000
  C   C230      1.0  0.14828  0.44927  0.09545  1.0000
  H   H397      1.0  0.40204  0.37746  0.41989  1.0000
  H   H398      1.0  0.18747  0.39028  0.14179  1.0000
  N   N13       1.0  0.18333  0.44453  0.10508  1.0000
  H   H399      1.0  0.13536  0.37970  0.02264  1.0000
  H   H400      1.0  0.19549  0.41360  0.03596  1.0000
  H   H401      1.0  0.18042  0.40305  0.17116  1.0000
  H   H402      1.0  0.03743  0.31495  0.07790  1.0000
  S   S53       1.0  0.19852  0.47836  0.02000  1.0000
  H   H403      1.0  0.42876  0.36714  0.44745  1.0000
  H   H404      1.0  0.39897  0.35478  0.43761  1.0000
  H   H405      1.0  0.21255  0.44724  0.11206  1.0000
  H   H406      1.0  0.02597  0.29369  0.08969  1.0000
  C   C231      1.0  0.03766  0.29959  0.07615  1.0000
  H   H407      1.0  0.02465  0.26866  0.05806  1.0000
  C   C232      1.0  0.19698  0.41888  0.13921  1.0000
  C   C233      1.0  0.03594  0.27434  0.04351  1.0000
  H   H408      1.0  0.16208  0.46207  0.12558  1.0000
  C   C234      1.0  0.01284  0.34172  0.03329  1.0000
  H   H409      1.0  0.21758  0.43195  0.07627  1.0000
  H   H410      1.0  0.38609  0.37495  0.44999  1.0000
  C   C235      1.0  0.45097  0.39095  0.46517  1.0000
  H   H411      1.0  0.47920  0.34022  0.48256  1.0000
  C   C236      1.0  0.19639  0.46676  0.13673  1.0000
  H   H412      1.0  0.09871  0.42562  0.04644  1.0000
  H   H413      1.0  0.20214  0.42820  0.15343  1.0000
  S   S54       1.0  0.11425  0.33365  0.02211  1.0000
  C   C237      1.0  0.01440  0.27568  0.00804  1.0000
  H   H414      1.0  0.16154  0.40141  0.01369  1.0000
  H   H415      1.0  0.18973  0.45802  0.15389  1.0000
  C   C238      1.0  0.33482  0.41122  0.48651  1.0000
  H   H416      1.0  0.16894  0.47056  0.09201  1.0000
  C   C239      1.0  0.16602  0.45747  0.10501  1.0000
  C   C240      1.0  0.19945  0.45599  0.11080  1.0000
  S   S55       1.0  0.43993  0.33673  0.49615  1.0000
  C   C241      1.0  0.20750  0.42124  0.04170  1.0000
  H   H417      1.0  0.22440  0.46131  0.15040  1.0000
  C   C242      1.0  0.17973  0.42827  0.12583  1.0000
  C   C243      1.0  0.03554  0.29572  0.04691  1.0000
  H   H418      1.0  0.20260  0.46664  0.09365  1.0000
  H   H419      1.0  0.41807  0.40186  0.44130  1.0000
  C   C244      1.0  0.41568  0.37309  0.45753  1.0000
  H   H420      1.0  0.32358  0.40457  0.47825  1.0000
  H   H421      1.0  0.32164  0.43904  0.48211  1.0000
  H   H422      1.0  0.00375  0.27171  0.02475  1.0000
  H   H423      1.0  0.47169  0.28055  0.50090  1.0000
  C   C245      1.0  0.35046  0.40022  0.49462  1.0000
  C   C246      1.0  0.08467  0.24849  0.05657  1.0000
  S   S56       1.0  0.16441  0.44065  0.01756  1.0000
  H   H424      1.0  0.49177  0.30671  0.49321  1.0000
  H   H425      1.0  0.46942  0.41455  0.45580  1.0000
  N   N14       1.0  0.43282  0.39937  0.47767  1.0000
  H   H426      1.0  0.13257  0.47600  0.09130  1.0000
  C   C247      1.0  0.13082  0.46178  0.10150  1.0000
  H   H427      1.0  0.45041  0.39061  0.44295  1.0000
  N   N15       1.0  0.03366  0.26876  0.01538  1.0000
  H   H428      1.0  0.42067  0.45757  0.46397  1.0000
  H   H429      1.0  0.20873  0.43451  0.02870  1.0000
  H   H430      1.0  0.44483  0.42540  0.48608  1.0000
  H   H431      1.0  0.41273  0.36498  0.47707  1.0000
  H   H432      1.0  0.21229  0.48634  0.32371  1.0000
  H   H433      1.0  0.43595  0.42577  0.45414  1.0000
  H   H434      1.0  0.07794  0.24875  0.07678  1.0000
  S   S57       1.0  0.29282  0.48053  0.49784  1.0000
  C   C248      1.0  0.34824  0.43962  0.49884  1.0000
  Fe  Fe28      1.0  0.32345  0.48596  0.49929  1.0000
  C   C249      1.0  0.41510  0.43099  0.48703  1.0000
  H   H435      1.0  0.42887  0.45561  0.49752  1.0000
  C   C250      1.0  0.43315  0.42050  0.47567  1.0000
  S   S58       1.0  0.15886  0.49499  0.04421  1.0000
  H   H436      1.0  0.14464  0.25920  0.03080  1.0000
  C   C251      1.0  0.39081  0.26087  0.50355  1.0000
  H   H437      1.0  0.21211  0.48185  0.16277  1.0000
  H   H438      1.0  0.48606  0.38609  0.43771  1.0000
  H   H439      1.0  0.22183  0.48241  0.12827  1.0000
  H   H440      1.0  0.06168  0.27888  0.00717  1.0000
  H   H441      1.0  0.10561  0.27728  0.00675  1.0000
  H   H442      1.0  0.01348  0.29127  0.00583  1.0000
  C   C252      1.0  0.47644  0.34261  0.50370  1.0000
  H   H443      1.0  0.47558  0.28422  0.56145  1.0000
  S   S59       1.0  0.39504  0.36148  0.53224  1.0000
  Fe  Fe29      1.0  0.38439  0.34115  0.56549  1.0000
  S   S60       1.0  0.37907  0.35111  0.60678  1.0000
  Fe  Fe30      1.0  0.42601  0.33318  0.72724  1.0000
  S   S61       1.0  0.42135  0.36245  0.73936  1.0000
  S   S62       1.0  0.44020  0.32706  0.68691  1.0000
  Fe  Fe31      1.0  0.40908  0.31643  0.78066  1.0000
  S   S63       1.0  0.40348  0.34474  0.79768  1.0000
  S   S64       1.0  0.40369  0.28834  0.80325  1.0000
  Fe  Fe32      1.0  0.39284  0.35371  0.75706  1.0000
  S   S65       1.0  0.36778  0.37212  0.74329  1.0000
  Fe  Fe33      1.0  0.43247  0.35091  0.77823  1.0000
  S   S66       1.0  0.45603  0.36751  0.79072  1.0000
  S   S67       1.0  0.39689  0.32503  0.74154  1.0000
  S   S68       1.0  0.43865  0.32208  0.76485  1.0000
  Fe  Fe34      1.0  0.22310  0.41341  0.76076  1.0000
  S   S69       1.0  0.22048  0.44498  0.75484  1.0000
  S   S70       1.0  0.20233  0.39102  0.75411  1.0000
  Fe  Fe35      1.0  0.26293  0.41418  0.77949  1.0000
  S   S71       1.0  0.26228  0.44578  0.77638  1.0000
  S   S72       1.0  0.28665  0.39536  0.79655  1.0000
  Fe  Fe36      1.0  0.23255  0.44464  0.79573  1.0000
  S   S73       1.0  0.21566  0.46095  0.82908  1.0000
  Fe  Fe37      1.0  0.25045  0.44369  0.73580  1.0000
  S   S74       1.0  0.26663  0.45980  0.69917  1.0000
  S   S75       1.0  0.23414  0.41315  0.80158  1.0000
  S   S76       1.0  0.25215  0.41205  0.73900  1.0000
  H   H444      1.0  0.24592  0.47541  0.91094  1.0000
  H   H445      1.0  0.07920  0.38109  0.68937  1.0000
  H   H446      1.0  0.27431  0.42344  0.65285  1.0000
  C   C253      1.0  0.07698  0.25643  0.72193  1.0000
  H   H447      1.0  0.28722  0.44246  0.60124  1.0000
  H   H448      1.0  0.04385  0.26464  0.95909  1.0000
  C   C254      1.0  0.19161  0.39660  0.95184  1.0000
  C   C255      1.0  0.03673  0.29553  0.72856  1.0000
  Fe  Fe38      1.0  0.28915  0.49636  0.53559  1.0000
  S   S77       1.0  0.12043  0.33057  0.94196  1.0000
  Fe  Fe39      1.0  0.09585  0.35810  0.77457  1.0000
  S   S78       1.0  0.10359  0.33123  0.79763  1.0000
  S   S79       1.0  0.11366  0.38393  0.77431  1.0000
  Fe  Fe40      1.0  0.05826  0.34269  0.76065  1.0000
  S   S80       1.0  0.06393  0.31455  0.78206  1.0000
  S   S81       1.0  0.03108  0.34821  0.74032  1.0000
  Fe  Fe41      1.0  0.07355  0.33112  0.81396  1.0000
  S   S82       1.0  0.06211  0.32355  0.85626  1.0000
  Fe  Fe42      1.0  0.09328  0.31707  0.76349  1.0000
  S   S83       1.0  0.11121  0.29222  0.75048  1.0000
  S   S84       1.0  0.06618  0.35923  0.79396  1.0000
  S   S85       1.0  0.08723  0.34399  0.73882  1.0000
  H   H449      1.0  0.44582  0.29894  0.52494  1.0000
  C   C256      1.0  0.00901  0.34551  0.75892  1.0000
  H   H450      1.0  0.04399  0.30897  0.72677  1.0000
  H   H451      1.0  0.02020  0.33847  0.79727  1.0000
  H   H452      1.0  0.08579  0.40445  0.86812  1.0000
  C   C257      1.0  0.16845  0.44570  0.93914  1.0000
  H   H453      1.0  0.04498  0.26099  0.82561  1.0000
  C   C258      1.0  0.09917  0.27211  0.74565  1.0000
  C   C259      1.0  0.08475  0.27300  0.72835  1.0000
  C   C260      1.0  0.35381  0.39155  0.57839  1.0000
  C   C261      1.0  0.00761  0.34060  0.78669  1.0000
  H   H454      1.0  0.08022  0.28638  0.71890  1.0000
  H   H455      1.0  0.34626  0.37833  0.58265  1.0000
  C   C262      1.0  0.10450  0.32753  0.91810  1.0000
  C   C263      1.0  0.08527  0.32914  0.92533  1.0000
  C   C264      1.0  0.07241  0.32693  0.90648  1.0000
  C   C265      1.0  0.07866  0.32420  0.87985  1.0000
  C   C266      1.0  0.09789  0.32253  0.87242  1.0000
  C   C267      1.0  0.11084  0.32395  0.89165  1.0000
  H   H456      1.0  0.08014  0.33239  0.94534  1.0000
  H   H457      1.0  0.05756  0.32790  0.91248  1.0000
  H   H458      1.0  0.10281  0.32007  0.85202  1.0000
  H   H459      1.0  0.12570  0.32253  0.88598  1.0000
  C   C268      1.0  0.21656  0.46928  0.86206  1.0000
  C   C269      1.0  0.20011  0.47710  0.87509  1.0000
  C   C270      1.0  0.20003  0.48404  0.90095  1.0000
  C   C271      1.0  0.10445  0.39078  0.70446  1.0000
  H   H460      1.0  0.44065  0.34352  0.55281  1.0000
  C   C272      1.0  0.34285  0.46922  0.58823  1.0000
  H   H461      1.0  0.47871  0.32823  0.74548  1.0000
  H   H462      1.0  0.28901  0.43291  0.50596  1.0000
  H   H463      1.0  0.06231  0.29416  0.94699  1.0000
  C   C273      1.0  0.26729  0.46597  0.66346  1.0000
  C   C274      1.0  0.25189  0.46439  0.64840  1.0000
  C   C275      1.0  0.25282  0.47041  0.62059  1.0000
  C   C276      1.0  0.26920  0.47785  0.60709  1.0000
  C   C277      1.0  0.28374  0.47329  0.64989  1.0000
  H   H464      1.0  0.18172  0.44165  0.88912  1.0000
  H   H465      1.0  0.23911  0.45888  0.65833  1.0000
  C   C278      1.0  0.01644  0.29874  0.73987  1.0000
  H   H466      1.0  0.12853  0.29850  0.81426  1.0000
  C   C279      1.0  0.17795  0.38909  0.76374  1.0000
  C   C280      1.0  0.16599  0.40477  0.76799  1.0000
  C   C281      1.0  0.14640  0.40288  0.77142  1.0000
  C   C282      1.0  0.13853  0.38525  0.77176  1.0000
  C   C283      1.0  0.15055  0.36943  0.76900  1.0000
  C   C284      1.0  0.17007  0.37140  0.76449  1.0000
  H   H467      1.0  0.17178  0.41847  0.76734  1.0000
  H   H468      1.0  0.13727  0.41523  0.77320  1.0000
  H   H469      1.0  0.14478  0.35574  0.76948  1.0000
  H   H470      1.0  0.17916  0.35916  0.76123  1.0000
  C   C285      1.0  0.34487  0.37717  0.75815  1.0000
  C   C286      1.0  0.33911  0.37121  0.78481  1.0000
  C   C287      1.0  0.32107  0.37652  0.79600  1.0000
  C   C288      1.0  0.30852  0.38766  0.78066  1.0000
  C   C289      1.0  0.31404  0.39298  0.75370  1.0000
  C   C290      1.0  0.33215  0.38789  0.74262  1.0000
  H   H471      1.0  0.34865  0.36281  0.79696  1.0000
  H   H472      1.0  0.31692  0.37220  0.81683  1.0000
  H   H473      1.0  0.30445  0.40124  0.74152  1.0000
  H   H474      1.0  0.33638  0.39243  0.72191  1.0000
  C   C291      1.0  0.39756  0.26997  0.78445  1.0000
  C   C292      1.0  0.38661  0.27352  0.76254  1.0000
  H   H475      1.0  0.29244  0.40101  0.62282  1.0000
  H   H476      1.0  0.38211  0.28772  0.75667  1.0000
  C   C293      1.0  0.47810  0.35598  0.79486  1.0000
  H   H477      1.0  0.49331  0.30598  0.61639  1.0000
  H   H478      1.0  0.11306  0.39181  0.96238  1.0000
  C   C294      1.0  0.05461  0.24892  0.82073  1.0000
  H   H479      1.0  0.30944  0.45147  0.78276  1.0000
  S   S86       1.0  0.36485  0.28199  0.53438  1.0000
  C   C295      1.0  0.42472  0.33544  0.66311  1.0000
  C   C296      1.0  0.42690  0.32972  0.63681  1.0000
  C   C297      1.0  0.41324  0.33506  0.61882  1.0000
  C   C298      1.0  0.39752  0.34609  0.62725  1.0000
  C   C299      1.0  0.39590  0.35251  0.65305  1.0000
  C   C300      1.0  0.40940  0.34708  0.67100  1.0000
  H   H480      1.0  0.43881  0.32077  0.63065  1.0000
  H   H481      1.0  0.41469  0.33032  0.59875  1.0000
  H   H482      1.0  0.38396  0.36133  0.65950  1.0000
  H   H483      1.0  0.40766  0.35164  0.69117  1.0000
  H   H484      1.0  0.33540  0.40315  0.54932  1.0000
  H   H485      1.0  0.36425  0.26590  0.62012  1.0000
  H   H486      1.0  0.06508  0.36904  0.85949  1.0000
  H   H487      1.0  0.05581  0.25802  0.89946  1.0000
  H   H488      1.0  0.33188  0.48069  0.58819  1.0000
  H   H489      1.0  0.44925  0.37270  0.65303  1.0000
  H   H490      1.0  0.46695  0.33190  0.81810  1.0000
  C   C301      1.0  0.49263  0.32208  0.73857  1.0000
  H   H491      1.0  0.35988  0.39510  0.59700  1.0000
  C   C302      1.0  0.32081  0.44535  0.57540  1.0000
  C   C303      1.0  0.14728  0.44379  0.93587  1.0000
  H   H492      1.0  0.47000  0.34396  0.65272  1.0000
  Fe  Fe43      1.0  0.06227  0.33728  0.00279  1.0000
  H   H493      1.0  0.28909  0.45105  0.54648  1.0000
  H   H494      1.0  0.16443  0.42471  0.89775  1.0000
  H   H495      1.0  0.07203  0.38742  0.83407  1.0000
  H   H496      1.0  0.30734  0.40865  0.87168  1.0000
  H   H497      1.0  0.27298  0.43530  0.56481  1.0000
  H   H498      1.0  0.34572  0.43975  0.59850  1.0000
  C   C304      1.0  0.46805  0.27708  0.52272  1.0000
  C   C305      1.0  0.34067  0.40744  0.56806  1.0000
  H   H499      1.0  0.18731  0.47797  0.86497  1.0000
  H   H500      1.0  0.26045  0.40544  0.64236  1.0000
  H   H501      1.0  0.35595  0.45733  0.76699  1.0000
  C   C306      1.0  0.17905  0.42795  0.90075  1.0000
  C   C307      1.0  0.19137  0.41270  0.88664  1.0000
  C   C308      1.0  0.18858  0.41366  0.85649  1.0000
  H   H502      1.0  0.21142  0.42329  0.92818  1.0000
  C   C309      1.0  0.22587  0.44031  0.96542  1.0000
  H   H503      1.0  0.20052  0.39398  0.93324  1.0000
  H   H504      1.0  0.20647  0.41437  0.88856  1.0000
  H   H505      1.0  0.18730  0.39858  0.89516  1.0000
  H   H506      1.0  0.19263  0.42747  0.84657  1.0000
  H   H507      1.0  0.19758  0.40264  0.84676  1.0000
  H   H508      1.0  0.17378  0.41140  0.85313  1.0000
  H   H509      1.0  0.49354  0.37838  0.77351  1.0000
  N   N16       1.0  0.13776  0.38583  0.68077  1.0000
  C   C310      1.0  0.14735  0.38202  0.65355  1.0000
  C   C311      1.0  0.14151  0.36918  0.70028  1.0000
  C   C312      1.0  0.14507  0.40295  0.69146  1.0000
  C   C313      1.0  0.16662  0.40301  0.69292  1.0000
  C   C314      1.0  0.13352  0.35044  0.69393  1.0000
  C   C315      1.0  0.13741  0.33496  0.71587  1.0000
  C   C316      1.0  0.17260  0.42211  0.69991  1.0000
  H   H510      1.0  0.16197  0.37643  0.65554  1.0000
  H   H511      1.0  0.15684  0.36648  0.70142  1.0000
  H   H512      1.0  0.13610  0.37221  0.72101  1.0000
  H   H513      1.0  0.14045  0.41591  0.67958  1.0000
  H   H514      1.0  0.13889  0.40463  0.71240  1.0000
  H   H515      1.0  0.17447  0.39988  0.67363  1.0000
  H   H516      1.0  0.17110  0.39241  0.70875  1.0000
  H   H517      1.0  0.10809  0.40296  0.71509  1.0000
  H   H518      1.0  0.10585  0.37801  0.71820  1.0000
  H   H519      1.0  0.11815  0.35176  0.69269  1.0000
  H   H520      1.0  0.14012  0.34576  0.67455  1.0000
  H   H521      1.0  0.13042  0.33854  0.73562  1.0000
  H   H522      1.0  0.13182  0.32162  0.71070  1.0000
  H   H523      1.0  0.15269  0.33276  0.71775  1.0000
  H   H524      1.0  0.17042  0.43285  0.68305  1.0000
  H   H525      1.0  0.16452  0.42658  0.71843  1.0000
  H   H526      1.0  0.18770  0.42123  0.70357  1.0000
  C   C317      1.0  0.37470  0.26105  0.52140  1.0000
  H   H527      1.0  0.13734  0.40562  0.87850  1.0000
  H   H528      1.0  0.11448  0.40455  0.82917  1.0000
  C   C318      1.0  0.49267  0.34233  0.69436  1.0000
  C   C319      1.0  0.48115  0.28676  0.54004  1.0000
  H   H529      1.0  0.34134  0.44156  0.83557  1.0000
  C   C320      1.0  0.37921  0.26942  0.61849  1.0000
  Fe  Fe44      1.0  0.10329  0.33379  0.98125  1.0000
  C   C321      1.0  0.38007  0.29017  0.60891  1.0000
  H   H530      1.0  0.12479  0.35024  0.84503  1.0000
  H   H531      1.0  0.24582  0.46274  0.86590  1.0000
  C   C322      1.0  0.32411  0.41118  0.58924  1.0000
  H   H532      1.0  0.32910  0.44530  0.55548  1.0000
  H   H533      1.0  0.06522  0.28326  0.84731  1.0000
  H   H534      1.0  0.02620  0.37316  0.88066  1.0000
  H   H535      1.0  0.48265  0.35309  0.62224  1.0000
  H   H536      1.0  0.49073  0.30917  0.72835  1.0000
  C   C323      1.0  0.23301  0.47581  0.90114  1.0000
  H   H537      1.0  0.01301  0.38214  0.90902  1.0000
  H   H538      1.0  0.38433  0.26774  0.63894  1.0000
  H   H539      1.0  0.47912  0.37496  0.67297  1.0000
  C   C324      1.0  0.45469  0.34459  0.54316  1.0000
  C   C325      1.0  0.44266  0.39602  0.52698  1.0000
  H   H540      1.0  0.15707  0.33857  0.85566  1.0000
  H   H541      1.0  0.15462  0.34292  0.82003  1.0000
  H   H542      1.0  0.37135  0.29875  0.62317  1.0000
  H   H543      1.0  0.39470  0.29480  0.60779  1.0000
  H   H544      1.0  0.07818  0.38696  0.89429  1.0000
  N   N17       1.0  0.34477  0.32599  0.70066  1.0000
  C   C326      1.0  0.34603  0.32349  0.73079  1.0000
  C   C327      1.0  0.36392  0.32189  0.68678  1.0000
  C   C328      1.0  0.33962  0.34644  0.69375  1.0000
  C   C329      1.0  0.33026  0.31406  0.69099  1.0000
  C   C330      1.0  0.32725  0.29455  0.70639  1.0000
  C   C331      1.0  0.32824  0.32970  0.74837  1.0000
  C   C332      1.0  0.33851  0.35262  0.66339  1.0000
  C   C333      1.0  0.37188  0.30143  0.69004  1.0000
  C   C334      1.0  0.39223  0.29970  0.67843  1.0000
  C   C335      1.0  0.31566  0.28242  0.69083  1.0000
  C   C336      1.0  0.32923  0.32235  0.77782  1.0000
  C   C337      1.0  0.33043  0.37270  0.65948  1.0000
  H   H545      1.0  0.35759  0.33179  0.73658  1.0000
  H   H546      1.0  0.34986  0.30879  0.73746  1.0000
  H   H547      1.0  0.36397  0.32508  0.66463  1.0000
  H   H548      1.0  0.37424  0.33123  0.69370  1.0000
  H   H549      1.0  0.34977  0.35552  0.70166  1.0000
  H   H550      1.0  0.32567  0.35028  0.70373  1.0000
  H   H551      1.0  0.31625  0.32153  0.69201  1.0000
  H   H552      1.0  0.33365  0.31192  0.66920  1.0000
  H   H553      1.0  0.31958  0.29613  0.72637  1.0000
  H   H554      1.0  0.34049  0.28664  0.71012  1.0000
  H   H555      1.0  0.32702  0.34520  0.74796  1.0000
  H   H556      1.0  0.31526  0.32495  0.74099  1.0000
  H   H557      1.0  0.32964  0.34335  0.65359  1.0000
  H   H558      1.0  0.35263  0.35248  0.65268  1.0000
  H   H559      1.0  0.37157  0.29602  0.71144  1.0000
  H   H560      1.0  0.36377  0.29232  0.67877  1.0000
  H   H561      1.0  0.40140  0.30719  0.69039  1.0000
  H   H562      1.0  0.39708  0.28473  0.67929  1.0000
  H   H563      1.0  0.39376  0.30558  0.65716  1.0000
  H   H564      1.0  0.30183  0.28947  0.68744  1.0000
  H   H565      1.0  0.32317  0.27960  0.67107  1.0000
  H   H566      1.0  0.31331  0.26880  0.70259  1.0000
  H   H567      1.0  0.32935  0.30680  0.77980  1.0000
  H   H568      1.0  0.34206  0.32709  0.78584  1.0000
  H   H569      1.0  0.31685  0.32785  0.79012  1.0000
  H   H570      1.0  0.33032  0.37689  0.63758  1.0000
  H   H571      1.0  0.31585  0.37381  0.66887  1.0000
  H   H572      1.0  0.33919  0.38249  0.66858  1.0000
  C   C338      1.0  0.36386  0.42863  0.50701  1.0000
  H   H573      1.0  0.36547  0.38909  0.56281  1.0000
  H   H574      1.0  0.11340  0.41265  0.87943  1.0000
  N   N18       1.0  0.11878  0.38266  0.87924  1.0000
  C   C339      1.0  0.34768  0.45782  0.78685  1.0000
  H   H575      1.0  0.39067  0.40094  0.80857  1.0000
  H   H576      1.0  0.31199  0.42339  0.53914  1.0000
  H   H577      1.0  0.01690  0.30439  0.75982  1.0000
  C   C340      1.0  0.10155  0.37720  0.86678  1.0000
  H   H578      1.0  0.25855  0.42881  0.62651  1.0000
  C   C341      1.0  0.28397  0.41293  0.61388  1.0000
  C   C342      1.0  0.33408  0.45040  0.59651  1.0000
  H   H579      1.0  0.32645  0.45154  0.61661  1.0000
  H   H580      1.0  0.35037  0.46907  0.56781  1.0000
  H   H581      1.0  0.35302  0.47208  0.60282  1.0000
  C   C343      1.0  0.49717  0.30849  0.59443  1.0000
  H   H582      1.0  0.43853  0.27673  0.51595  1.0000
  H   H583      1.0  0.47932  0.30220  0.53565  1.0000
  H   H584      1.0  0.01558  0.27667  0.96401  1.0000
  H   H585      1.0  0.40593  0.26145  0.59928  1.0000
  H   H586      1.0  0.41158  0.42644  0.50855  1.0000
  H   H587      1.0  0.10914  0.36732  0.91663  1.0000
  C   C344      1.0  0.10570  0.28012  0.82684  1.0000
  H   H588      1.0  0.00996  0.31404  0.91467  1.0000
  H   H589      1.0  0.48519  0.26065  0.79036  1.0000
  H   H590      1.0  0.31051  0.45739  0.57313  1.0000
  C   C345      1.0  0.12549  0.28652  0.82924  1.0000
  H   H591      1.0  0.32757  0.42194  0.87528  1.0000
  H   H592      1.0  0.38726  0.26116  0.57801  1.0000
  H   H593      1.0  0.49456  0.25699  0.56578  1.0000
  H   H594      1.0  0.44935  0.36208  0.62157  1.0000
  C   C346      1.0  0.47176  0.28765  0.79411  1.0000
  H   H595      1.0  0.33343  0.45483  0.73931  1.0000
  H   H596      1.0  0.13458  0.25934  0.68745  1.0000
  H   H597      1.0  0.11651  0.25393  0.77055  1.0000
  N   N19       1.0  0.08132  0.25691  0.84962  1.0000
  H   H598      1.0  0.12208  0.36777  0.96265  1.0000
  C   C347      1.0  0.01254  0.35111  0.90718  1.0000
  C   C348      1.0  0.18336  0.37799  0.96292  1.0000
  H   H599      1.0  0.09558  0.29188  0.83128  1.0000
  H   H600      1.0  0.10494  0.27699  0.80561  1.0000
  C   C349      1.0  0.05188  0.26643  0.88103  1.0000
  H   H601      1.0  0.29975  0.25750  0.80244  1.0000
  C   C350      1.0  0.06964  0.27232  0.86291  1.0000
  C   C351      1.0  0.10151  0.26242  0.84593  1.0000
  H   H602      1.0  0.03673  0.36632  0.93948  1.0000
  C   C352      1.0  0.26842  0.41803  0.63522  1.0000
  S   S87       1.0  0.40187  0.31646  0.55131  1.0000
  H   H603      1.0  0.12683  0.29108  0.84972  1.0000
  H   H604      1.0  0.14031  0.37070  0.64476  1.0000
  H   H605      1.0  0.15801  0.40555  0.59030  1.0000
  H   H606      1.0  0.13920  0.47288  0.94266  1.0000
  H   H607      1.0  0.03456  0.29172  0.87261  1.0000
  C   C353      1.0  0.11706  0.38915  0.67784  1.0000
  C   C354      1.0  0.12393  0.40252  0.87048  1.0000
  H   H608      1.0  0.02165  0.34153  0.89464  1.0000
  H   H609      1.0  0.20524  0.44656  0.91848  1.0000
  H   H610      1.0  0.45919  0.28372  0.78459  1.0000
  C   C355      1.0  0.00771  0.26946  0.98161  1.0000
  C   C356      1.0  0.14782  0.39888  0.63199  1.0000
  H   H611      1.0  0.15536  0.41066  0.63854  1.0000
  C   C357      1.0  0.32461  0.44276  0.74564  1.0000
  C   C358      1.0  0.34948  0.42357  0.78711  1.0000
  H   H612      1.0  0.35557  0.42505  0.76582  1.0000
  C   C359      1.0  0.46939  0.34932  0.55797  1.0000
  C   C360      1.0  0.20121  0.43479  0.93335  1.0000
  H   H613      1.0  0.04433  0.28541  0.74222  1.0000
  C   C361      1.0  0.15785  0.39328  0.60539  1.0000
  H   H614      1.0  0.11160  0.37796  0.66674  1.0000
  H   H615      1.0  0.17257  0.38851  0.60827  1.0000
  C   C362      1.0  0.15473  0.34966  0.83930  1.0000
  H   H616      1.0  0.32588  0.47765  0.77112  1.0000
  H   H617      1.0  0.14248  0.42986  0.94413  1.0000
  C   C363      1.0  0.47954  0.33877  0.81001  1.0000
  H   H618      1.0  0.46656  0.35200  0.57896  1.0000
  N   N20       1.0  0.18139  0.42964  0.93027  1.0000
  H   H619      1.0  0.37219  0.26139  0.73230  1.0000
  C   C364      1.0  0.08378  0.39333  0.69908  1.0000
  H   H620      1.0  0.11444  0.40237  0.66524  1.0000
  H   H621      1.0  0.14446  0.44585  0.91428  1.0000
  C   C365      1.0  0.17594  0.41197  0.94713  1.0000
  H   H622      1.0  0.16441  0.40545  0.93824  1.0000
  H   H623      1.0  0.07516  0.39443  0.71852  1.0000
  H   H624      1.0  0.29709  0.43421  0.73671  1.0000
  H   H625      1.0  0.10655  0.26520  0.86568  1.0000
  H   H626      1.0  0.29754  0.48459  0.61208  1.0000
  H   H627      1.0  0.30341  0.43262  0.62355  1.0000
  H   H628      1.0  0.27291  0.41690  0.52443  1.0000
  Fe  Fe45      1.0  0.37724  0.31099  0.52851  1.0000
  H   H629      1.0  0.13344  0.40402  0.62786  1.0000
  H   H630      1.0  0.08127  0.40632  0.68599  1.0000
  C   C366      1.0  0.32013  0.44048  0.77668  1.0000
  N   N21       1.0  0.31075  0.42729  0.58176  1.0000
  H   H631      1.0  0.37517  0.43533  0.51498  1.0000
  H   H632      1.0  0.15052  0.38189  0.59732  1.0000
  S   S88       1.0  0.08180  0.31283  0.99439  1.0000
  H   H633      1.0  0.13482  0.35669  0.88800  1.0000
  H   H634      1.0  0.27723  0.40814  0.59661  1.0000
  H   H635      1.0  0.44533  0.39294  0.57018  1.0000
  H   H636      1.0  0.01397  0.27040  0.75599  1.0000
  H   H637      1.0  0.17279  0.45915  0.92819  1.0000
  C   C367      1.0  0.28477  0.47904  0.62197  1.0000
  C   C368      1.0  0.13529  0.45857  0.95066  1.0000
  H   H638      1.0  0.07243  0.27332  0.93275  1.0000
  H   H639      1.0  0.46883  0.28568  0.81634  1.0000
  C   C369      1.0  0.29645  0.42982  0.60529  1.0000
  H   H640      1.0  0.32977  0.41300  0.60893  1.0000
  S   S89       1.0  0.35911  0.33453  0.54551  1.0000
  C   C370      1.0  0.30157  0.42294  0.55698  1.0000
  H   H641      1.0  0.12028  0.45700  0.94777  1.0000
  C   C371      1.0  0.21653  0.48351  0.91425  1.0000
  H   H642      1.0  0.13705  0.45688  0.97265  1.0000
  H   H643      1.0  0.08213  0.28157  0.96130  1.0000
  C   C372      1.0  0.23301  0.46856  0.87549  1.0000
  C   C373      1.0  0.06887  0.28007  0.95183  1.0000
  H   H644      1.0  0.16949  0.44759  0.96082  1.0000
  H   H645      1.0  0.31659  0.39787  0.59237  1.0000
  H   H646      1.0  0.45597  0.38761  0.52369  1.0000
  C   C374      1.0  0.49722  0.33100  0.81612  1.0000
  C   C375      1.0  0.49121  0.34694  0.51864  1.0000
  C   C376      1.0  0.31474  0.42158  0.86436  1.0000
  H   H647      1.0  0.29579  0.47461  0.66116  1.0000
  C   C377      1.0  0.10520  0.25471  0.75742  1.0000
  H   H648      1.0  0.49524  0.37798  0.64397  1.0000
  H   H649      1.0  0.16644  0.35941  0.83732  1.0000
  H   H650      1.0  0.10300  0.39165  0.91546  1.0000
  H   H651      1.0  0.31275  0.42716  0.78078  1.0000
  H   H652      1.0  0.37453  0.29280  0.58877  1.0000
  C   C378      1.0  0.33603  0.47666  0.78680  1.0000
  C   C379      1.0  0.28490  0.43631  0.54915  1.0000
  H   H653      1.0  0.29672  0.40834  0.55895  1.0000
  H   H654      1.0  0.34905  0.42000  0.56295  1.0000
  C   C380      1.0  0.13605  0.36034  0.84508  1.0000
  H   H655      1.0  0.42207  0.40000  0.56104  1.0000
  H   H656      1.0  0.02835  0.27889  0.90447  1.0000
  H   H657      1.0  0.34139  0.41067  0.78836  1.0000
  H   H658      1.0  0.46903  0.26164  0.52676  1.0000
  H   H659      1.0  0.17004  0.41534  0.96765  1.0000
  C   C381      1.0  0.12983  0.42875  0.83427  1.0000
  H   H660      1.0  0.13523  0.39976  0.92211  1.0000
  H   H661      1.0  0.13428  0.37101  0.82819  1.0000
  H   H662      1.0  0.13204  0.43232  0.81222  1.0000
  H   H663      1.0  0.05425  0.25596  0.77736  1.0000
  H   H664      1.0  0.07814  0.27988  0.87596  1.0000
  C   C382      1.0  0.44761  0.28352  0.52897  1.0000
  H   H665      1.0  0.00982  0.30961  0.72624  1.0000
  H   H666      1.0  0.13945  0.40030  0.83110  1.0000
  C   C383      1.0  0.07513  0.25430  0.82200  1.0000
  C   C384      1.0  0.03985  0.37022  0.91760  1.0000
  H   H667      1.0  0.11739  0.43711  0.84212  1.0000
  H   H668      1.0  0.37027  0.38988  0.79996  1.0000
  C   C385      1.0  0.05559  0.26799  0.97059  1.0000
  H   H669      1.0  0.31009  0.44655  0.70896  1.0000
  C   C386      1.0  0.12676  0.40777  0.83981  1.0000
  H   H670      1.0  0.22804  0.44581  0.98506  1.0000
  H   H671      1.0  0.35654  0.49261  0.76078  1.0000
  H   H672      1.0  0.07641  0.26743  0.80866  1.0000
  H   H673      1.0  0.03730  0.29016  0.70822  1.0000
  H   H674      1.0  0.37701  0.40082  0.51149  1.0000
  H   H675      1.0  0.04436  0.29266  0.99033  1.0000
  H   H676      1.0  0.14240  0.43271  0.84373  1.0000
  H   H677      1.0  0.10395  0.37732  0.84450  1.0000
  C   C387      1.0  0.11443  0.38138  0.90952  1.0000
  Fe  Fe46      1.0  0.19517  0.49734  0.98216  1.0000
  C   C388      1.0  0.13504  0.36899  0.87280  1.0000
  Fe  Fe47      1.0  0.41026  0.33620  0.51566  1.0000
  H   H678      1.0  0.33207  0.42993  0.73844  1.0000
  H   H679      1.0  0.14320  0.37550  0.92198  1.0000
  H   H680      1.0  0.29930  0.45923  0.73634  1.0000
  H   H681      1.0  0.09835  0.36246  0.87374  1.0000
  H   H682      1.0  0.49056  0.27745  0.76236  1.0000
  H   H683      1.0  0.14861  0.37557  0.87447  1.0000
  C   C389      1.0  0.47506  0.35693  0.64151  1.0000
  C   C390      1.0  0.08343  0.38933  0.87279  1.0000
  C   C391      1.0  0.06793  0.38419  0.85584  1.0000
  C   C392      1.0  0.12539  0.38255  0.95664  1.0000
  H   H684      1.0  0.05487  0.39249  0.86122  1.0000
  H   H685      1.0  0.13721  0.38612  0.96801  1.0000
  H   H686      1.0  0.04881  0.29272  0.90062  1.0000
  C   C393      1.0  0.13094  0.38512  0.92638  1.0000
  H   H687      1.0  0.06640  0.25710  0.70762  1.0000
  S   S90       1.0  0.16510  0.49102  0.97932  1.0000
  H   H688      1.0  0.35832  0.45861  0.80167  1.0000
  H   H689      1.0  0.38343  0.40459  0.77478  1.0000
  H   H690      1.0  0.05068  0.36029  0.90919  1.0000
  H   H691      1.0  0.30530  0.43387  0.86894  1.0000
  H   H692      1.0  0.19798  0.43159  0.97799  1.0000
  H   H693      1.0  0.23192  0.42576  0.96524  1.0000
  H   H694      1.0  0.44568  0.41107  0.52564  1.0000
  S   S91       1.0  0.03425  0.33437  0.98608  1.0000
  C   C394      1.0  0.34870  0.49328  0.78089  1.0000
  H   H695      1.0  0.32817  0.47829  0.80664  1.0000
  H   H696      1.0  0.32867  0.40863  0.83057  1.0000
  H   H697      1.0  0.41447  0.39554  0.51415  1.0000
  H   H698      1.0  0.00756  0.27430  0.72218  1.0000
  C   C395      1.0  0.31979  0.42144  0.83401  1.0000
  C   C396      1.0  0.32974  0.43950  0.82277  1.0000
  H   H699      1.0  0.18729  0.49017  0.91034  1.0000
  H   H700      1.0  0.08698  0.25053  0.90370  1.0000
  C   C397      1.0  0.20495  0.44076  0.96159  1.0000
  H   H701      1.0  0.01379  0.34552  0.92851  1.0000
  H   H702      1.0  0.30653  0.42044  0.82443  1.0000
  C   C398      1.0  0.36621  0.41981  0.80488  1.0000
  C   C399      1.0  0.30668  0.44585  0.73113  1.0000
  C   C400      1.0  0.37833  0.40279  0.79644  1.0000
  H   H703      1.0  0.04276  0.25787  0.87060  1.0000
  H   H704      1.0  0.47923  0.34922  0.70217  1.0000
  C   C401      1.0  0.39133  0.25703  0.59884  1.0000
  H   H705      1.0  0.19940  0.45534  0.96389  1.0000
  C   C402      1.0  0.02217  0.37024  0.90254  1.0000
  N   N22       1.0  0.33675  0.44033  0.79333  1.0000
  H   H706      1.0  0.31943  0.45128  0.82660  1.0000
  C   C403      1.0  0.00591  0.28014  0.74237  1.0000
  H   H707      1.0  0.17470  0.37256  0.94806  1.0000
  H   H708      1.0  0.04553  0.38443  0.91539  1.0000
  H   H709      1.0  0.37536  0.43195  0.80298  1.0000
  H   H710      1.0  0.36130  0.41697  0.82643  1.0000
  S   S92       1.0  0.08314  0.35838  0.98594  1.0000
  H   H711      1.0  0.23333  0.44930  0.94922  1.0000
  C   C404      1.0  0.04021  0.28352  0.89019  1.0000
  C   C405      1.0  0.43466  0.39093  0.55589  1.0000
  H   H712      1.0  0.20090  0.40088  0.96676  1.0000
  C   C406      1.0  0.48870  0.27541  0.78468  1.0000
  H   H713      1.0  0.43071  0.37608  0.55851  1.0000
  H   H714      1.0  0.19486  0.36747  0.96702  1.0000
  C   C407      1.0  0.38092  0.25858  0.74890  1.0000
  H   H715      1.0  0.48829  0.32941  0.68598  1.0000
  H   H716      1.0  0.47417  0.30265  0.78830  1.0000
  H   H717      1.0  0.13600  0.27501  0.82505  1.0000
  H   H718      1.0  0.17458  0.37969  0.98205  1.0000
  H   H719      1.0  0.24065  0.46935  0.60947  1.0000
  H   H720      1.0  0.46252  0.38268  0.62313  1.0000
  C   C408      1.0  0.45815  0.34152  0.51586  1.0000
  Fe  Fe48      1.0  0.37080  0.35354  0.51088  1.0000
  C   C409      1.0  0.27778  0.43145  0.52265  1.0000
  C   C410      1.0  0.40296  0.25140  0.79238  1.0000
  C   C411      1.0  0.45804  0.36946  0.63442  1.0000
  H   H721      1.0  0.26587  0.44121  0.51755  1.0000
  S   S93       1.0  0.21749  0.49249  0.94678  1.0000
  C   C412      1.0  0.48825  0.36713  0.65812  1.0000
  H   H722      1.0  0.48418  0.31178  0.58408  1.0000
  H   H723      1.0  0.35880  0.49343  0.79657  1.0000
  S   S94       1.0  0.26909  0.48581  0.57201  1.0000
  H   H724      1.0  0.11066  0.25066  0.83820  1.0000
  C   C413      1.0  0.49455  0.36497  0.78498  1.0000
  H   H725      1.0  0.99942  0.36058  0.85888  1.0000
  C   C414      1.0  0.36494  0.40906  0.50507  1.0000
  H   H726      1.0  0.49486  0.37706  0.71477  1.0000
  C   C415      1.0  0.48769  0.35056  0.54575  1.0000
  H   H727      1.0  0.06348  0.25468  0.97605  1.0000
  H   H728      1.0  0.00931  0.25409  0.98041  1.0000
  H   H729      1.0  0.42930  0.37586  0.50712  1.0000
  C   C416      1.0  0.42894  0.39140  0.50636  1.0000
  H   H730      1.0  0.44292  0.27965  0.55038  1.0000
  C   C417      1.0  0.04877  0.27792  0.99648  1.0000
  H   H731      1.0  0.41139  0.24854  0.80934  1.0000
  Fe  Fe49      1.0  0.41291  0.65526  0.47200  1.0000
  S   S95       1.0  0.41930  0.64928  0.42881  1.0000
  Fe  Fe50      1.0  0.37261  0.67451  0.30929  1.0000
  S   S96       1.0  0.38764  0.64642  0.30728  1.0000
  S   S97       1.0  0.35978  0.68195  0.34982  1.0000
  Fe  Fe51      1.0  0.38318  0.68579  0.25039  1.0000
  S   S98       1.0  0.39940  0.65863  0.24469  1.0000
  S   S99       1.0  0.38174  0.70552  0.21314  1.0000
  Fe  Fe52      1.0  0.37426  0.64556  0.26818  1.0000
  S   S100      1.0  0.35980  0.62037  0.25496  1.0000
  Fe  Fe53      1.0  0.41096  0.66269  0.28433  1.0000
  S   S101      1.0  0.43985  0.66548  0.29965  1.0000
  S   S102      1.0  0.35777  0.67266  0.27191  1.0000
  S   S103      1.0  0.39603  0.69076  0.28815  1.0000
  H   H732      1.0  0.20572  0.53684  0.43190  1.0000
  S   S104      1.0  0.27221  0.52132  0.43921  1.0000
  S   S105      1.0  0.32206  0.51279  0.47178  1.0000
  H   H733      1.0  0.33249  0.71065  0.12554  1.0000
  Fe  Fe54      1.0  0.08134  0.68116  0.03088  1.0000
  H   H734      1.0  0.13732  0.67473  0.05146  1.0000
  Fe  Fe55      1.0  0.25266  0.58850  0.25106  1.0000
  S   S106      1.0  0.26305  0.55926  0.24320  1.0000
  S   S107      1.0  0.27105  0.61309  0.25640  1.0000
  Fe  Fe56      1.0  0.21150  0.57696  0.25952  1.0000
  S   S108      1.0  0.22005  0.54661  0.25399  1.0000
  S   S109      1.0  0.17958  0.58193  0.26437  1.0000
  Fe  Fe57      1.0  0.24384  0.55072  0.28005  1.0000
  S   S110      1.0  0.25599  0.53009  0.31307  1.0000
  Fe  Fe58      1.0  0.23815  0.55789  0.21782  1.0000
  S   S111      1.0  0.23963  0.54829  0.17404  1.0000
  S   S112      1.0  0.23378  0.58002  0.28808  1.0000
  S   S113      1.0  0.22931  0.58817  0.22315  1.0000
  H   H735      1.0  0.14274  0.61417  0.05037  1.0000
  S   S114      1.0  0.06119  0.63110  0.02959  1.0000
  Fe  Fe59      1.0  0.06252  0.64886  0.06446  1.0000
  S   S115      1.0  0.05087  0.64146  0.10687  1.0000
  S   S116      1.0  0.09257  0.65554  0.05442  1.0000
  Fe  Fe60      1.0  0.05499  0.66716  0.26519  1.0000
  S   S117      1.0  0.05573  0.69590  0.24423  1.0000
  S   S118      1.0  0.02795  0.65173  0.26436  1.0000
  Fe  Fe61      1.0  0.09745  0.66572  0.27315  1.0000
  S   S119      1.0  0.10068  0.69468  0.25277  1.0000
  S   S120      1.0  0.12549  0.65347  0.28707  1.0000
  Fe  Fe62      1.0  0.07392  0.70274  0.27603  1.0000
  S   S121      1.0  0.06738  0.73082  0.29322  1.0000
  Fe  Fe63      1.0  0.08227  0.68564  0.22285  1.0000
  S   S122      1.0  0.08825  0.69466  0.17919  1.0000
  S   S123      1.0  0.07149  0.67451  0.29929  1.0000
  S   S124      1.0  0.08077  0.65609  0.24110  1.0000
  C   C418      1.0  0.35201  0.62979  0.44836  1.0000
  H   H736      1.0  0.42331  0.71718  0.25463  1.0000
  H   H737      1.0  0.07375  0.74345  0.16292  1.0000
  H   H738      1.0  0.45953  0.65435  0.42352  1.0000
  H   H739      1.0  0.32199  0.63463  0.44508  1.0000
  H   H740      1.0  0.35787  0.57866  0.39318  1.0000
  H   H741      1.0  0.18827  0.51151  0.31855  1.0000
  H   H742      1.0  0.39122  0.61769  0.44878  1.0000
  C   C419      1.0  0.19946  0.56779  0.02859  1.0000
  H   H743      1.0  0.09813  0.73416  0.25137  1.0000
  H   H744      1.0  0.00280  0.73799  0.23106  1.0000
  C   C420      1.0  0.05944  0.65740  0.12721  1.0000
  C   C421      1.0  0.05632  0.65505  0.15530  1.0000
  C   C422      1.0  0.06442  0.66710  0.17145  1.0000
  C   C423      1.0  0.07594  0.68119  0.15948  1.0000
  C   C424      1.0  0.07846  0.68393  0.13145  1.0000
  C   C425      1.0  0.07001  0.67221  0.11537  1.0000
  H   H745      1.0  0.04793  0.64378  0.16457  1.0000
  H   H746      1.0  0.06202  0.66521  0.19311  1.0000
  H   H747      1.0  0.08725  0.69484  0.12207  1.0000
  H   H748      1.0  0.07189  0.67465  0.09378  1.0000
  C   C426      1.0  0.16506  0.60255  0.26844  1.0000
  C   C427      1.0  0.17209  0.61929  0.27509  1.0000
  C   C428      1.0  0.15980  0.63482  0.28020  1.0000
  C   C429      1.0  0.14041  0.63401  0.27805  1.0000
  C   C430      1.0  0.13345  0.61745  0.27051  1.0000
  C   C431      1.0  0.14571  0.60180  0.26591  1.0000
  H   H749      1.0  0.18693  0.62016  0.27699  1.0000
  H   H750      1.0  0.16531  0.64751  0.28616  1.0000
  H   H751      1.0  0.11856  0.61650  0.26922  1.0000
  H   H752      1.0  0.14009  0.58893  0.26077  1.0000
  C   C432      1.0  0.20628  0.52061  0.11196  1.0000
  C   C433      1.0  0.19945  0.52056  0.13937  1.0000
  C   C434      1.0  0.20919  0.52908  0.15849  1.0000
  C   C435      1.0  0.22608  0.53782  0.15067  1.0000
  C   C436      1.0  0.45352  0.72264  0.25085  1.0000
  H   H753      1.0  0.45256  0.62022  0.42409  1.0000
  H   H754      1.0  0.20375  0.52868  0.17940  1.0000
  C   C437      1.0  0.33255  0.63634  0.45966  1.0000
  H   H755      1.0  0.48328  0.64809  0.41533  1.0000
  H   H756      1.0  0.40849  0.58489  0.43817  1.0000
  C   C438      1.0  0.26848  0.52388  0.40378  1.0000
  H   H757      1.0  0.39041  0.74462  0.37381  1.0000
  C   C439      1.0  0.27377  0.51462  0.35745  1.0000
  C   C440      1.0  0.26094  0.52866  0.34799  1.0000
  C   C441      1.0  0.25215  0.54056  0.36664  1.0000
  C   C442      1.0  0.25568  0.53799  0.39427  1.0000
  H   H758      1.0  0.36471  0.57321  0.45389  1.0000
  H   H759      1.0  0.38834  0.60635  0.35087  1.0000
  H   H760      1.0  0.24243  0.55157  0.35990  1.0000
  H   H761      1.0  0.24849  0.54707  0.40845  1.0000
  C   C443      1.0  0.29579  0.61404  0.25705  1.0000
  C   C444      1.0  0.30307  0.62929  0.26824  1.0000
  C   C445      1.0  0.32255  0.63114  0.26832  1.0000
  C   C446      1.0  0.33509  0.61796  0.25667  1.0000
  C   C447      1.0  0.32784  0.60253  0.24584  1.0000
  C   C448      1.0  0.30831  0.60051  0.24614  1.0000
  H   H762      1.0  0.29355  0.63981  0.27685  1.0000
  H   H763      1.0  0.32789  0.64282  0.27727  1.0000
  H   H764      1.0  0.33738  0.59219  0.23686  1.0000
  H   H765      1.0  0.30297  0.58873  0.23732  1.0000
  C   C449      1.0  0.38863  0.72882  0.21316  1.0000
  H   H766      1.0  0.13392  0.70334  0.01809  1.0000
  H   H767      1.0  0.47700  0.61445  0.41468  1.0000
  C   C450      1.0  0.46256  0.66338  0.28280  1.0000
  C   C451      1.0  0.47736  0.67206  0.29300  1.0000
  H   H768      1.0  0.45521  0.64560  0.25291  1.0000
  C   C452      1.0  0.00588  0.61745  0.10021  1.0000
  C   C453      1.0  0.40282  0.65956  0.40757  1.0000
  C   C454      1.0  0.40759  0.66147  0.37986  1.0000
  C   C455      1.0  0.39469  0.66947  0.36243  1.0000
  C   C456      1.0  0.37650  0.67446  0.37235  1.0000
  C   C457      1.0  0.37163  0.67259  0.40009  1.0000
  C   C458      1.0  0.38493  0.66552  0.41775  1.0000
  H   H769      1.0  0.42121  0.65666  0.37164  1.0000
  H   H770      1.0  0.39889  0.67155  0.34123  1.0000
  H   H771      1.0  0.35750  0.67613  0.40779  1.0000
  H   H772      1.0  0.38103  0.66407  0.43900  1.0000
  N   N23       1.0  0.33417  0.66622  0.18556  1.0000
  C   C459      1.0  0.31710  0.65808  0.17596  1.0000
  C   C460      1.0  0.35017  0.65182  0.18215  1.0000
  C   C461      1.0  0.33155  0.67070  0.21481  1.0000
  C   C462      1.0  0.31139  0.67675  0.22585  1.0000
  C   C463      1.0  0.31221  0.63840  0.18930  1.0000
  C   C464      1.0  0.36989  0.65821  0.18688  1.0000
  C   C465      1.0  0.31129  0.68517  0.25305  1.0000
  C   C466      1.0  0.38432  0.64180  0.18605  1.0000
  H   H773      1.0  0.30454  0.66755  0.17875  1.0000
  H   H774      1.0  0.34767  0.63922  0.19638  1.0000
  H   H775      1.0  0.33582  0.65839  0.22829  1.0000
  H   H776      1.0  0.34120  0.68179  0.21850  1.0000
  H   H777      1.0  0.30239  0.66447  0.22880  1.0000
  H   H778      1.0  0.30456  0.68724  0.21203  1.0000
  H   H779      1.0  0.32148  0.62746  0.17982  1.0000
  H   H780      1.0  0.31431  0.63731  0.21108  1.0000
  H   H781      1.0  0.36971  0.66424  0.20669  1.0000
  H   H782      1.0  0.32016  0.69755  0.25138  1.0000
  H   H783      1.0  0.29676  0.68970  0.25991  1.0000
  H   H784      1.0  0.21724  0.53508  0.34169  1.0000
  H   H785      1.0  0.38461  0.63520  0.16661  1.0000
  N   N24       1.0  0.13434  0.64171  0.18782  1.0000
  C   C467      1.0  0.12730  0.65884  0.20202  1.0000
  C   C468      1.0  0.12080  0.62629  0.19543  1.0000
  C   C469      1.0  0.15284  0.63540  0.19874  1.0000
  C   C470      1.0  0.13725  0.64536  0.15749  1.0000
  C   C471      1.0  0.12392  0.66038  0.14400  1.0000
  C   C472      1.0  0.14027  0.67583  0.19836  1.0000
  C   C473      1.0  0.16175  0.61652  0.18963  1.0000
  C   C474      1.0  0.10118  0.62923  0.18458  1.0000
  C   C475      1.0  0.08804  0.61409  0.19682  1.0000
  C   C476      1.0  0.12547  0.65972  0.11334  1.0000
  C   C477      1.0  0.15050  0.67839  0.22347  1.0000
  C   C478      1.0  0.18240  0.61434  0.19534  1.0000
  H   H786      1.0  0.12419  0.65509  0.22403  1.0000
  H   H787      1.0  0.11355  0.66411  0.19538  1.0000
  H   H788      1.0  0.12641  0.61285  0.18775  1.0000
  H   H789      1.0  0.11894  0.62377  0.21781  1.0000
  H   H790      1.0  0.15138  0.63412  0.22120  1.0000
  H   H791      1.0  0.16341  0.64616  0.19302  1.0000
  H   H792      1.0  0.15170  0.64998  0.15133  1.0000
  H   H793      1.0  0.13627  0.63207  0.14763  1.0000
  H   H794      1.0  0.12746  0.67465  0.14848  1.0000
  H   H795      1.0  0.10911  0.65857  0.15116  1.0000
  H   H796      1.0  0.15064  0.67502  0.18068  1.0000
  H   H797      1.0  0.13149  0.68883  0.19439  1.0000
  H   H798      1.0  0.16083  0.61533  0.16776  1.0000
  H   H799      1.0  0.15452  0.60464  0.20108  1.0000
  H   H800      1.0  0.09444  0.64288  0.18932  1.0000
  H   H801      1.0  0.10228  0.62838  0.16237  1.0000
  H   H802      1.0  0.09375  0.59997  0.19191  1.0000
  H   H803      1.0  0.08597  0.61461  0.21907  1.0000
  H   H804      1.0  0.07418  0.61653  0.18845  1.0000
  H   H805      1.0  0.12055  0.64621  0.10773  1.0000
  H   H806      1.0  0.11647  0.67119  0.10428  1.0000
  H   H807      1.0  0.14014  0.66156  0.10487  1.0000
  H   H808      1.0  0.15962  0.66599  0.22890  1.0000
  H   H809      1.0  0.15932  0.69078  0.21970  1.0000
  H   H810      1.0  0.14029  0.68086  0.24094  1.0000
  H   H811      1.0  0.18808  0.60020  0.19058  1.0000
  H   H812      1.0  0.19072  0.62496  0.18281  1.0000
  H   H813      1.0  0.18406  0.61592  0.21695  1.0000
  H   H814      1.0  0.01075  0.59186  0.12580  1.0000
  H   H815      1.0  0.42268  0.60847  0.46314  1.0000
  H   H816      1.0  0.31903  0.65677  0.15378  1.0000
  H   H817      1.0  0.15714  0.66486  0.03137  1.0000
  H   H818      1.0  0.46023  0.68490  0.21997  1.0000
  H   H819      1.0  0.28211  0.64361  0.19698  1.0000
  H   H820      1.0  0.38779  0.73705  0.32771  1.0000
  C   C479      1.0  0.37721  0.60921  0.40604  1.0000
  H   H821      1.0  0.37884  0.62447  0.40723  1.0000
  H   H822      1.0  0.34979  0.54588  0.43569  1.0000
  C   C480      1.0  0.29197  0.63387  0.18602  1.0000
  H   H823      1.0  0.41313  0.60583  0.35452  1.0000
  H   H824      1.0  0.38104  0.63109  0.20289  1.0000
  H   H825      1.0  0.37953  0.71241  0.39548  1.0000
  H   H826      1.0  0.20649  0.57955  0.03619  1.0000
  C   C481      1.0  0.14163  0.66617  0.03419  1.0000
  H   H827      1.0  0.09372  0.59168  0.02316  1.0000
  C   C482      1.0  0.21630  0.50111  0.32362  1.0000
  H   H828      1.0  0.28070  0.50527  0.34341  1.0000
  H   H829      1.0  0.48114  0.70549  0.22417  1.0000
  C   C483      1.0  0.47709  0.71899  0.21310  1.0000
  C   C484      1.0  0.00709  0.70784  0.23091  1.0000
  H   H830      1.0  0.34290  0.67967  0.14652  1.0000
  H   H831      1.0  0.01591  0.70034  0.28429  1.0000
  C   C485      1.0  0.01132  0.71439  0.32072  1.0000
  H   H832      1.0  0.00935  0.72860  0.32805  1.0000
  H   H833      1.0  0.22198  0.50580  0.30290  1.0000
  H   H834      1.0  0.35547  0.63862  0.42952  1.0000
  C   C486      1.0  0.09540  0.74696  0.03493  1.0000
  H   H835      1.0  0.39237  0.71565  0.34816  1.0000
  H   H836      1.0  0.12420  0.52013  0.06387  1.0000
  C   C487      1.0  0.37740  0.73804  0.36965  1.0000
  C   C488      1.0  0.38949  0.73786  0.23695  1.0000
  H   H837      1.0  0.17596  0.52927  0.37399  1.0000
  C   C489      1.0  0.36889  0.57927  0.43304  1.0000
  H   H838      1.0  0.35196  0.68964  0.17416  1.0000
  C   C490      1.0  0.49597  0.66930  0.28207  1.0000
  N   N25       1.0  0.15903  0.56202  0.08630  1.0000
  C   C491      1.0  0.17833  0.56305  0.07173  1.0000
  C   C492      1.0  0.16037  0.55914  0.11655  1.0000
  C   C493      1.0  0.15009  0.54505  0.07752  1.0000
  C   C494      1.0  0.14667  0.57901  0.07916  1.0000
  C   C495      1.0  0.15398  0.59814  0.08480  1.0000
  H   H839      1.0  0.09993  0.55721  0.02405  1.0000
  C   C496      1.0  0.13025  0.54096  0.09114  1.0000
  C   C497      1.0  0.17686  0.56803  0.12852  1.0000
  C   C498      1.0  0.17474  0.56625  0.15935  1.0000
  C   C499      1.0  0.48695  0.67170  0.36746  1.0000
  H   H840      1.0  0.18657  0.54975  0.07627  1.0000
  H   H841      1.0  0.18640  0.57418  0.07894  1.0000
  H   H842      1.0  0.14714  0.56417  0.12750  1.0000
  H   H843      1.0  0.16195  0.54388  0.12291  1.0000
  H   H844      1.0  0.15940  0.53232  0.08095  1.0000
  H   H845      1.0  0.14842  0.54641  0.05554  1.0000
  H   H846      1.0  0.14358  0.57945  0.05759  1.0000
  H   H847      1.0  0.13272  0.57804  0.09059  1.0000
  H   H848      1.0  0.16853  0.60000  0.07603  1.0000
  H   H849      1.0  0.15332  0.59941  0.10687  1.0000
  H   H850      1.0  0.01409  0.69588  0.24203  1.0000
  H   H851      1.0  0.39883  0.62612  0.36316  1.0000
  H   H852      1.0  0.11974  0.55126  0.08282  1.0000
  H   H853      1.0  0.12949  0.54169  0.11330  1.0000
  H   H854      1.0  0.19029  0.56063  0.12213  1.0000
  H   H855      1.0  0.17799  0.58305  0.12185  1.0000
  H   H856      1.0  0.16247  0.57489  0.16703  1.0000
  H   H857      1.0  0.17303  0.55141  0.16706  1.0000
  H   H858      1.0  0.18754  0.57113  0.16726  1.0000
  H   H859      1.0  0.45555  0.70915  0.38175  1.0000
  C   C500      1.0  0.14012  0.55797  0.31313  1.0000
  H   H860      1.0  0.36806  0.54581  0.40829  1.0000
  H   H861      1.0  0.39230  0.73179  0.16981  1.0000
  H   H862      1.0  0.21229  0.56651  0.33966  1.0000
  N   N26       1.0  0.30327  0.57499  0.32970  1.0000
  C   C501      1.0  0.28956  0.59164  0.33101  1.0000
  C   C502      1.0  0.32302  0.58135  0.32233  1.0000
  C   C503      1.0  0.29797  0.56363  0.30741  1.0000
  C   C504      1.0  0.30225  0.56260  0.35561  1.0000
  C   C505      1.0  0.30650  0.57193  0.38120  1.0000
  C   C506      1.0  0.26892  0.58726  0.34012  1.0000
  C   C507      1.0  0.31134  0.54664  0.30056  1.0000
  C   C508      1.0  0.32844  0.59995  0.33309  1.0000
  C   C509      1.0  0.34960  0.60221  0.32960  1.0000
  C   C510      1.0  0.30143  0.55943  0.40676  1.0000
  C   C511      1.0  0.25643  0.60515  0.33922  1.0000
  C   C512      1.0  0.30606  0.53811  0.27527  1.0000
  H   H863      1.0  0.28984  0.59969  0.31096  1.0000
  H   H864      1.0  0.29352  0.60172  0.34503  1.0000
  H   H865      1.0  0.33338  0.57013  0.32869  1.0000
  H   H866      1.0  0.32573  0.58359  0.29997  1.0000
  H   H867      1.0  0.29670  0.57284  0.28850  1.0000
  H   H868      1.0  0.28399  0.55771  0.31242  1.0000
  H   H869      1.0  0.28836  0.55621  0.35923  1.0000
  H   H870      1.0  0.31240  0.55043  0.35407  1.0000
  H   H871      1.0  0.29857  0.58546  0.38321  1.0000
  H   H872      1.0  0.32170  0.57426  0.38043  1.0000
  H   H873      1.0  0.26320  0.57759  0.32698  1.0000
  H   H874      1.0  0.26769  0.58090  0.36118  1.0000
  H   H875      1.0  0.31043  0.53549  0.31732  1.0000
  H   H876      1.0  0.32611  0.55065  0.29674  1.0000
  H   H877      1.0  0.32171  0.61200  0.32160  1.0000
  H   H878      1.0  0.32395  0.60095  0.35468  1.0000
  H   H879      1.0  0.35687  0.59133  0.34250  1.0000
  H   H880      1.0  0.35494  0.60099  0.30825  1.0000
  H   H881      1.0  0.35294  0.61624  0.33541  1.0000
  H   H882      1.0  0.28600  0.55857  0.41018  1.0000
  H   H883      1.0  0.30780  0.54505  0.40532  1.0000
  H   H884      1.0  0.30650  0.56542  0.42453  1.0000
  H   H885      1.0  0.25645  0.61163  0.31822  1.0000
  H   H886      1.0  0.24186  0.60170  0.34641  1.0000
  H   H887      1.0  0.26128  0.61539  0.35241  1.0000
  H   H888      1.0  0.01453  0.62652  0.08549  1.0000
  C   C513      1.0  0.00963  0.72657  0.24368  1.0000
  H   H889      1.0  0.31568  0.52591  0.27094  1.0000
  H   H890      1.0  0.45904  0.60772  0.39456  1.0000
  H   H891      1.0  0.03057  0.71129  0.20029  1.0000
  H   H892      1.0  0.34383  0.54786  0.40122  1.0000
  C   C514      1.0  0.34205  0.70898  0.44033  1.0000
  H   H893      1.0  0.34653  0.60085  0.46139  1.0000
  H   H894      1.0  0.22744  0.50170  0.33769  1.0000
  C   C515      1.0  0.33921  0.69285  0.46201  1.0000
  H   H895      1.0  0.42969  0.71632  0.20965  1.0000
  H   H896      1.0  0.13386  0.54443  0.32036  1.0000
  N   N27       1.0  0.37127  0.60009  0.43354  1.0000
  C   C516      1.0  0.39919  0.61060  0.36350  1.0000
  C   C517      1.0  0.36979  0.72494  0.39385  1.0000
  H   H897      1.0  0.34098  0.70342  0.42047  1.0000
  H   H898      1.0  0.33029  0.71940  0.44366  1.0000
  H   H899      1.0  0.09628  0.73006  0.12814  1.0000
  H   H900      1.0  0.16148  0.57567  0.32192  1.0000
  C   C518      1.0  0.14186  0.61427  0.07270  1.0000
  H   H901      1.0  0.18391  0.52750  0.42485  1.0000
  H   H902      1.0  0.32539  0.68680  0.46068  1.0000
  C   C519      1.0  0.00561  0.63920  0.01600  1.0000
  N   N28       1.0  0.47253  0.67230  0.39121  1.0000
  C   C520      1.0  0.01541  0.70850  0.20163  1.0000
  C   C521      1.0  0.38510  0.60369  0.45373  1.0000
  C   C522      1.0  0.45391  0.67833  0.38048  1.0000
  C   C523      1.0  0.10744  0.58608  0.01638  1.0000
  H   H903      1.0  0.34222  0.60782  0.42736  1.0000
  C   C524      1.0  0.46469  0.63732  0.38945  1.0000
  C   C525      1.0  0.45195  0.69880  0.36786  1.0000
  H   H904      1.0  0.01109  0.66606  0.31412  1.0000
  H   H905      1.0  0.12697  0.61319  0.08064  1.0000
  H   H906      1.0  0.40775  0.60607  0.40352  1.0000
  H   H907      1.0  0.04005  0.71225  0.33217  1.0000
  C   C526      1.0  0.43180  0.70355  0.36101  1.0000
  C   C527      1.0  0.08959  0.73135  0.02295  1.0000
  H   H908      1.0  0.03018  0.69000  0.32827  1.0000
  H   H909      1.0  0.17202  0.58059  0.03498  1.0000
  H   H910      1.0  0.29154  0.53317  0.27823  1.0000
  H   H911      1.0  0.44248  0.67648  0.39691  1.0000
  H   H912      1.0  0.45074  0.66936  0.36435  1.0000
  H   H913      1.0  0.49019  0.71370  0.31730  1.0000
  H   H914      1.0  0.01387  0.69477  0.19335  1.0000
  H   H915      1.0  0.35668  0.71946  0.38769  1.0000
  C   C528      1.0  0.17918  0.56697  0.04068  1.0000
  H   H916      1.0  0.45082  0.64045  0.38153  1.0000
  H   H917      1.0  0.47523  0.63506  0.37231  1.0000
  Fe  Fe64      1.0  0.18892  0.50278  0.04469  1.0000
  H   H918      1.0  0.02700  0.59490  0.09631  1.0000
  Fe  Fe65      1.0  0.05220  0.65848  0.00805  1.0000
  C   C529      1.0  0.43157  0.72317  0.29323  1.0000
  H   H919      1.0  0.18615  0.55262  0.42461  1.0000
  H   H920      1.0  0.18860  0.61250  0.35865  1.0000
  N   N29       1.0  0.00270  0.72729  0.27306  1.0000
  H   H921      1.0  0.17262  0.55581  0.03117  1.0000
  C   C530      1.0  0.49530  0.72319  0.29984  1.0000
  C   C531      1.0  0.38349  0.74209  0.42893  1.0000
  C   C532      1.0  0.41622  0.59594  0.47395  1.0000
  C   C533      1.0  0.48509  0.64953  0.25008  1.0000
  H   H922      1.0  0.33958  0.69793  0.48244  1.0000
  H   H923      1.0  0.42193  0.70172  0.37932  1.0000
  H   H924      1.0  0.43046  0.71834  0.35271  1.0000
  H   H925      1.0  0.42778  0.69431  0.34576  1.0000
  H   H926      1.0  0.39589  0.57596  0.46872  1.0000
  H   H927      1.0  0.18655  0.51376  0.14597  1.0000
  H   H928      1.0  0.42738  0.58488  0.47697  1.0000
  H   H929      1.0  0.35032  0.68167  0.45924  1.0000
  C   C534      1.0  0.39602  0.60192  0.39241  1.0000
  C   C535      1.0  0.44467  0.71128  0.20801  1.0000
  C   C536      1.0  0.44559  0.69051  0.21942  1.0000
  H   H930      1.0  0.00803  0.71954  0.18911  1.0000
  H   H931      1.0  0.32035  0.72755  0.14636  1.0000
  H   H932      1.0  0.03050  0.71923  0.28489  1.0000
  C   C537      1.0  0.43563  0.67819  0.20199  1.0000
  H   H933      1.0  0.02903  0.60850  0.12466  1.0000
  H   H934      1.0  0.47941  0.71623  0.19140  1.0000
  C   C538      1.0  0.35440  0.57326  0.41436  1.0000
  H   H935      1.0  0.32848  0.62830  0.47903  1.0000
  H   H936      1.0  0.01865  0.63213  0.02108  1.0000
  H   H937      1.0  0.46110  0.70069  0.34888  1.0000
  H   H938      1.0  0.33928  0.74341  0.40749  1.0000
  H   H939      1.0  0.20852  0.53869  0.30987  1.0000
  H   H940      1.0  0.08574  0.74512  0.10208  1.0000
  C   C539      1.0  0.48920  0.67936  0.43388  1.0000
  H   H941      1.0  0.43618  0.66347  0.21082  1.0000
  H   H942      1.0  0.42074  0.68305  0.20097  1.0000
  H   H943      1.0  0.44261  0.67851  0.18124  1.0000
  C   C540      1.0  0.33927  0.68350  0.16762  1.0000
  C   C541      1.0  0.01579  0.71507  0.28970  1.0000
  H   H944      1.0  0.31643  0.67462  0.26849  1.0000
  C   C542      1.0  0.33093  0.71571  0.14612  1.0000
  C   C543      1.0  0.47028  0.65324  0.40615  1.0000
  C   C544      1.0  0.46645  0.65243  0.26088  1.0000
  S   S125      1.0  0.05143  0.67541  0.04396  1.0000
  H   H945      1.0  0.30717  0.54855  0.25759  1.0000
  C   C545      1.0  0.09423  0.74790  0.25785  1.0000
  H   H946      1.0  0.15109  0.56182  0.35090  1.0000
  H   H947      1.0  0.21008  0.55146  0.38538  1.0000
  C   C546      1.0  0.01893  0.60226  0.11261  1.0000
  C   C547      1.0  0.27771  0.51240  0.38493  1.0000
  H   H948      1.0  0.39847  0.64689  0.18804  1.0000
  H   H949      1.0  0.18668  0.60528  0.32531  1.0000
  H   H950      1.0  0.43557  0.70837  0.29929  1.0000
  H   H951      1.0  0.45837  0.70852  0.25924  1.0000
  H   H952      1.0  0.31081  0.69569  0.16169  1.0000
  H   H953      1.0  0.34450  0.72098  0.15091  1.0000
  S   S126      1.0  0.09371  0.70873  0.03899  1.0000
  H   H954      1.0  0.20898  0.60296  0.33986  1.0000
  H   H955      1.0  0.38228  0.57183  0.42692  1.0000
  H   H956      1.0  0.48380  0.70424  0.45633  1.0000
  H   H957      1.0  0.38602  0.73042  0.25630  1.0000
  H   H958      1.0  0.02485  0.72930  0.24086  1.0000
  C   C548      1.0  0.23279  0.53800  0.12321  1.0000
  H   H959      1.0  0.17709  0.54723  0.30384  1.0000
  H   H960      1.0  0.43870  0.68899  0.24021  1.0000
  H   H961      1.0  0.34006  0.57834  0.42108  1.0000
  H   H962      1.0  0.32298  0.70614  0.18681  1.0000
  C   C549      1.0  0.49156  0.73333  0.21885  1.0000
  H   H963      1.0  0.36113  0.72296  0.46241  1.0000
  C   C550      1.0  0.22298  0.52962  0.10404  1.0000
  H   H964      1.0  0.22857  0.52987  0.08321  1.0000
  H   H965      1.0  0.24582  0.54461  0.11670  1.0000
  H   H966      1.0  0.43005  0.72971  0.44069  1.0000
  H   H967      1.0  0.47443  0.68074  0.30970  1.0000
  H   H968      1.0  0.46205  0.73272  0.25970  1.0000
  C   C551      1.0  0.40092  0.72871  0.43240  1.0000
  C   C552      1.0  0.19693  0.56710  0.33750  1.0000
  C   C553      1.0  0.35406  0.55191  0.41498  1.0000
  H   H969      1.0  0.19418  0.50809  0.35307  1.0000
  N   N30       1.0  0.18907  0.54777  0.34218  1.0000
  H   H970      1.0  0.10093  0.74504  0.05451  1.0000
  C   C554      1.0  0.20026  0.53992  0.38969  1.0000
  H   H971      1.0  0.19568  0.57249  0.31612  1.0000
  H   H972      1.0  0.36609  0.60837  0.39199  1.0000
  H   H973      1.0  0.20827  0.52656  0.38605  1.0000
  C   C555      1.0  0.11101  0.56651  0.01687  1.0000
  S   S127      1.0  0.42167  0.68158  0.48773  1.0000
  C   C556      1.0  0.02712  0.70419  0.33546  1.0000
  C   C557      1.0  0.36125  0.71779  0.44190  1.0000
  S   S128      1.0  0.38387  0.65622  0.49224  1.0000
  C   C558      1.0  0.15650  0.56164  0.32944  1.0000
  H   H974      1.0  0.48055  0.67062  0.44904  1.0000
  C   C559      1.0  0.20421  0.53431  0.33131  1.0000
  H   H975      1.0  0.48818  0.68585  0.35677  1.0000
  C   C560      1.0  0.35242  0.60877  0.44273  1.0000
  H   H976      1.0  0.37482  0.66885  0.17081  1.0000
  H   H977      1.0  0.17330  0.55286  0.38006  1.0000
  H   H978      1.0  0.28934  0.61939  0.19472  1.0000
  C   C561      1.0  0.18365  0.54248  0.37153  1.0000
  C   C562      1.0  0.19350  0.53919  0.41958  1.0000
  H   H979      1.0  0.41688  0.72606  0.30117  1.0000
  H   H980      1.0  0.42849  0.74124  0.25768  1.0000
  H   H981      1.0  0.17342  0.58227  0.36024  1.0000
  C   C563      1.0  0.19363  0.60195  0.34426  1.0000
  H   H982      1.0  0.28923  0.63482  0.16438  1.0000
  H   H983      1.0  0.44071  0.73263  0.30225  1.0000
  C   C564      1.0  0.32457  0.70002  0.16696  1.0000
  C   C565      1.0  0.18880  0.58234  0.35631  1.0000
  H   H984      1.0  0.19480  0.58011  0.37616  1.0000
  H   H985      1.0  0.39655  0.58651  0.39153  1.0000
  H   H986      1.0  0.37202  0.70607  0.44115  1.0000
  C   C566      1.0  0.39296  0.73864  0.18825  1.0000
  H   H987      1.0  0.14488  0.55773  0.29137  1.0000
  N   N31       1.0  0.45676  0.72430  0.22052  1.0000
  C   C567      1.0  0.43312  0.72646  0.26255  1.0000
  N   N32       1.0  0.36629  0.73339  0.42073  1.0000
  H   H988      1.0  0.13619  0.65194  0.03893  1.0000
  H   H989      1.0  0.48805  0.64057  0.23366  1.0000
  H   H990      1.0  0.33261  0.65137  0.46350  1.0000
  C   C568      1.0  0.46328  0.61882  0.40686  1.0000
  H   H991      1.0  0.16592  0.53274  0.33056  1.0000
  C   C569      1.0  0.17244  0.54651  0.32582  1.0000
  H   H992      1.0  0.35104  0.64677  0.16149  1.0000
  H   H993      1.0  0.20736  0.55444  0.03376  1.0000
  H   H994      1.0  0.12917  0.56937  0.31537  1.0000
  H   H995      1.0  0.37785  0.60438  0.47430  1.0000
  C   C570      1.0  0.47722  0.68649  0.41033  1.0000
  H   H996      1.0  0.13425  0.51057  0.09441  1.0000
  C   C571      1.0  0.08322  0.73777  0.12241  1.0000
  H   H997      1.0  0.14690  0.62784  0.07784  1.0000
  C   C572      1.0  0.12442  0.52146  0.08585  1.0000
  H   H998      1.0  0.36906  0.72163  0.33803  1.0000
  H   H999      1.0  0.39845  0.71862  0.45028  1.0000
  H   H1000     1.0  0.44858  0.71135  0.18595  1.0000
  C   C573      1.0  0.00507  0.66061  0.27409  1.0000
  C   C574      1.0  0.40140  0.58885  0.45755  1.0000
  C   C575      1.0  0.38195  0.72735  0.34444  1.0000
  H   H1001     1.0  0.46413  0.69253  0.42060  1.0000
  S   S129      1.0  0.19354  0.50896  0.08887  1.0000
  H   H1002     1.0  0.40443  0.72078  0.41435  1.0000
  H   H1003     1.0  0.36200  0.63244  0.46321  1.0000
  Fe  Fe66      1.0  0.29098  0.50853  0.47272  1.0000
  H   H1004     1.0  0.11013  0.51905  0.09548  1.0000
  H   H1005     1.0  0.48991  0.73685  0.24013  1.0000
  C   C576      1.0  0.19923  0.51341  0.33242  1.0000
  H   H1006     1.0  0.44544  0.74126  0.16848  1.0000
  C   C577      1.0  0.45182  0.74414  0.21023  1.0000
  H   H1007     1.0  0.07233  0.72739  0.12144  1.0000
  H   H1008     1.0  0.48236  0.66277  0.35218  1.0000
  H   H1009     1.0  0.48415  0.73408  0.29576  1.0000
  H   H1010     1.0  0.46986  0.74423  0.17178  1.0000
  H   H1011     1.0  0.00690  0.63716  0.12995  1.0000
  C   C578      1.0  0.41804  0.73964  0.43683  1.0000
  C   C579      1.0  0.00035  0.66609  0.30017  1.0000
  H   H1012     1.0  0.02303  0.70271  0.35745  1.0000
  H   H1013     1.0  0.46741  0.64642  0.49685  1.0000
  H   H1014     1.0  0.99839  0.70666  0.32663  1.0000
  H   H1015     1.0  0.48428  0.69851  0.39887  1.0000
  H   H1016     1.0  0.40987  0.59950  0.49407  1.0000
  H   H1017     1.0  0.28756  0.50146  0.39165  1.0000
  Fe  Fe67      1.0  0.09073  0.63993  0.01756  1.0000
  Fe  Fe68      1.0  0.15827  0.51463  0.00675  1.0000
  C   C580      1.0  0.00229  0.74738  0.28028  1.0000
  H   H1018     1.0  0.11809  0.67552  0.01243  1.0000
  H   H1019     1.0  0.43663  0.74751  0.21481  1.0000
  H   H1020     1.0  0.48998  0.74652  0.20587  1.0000
  C   C581      1.0  0.48003  0.65202  0.50283  1.0000
  S   S130      1.0  0.13193  0.53407  0.00750  1.0000
  C   C582      1.0  0.13355  0.67500  0.00855  1.0000
  S   S131      1.0  0.18822  0.52262  0.00708  1.0000
  C   C583      1.0  0.12864  0.55888  0.00771  1.0000
  C   C584      1.0  0.12144  0.59833  0.00645  1.0000
  H   H1021     1.0  0.15516  0.72743  0.00668  1.0000
  C   C585      1.0  0.49592  0.69558  0.44817  1.0000
  H   H1022     1.0  0.00000  0.66396  0.10106  1.0000
  C   C586      1.0  0.35000  0.74767  0.42046  1.0000
  H   H1023     1.0  0.19970  0.56998  0.00628  1.0000
  S   S132      1.0  0.11750  0.62314  0.00428  1.0000
  C   C587      1.0  0.49751  0.64702  0.48989  1.0000
  C   C588      1.0  0.35274  0.60361  0.52179  1.0000
  H   H1024     1.0  0.23417  0.52385  0.67038  1.0000
  C   C589      1.0  0.30354  0.54006  0.58049  1.0000
  Fe  Fe69      1.0  0.39648  0.63839  0.52553  1.0000
  H   H1025     1.0  0.26961  0.56198  0.63261  1.0000
  S   S133      1.0  0.38615  0.60999  0.54371  1.0000
  H   H1026     1.0  0.47417  0.59529  0.55692  1.0000
  H   H1027     1.0  0.11743  0.68326  0.96494  1.0000
  S   S134      1.0  0.40330  0.66369  0.54694  1.0000
  H   H1028     1.0  0.36729  0.73870  0.59297  1.0000
  H   H1029     1.0  0.15625  0.56552  0.99056  1.0000
  H   H1030     1.0  0.08083  0.70096  0.95021  1.0000
  H   H1031     1.0  0.24035  0.56204  0.57227  1.0000
  H   H1032     1.0  0.25552  0.51563  0.61113  1.0000
  C   C590      1.0  0.40656  0.73171  0.51122  1.0000
  H   H1033     1.0  0.32732  0.54335  0.60394  1.0000
  N   N33       1.0  0.13585  0.70468  0.97428  1.0000
  C   C591      1.0  0.47809  0.60984  0.55932  1.0000
  H   H1034     1.0  0.29432  0.53992  0.62324  1.0000
  H   H1035     1.0  0.37601  0.67349  0.59840  1.0000
  Fe  Fe70      1.0  0.39364  0.68135  0.51091  1.0000
  H   H1036     1.0  0.33341  0.53778  0.56966  1.0000
  C   C592      1.0  0.09207  0.69934  0.93372  1.0000
  H   H1037     1.0  0.08711  0.70644  0.91488  1.0000
  C   C593      1.0  0.26567  0.56162  0.61162  1.0000
  C   C594      1.0  0.25639  0.52925  0.62023  1.0000
  H   H1038     1.0  0.16421  0.68759  0.90295  1.0000
  H   H1039     1.0  0.10628  0.70116  0.98335  1.0000
  H   H1040     1.0  0.28981  0.51954  0.60697  1.0000
  H   H1041     1.0  0.24179  0.53529  0.62206  1.0000
  H   H1042     1.0  0.46051  0.70824  0.55966  1.0000
  H   H1043     1.0  0.25177  0.50938  0.68683  1.0000
  H   H1044     1.0  0.38364  0.56992  0.54463  1.0000
  H   H1045     1.0  0.07823  0.72213  0.98794  1.0000
  S   S135      1.0  0.32195  0.55855  0.51211  1.0000
  H   H1046     1.0  0.40594  0.68874  0.63078  1.0000
  C   C595      1.0  0.42861  0.74519  0.65616  1.0000
  H   H1047     1.0  0.23328  0.53826  0.58047  1.0000
  H   H1048     1.0  0.30082  0.53200  0.56327  1.0000
  C   C596      1.0  0.00587  0.65533  0.99828  1.0000
  C   C597      1.0  0.16924  0.67943  0.92101  1.0000
  H   H1049     1.0  0.04885  0.74604  0.93942  1.0000
  H   H1050     1.0  0.12050  0.70652  0.92298  1.0000
  C   C598      1.0  0.36905  0.59580  0.53242  1.0000
  C   C599      1.0  0.37119  0.57614  0.53616  1.0000
  C   C600      1.0  0.35725  0.56443  0.52941  1.0000
  C   C601      1.0  0.26387  0.54112  0.57361  1.0000
  H   H1051     1.0  0.14175  0.67471  0.93950  1.0000
  H   H1052     1.0  0.37898  0.74535  0.62091  1.0000
  S   S136      1.0  0.45731  0.66974  0.54122  1.0000
  H   H1053     1.0  0.27515  0.57731  0.57317  1.0000
  H   H1054     1.0  0.24251  0.50192  0.65723  1.0000
  C   C602      1.0  0.47896  0.66393  0.52383  1.0000
  S   S137      1.0  0.02722  0.66406  0.98341  1.0000
  C   C603      1.0  0.24666  0.51430  0.66696  1.0000
  H   H1055     1.0  0.29137  0.57628  0.59922  1.0000
  H   H1056     1.0  0.38725  0.70586  0.57992  1.0000
  C   C604      1.0  0.26212  0.52445  0.64946  1.0000
  S   S138      1.0  0.08159  0.66619  0.99290  1.0000
  H   H1057     1.0  0.16324  0.73421  0.97228  1.0000
  H   H1058     1.0  0.15576  0.69487  0.00329  1.0000
  H   H1059     1.0  0.27015  0.59792  0.62523  1.0000
  H   H1060     1.0  0.43468  0.74351  0.56447  1.0000
  H   H1061     1.0  0.49471  0.68026  0.54776  1.0000
  C   C605      1.0  0.27638  0.57750  0.59511  1.0000
  C   C606      1.0  0.38718  0.73063  0.51046  1.0000
  H   H1062     1.0  0.03550  0.72978  0.96221  1.0000
  H   H1063     1.0  0.13155  0.73336  0.95746  1.0000
  C   C607      1.0  0.26892  0.59674  0.60338  1.0000
  H   H1064     1.0  0.40125  0.72254  0.64089  1.0000
  S   S139      1.0  0.42537  0.63637  0.50422  1.0000
  H   H1065     1.0  0.27490  0.51505  0.64933  1.0000
  H   H1066     1.0  0.18278  0.68481  0.92563  1.0000
  C   C608      1.0  0.24009  0.54533  0.53854  1.0000
  H   H1067     1.0  0.42434  0.71515  0.63009  1.0000
  S   S140      1.0  0.37639  0.70879  0.51156  1.0000
  H   H1068     1.0  0.25045  0.56564  0.61274  1.0000
  H   H1069     1.0  0.25403  0.59914  0.59898  1.0000
  C   C609      1.0  0.11000  0.70807  0.94035  1.0000
  H   H1070     1.0  0.26645  0.52650  0.56764  1.0000
  C   C610      1.0  0.45408  0.72174  0.55163  1.0000
  H   H1071     1.0  0.39460  0.73759  0.56348  1.0000
  C   C611      1.0  0.24343  0.54719  0.56805  1.0000
  H   H1072     1.0  0.35912  0.54937  0.53250  1.0000
  H   H1073     1.0  0.26502  0.53712  0.65945  1.0000
  N   N34       1.0  0.26898  0.54215  0.60218  1.0000
  C   C612      1.0  0.11723  0.69858  0.96676  1.0000
  H   H1074     1.0  0.40967  0.68126  0.59708  1.0000
  H   H1075     1.0  0.37268  0.68005  0.63286  1.0000
  H   H1076     1.0  0.41543  0.71911  0.51062  1.0000
  Fe  Fe71      1.0  0.43112  0.66279  0.52249  1.0000
  C   C613      1.0  0.37593  0.74723  0.51067  1.0000
  H   H1077     1.0  0.12159  0.72883  0.99100  1.0000
  H   H1078     1.0  0.36094  0.74658  0.50992  1.0000
  H   H1079     1.0  0.27301  0.54974  0.55900  1.0000
  H   H1080     1.0  0.44682  0.73072  0.59099  1.0000
  H   H1081     1.0  0.27721  0.60783  0.59180  1.0000
  C   C614      1.0  0.13402  0.72555  0.97708  1.0000
  C   C615      1.0  0.43950  0.72943  0.57256  1.0000
  H   H1082     1.0  0.46800  0.61970  0.54914  1.0000
  C   C616      1.0  0.03451  0.74175  0.94674  1.0000
  H   H1083     1.0  0.30295  0.55501  0.57325  1.0000
  C   C617      1.0  0.28905  0.53515  0.60465  1.0000
  C   C618      1.0  0.32351  0.53487  0.58769  1.0000
  C   C619      1.0  0.33861  0.59193  0.51575  1.0000
  H   H1084     1.0  0.22544  0.54990  0.53493  1.0000
  H   H1085     1.0  0.47698  0.61238  0.58108  1.0000
  C   C620      1.0  0.39768  0.74009  0.58429  1.0000
  H   H1086     1.0  0.10655  0.72319  0.94234  1.0000
  H   H1087     1.0  0.15009  0.60001  0.98982  1.0000
  H   H1088     1.0  0.09464  0.68420  0.93073  1.0000
  H   H1089     1.0  0.46534  0.73185  0.54671  1.0000
  C   C621      1.0  0.15102  0.73462  0.98744  1.0000
  C   C622      1.0  0.15143  0.70111  0.95283  1.0000
  H   H1090     1.0  0.42978  0.70285  0.58770  1.0000
  H   H1091     1.0  0.14932  0.71027  0.93417  1.0000
  C   C623      1.0  0.14040  0.69515  0.00132  1.0000
  C   C624      1.0  0.14276  0.57112  0.99826  1.0000
  H   H1092     1.0  0.44762  0.71943  0.53276  1.0000
  C   C625      1.0  0.49545  0.67105  0.53150  1.0000
  C   C626      1.0  0.34071  0.57228  0.51949  1.0000
  C   C627      1.0  0.42315  0.71603  0.57895  1.0000
  S   S141      1.0  0.28472  0.52366  0.51068  1.0000
  H   H1093     1.0  0.41812  0.71251  0.55950  1.0000
  H   H1094     1.0  0.02767  0.73700  0.92947  1.0000
  H   H1095     1.0  0.34005  0.50656  0.78087  1.0000
  H   H1096     1.0  0.16501  0.70519  0.95938  1.0000
  H   H1097     1.0  0.44152  0.73596  0.65550  1.0000
  C   C628      1.0  0.41927  0.74536  0.62972  1.0000
  C   C629      1.0  0.37884  0.74702  0.59865  1.0000
  H   H1098     1.0  0.32498  0.51974  0.59429  1.0000
  C   C630      1.0  0.41284  0.72553  0.62504  1.0000
  C   C631      1.0  0.38306  0.67478  0.61713  1.0000
  H   H1099     1.0  0.13723  0.66553  0.99229  1.0000
  S   S142      1.0  0.31966  0.50122  0.53742  1.0000
  C   C632      1.0  0.39935  0.68790  0.61160  1.0000
  H   H1100     1.0  0.35070  0.61868  0.51925  1.0000
  H   H1101     1.0  0.16030  0.67182  0.96213  1.0000
  N   N35       1.0  0.40678  0.72266  0.59742  1.0000
  H   H1102     1.0  0.38839  0.66062  0.62436  1.0000
  H   H1103     1.0  0.17161  0.66457  0.91625  1.0000
  H   H1104     1.0  0.38011  0.71170  0.61336  1.0000
  C   C633      1.0  0.08279  0.73399  0.99738  1.0000
  C   C634      1.0  0.15472  0.68066  0.94512  1.0000
  C   C635      1.0  0.39256  0.70758  0.59997  1.0000
  H   H1105     1.0  0.32579  0.59816  0.50842  1.0000
  C   C636      1.0  0.13917  0.59070  0.99767  1.0000
  H   H1106     1.0  0.41887  0.74024  0.67346  1.0000
  H   H1107     1.0  0.24235  0.53051  0.53353  1.0000
  H   H1108     1.0  0.24968  0.55421  0.52492  1.0000
  Fe  Fe72      1.0  0.31575  0.52750  0.50995  1.0000
  H   H1109     1.0  0.47830  0.81246  0.41713  1.0000
  H   H1110     1.0  0.13352  0.88031  0.01013  1.0000
  H   H1111     1.0  0.22971  0.90953  0.18054  1.0000
  Fe  Fe73      1.0  0.24154  0.95094  0.24480  1.0000
  S   S143      1.0  0.24193  0.92032  0.23967  1.0000
  S   S144      1.0  0.23158  0.97278  0.21189  1.0000
  Fe  Fe74      1.0  0.25462  0.94430  0.30318  1.0000
  S   S145      1.0  0.25463  0.91287  0.30115  1.0000
  S   S146      1.0  0.26953  0.95487  0.33858  1.0000
  Fe  Fe75      1.0  0.26896  0.91760  0.25977  1.0000
  S   S147      1.0  0.28994  0.89568  0.24253  1.0000
  Fe  Fe76      1.0  0.22744  0.91736  0.28125  1.0000
  S   S148      1.0  0.20692  0.89376  0.28224  1.0000
  S   S149      1.0  0.27002  0.94884  0.26163  1.0000
  S   S150      1.0  0.22594  0.94850  0.28636  1.0000
  H   H1112     1.0  0.45164  0.88914  0.28545  1.0000
  S   S151      1.0  0.40531  0.86328  0.46808  1.0000
  Fe  Fe77      1.0  0.38914  0.83808  0.46335  1.0000
  S   S152      1.0  0.36874  0.84034  0.43148  1.0000
  Fe  Fe78      1.0  0.38805  0.84049  0.27237  1.0000
  S   S153      1.0  0.37781  0.81120  0.27220  1.0000
  S   S154      1.0  0.37186  0.86874  0.27542  1.0000
  Fe  Fe79      1.0  0.42955  0.82607  0.27659  1.0000
  S   S155      1.0  0.42252  0.79602  0.27644  1.0000
  S   S156      1.0  0.45765  0.83466  0.28842  1.0000
  Fe  Fe80      1.0  0.40364  0.80615  0.24438  1.0000
  S   S157      1.0  0.40458  0.79028  0.20718  1.0000
  Fe  Fe81      1.0  0.39761  0.80334  0.30418  1.0000
  S   S158      1.0  0.39279  0.78485  0.34219  1.0000
  S   S159      1.0  0.41261  0.83606  0.24187  1.0000
  S   S160      1.0  0.40583  0.83271  0.30696  1.0000
  S   S161      1.0  0.08182  0.86004  0.04044  1.0000
  S   S162      1.0  0.07714  0.81471  0.04119  1.0000
  Fe  Fe82      1.0  0.09941  0.83388  0.04859  1.0000
  S   S163      1.0  0.11485  0.82886  0.08597  1.0000
  Fe  Fe83      1.0  0.09871  0.82904  0.24761  1.0000
  S   S164      1.0  0.09023  0.83985  0.28806  1.0000
  S   S165      1.0  0.11193  0.80060  0.23992  1.0000
  Fe  Fe84      1.0  0.08410  0.86420  0.21754  1.0000
  S   S166      1.0  0.07404  0.87769  0.25525  1.0000
  S   S167      1.0  0.07824  0.87801  0.17721  1.0000
  Fe  Fe85      1.0  0.10194  0.86713  0.26979  1.0000
  S   S168      1.0  0.11786  0.88790  0.29083  1.0000
  Fe  Fe86      1.0  0.06336  0.84939  0.26961  1.0000
  S   S169      1.0  0.03502  0.84239  0.29090  1.0000
  S   S170      1.0  0.11253  0.85545  0.23067  1.0000
  S   S171      1.0  0.07131  0.83681  0.23054  1.0000
  C   C637      1.0  0.09929  0.78140  0.25470  1.0000
  C   C638      1.0  0.08437  0.78380  0.27424  1.0000
  H   H1113     1.0  0.09757  0.77084  0.12513  1.0000
  H   H1114     1.0  0.08048  0.79763  0.28063  1.0000
  C   C639      1.0  0.01390  0.84980  0.27648  1.0000
  H   H1115     1.0  0.30095  0.94446  0.13309  1.0000
  C   C640      1.0  0.01359  0.86367  0.25515  1.0000
  C   C641      1.0  0.23152  0.99059  0.50167  1.0000
  H   H1116     1.0  0.02654  0.86964  0.24660  1.0000
  C   C642      1.0  0.10421  0.84166  0.11203  1.0000
  C   C643      1.0  0.08625  0.84988  0.11018  1.0000
  C   C644      1.0  0.07827  0.86101  0.13027  1.0000
  C   C645      1.0  0.08809  0.86365  0.15258  1.0000
  C   C646      1.0  0.10578  0.85490  0.15500  1.0000
  C   C647      1.0  0.11389  0.84401  0.13463  1.0000
  H   H1117     1.0  0.07837  0.84750  0.09345  1.0000
  H   H1118     1.0  0.06441  0.86741  0.12861  1.0000
  H   H1119     1.0  0.11347  0.85695  0.17215  1.0000
  H   H1120     1.0  0.12782  0.83774  0.13609  1.0000
  C   C648      1.0  0.47921  0.83280  0.26872  1.0000
  C   C649      1.0  0.48094  0.82473  0.24395  1.0000
  C   C650      1.0  0.03827  0.90079  0.31269  1.0000
  H   H1121     1.0  0.46890  0.81883  0.23665  1.0000
  H   H1122     1.0  0.02890  0.74934  0.29870  1.0000
  H   H1123     1.0  0.44425  0.81363  0.33717  1.0000
  C   C651      1.0  0.39850  0.76660  0.21045  1.0000
  C   C652      1.0  0.01893  0.89168  0.31712  1.0000
  H   H1124     1.0  0.12555  0.77982  0.14441  1.0000
  H   H1125     1.0  0.03334  0.78280  0.28623  1.0000
  H   H1126     1.0  0.04828  0.79296  0.14839  1.0000
  C   C653      1.0  0.37425  0.82407  0.40740  1.0000
  C   C654      1.0  0.38517  0.80785  0.41355  1.0000
  C   C655      1.0  0.39086  0.79573  0.39347  1.0000
  C   C656      1.0  0.38522  0.79962  0.36741  1.0000
  C   C657      1.0  0.37394  0.81560  0.36137  1.0000
  C   C658      1.0  0.36836  0.82778  0.38143  1.0000
  H   H1127     1.0  0.38912  0.80457  0.43379  1.0000
  H   H1128     1.0  0.39974  0.78348  0.39804  1.0000
  H   H1129     1.0  0.36957  0.81863  0.34120  1.0000
  H   H1130     1.0  0.35991  0.84032  0.37662  1.0000
  H   H1131     1.0  0.45190  0.78350  0.31750  1.0000
  C   C659      1.0  0.26983  0.96572  0.36999  1.0000
  H   H1132     1.0  0.31527  0.96053  0.14555  1.0000
  H   H1133     1.0  0.41763  0.90151  0.44223  1.0000
  C   C660      1.0  0.44758  0.77667  0.33769  1.0000
  C   C661      1.0  0.39433  0.75682  0.23559  1.0000
  H   H1134     1.0  0.36183  0.77428  0.42794  1.0000
  C   C662      1.0  0.31242  0.88814  0.25282  1.0000
  C   C663      1.0  0.32093  0.87152  0.24343  1.0000
  C   C664      1.0  0.33892  0.86517  0.25053  1.0000
  C   C665      1.0  0.34879  0.87559  0.26677  1.0000
  C   C666      1.0  0.34030  0.89228  0.27603  1.0000
  C   C667      1.0  0.32214  0.89842  0.26938  1.0000
  H   H1135     1.0  0.31358  0.86348  0.23052  1.0000
  H   H1136     1.0  0.34528  0.85237  0.24312  1.0000
  H   H1137     1.0  0.34779  0.90046  0.28858  1.0000
  H   H1138     1.0  0.31580  0.91122  0.27680  1.0000
  C   C668      1.0  0.18209  0.89316  0.28349  1.0000
  C   C669      1.0  0.17411  0.87741  0.27468  1.0000
  C   C670      1.0  0.15452  0.87580  0.27626  1.0000
  C   C671      1.0  0.14262  0.88981  0.28714  1.0000
  C   C672      1.0  0.15059  0.90565  0.29579  1.0000
  C   C673      1.0  0.17021  0.90737  0.29390  1.0000
  H   H1139     1.0  0.18313  0.86625  0.26678  1.0000
  H   H1140     1.0  0.14864  0.86349  0.26964  1.0000
  H   H1141     1.0  0.14154  0.91655  0.30432  1.0000
  H   H1142     1.0  0.17613  0.91947  0.30107  1.0000
  C   C674      1.0  0.48027  0.84234  0.37669  1.0000
  C   C675      1.0  0.28706  0.96745  0.38112  1.0000
  H   H1143     1.0  0.08045  0.92223  0.05393  1.0000
  C   C676      1.0  0.22433  0.97264  0.17831  1.0000
  C   C677      1.0  0.22787  0.95728  0.16264  1.0000
  C   C678      1.0  0.22293  0.95838  0.13562  1.0000
  C   C679      1.0  0.16177  0.91301  0.20937  1.0000
  H   H1144     1.0  0.23470  0.94471  0.17117  1.0000
  H   H1145     1.0  0.22605  0.94651  0.12364  1.0000
  H   H1146     1.0  0.30259  0.94223  0.48366  1.0000
  H   H1147     1.0  0.47055  0.85512  0.20261  1.0000
  H   H1148     1.0  0.04528  0.91668  0.09728  1.0000
  H   H1149     1.0  0.32732  0.78009  0.42687  1.0000
  C   C680      1.0  0.10418  0.76341  0.24657  1.0000
  H   H1150     1.0  0.33733  0.87407  0.49650  1.0000
  C   C681      1.0  0.07475  0.76818  0.28607  1.0000
  C   C682      1.0  0.44380  0.80797  0.35866  1.0000
  N   N36       1.0  0.26426  0.85247  0.30663  1.0000
  C   C683      1.0  0.25508  0.86131  0.28227  1.0000
  C   C684      1.0  0.25615  0.86119  0.33203  1.0000
  C   C685      1.0  0.28483  0.85667  0.30267  1.0000
  C   C686      1.0  0.26271  0.83148  0.30953  1.0000
  C   C687      1.0  0.24270  0.82412  0.31107  1.0000
  C   C688      1.0  0.26161  0.85333  0.25485  1.0000
  C   C689      1.0  0.29669  0.85022  0.32670  1.0000
  C   C690      1.0  0.24326  0.80291  0.30918  1.0000
  C   C691      1.0  0.25057  0.86288  0.23234  1.0000
  C   C692      1.0  0.31684  0.85636  0.32119  1.0000
  H   H1151     1.0  0.25737  0.87662  0.28006  1.0000
  H   H1152     1.0  0.23965  0.86024  0.28469  1.0000
  H   H1153     1.0  0.26351  0.87419  0.33480  1.0000
  H   H1154     1.0  0.28647  0.87204  0.29815  1.0000
  H   H1155     1.0  0.29177  0.84994  0.28492  1.0000
  H   H1156     1.0  0.27135  0.82494  0.29289  1.0000
  H   H1157     1.0  0.26878  0.82546  0.32826  1.0000
  H   H1158     1.0  0.23455  0.83053  0.29456  1.0000
  H   H1159     1.0  0.27662  0.85576  0.24917  1.0000
  H   H1160     1.0  0.25938  0.83810  0.25545  1.0000
  H   H1161     1.0  0.29734  0.83473  0.33009  1.0000
  H   H1162     1.0  0.29089  0.85621  0.34562  1.0000
  H   H1163     1.0  0.25014  0.79918  0.28941  1.0000
  H   H1164     1.0  0.23543  0.86012  0.23619  1.0000
  H   H1165     1.0  0.25234  0.87823  0.23099  1.0000
  H   H1166     1.0  0.25580  0.85748  0.21273  1.0000
  H   H1167     1.0  0.32505  0.85148  0.33851  1.0000
  H   H1168     1.0  0.32362  0.85021  0.30290  1.0000
  H   H1169     1.0  0.31717  0.87187  0.31843  1.0000
  H   H1170     1.0  0.01076  0.77955  0.30412  1.0000
  H   H1171     1.0  0.24699  0.98789  0.50046  1.0000
  S   S172      1.0  0.11366  0.83375  0.00674  1.0000
  H   H1172     1.0  0.03270  0.85367  0.20250  1.0000
  C   C693      1.0  0.03430  0.84958  0.18140  1.0000
  H   H1173     1.0  0.06360  0.77003  0.30172  1.0000
  H   H1174     1.0  0.47833  0.90770  0.47840  1.0000
  C   C694      1.0  0.07248  0.92353  0.32085  1.0000
  H   H1175     1.0  0.22384  0.89164  0.20728  1.0000
  H   H1176     1.0  0.29280  0.98245  0.14051  1.0000
  C   C695      1.0  0.19496  0.91894  0.20738  1.0000
  H   H1177     1.0  0.44690  0.82750  0.41774  1.0000
  C   C696      1.0  0.22066  0.89757  0.18685  1.0000
  C   C697      1.0  0.01521  0.84848  0.17030  1.0000
  C   C698      1.0  0.05395  0.87338  0.33423  1.0000
  C   C699      1.0  0.07198  0.90234  0.08605  1.0000
  C   C700      1.0  0.43753  0.88955  0.27783  1.0000
  C   C701      1.0  0.00278  0.83449  0.18834  1.0000
  H   H1178     1.0  0.10478  0.89992  0.13100  1.0000
  H   H1179     1.0  0.13568  0.90073  0.10278  1.0000
  C   C702      1.0  0.45502  0.85535  0.20453  1.0000
  H   H1180     1.0  0.09951  0.80285  0.18311  1.0000
  C   C703      1.0  0.08280  0.92008  0.07582  1.0000
  C   C704      1.0  0.13615  0.80005  0.16794  1.0000
  C   C705      1.0  0.01938  0.77699  0.28510  1.0000
  H   H1181     1.0  0.07111  0.92903  0.34112  1.0000
  H   H1182     1.0  0.41168  0.83149  0.36548  1.0000
  C   C706      1.0  0.41871  0.83949  0.37954  1.0000
  H   H1183     1.0  0.04049  0.86708  0.34202  1.0000
  H   H1184     1.0  0.12959  0.89515  0.19723  1.0000
  C   C707      1.0  0.07099  0.90198  0.32367  1.0000
  H   H1185     1.0  0.27330  0.95211  0.46265  1.0000
  H   H1186     1.0  0.10302  0.92278  0.31946  1.0000
  H   H1187     1.0  0.04056  0.93075  0.35040  1.0000
  H   H1188     1.0  0.32419  0.93130  0.20798  1.0000
  H   H1189     1.0  0.99997  0.78862  0.02360  1.0000
  C   C708      1.0  0.45344  0.78812  0.35989  1.0000
  C   C709      1.0  0.42436  0.88070  0.30042  1.0000
  H   H1190     1.0  0.48718  0.80264  0.31382  1.0000
  H   H1191     1.0  0.42943  0.86619  0.30629  1.0000
  C   C710      1.0  0.16184  0.95742  0.17771  1.0000
  N   N37       1.0  0.45138  0.82200  0.37556  1.0000
  C   C711      1.0  0.47016  0.88446  0.23435  1.0000
  H   H1192     1.0  0.47254  0.89283  0.25147  1.0000
  H   H1193     1.0  0.40591  0.93613  0.20754  1.0000
  H   H1194     1.0  0.15885  0.94848  0.22920  1.0000
  H   H1195     1.0  0.02315  0.93800  0.39319  1.0000
  H   H1196     1.0  0.44231  0.86419  0.25768  1.0000
  H   H1197     1.0  0.20040  0.94649  0.24031  1.0000
  H   H1198     1.0  0.04426  0.89759  0.29212  1.0000
  H   H1199     1.0  0.39468  0.76390  0.25389  1.0000
  H   H1200     1.0  0.30395  0.93339  0.23115  1.0000
  C   C712      1.0  0.44003  0.84018  0.37131  1.0000
  H   H1201     1.0  0.40992  0.88041  0.29399  1.0000
  C   C713      1.0  0.47318  0.90107  0.49835  1.0000
  H   H1202     1.0  0.41595  0.83294  0.40028  1.0000
  C   C714      1.0  0.45547  0.74859  0.17933  1.0000
  C   C715      1.0  0.35451  0.76837  0.41196  1.0000
  C   C716      1.0  0.07838  0.79913  0.14327  1.0000
  C   C717      1.0  0.40947  0.85918  0.37869  1.0000
  C   C718      1.0  0.46604  0.80365  0.41678  1.0000
  S   S173      1.0  0.16365  0.94011  0.01283  1.0000
  H   H1203     1.0  0.48271  0.88479  0.19206  1.0000
  H   H1204     1.0  0.32039  0.91796  0.15931  1.0000
  C   C719      1.0  0.28737  0.92914  0.18510  1.0000
  H   H1205     1.0  0.03830  0.81312  0.11009  1.0000
  H   H1206     1.0  0.45748  0.80756  0.45903  1.0000
  H   H1207     1.0  0.06120  0.77747  0.05628  1.0000
  H   H1208     1.0  0.12867  0.96354  0.02934  1.0000
  C   C720      1.0  0.27720  0.91941  0.16410  1.0000
  C   C721      1.0  0.39800  0.75733  0.18691  1.0000
  N   N38       1.0  0.05202  0.89453  0.33326  1.0000
  H   H1209     1.0  0.43579  0.88374  0.43463  1.0000
  Fe  Fe87      1.0  0.06048  0.84077  0.02921  1.0000
  C   C722      1.0  0.27210  0.89958  0.17479  1.0000
  C   C723      1.0  0.30478  0.95569  0.19834  1.0000
  H   H1210     1.0  0.27733  0.93063  0.20318  1.0000
  H   H1211     1.0  0.29840  0.91895  0.19202  1.0000
  C   C724      1.0  0.22612  0.96435  0.47217  1.0000
  H   H1212     1.0  0.06515  0.83603  0.33890  1.0000
  H   H1213     1.0  0.43478  0.96211  0.48506  1.0000
  H   H1214     1.0  0.43821  0.77448  0.17785  1.0000
  C   C725      1.0  0.33594  0.93072  0.12486  1.0000
  H   H1215     1.0  0.05108  0.82665  0.13077  1.0000
  H   H1216     1.0  0.22087  0.95003  0.47220  1.0000
  H   H1217     1.0  0.03692  0.88944  0.37257  1.0000
  H   H1218     1.0  0.26397  0.92723  0.15958  1.0000
  H   H1219     1.0  0.04575  0.92720  0.39942  1.0000
  H   H1220     1.0  0.04782  0.90965  0.06296  1.0000
  H   H1221     1.0  0.00859  0.86281  0.16984  1.0000
  C   C726      1.0  0.45275  0.76956  0.17175  1.0000
  C   C727      1.0  0.47505  0.84226  0.50268  1.0000
  C   C728      1.0  0.00460  0.90199  0.29968  1.0000
  H   H1222     1.0  0.01327  0.89127  0.33851  1.0000
  H   H1223     1.0  0.08843  0.80186  0.12530  1.0000
  H   H1224     1.0  0.45438  0.76243  0.33938  1.0000
  H   H1225     1.0  0.33523  0.93642  0.16627  1.0000
  H   H1226     1.0  0.16944  0.97752  0.24531  1.0000
  H   H1227     1.0  0.26305  0.89995  0.19390  1.0000
  H   H1228     1.0  0.26441  0.89305  0.15981  1.0000
  H   H1229     1.0  0.28493  0.89076  0.17858  1.0000
  C   C729      1.0  0.44513  0.90697  0.22108  1.0000
  H   H1230     1.0  0.48394  0.90642  0.20761  1.0000
  N   N39       1.0  0.44997  0.88653  0.22783  1.0000
  H   H1231     1.0  0.14847  0.80262  0.15334  1.0000
  H   H1232     1.0  0.44517  0.85105  0.38330  1.0000
  H   H1233     1.0  0.19173  0.89129  0.19240  1.0000
  H   H1234     1.0  0.11709  0.80347  0.13693  1.0000
  H   H1235     1.0  0.42879  0.80563  0.36477  1.0000
  H   H1236     1.0  0.17109  0.93134  0.24894  1.0000
  H   H1237     1.0  0.44182  0.84571  0.34974  1.0000
  H   H1238     1.0  0.15333  0.95467  0.13723  1.0000
  C   C730      1.0  0.10012  0.91483  0.13197  1.0000
  C   C731      1.0  0.13338  0.89765  0.08190  1.0000
  N   N40       1.0  0.08566  0.78305  0.16152  1.0000
  H   H1239     1.0  0.36356  0.76976  0.39301  1.0000
  H   H1240     1.0  0.24132  0.96385  0.46581  1.0000
  N   N41       1.0  0.32259  0.92062  0.44425  1.0000
  C   C732      1.0  0.32701  0.91557  0.41551  1.0000
  C   C733      1.0  0.32542  0.90327  0.46294  1.0000
  C   C734      1.0  0.30203  0.92652  0.44755  1.0000
  C   C735      1.0  0.33392  0.93646  0.45157  1.0000
  C   C736      1.0  0.35420  0.93779  0.43823  1.0000
  C   C737      1.0  0.32117  0.93063  0.39339  1.0000
  H   H1241     1.0  0.17737  0.96177  0.27275  1.0000
  C   C738      1.0  0.34540  0.89396  0.46239  1.0000
  H   H1242     1.0  0.22936  0.86065  0.37698  1.0000
  H   H1243     1.0  0.04252  0.86031  0.16899  1.0000
  C   C739      1.0  0.33058  0.92672  0.36565  1.0000
  H   H1244     1.0  0.31994  0.90252  0.41215  1.0000
  H   H1245     1.0  0.34213  0.91212  0.41125  1.0000
  H   H1246     1.0  0.32204  0.90639  0.48429  1.0000
  H   H1247     1.0  0.31551  0.89249  0.45891  1.0000
  H   H1248     1.0  0.29329  0.91548  0.44114  1.0000
  H   H1249     1.0  0.29911  0.93934  0.43422  1.0000
  H   H1250     1.0  0.32678  0.95028  0.44631  1.0000
  H   H1251     1.0  0.33464  0.93586  0.47385  1.0000
  H   H1252     1.0  0.35402  0.94180  0.41632  1.0000
  H   H1253     1.0  0.36238  0.92438  0.44066  1.0000
  H   H1254     1.0  0.30579  0.93054  0.39192  1.0000
  H   H1255     1.0  0.32473  0.94485  0.39811  1.0000
  H   H1256     1.0  0.13307  0.89150  0.23263  1.0000
  H   H1257     1.0  0.35197  0.89257  0.44176  1.0000
  H   H1258     1.0  0.35446  0.90230  0.47345  1.0000
  H   H1259     1.0  0.43652  0.80714  0.40969  1.0000
  H   H1260     1.0  0.33831  0.86464  0.46389  1.0000
  H   H1261     1.0  0.37898  0.95373  0.44011  1.0000
  H   H1262     1.0  0.06207  0.81872  0.09947  1.0000
  H   H1263     1.0  0.46270  0.77764  0.18165  1.0000
  H   H1264     1.0  0.42305  0.87789  0.24685  1.0000
  H   H1265     1.0  0.32544  0.93733  0.35022  1.0000
  H   H1266     1.0  0.34602  0.92754  0.36544  1.0000
  H   H1267     1.0  0.32715  0.91263  0.36016  1.0000
  H   H1268     1.0  0.09248  0.94457  0.30628  1.0000
  H   H1269     1.0  0.43135  0.87492  0.20214  1.0000
  C   C740      1.0  0.44665  0.87574  0.20397  1.0000
  C   C741      1.0  0.10691  0.92700  0.10638  1.0000
  C   C742      1.0  0.32518  0.93214  0.15245  1.0000
  H   H1270     1.0  0.41946  0.90450  0.20042  1.0000
  S   S174      1.0  0.41455  0.81864  0.46481  1.0000
  C   C743      1.0  0.03414  0.91910  0.36321  1.0000
  C   C744      1.0  0.21406  0.97468  0.12386  1.0000
  H   H1271     1.0  0.23294  0.87995  0.31971  1.0000
  H   H1272     1.0  0.42194  0.74910  0.41870  1.0000
  C   C745      1.0  0.44935  0.81537  0.40516  1.0000
  C   C746      1.0  0.09159  0.92910  0.30753  1.0000
  H   H1273     1.0  0.31650  0.96117  0.24905  1.0000
  H   H1274     1.0  0.07590  0.89651  0.30390  1.0000
  H   H1275     1.0  0.13808  0.87323  0.05816  1.0000
  H   H1276     1.0  0.09366  0.92438  0.28676  1.0000
  C   C747      1.0  0.43779  0.87883  0.25193  1.0000
  Fe  Fe88      1.0  0.19255  0.98980  0.05395  1.0000
  H   H1277     1.0  0.23651  0.88442  0.36784  1.0000
  H   H1278     1.0  0.42129  0.93053  0.49100  1.0000
  H   H1279     1.0  0.18904  0.94437  0.17149  1.0000
  H   H1280     1.0  0.07762  0.81243  0.15358  1.0000
  H   H1281     1.0  0.44896  0.78668  0.44684  1.0000
  H   H1282     1.0  0.39419  0.85831  0.38408  1.0000
  H   H1283     1.0  0.29981  0.96271  0.37014  1.0000
  H   H1284     1.0  0.21876  0.97370  0.45727  1.0000
  C   C748      1.0  0.04622  0.77814  0.06400  1.0000
  H   H1285     1.0  0.07543  0.93220  0.08537  1.0000
  C   C749      1.0  0.05091  0.90558  0.08413  1.0000
  S   S175      1.0  0.20008  0.97578  0.01527  1.0000
  H   H1286     1.0  0.35964  0.86873  0.47870  1.0000
  C   C750      1.0  0.23507  0.86741  0.33376  1.0000
  C   C751      1.0  0.12863  0.90194  0.21658  1.0000
  H   H1287     1.0  0.11578  0.76142  0.23164  1.0000
  H   H1288     1.0  0.04374  0.89242  0.09087  1.0000
  H   H1289     1.0  0.16510  0.90283  0.22660  1.0000
  H   H1290     1.0  0.45729  0.93397  0.48517  1.0000
  H   H1291     1.0  0.04225  0.83593  0.18073  1.0000
  C   C752      1.0  0.10274  0.78947  0.17341  1.0000
  H   H1292     1.0  0.03690  0.78287  0.21487  1.0000
  H   H1293     1.0  0.25862  0.85157  0.35015  1.0000
  H   H1294     1.0  0.34056  0.79531  0.40267  1.0000
  S   S176      1.0  0.16169  0.98497  0.05363  1.0000
  H   H1295     1.0  0.11110  0.92729  0.03751  1.0000
  H   H1296     1.0  0.45362  0.85226  0.16160  1.0000
  C   C753      1.0  0.14047  0.87745  0.07849  1.0000
  H   H1297     1.0  0.20597  0.92950  0.20375  1.0000
  H   H1298     1.0  0.47047  0.79167  0.40474  1.0000
  H   H1299     1.0  0.14032  0.78958  0.18422  1.0000
  H   H1300     1.0  0.22601  0.85649  0.32835  1.0000
  H   H1301     1.0  0.25095  0.79563  0.32567  1.0000
  H   H1302     1.0  0.27187  0.95637  0.15203  1.0000
  H   H1303     1.0  0.10514  0.88966  0.09072  1.0000
  C   C754      1.0  0.11313  0.96461  0.03108  1.0000
  C   C755      1.0  0.01217  0.83989  0.02683  1.0000
  H   H1304     1.0  0.14223  0.90679  0.06774  1.0000
  H   H1305     1.0  0.45314  0.91202  0.20202  1.0000
  H   H1306     1.0  0.36600  0.94897  0.47220  1.0000
  H   H1307     1.0  0.43268  0.90438  0.27416  1.0000
  C   C756      1.0  0.44514  0.90723  0.45446  1.0000
  H   H1308     1.0  0.10963  0.96040  0.07400  1.0000
  C   C757      1.0  0.11234  0.90032  0.07672  1.0000
  C   C758      1.0  0.25355  0.97263  0.38411  1.0000
  H   H1309     1.0  0.24017  0.97164  0.37593  1.0000
  C   C759      1.0  0.27176  0.98258  0.41999  1.0000
  C   C760      1.0  0.43264  0.89902  0.43548  1.0000
  H   H1310     1.0  0.15571  0.87606  0.08102  1.0000
  S   S177      1.0  0.03064  0.84042  0.04783  1.0000
  H   H1311     1.0  0.43218  0.77524  0.33953  1.0000
  H   H1312     1.0  0.17106  0.93032  0.16362  1.0000
  C   C761      1.0  0.18791  0.95423  0.23263  1.0000
  C   C762      1.0  0.25456  0.98111  0.40865  1.0000
  H   H1313     1.0  0.23518  0.82695  0.33077  1.0000
  H   H1314     1.0  0.22875  0.79791  0.31103  1.0000
  H   H1315     1.0  0.40121  0.76477  0.16747  1.0000
  S   S178      1.0  0.45863  0.84998  0.45497  1.0000
  H   H1316     1.0  0.41531  0.86768  0.39342  1.0000
  H   H1317     1.0  0.45215  0.88319  0.18471  1.0000
  H   H1318     1.0  0.48069  0.81315  0.36869  1.0000
  H   H1319     1.0  0.01774  0.84440  0.14929  1.0000
  H   H1320     1.0  0.10170  0.91333  0.17517  1.0000
  H   H1321     1.0  0.12796  0.93318  0.05915  1.0000
  H   H1322     1.0  0.07660  0.89065  0.07347  1.0000
  H   H1323     1.0  0.07432  0.89779  0.10717  1.0000
  H   H1324     1.0  0.46886  0.78850  0.35729  1.0000
  H   H1325     1.0  0.41154  0.86625  0.35812  1.0000
  H   H1326     1.0  0.13319  0.86776  0.09390  1.0000
  H   H1327     1.0  0.09950  0.77677  0.03080  1.0000
  H   H1328     1.0  0.08462  0.91590  0.13497  1.0000
  H   H1329     1.0  0.03906  0.75813  0.03761  1.0000
  H   H1330     1.0  0.29424  0.91884  0.49079  1.0000
  C   C763      1.0  0.22823  0.87288  0.36201  1.0000
  C   C764      1.0  0.22257  0.97144  0.50032  1.0000
  H   H1331     1.0  0.12308  0.91999  0.15587  1.0000
  C   C765      1.0  0.10757  0.92172  0.15703  1.0000
  H   H1332     1.0  0.28614  0.91822  0.14505  1.0000
  H   H1333     1.0  0.19732  0.90943  0.16613  1.0000
  H   H1334     1.0  0.21331  0.87786  0.36221  1.0000
  C   C766      1.0  0.10523  0.95350  0.05654  1.0000
  C   C767      1.0  0.34507  0.87417  0.47629  1.0000
  H   H1335     1.0  0.10331  0.93668  0.15916  1.0000
  H   H1336     1.0  0.19668  0.91211  0.22798  1.0000
  H   H1337     1.0  0.08171  0.89680  0.33764  1.0000
  C   C768      1.0  0.44888  0.84502  0.18133  1.0000
  H   H1338     1.0  0.17399  0.96805  0.13815  1.0000
  H   H1339     1.0  0.00163  0.91648  0.30577  1.0000
  H   H1340     1.0  0.10713  0.77908  0.18974  1.0000
  H   H1341     1.0  0.09968  0.94095  0.10848  1.0000
  H   H1342     1.0  0.11058  0.89598  0.05612  1.0000
  H   H1343     1.0  0.44926  0.78051  0.37957  1.0000
  C   C769      1.0  0.18146  0.96876  0.25258  1.0000
  H   H1344     1.0  0.30144  0.97678  0.41398  1.0000
  N   N42       1.0  0.10356  0.91975  0.07973  1.0000
  H   H1345     1.0  0.08976  0.95474  0.05684  1.0000
  H   H1346     1.0  0.12205  0.92953  0.10715  1.0000
  C   C770      1.0  0.21532  0.98884  0.16666  1.0000
  N   N43       1.0  0.17569  0.92837  0.20618  1.0000
  H   H1347     1.0  0.06936  0.87035  0.37112  1.0000
  H   H1348     1.0  0.10867  0.97964  0.03186  1.0000
  C   C771      1.0  0.11265  0.93270  0.05752  1.0000
  H   H1349     1.0  0.15123  0.97817  0.14797  1.0000
  Fe  Fe89      1.0  0.16930  0.97112  0.01508  1.0000
  C   C772      1.0  0.06469  0.79338  0.20312  1.0000
  H   H1350     1.0  0.07785  0.76594  0.19796  1.0000
  H   H1351     1.0  0.06061  0.78601  0.11732  1.0000
  C   C773      1.0  0.47136  0.82568  0.36513  1.0000
  C   C774      1.0  0.16001  0.96497  0.14847  1.0000
  H   H1352     1.0  0.06176  0.93051  0.30836  1.0000
  C   C775      1.0  0.46104  0.79591  0.44580  1.0000
  H   H1353     1.0  0.05812  0.90092  0.37316  1.0000
  C   C776      1.0  0.36469  0.95271  0.45040  1.0000
  H   H1354     1.0  0.32927  0.77578  0.39136  1.0000
  H   H1355     1.0  0.03073  0.75406  0.26269  1.0000
  C   C777      1.0  0.17490  0.93948  0.17912  1.0000
  H   H1356     1.0  0.45985  0.90451  0.44652  1.0000
  H   H1357     1.0  0.45048  0.84732  0.22359  1.0000
  C   C778      1.0  0.05229  0.81496  0.11729  1.0000
  H   H1358     1.0  0.05882  0.80566  0.19124  1.0000
  H   H1359     1.0  0.03083  0.80069  0.02421  1.0000
  H   H1360     1.0  0.47511  0.85577  0.36661  1.0000
  H   H1361     1.0  0.07629  0.79793  0.21399  1.0000
  H   H1362     1.0  0.47232  0.82859  0.34277  1.0000
  H   H1363     1.0  0.11377  0.90627  0.22179  1.0000
  H   H1364     1.0  0.26842  0.96146  0.18642  1.0000
  H   H1365     1.0  0.44498  0.88311  0.48294  1.0000
  H   H1366     1.0  0.26890  0.94269  0.49697  1.0000
  H   H1367     1.0  0.44965  0.91566  0.23670  1.0000
  C   C779      1.0  0.05921  0.79679  0.13214  1.0000
  C   C780      1.0  0.33674  0.78055  0.40802  1.0000
  C   C781      1.0  0.09155  0.76621  0.14578  1.0000
  C   C782      1.0  0.49503  0.84006  0.27818  1.0000
  H   H1368     1.0  0.14762  0.95502  0.18719  1.0000
  H   H1369     1.0  0.43525  0.90579  0.41480  1.0000
  H   H1370     1.0  0.05704  0.86869  0.31351  1.0000
  H   H1371     1.0  0.35723  0.96662  0.44790  1.0000
  H   H1372     1.0  0.01272  0.78455  0.26785  1.0000
  H   H1373     1.0  0.42390  0.88897  0.31837  1.0000
  H   H1374     1.0  0.47320  0.78766  0.45357  1.0000
  H   H1375     1.0  0.22384  0.88656  0.17247  1.0000
  H   H1376     1.0  0.16288  0.90485  0.19119  1.0000
  H   H1377     1.0  0.47376  0.86972  0.24159  1.0000
  H   H1378     1.0  0.34149  0.94449  0.11709  1.0000
  H   H1379     1.0  0.42501  0.94104  0.22679  1.0000
  C   C783      1.0  0.20003  0.90391  0.18691  1.0000
  H   H1380     1.0  0.16765  0.96866  0.18815  1.0000
  C   C784      1.0  0.12026  0.79290  0.15347  1.0000
  H   H1381     1.0  0.41510  0.90815  0.23568  1.0000
  H   H1382     1.0  0.13171  0.81341  0.17698  1.0000
  C   C785      1.0  0.17240  0.94038  0.22975  1.0000
  H   H1383     1.0  0.13617  0.92840  0.19745  1.0000
  C   C786      1.0  0.42418  0.91195  0.21714  1.0000
  H   H1384     1.0  0.43340  0.84412  0.18280  1.0000
  C   C787      1.0  0.14083  0.91899  0.21438  1.0000
  C   C788      1.0  0.48482  0.89092  0.21121  1.0000
  H   H1385     1.0  0.19314  0.97807  0.25457  1.0000
  H   H1386     1.0  0.19226  0.96165  0.21297  1.0000
  H   H1387     1.0  0.13812  0.92591  0.23354  1.0000
  H   H1388     1.0  0.42924  0.93748  0.19120  1.0000
  H   H1389     1.0  0.29205  0.98784  0.17526  1.0000
  C   C789      1.0  0.42098  0.93295  0.21024  1.0000
  H   H1390     1.0  0.03574  0.91618  0.31140  1.0000
  H   H1391     1.0  0.32672  0.92591  0.11019  1.0000
  H   H1392     1.0  0.04537  0.79805  0.23795  1.0000
  C   C790      1.0  0.31460  0.94147  0.21833  1.0000
  H   H1393     1.0  0.08328  0.86534  0.34053  1.0000
  C   C791      1.0  0.02161  0.75599  0.28140  1.0000
  H   H1394     1.0  0.45525  0.77238  0.14956  1.0000
  H   H1395     1.0  0.44210  0.92257  0.45323  1.0000
  H   H1396     1.0  0.47528  0.88571  0.49629  1.0000
  C   C792      1.0  0.27405  0.93915  0.47629  1.0000
  H   H1397     1.0  0.05309  0.84084  0.37100  1.0000
  C   C793      1.0  0.06618  0.84301  0.35779  1.0000
  H   H1398     1.0  0.05903  0.77182  0.17781  1.0000
  H   H1399     1.0  0.34792  0.92041  0.12665  1.0000
  H   H1400     1.0  0.02029  0.87706  0.31135  1.0000
  C   C794      1.0  0.06924  0.86394  0.35164  1.0000
  C   C795      1.0  0.03398  0.77237  0.04274  1.0000
  H   H1401     1.0  0.42639  0.89937  0.48984  1.0000
  C   C796      1.0  0.03188  0.92480  0.39222  1.0000
  H   H1402     1.0  0.47657  0.84274  0.39868  1.0000
  S   S179      1.0  0.20860  0.97535  0.08925  1.0000
  C   C797      1.0  0.04575  0.90029  0.36122  1.0000
  H   H1403     1.0  0.07811  0.83631  0.36828  1.0000
  H   H1404     1.0  0.45912  0.75433  0.22096  1.0000
  N   N44       1.0  0.29536  0.94789  0.17577  1.0000
  H   H1405     1.0  0.04217  0.79258  0.06956  1.0000
  Fe  Fe90      1.0  0.42979  0.84339  0.47481  1.0000
  H   H1406     1.0  0.02486  0.91375  0.40579  1.0000
  C   C798      1.0  0.29424  0.93138  0.47627  1.0000
  H   H1407     1.0  0.05479  0.77434  0.23689  1.0000
  H   H1408     1.0  0.33231  0.94091  0.25155  1.0000
  H   H1409     1.0  0.00982  0.90250  0.27804  1.0000
  C   C799      1.0  0.30871  0.94684  0.15085  1.0000
  H   H1410     1.0  0.33713  0.95938  0.22558  1.0000
  H   H1411     1.0  0.01989  0.91778  0.35673  1.0000
  H   H1412     1.0  0.49389  0.84624  0.29738  1.0000
  H   H1413     1.0  0.29436  0.96369  0.21137  1.0000
  C   C800      1.0  0.09469  0.76497  0.02145  1.0000
  C   C801      1.0  0.47778  0.84725  0.47509  1.0000
  C   C802      1.0  0.07167  0.77757  0.18482  1.0000
  S   S180      1.0  0.32289  0.98779  0.48445  1.0000
  C   C803      1.0  0.44171  0.89838  0.48383  1.0000
  H   H1414     1.0  0.26484  0.92869  0.46964  1.0000
  C   C804      1.0  0.32581  0.95143  0.23721  1.0000
  C   C805      1.0  0.27914  0.96119  0.16888  1.0000
  H   H1415     1.0  0.01128  0.82120  0.19182  1.0000
  H   H1416     1.0  0.13488  0.75630  0.00870  1.0000
  H   H1417     1.0  0.10780  0.95936  0.01295  1.0000
  C   C806      1.0  0.28804  0.97556  0.40599  1.0000
  H   H1418     1.0  0.06311  0.75826  0.13735  1.0000
  C   C807      1.0  0.21008  0.98983  0.13982  1.0000
  H   H1419     1.0  0.45518  0.83054  0.18230  1.0000
  H   H1420     1.0  0.31520  0.96608  0.18996  1.0000
  H   H1421     1.0  0.38791  0.75381  0.41435  1.0000
  C   C808      1.0  0.07964  0.75017  0.27791  1.0000
  H   H1422     1.0  0.25790  0.98862  0.14159  1.0000
  C   C809      1.0  0.04946  0.78667  0.22445  1.0000
  C   C810      1.0  0.28420  0.98174  0.16008  1.0000
  H   H1423     1.0  0.41511  0.74813  0.45452  1.0000
  H   H1424     1.0  0.00208  0.76476  0.01581  1.0000
  Fe  Fe91      1.0  0.29227  0.99664  0.48443  1.0000
  C   C811      1.0  0.49596  0.85058  0.46352  1.0000
  C   C812      1.0  0.03497  0.78650  0.01737  1.0000
  H   H1425     1.0  0.04452  0.76836  0.08236  1.0000
  H   H1426     1.0  0.00223  0.81675  0.14733  1.0000
  H   H1427     1.0  0.00047  0.84064  0.20821  1.0000
  C   C813      1.0  0.07654  0.75166  0.14323  1.0000
  H   H1428     1.0  0.38013  0.74855  0.44849  1.0000
  C   C814      1.0  0.14668  0.90685  0.01063  1.0000
  C   C815      1.0  0.26663  0.99427  0.15621  1.0000
  H   H1429     1.0  0.24186  0.98667  0.41888  1.0000
  H   H1430     1.0  0.01948  0.77157  0.05229  1.0000
  H   H1431     1.0  0.36663  0.74901  0.36440  1.0000
  H   H1432     1.0  0.34279  0.74824  0.44110  1.0000
  H   H1433     1.0  0.00129  0.88639  0.05722  1.0000
  H   H1434     1.0  0.15750  0.90105  0.02307  1.0000
  S   S181      1.0  0.27193  0.99363  0.45123  1.0000
  H   H1435     1.0  0.05006  0.78704  0.01014  1.0000
  H   H1436     1.0  0.25820  0.99542  0.17575  1.0000
  H   H1437     1.0  0.49706  0.76952  0.30922  1.0000
  H   H1438     1.0  0.10304  0.75784  0.15547  1.0000
  C   C816      1.0  0.00347  0.77939  0.00671  1.0000
  C   C817      1.0  0.45018  0.92726  0.50392  1.0000
  H   H1439     1.0  0.45917  0.80511  0.53962  1.0000
  H   H1440     1.0  0.42270  0.93016  0.52684  1.0000
  H   H1441     1.0  0.00876  0.75321  0.96444  1.0000
  H   H1442     1.0  0.32514  0.90114  0.53798  1.0000
  C   C818      1.0  0.11917  0.92126  0.97766  1.0000
  S   S182      1.0  0.10215  0.88757  0.97664  1.0000
  H   H1443     1.0  0.13241  0.94780  0.97807  1.0000
  C   C819      1.0  0.14636  0.92603  0.00208  1.0000
  C   C820      1.0  0.17868  0.97590  0.92385  1.0000
  S   S183      1.0  0.41229  0.78559  0.52767  1.0000
  H   H1444     1.0  0.45724  0.93264  0.52061  1.0000
  H   H1445     1.0  0.44614  0.86871  0.52314  1.0000
  S   S184      1.0  0.42250  0.83895  0.51921  1.0000
  C   C821      1.0  0.04187  0.82046  0.93979  1.0000
  H   H1446     1.0  0.02233  0.76955  0.94203  1.0000
  H   H1447     1.0  0.36053  0.77201  0.60055  1.0000
  H   H1448     1.0  0.24531  0.98979  0.92562  1.0000
  S   S185      1.0  0.08953  0.78959  0.97676  1.0000
  C   C822      1.0  0.35480  0.89425  0.53347  1.0000
  H   H1449     1.0  0.43615  0.96178  0.52121  1.0000
  H   H1450     1.0  0.48751  0.92244  0.51724  1.0000
  C   C823      1.0  0.99839  0.84734  0.98422  1.0000
  C   C824      1.0  0.19717  0.90433  0.98432  1.0000
  H   H1451     1.0  0.22096  0.95298  0.84093  1.0000
  C   C825      1.0  0.33896  0.90669  0.53436  1.0000
  H   H1452     1.0  0.18603  0.97913  0.90381  1.0000
  H   H1453     1.0  0.20062  0.92948  0.90616  1.0000
  H   H1454     1.0  0.23162  0.99200  0.62038  1.0000
  H   H1455     1.0  0.15292  0.96889  0.90732  1.0000
  H   H1456     1.0  0.45928  0.77990  0.54139  1.0000
  Fe  Fe92      1.0  0.09460  0.85915  0.99807  1.0000
  H   H1457     1.0  0.01515  0.79688  0.95746  1.0000
  H   H1458     1.0  0.21111  0.97181  0.95903  1.0000
  C   C826      1.0  0.35884  0.93316  0.52702  1.0000
  H   H1459     1.0  0.05063  0.79216  0.95123  1.0000
  H   H1460     1.0  0.17728  0.95559  0.95733  1.0000
  H   H1461     1.0  0.46654  0.79306  0.51005  1.0000
  H   H1462     1.0  0.49315  0.77003  0.51257  1.0000
  H   H1463     1.0  0.46604  0.87458  0.53977  1.0000
  H   H1464     1.0  0.24583  0.98488  0.54879  1.0000
  C   C827      1.0  0.40292  0.76541  0.51641  1.0000
  H   H1465     1.0  0.44518  0.85484  0.57003  1.0000
  S   S186      1.0  0.07152  0.84180  0.98580  1.0000
  H   H1466     1.0  0.22968  0.97115  0.60289  1.0000
  H   H1467     1.0  0.45071  0.90603  0.54834  1.0000
  Fe  Fe93      1.0  0.31512  0.97269  0.52481  1.0000
  C   C828      1.0  0.48693  0.79164  0.54035  1.0000
  H   H1468     1.0  0.17867  0.92218  0.96119  1.0000
  C   C829      1.0  0.48665  0.90696  0.51865  1.0000
  H   H1469     1.0  0.42922  0.75098  0.61330  1.0000
  H   H1470     1.0  0.01738  0.81135  0.98381  1.0000
  Fe  Fe94      1.0  0.39705  0.85797  0.51211  1.0000
  H   H1471     1.0  0.48780  0.83772  0.54029  1.0000
  C   C830      1.0  0.46678  0.79237  0.53233  1.0000
  H   H1472     1.0  0.02697  0.85263  0.99125  1.0000
  C   C831      1.0  0.45073  0.87711  0.53877  1.0000
  C   C832      1.0  0.04338  0.80410  0.96119  1.0000
  H   H1473     1.0  0.24060  0.95138  0.95685  1.0000
  C   C833      1.0  0.23502  0.98552  0.60096  1.0000
  H   H1474     1.0  0.18761  0.89252  0.98514  1.0000
  H   H1475     1.0  0.38854  0.92622  0.52405  1.0000
  H   H1476     1.0  0.25051  0.98471  0.59703  1.0000
  H   H1477     1.0  0.03507  0.83299  0.94886  1.0000
  C   C834      1.0  0.08880  0.76746  0.99537  1.0000
  H   H1478     1.0  0.19679  0.90983  0.94169  1.0000
  C   C835      1.0  0.38377  0.76458  0.51335  1.0000
  H   H1479     1.0  0.22320  0.97554  0.55245  1.0000
  H   H1480     1.0  0.21351  0.93073  0.85654  1.0000
  C   C836      1.0  0.42860  0.95643  0.50503  1.0000
  C   C837      1.0  0.13308  0.89504  0.00340  1.0000
  C   C838      1.0  0.15766  0.97880  0.92112  1.0000
  C   C839      1.0  0.18356  0.95584  0.93606  1.0000
  C   C840      1.0  0.21119  0.95362  0.88322  1.0000
  H   H1481     1.0  0.46126  0.83935  0.51175  1.0000
  Fe  Fe95      1.0  0.40574  0.81502  0.50897  1.0000
  H   H1482     1.0  0.24339  0.98507  0.96192  1.0000
  H   H1483     1.0  0.43014  0.89975  0.53490  1.0000
  H   H1484     1.0  0.05612  0.82409  0.93109  1.0000
  H   H1485     1.0  0.22416  0.93317  0.91121  1.0000
  C   C841      1.0  0.24787  0.97908  0.94241  1.0000
  C   C842      1.0  0.37421  0.76760  0.59034  1.0000
  C   C843      1.0  0.01387  0.84703  0.99987  1.0000
  H   H1486     1.0  0.24298  0.95551  0.92058  1.0000
  N   N45       1.0  0.02335  0.78219  0.99483  1.0000
  H   H1487     1.0  0.99967  0.85304  0.96345  1.0000
  H   H1488     1.0  0.23571  0.93959  0.86352  1.0000
  C   C844      1.0  0.20633  0.93502  0.95861  1.0000
  H   H1489     1.0  0.18280  0.98632  0.93734  1.0000
  C   C845      1.0  0.49018  0.84118  0.51880  1.0000
  H   H1490     1.0  0.48643  0.79228  0.56259  1.0000
  H   H1491     1.0  0.44566  0.87778  0.58242  1.0000
  H   H1492     1.0  0.36052  0.94813  0.52491  1.0000
  C   C846      1.0  0.02382  0.79883  0.97428  1.0000
  N   N46       1.0  0.20406  0.94960  0.93534  1.0000
  H   H1493     1.0  0.26315  0.97562  0.94188  1.0000
  H   H1494     1.0  0.04702  0.76609  0.97783  1.0000
  C   C847      1.0  0.19375  0.91784  0.95978  1.0000
  C   C848      1.0  0.21592  0.96582  0.93960  1.0000
  H   H1495     1.0  0.21411  0.97762  0.92417  1.0000
  H   H1496     1.0  0.19681  0.95768  0.87773  1.0000
  H   H1497     1.0  0.05216  0.80854  0.97653  1.0000
  H   H1498     1.0  0.40708  0.75547  0.63101  1.0000
  C   C849      1.0  0.21026  0.94060  0.90954  1.0000
  H   H1499     1.0  0.07856  0.75362  0.96308  1.0000
  C   C850      1.0  0.34084  0.92620  0.53120  1.0000
  S   S187      1.0  0.37923  0.83344  0.50713  1.0000
  H   H1500     1.0  0.03087  0.75253  0.99849  1.0000
  H   H1501     1.0  0.42574  0.87134  0.56563  1.0000
  C   C851      1.0  0.08292  0.75187  0.98338  1.0000
  H   H1502     1.0  0.20350  0.94159  0.97819  1.0000
  H   H1503     1.0  0.41373  0.96157  0.50748  1.0000
  C   C852      1.0  0.37472  0.92068  0.52649  1.0000
  S   S188      1.0  0.28436  0.98096  0.52438  1.0000
  C   C853      1.0  0.44122  0.86991  0.56592  1.0000
  H   H1504     1.0  0.22096  0.92915  0.95829  1.0000
  H   H1505     1.0  0.37324  0.76968  0.56822  1.0000
  S   S189      1.0  0.39304  0.88588  0.53151  1.0000
  H   H1506     1.0  0.35312  0.87931  0.53678  1.0000
  C   C854      1.0  0.11920  0.90216  0.98689  1.0000
  C   C855      1.0  0.02301  0.75820  0.95837  1.0000
  C   C856      1.0  0.37279  0.90114  0.52959  1.0000
  H   H1507     1.0  0.43257  0.75960  0.65935  1.0000
  H   H1508     1.0  0.38512  0.77666  0.59611  1.0000
  S   S190      1.0  0.32022  0.94103  0.53319  1.0000
  H   H1509     1.0  0.03367  0.81665  0.92327  1.0000
  C   C857      1.0  0.23732  0.96140  0.93964  1.0000
  C   C858      1.0  0.13263  0.93318  0.98529  1.0000
  C   C859      1.0  0.42958  0.93503  0.50693  1.0000
  H   H1510     1.0  0.17552  0.94576  0.92619  1.0000
  H   H1511     1.0  0.10863  0.92686  0.96459  1.0000
  C   C860      1.0  0.22095  0.94353  0.85970  1.0000
  H   H1512     1.0  0.21900  0.96637  0.88496  1.0000
  C   C861      1.0  0.41434  0.74900  0.51451  1.0000
  H   H1513     1.0  0.21184  0.89857  0.98306  1.0000
  Fe  Fe96      1.0  0.08950  0.81640  0.99861  1.0000
  C   C862      1.0  0.03179  0.76462  0.98315  1.0000
  H   H1514     1.0  0.40727  0.75189  0.58170  1.0000
  H   H1515     1.0  0.37480  0.77709  0.51489  1.0000
  H   H1516     1.0  0.49390  0.80423  0.53094  1.0000
  H   H1517     1.0  0.14971  0.97663  0.94114  1.0000
  C   C863      1.0  0.23060  0.98891  0.55074  1.0000
  H   H1518     1.0  0.14203  0.76316  0.97385  1.0000
  S   S191      1.0  0.32036  0.99702  0.54900  1.0000
  H   H1519     1.0  0.48205  0.90226  0.53974  1.0000
  C   C864      1.0  0.14638  0.75517  0.99247  1.0000
  C   C865      1.0  0.44568  0.89813  0.53222  1.0000
  H   H1520     1.0  0.19698  0.99231  0.53475  1.0000
  H   H1521     1.0  0.15887  0.76162  0.99890  1.0000
  H   H1522     1.0  0.15454  0.99330  0.91264  1.0000
  H   H1523     1.0  0.49313  0.76198  0.54685  1.0000
  H   H1524     1.0  0.42918  0.74957  0.51647  1.0000
  H   H1525     1.0  0.22881  0.96077  0.51471  1.0000
  S   S192      1.0  0.16474  0.99764  0.98873  1.0000
  N   N47       1.0  0.45272  0.90622  0.50457  1.0000
  H   H1526     1.0  0.19434  0.91152  0.00325  1.0000
  C   C866      1.0  0.22609  0.99749  0.57833  1.0000
  H   H1527     1.0  0.20721  0.97233  0.50508  1.0000
  C   C867      1.0  0.92982  0.09123  0.04281  1.0000
  H   H1528     1.0  0.56086  0.08278  0.38895  1.0000
  H   H1529     1.0  0.59584  0.13268  0.43153  1.0000
  H   H1530     1.0  0.98557  0.11769  0.08107  1.0000
  C   C868      1.0  0.98145  0.13575  0.01975  1.0000
  H   H1531     1.0  0.53479  0.16374  0.42235  1.0000
  C   C869      1.0  0.73020  0.02464  0.42837  1.0000
  H   H1532     1.0  0.62975  0.12293  0.43706  1.0000
  C   C870      1.0  0.62479  0.11510  0.45622  1.0000
  H   H1533     1.0  0.57795  0.09496  0.42635  1.0000
  H   H1534     1.0  0.92001  0.02907  0.09689  1.0000
  Fe  Fe97      1.0  0.91324  0.17721  0.02742  1.0000
  C   C871      1.0  0.55863  0.13713  0.44752  1.0000
  S   S193      1.0  0.91779  0.20251  0.05038  1.0000
  C   C872      1.0  0.94421  0.08045  0.02402  1.0000
  H   H1535     1.0  0.54031  0.11580  0.41617  1.0000
  C   C873      1.0  0.54388  0.10747  0.48443  1.0000
  H   H1536     1.0  0.94320  0.03406  0.08218  1.0000
  H   H1537     1.0  0.83632  0.09943  0.03999  1.0000
  S   S194      1.0  0.91600  0.14702  0.04424  1.0000
  H   H1538     1.0  0.73856  0.05156  0.49523  1.0000
  C   C874      1.0  0.55133  0.09547  0.38932  1.0000
  H   H1539     1.0  0.91908  0.05718  0.06542  1.0000
  C   C875      1.0  0.56986  0.10854  0.42411  1.0000
  C   C876      1.0  0.54931  0.16825  0.42333  1.0000
  H   H1540     1.0  0.88443  0.10110  0.12052  1.0000
  C   C877      1.0  0.90791  0.22493  0.04071  1.0000
  H   H1541     1.0  0.63474  0.10304  0.46023  1.0000
  H   H1542     1.0  0.91202  0.06261  0.09963  1.0000
  H   H1543     1.0  0.93162  0.23731  0.08385  1.0000
  H   H1544     1.0  0.86976  0.10734  0.09328  1.0000
  H   H1545     1.0  0.93447  0.23665  0.02718  1.0000
  H   H1546     1.0  0.95817  0.08654  0.02227  1.0000
  H   H1547     1.0  0.78830  0.00119  0.12049  1.0000
  H   H1548     1.0  0.94577  0.06552  0.03154  1.0000
  C   C878      1.0  0.91873  0.10175  0.08824  1.0000
  H   H1549     1.0  0.56254  0.14492  0.40379  1.0000
  C   C879      1.0  0.84544  0.07163  0.02919  1.0000
  H   H1550     1.0  0.55953  0.14443  0.46617  1.0000
  C   C880      1.0  0.89852  0.09989  0.08014  1.0000
  C   C881      1.0  0.92408  0.05853  0.08557  1.0000
  C   C882      1.0  0.56323  0.15141  0.42312  1.0000
  H   H1551     1.0  0.72824  0.04499  0.45751  1.0000
  C   C883      1.0  0.97888  0.15252  0.03236  1.0000
  H   H1552     1.0  0.54455  0.09247  0.43184  1.0000
  C   C884      1.0  0.55025  0.10348  0.41694  1.0000
  H   H1553     1.0  0.54994  0.17565  0.44197  1.0000
  H   H1554     1.0  0.74061  0.00389  0.47077  1.0000
  H   H1555     1.0  0.95264  0.06717  0.07464  1.0000
  C   C885      1.0  0.88396  0.10853  0.10018  1.0000
  C   C886      1.0  0.93943  0.07307  0.08462  1.0000
  N   N48       1.0  0.57062  0.11922  0.44884  1.0000
  N   N49       1.0  0.93459  0.09219  0.07162  1.0000
  C   C887      1.0  0.95153  0.10404  0.07082  1.0000
  H   H1556     1.0  0.94247  0.07409  0.10593  1.0000
  N   N50       1.0  0.74426  0.02169  0.50296  1.0000
  Fe  Fe98      1.0  0.83359  0.01634  0.01633  1.0000
  H   H1557     1.0  0.96524  0.15968  0.03376  1.0000
  H   H1558     1.0  0.92054  0.11715  0.08745  1.0000
  C   C888      1.0  0.97365  0.12205  0.09525  1.0000
  H   H1559     1.0  0.55641  0.10608  0.37325  1.0000
  H   H1560     1.0  0.57733  0.15698  0.42376  1.0000
  H   H1561     1.0  0.55278  0.17824  0.40567  1.0000
  H   H1562     1.0  0.73832  0.01164  0.42311  1.0000
  H   H1563     1.0  0.93613  0.03952  0.11652  1.0000
  S   S195      1.0  0.85841  0.03564  0.01663  1.0000
  H   H1564     1.0  0.96505  0.09427  0.10766  1.0000
  H   H1565     1.0  0.88638  0.12363  0.10134  1.0000
  C   C889      1.0  0.60524  0.10796  0.45429  1.0000
  S   S196      1.0  0.86781  0.12302  0.02939  1.0000
  C   C890      1.0  0.88886  0.22907  0.04700  1.0000
  H   H1566     1.0  0.89507  0.08513  0.07872  1.0000
  H   H1567     1.0  0.75174  0.03596  0.44891  1.0000
  H   H1568     1.0  0.57694  0.11631  0.40619  1.0000
  H   H1569     1.0  0.53968  0.12116  0.49255  1.0000
  H   H1570     1.0  0.53718  0.09149  0.38497  1.0000
  H   H1571     1.0  0.94851  0.11803  0.06029  1.0000
  S   S197      1.0  0.80226  0.02184  0.02245  1.0000
  H   H1572     1.0  0.62477  0.12441  0.47297  1.0000
  H   H1573     1.0  0.89700  0.10756  0.06022  1.0000
  H   H1574     1.0  0.59151  0.13380  0.46706  1.0000
  C   C891      1.0  0.59066  0.12451  0.45030  1.0000
  H   H1575     1.0  0.91897  0.09694  0.11000  1.0000
  H   H1576     1.0  0.87973  0.21793  0.05462  1.0000
  C   C892      1.0  0.56499  0.10717  0.47431  1.0000
  H   H1577     1.0  0.92758  0.10568  0.03326  1.0000
  H   H1578     1.0  0.56660  0.22973  0.49197  1.0000
  H   H1579     1.0  0.91013  0.22190  0.13634  1.0000
  H   H1580     1.0  0.60623  0.09900  0.43707  1.0000
  Fe  Fe99      1.0  0.89312  0.14121  0.01779  1.0000
  S   S198      1.0  0.96280  0.12597  0.00575  1.0000
  H   H1581     1.0  0.76974  0.01283  0.47988  1.0000
  C   C893      1.0  0.95864  0.10742  0.09852  1.0000
  H   H1582     1.0  0.94718  0.11247  0.11283  1.0000
  H   H1583     1.0  0.56986  0.09233  0.47216  1.0000
  C   C894      1.0  0.84793  0.09081  0.03192  1.0000
  C   C895      1.0  0.91966  0.23966  0.03164  1.0000
  S   S199      1.0  0.52134  0.15878  0.48622  1.0000
  H   H1584     1.0  0.96373  0.09778  0.05900  1.0000
  H   H1585     1.0  0.91643  0.08434  0.04189  1.0000
  C   C896      1.0  0.93139  0.03914  0.09595  1.0000
  H   H1586     1.0  0.71511  0.02156  0.43166  1.0000
  H   H1587     1.0  0.60156  0.09908  0.47298  1.0000
  H   H1588     1.0  0.54357  0.13431  0.44749  1.0000
  H   H1589     1.0  0.71969  0.01564  0.48325  1.0000
  H   H1590     1.0  0.99185  0.17276  0.05379  1.0000
  C   C897      1.0  0.73494  0.01745  0.47816  1.0000
  C   C898      1.0  0.76515  0.02243  0.49593  1.0000
  H   H1591     1.0  0.57214  0.11167  0.49160  1.0000
  C   C899      1.0  0.86533  0.09887  0.02468  1.0000
  H   H1592     1.0  0.97907  0.12377  0.11507  1.0000
  H   H1593     1.0  0.76870  0.03667  0.48691  1.0000
  H   H1594     1.0  0.96769  0.13583  0.08749  1.0000
  C   C900      1.0  0.86038  0.06017  0.01929  1.0000
  Fe  Fe100     1.0  0.93556  0.14314  0.00732  1.0000
  H   H1595     1.0  0.83205  0.06563  0.03531  1.0000
  H   H1596     1.0  0.53467  0.10554  0.46831  1.0000
  H   H1597     1.0  0.90182  0.22274  0.10296  1.0000
  H   H1598     1.0  0.73201  0.03528  0.41104  1.0000
  C   C901      1.0  0.73696  0.03213  0.45357  1.0000
  C   C902      1.0  0.99396  0.15993  0.04365  1.0000
  H   H1599     1.0  0.93933  0.23694  0.11691  1.0000
  H   H1600     1.0  0.92241  0.20865  0.11057  1.0000
  C   C903      1.0  0.88021  0.08750  0.01434  1.0000
  H   H1601     1.0  0.77891  0.99845  0.16974  1.0000
  C   C904      1.0  0.91448  0.22200  0.11445  1.0000
  C   C905      1.0  0.87779  0.06826  0.01196  1.0000
  H   H1602     1.0  0.89357  0.09354  0.00834  1.0000
  H   H1603     1.0  0.80361  0.01429  0.49246  1.0000
  C   C906      1.0  0.92680  0.23851  0.10541  1.0000
  H   H1604     1.0  0.54305  0.07815  0.49983  1.0000
  S   S200      1.0  0.57465  0.16729  0.50184  1.0000
  C   C907      1.0  0.88178  0.24775  0.04524  1.0000
  S   S201      1.0  0.88861  0.17197  0.00465  1.0000
  H   H1605     1.0  0.60866  0.00374  0.49414  1.0000
  H   H1606     1.0  0.88946  0.05954  0.00433  1.0000
  C   C908      1.0  0.49950  0.15312  0.50336  1.0000
  S   S202      1.0  0.58030  0.16327  0.56587  1.0000
  C   C909      1.0  0.83848  0.01486  0.89568  1.0000
  C   C910      1.0  0.72722  0.04162  0.64524  1.0000
  Fe  Fe101     1.0  0.73383  0.05214  0.73372  1.0000
  S   S203      1.0  0.72964  0.08362  0.73393  1.0000
  S   S204      1.0  0.72138  0.03508  0.70185  1.0000
  Fe  Fe102     1.0  0.74542  0.04877  0.79409  1.0000
  S   S205      1.0  0.74078  0.07966  0.79690  1.0000
  S   S206      1.0  0.75222  0.02839  0.83111  1.0000
  Fe  Fe103     1.0  0.71483  0.07825  0.77498  1.0000
  S   S207      1.0  0.68667  0.09076  0.79170  1.0000
  Fe  Fe104     1.0  0.75625  0.08269  0.75572  1.0000
  S   S208      1.0  0.77517  0.10777  0.75285  1.0000
  S   S209      1.0  0.71821  0.04696  0.77474  1.0000
  S   S210      1.0  0.76175  0.05143  0.75301  1.0000
  H   H1607     1.0  0.90311  0.07900  0.95906  1.0000
  H   H1608     1.0  0.94285  0.20092  0.92438  1.0000
  N   N51       1.0  0.85237  0.10062  0.92877  1.0000
  H   H1609     1.0  0.98293  0.24642  0.78728  1.0000
  S   S211      1.0  0.55194  0.13519  0.54217  1.0000
  H   H1610     1.0  0.87176  0.22606  0.93883  1.0000
  Fe  Fe105     1.0  0.55004  0.15674  0.57250  1.0000
  S   S212      1.0  0.53523  0.15269  0.61360  1.0000
  C   C911      1.0  0.68461  0.04256  0.85053  1.0000
  Fe  Fe106     1.0  0.60078  0.16035  0.74580  1.0000
  S   S213      1.0  0.60219  0.19164  0.73906  1.0000
  S   S214      1.0  0.62678  0.14328  0.72998  1.0000
  Fe  Fe107     1.0  0.55769  0.16318  0.76043  1.0000
  S   S215      1.0  0.55618  0.19454  0.75532  1.0000
  S   S216      1.0  0.53210  0.14521  0.76358  1.0000
  Fe  Fe108     1.0  0.57566  0.19134  0.71869  1.0000
  S   S217      1.0  0.57037  0.20942  0.68113  1.0000
  Fe  Fe109     1.0  0.58267  0.19291  0.77645  1.0000
  S   S218      1.0  0.58618  0.21573  0.80422  1.0000
  S   S219      1.0  0.57565  0.16009  0.72184  1.0000
  S   S220      1.0  0.58289  0.16135  0.78531  1.0000
  Fe  Fe110     1.0  0.91028  0.16623  0.97103  1.0000
  S   S221      1.0  0.90714  0.18039  0.92996  1.0000
  Fe  Fe111     1.0  0.87908  0.14353  0.75500  1.0000
  S   S222      1.0  0.86990  0.15053  0.79723  1.0000
  S   S223      1.0  0.86081  0.12758  0.73000  1.0000
  Fe  Fe112     1.0  0.91810  0.16000  0.75648  1.0000
  S   S224      1.0  0.91131  0.16746  0.79871  1.0000
  S   S225      1.0  0.94592  0.17141  0.73888  1.0000
  Fe  Fe113     1.0  0.89866  0.13948  0.80594  1.0000
  S   S226      1.0  0.90470  0.12178  0.84351  1.0000
  Fe  Fe114     1.0  0.88353  0.17811  0.78575  1.0000
  S   S227      1.0  0.87190  0.20574  0.80093  1.0000
  S   S228      1.0  0.90749  0.13085  0.76451  1.0000
  S   S229      1.0  0.89058  0.17214  0.74255  1.0000
  C   C912      1.0  0.88074  0.22689  0.78525  1.0000
  H   H1611     1.0  0.72057  0.03963  0.51550  1.0000
  H   H1612     1.0  0.70036  0.03087  0.89379  1.0000
  C   C913      1.0  0.96773  0.16324  0.75058  1.0000
  H   H1613     1.0  0.98148  0.18841  0.73525  1.0000
  H   H1614     1.0  0.73840  0.11531  0.85104  1.0000
  C   C914      1.0  0.90658  0.16384  0.90636  1.0000
  C   C915      1.0  0.89751  0.16861  0.88304  1.0000
  C   C916      1.0  0.89623  0.15535  0.86433  1.0000
  C   C917      1.0  0.90473  0.13751  0.86840  1.0000
  C   C918      1.0  0.91409  0.13276  0.89159  1.0000
  C   C919      1.0  0.91499  0.14597  0.91063  1.0000
  H   H1615     1.0  0.89127  0.18248  0.87962  1.0000
  H   H1616     1.0  0.88857  0.15896  0.84682  1.0000
  H   H1617     1.0  0.92094  0.11907  0.89450  1.0000
  H   H1618     1.0  0.92269  0.14254  0.92808  1.0000
  H   H1619     1.0  0.93269  0.22686  0.79248  1.0000
  H   H1620     1.0  0.63690  0.21481  0.68278  1.0000
  H   H1621     1.0  0.69608  0.01202  0.67824  1.0000
  H   H1622     1.0  0.73071  0.01880  0.94890  1.0000
  H   H1623     1.0  0.51636  0.17878  0.78831  1.0000
  H   H1624     1.0  0.68382  0.05681  0.90884  1.0000
  H   H1625     1.0  0.67476  0.04295  0.86886  1.0000
  C   C920      1.0  0.89338  0.23825  0.90906  1.0000
  C   C921      1.0  0.90051  0.24413  0.75073  1.0000
  H   H1626     1.0  0.80182  0.07781  0.96646  1.0000
  H   H1627     1.0  0.60494  0.15862  0.66888  1.0000
  H   H1628     1.0  0.58964  0.22768  0.74717  1.0000
  C   C922      1.0  0.54143  0.17091  0.63202  1.0000
  C   C923      1.0  0.53776  0.16982  0.66004  1.0000
  C   C924      1.0  0.54556  0.18262  0.67525  1.0000
  C   C925      1.0  0.55669  0.19670  0.66234  1.0000
  C   C926      1.0  0.55886  0.19886  0.63420  1.0000
  C   C927      1.0  0.55136  0.18585  0.61905  1.0000
  H   H1629     1.0  0.52978  0.15854  0.67015  1.0000
  H   H1630     1.0  0.54356  0.18113  0.69704  1.0000
  H   H1631     1.0  0.56744  0.20974  0.62414  1.0000
  H   H1632     1.0  0.55392  0.18707  0.59739  1.0000
  H   H1633     1.0  0.67678  0.11034  0.63488  1.0000
  H   H1634     1.0  0.82728  0.03580  0.92280  1.0000
  H   H1635     1.0  0.85250  0.08516  0.84820  1.0000
  H   H1636     1.0  0.98206  0.17613  0.81681  1.0000
  C   C928      1.0  0.71749  0.03195  0.66721  1.0000
  H   H1637     1.0  0.86663  0.12652  0.91723  1.0000
  C   C929      1.0  0.53982  0.12005  0.69500  1.0000
  H   H1638     1.0  0.86262  0.19175  0.86378  1.0000
  C   C930      1.0  0.69978  0.01707  0.63478  1.0000
  C   C931      1.0  0.70376  0.01964  0.66161  1.0000
  H   H1639     1.0  0.60484  0.10461  0.72643  1.0000
  H   H1640     1.0  0.99118  0.15497  0.96246  1.0000
  S   S230      1.0  0.83224  0.00509  0.97577  1.0000
  C   C932      1.0  0.79993  0.10955  0.74980  1.0000
  C   C933      1.0  0.81091  0.10307  0.72763  1.0000
  C   C934      1.0  0.82969  0.10821  0.72241  1.0000
  C   C935      1.0  0.83787  0.11962  0.73947  1.0000
  C   C936      1.0  0.82715  0.12547  0.76227  1.0000
  C   C937      1.0  0.80821  0.12074  0.76710  1.0000
  H   H1641     1.0  0.80465  0.09489  0.71372  1.0000
  H   H1642     1.0  0.83781  0.10365  0.70467  1.0000
  H   H1643     1.0  0.83322  0.13421  0.77562  1.0000
  H   H1644     1.0  0.79976  0.12620  0.78394  1.0000
  C   C938      1.0  0.67059  0.10619  0.77465  1.0000
  C   C939      1.0  0.67488  0.11422  0.74851  1.0000
  C   C940      1.0  0.66146  0.12592  0.73550  1.0000
  C   C941      1.0  0.64368  0.12992  0.74845  1.0000
  C   C942      1.0  0.63953  0.12222  0.77479  1.0000
  C   C943      1.0  0.65291  0.11041  0.78776  1.0000
  H   H1645     1.0  0.68851  0.11138  0.73834  1.0000
  H   H1646     1.0  0.66493  0.13214  0.71539  1.0000
  H   H1647     1.0  0.62591  0.12510  0.78500  1.0000
  H   H1648     1.0  0.64946  0.10440  0.80803  1.0000
  C   C944      1.0  0.76279  0.02851  0.86263  1.0000
  C   C945      1.0  0.77034  0.04446  0.87133  1.0000
  C   C946      1.0  0.77777  0.04385  0.89688  1.0000
  C   C947      1.0  0.77800  0.02729  0.91420  1.0000
  C   C948      1.0  0.91250  0.24370  0.85379  1.0000
  H   H1649     1.0  0.99392  0.15768  0.86040  1.0000
  H   H1650     1.0  0.77044  0.05731  0.85839  1.0000
  H   H1651     1.0  0.78347  0.05634  0.90323  1.0000
  H   H1652     1.0  0.66774  0.07425  0.87340  1.0000
  H   H1653     1.0  0.61346  0.09331  0.66828  1.0000
  H   H1654     1.0  0.76999  0.99867  0.91859  1.0000
  H   H1655     1.0  0.65962  0.04835  0.65102  1.0000
  N   N52       1.0  0.96017  0.17839  0.84927  1.0000
  H   H1656     1.0  0.95978  0.18726  0.94312  1.0000
  H   H1657     1.0  0.71227  0.05166  0.83671  1.0000
  H   H1658     1.0  0.75849  0.05186  0.53157  1.0000
  H   H1659     1.0  0.54566  0.20642  0.81488  1.0000
  S   S231      1.0  0.60767  0.12364  0.52854  1.0000
  N   N53       1.0  0.82986  0.17876  0.69943  1.0000
  C   C949      1.0  0.80921  0.17614  0.69789  1.0000
  C   C950      1.0  0.83525  0.19792  0.68702  1.0000
  C   C951      1.0  0.84041  0.16419  0.68300  1.0000
  C   C952      1.0  0.83548  0.17575  0.72796  1.0000
  C   C953      1.0  0.82529  0.18847  0.74868  1.0000
  C   C954      1.0  0.80170  0.15708  0.71012  1.0000
  C   C955      1.0  0.86201  0.16586  0.67858  1.0000
  C   C956      1.0  0.82057  0.21443  0.69026  1.0000
  C   C957      1.0  0.85578  0.09999  0.84988  1.0000
  C   C958      1.0  0.82999  0.18207  0.77732  1.0000
  C   C959      1.0  0.78066  0.15635  0.70766  1.0000
  C   C960      1.0  0.87080  0.15098  0.66053  1.0000
  H   H1660     1.0  0.80577  0.17797  0.67645  1.0000
  H   H1661     1.0  0.80051  0.18704  0.70821  1.0000
  H   H1662     1.0  0.84851  0.20193  0.69482  1.0000
  H   H1663     1.0  0.83836  0.19761  0.66477  1.0000
  H   H1664     1.0  0.83495  0.16443  0.66271  1.0000
  H   H1665     1.0  0.83817  0.14986  0.69261  1.0000
  H   H1666     1.0  0.83389  0.16090  0.73568  1.0000
  H   H1667     1.0  0.85063  0.17803  0.72857  1.0000
  H   H1668     1.0  0.80987  0.18841  0.74842  1.0000
  H   H1669     1.0  0.83004  0.20300  0.74455  1.0000
  H   H1670     1.0  0.80852  0.14517  0.69963  1.0000
  H   H1671     1.0  0.80398  0.15493  0.73187  1.0000
  H   H1672     1.0  0.86849  0.16373  0.69800  1.0000
  H   H1673     1.0  0.86593  0.17972  0.66886  1.0000
  H   H1674     1.0  0.80960  0.00843  0.89213  1.0000
  H   H1675     1.0  0.81427  0.21499  0.71118  1.0000
  C   C961      1.0  0.49889  0.19226  0.58423  1.0000
  H   H1676     1.0  0.93598  0.09563  0.98691  1.0000
  H   H1677     1.0  0.59403  0.23503  0.65057  1.0000
  H   H1678     1.0  0.82508  0.16775  0.78317  1.0000
  H   H1679     1.0  0.84532  0.18218  0.77880  1.0000
  H   H1680     1.0  0.82307  0.19179  0.79171  1.0000
  H   H1681     1.0  0.77572  0.14251  0.71621  1.0000
  H   H1682     1.0  0.77288  0.16736  0.71907  1.0000
  H   H1683     1.0  0.77750  0.15818  0.68619  1.0000
  H   H1684     1.0  0.88625  0.15214  0.65834  1.0000
  H   H1685     1.0  0.86766  0.13671  0.66963  1.0000
  H   H1686     1.0  0.86546  0.15292  0.64021  1.0000
  H   H1687     1.0  0.95804  0.11821  0.95074  1.0000
  H   H1688     1.0  0.84013  0.12878  0.96849  1.0000
  H   H1689     1.0  0.52195  0.21008  0.80578  1.0000
  C   C962      1.0  0.63443  0.07229  0.52272  1.0000
  H   H1690     1.0  0.81841  0.24474  0.68357  1.0000
  H   H1691     1.0  0.73865  0.07085  0.56234  1.0000
  C   C963      1.0  0.97997  0.18134  0.83738  1.0000
  H   H1692     1.0  0.83809  0.09701  0.96884  1.0000
  H   H1693     1.0  0.53079  0.12222  0.67793  1.0000
  H   H1694     1.0  0.66592  0.06036  0.82624  1.0000
  C   C964      1.0  0.66091  0.06226  0.63962  1.0000
  C   C965      1.0  0.67589  0.06870  0.72275  1.0000
  C   C966      1.0  0.83250  0.03503  0.90129  1.0000
  H   H1695     1.0  0.56038  0.02836  0.61391  1.0000
  H   H1696     1.0  0.51285  0.19278  0.59220  1.0000
  H   H1697     1.0  0.58991  0.05784  0.52553  1.0000
  H   H1698     1.0  0.73293  0.07654  0.52808  1.0000
  H   H1699     1.0  0.68256  0.04583  0.80711  1.0000
  C   C967      1.0  0.61991  0.05996  0.52260  1.0000
  H   H1700     1.0  0.85279  0.15814  0.94358  1.0000
  H   H1701     1.0  0.99677  0.18060  0.87212  1.0000
  H   H1702     1.0  0.65360  0.05060  0.73996  1.0000
  H   H1703     1.0  0.74610  0.10154  0.88022  1.0000
  H   H1704     1.0  0.73726  0.10893  0.64284  1.0000
  H   H1705     1.0  0.73787  0.05107  0.64891  1.0000
  H   H1706     1.0  0.68420  0.09226  0.86915  1.0000
  Fe  Fe115     1.0  0.65141  0.01741  0.51985  1.0000
  H   H1707     1.0  0.75094  0.09320  0.84705  1.0000
  C   C968      1.0  0.86948  0.08947  0.93777  1.0000
  H   H1708     1.0  0.71575  0.09236  0.84368  1.0000
  C   C969      1.0  0.73608  0.04031  0.51157  1.0000
  S   S232      1.0  0.70558  0.02382  0.57816  1.0000
  H   H1709     1.0  0.94163  0.15648  0.86452  1.0000
  H   H1710     1.0  0.93578  0.20379  0.78050  1.0000
  H   H1711     1.0  0.53407  0.10876  0.70942  1.0000
  H   H1712     1.0  0.71026  0.09203  0.63301  1.0000
  H   H1713     1.0  0.89918  0.21393  0.75512  1.0000
  H   H1714     1.0  0.96255  0.20328  0.87063  1.0000
  H   H1715     1.0  0.97453  0.14650  0.82316  1.0000
  H   H1716     1.0  0.66988  0.13600  0.66328  1.0000
  H   H1717     1.0  0.51092  0.14394  0.54096  1.0000
  H   H1718     1.0  0.59738  0.12975  0.69181  1.0000
  C   C970      1.0  0.70965  0.02660  0.61282  1.0000
  C   C971      1.0  0.57375  0.23779  0.53031  1.0000
  S   S233      1.0  0.78765  0.02742  0.94638  1.0000
  H   H1719     1.0  0.83456  0.10307  0.89576  1.0000
  H   H1720     1.0  0.55863  0.00520  0.63059  1.0000
  C   C972      1.0  0.85400  0.12150  0.92955  1.0000
  S   S234      1.0  0.54040  0.18067  0.54510  1.0000
  H   H1721     1.0  0.72255  0.03234  0.87540  1.0000
  H   H1722     1.0  0.69579  0.07027  0.84081  1.0000
  H   H1723     1.0  0.98394  0.21508  0.77003  1.0000
  H   H1724     1.0  0.86930  0.20514  0.90770  1.0000
  H   H1725     1.0  0.65312  0.10352  0.63800  1.0000
  C   C973      1.0  0.59721  0.08650  0.52824  1.0000
  C   C974      1.0  0.98606  0.24534  0.76527  1.0000
  C   C975      1.0  0.70042  0.05664  0.85066  1.0000
  C   C976      1.0  0.98810  0.13882  0.77065  1.0000
  C   C977      1.0  0.89402  0.22700  0.76303  1.0000
  H   H1726     1.0  0.96624  0.10292  0.92464  1.0000
  C   C978      1.0  0.77050  0.01136  0.90544  1.0000
  H   H1727     1.0  0.73525  0.06355  0.86063  1.0000
  H   H1728     1.0  0.84347  0.19056  0.88958  1.0000
  C   C979      1.0  0.61399  0.09849  0.70996  1.0000
  H   H1729     1.0  0.61683  0.08342  0.71583  1.0000
  H   H1730     1.0  0.62743  0.10569  0.70779  1.0000
  H   H1731     1.0  0.73122  0.04638  0.60188  1.0000
  H   H1732     1.0  0.49826  0.16253  0.58918  1.0000
  H   H1733     1.0  0.69093  0.02810  0.85007  1.0000
  H   H1734     1.0  0.83544  0.23362  0.66063  1.0000
  C   C980      1.0  0.53323  0.21626  0.81572  1.0000
  H   H1735     1.0  0.92118  0.23943  0.87077  1.0000
  H   H1736     1.0  0.82450  0.07159  0.92821  1.0000
  H   H1737     1.0  0.66012  0.07283  0.59744  1.0000
  N   N54       1.0  0.70710  0.05900  0.87803  1.0000
  C   C981      1.0  0.72441  0.07042  0.87435  1.0000
  C   C982      1.0  0.71276  0.03972  0.89002  1.0000
  C   C983      1.0  0.72177  0.09114  0.86353  1.0000
  C   C984      1.0  0.74046  0.10082  0.86028  1.0000
  C   C985      1.0  0.85214  0.20022  0.87582  1.0000
  H   H1738     1.0  0.73108  0.10575  0.67856  1.0000
  C   C986      1.0  0.84839  0.09646  0.90063  1.0000
  H   H1739     1.0  0.64174  0.10105  0.52441  1.0000
  H   H1740     1.0  0.59116  0.09335  0.68703  1.0000
  C   C987      1.0  0.60153  0.12172  0.67384  1.0000
  C   C988      1.0  0.60443  0.10071  0.68358  1.0000
  H   H1741     1.0  0.61569  0.12655  0.66663  1.0000
  H   H1742     1.0  0.59572  0.18140  0.61632  1.0000
  H   H1743     1.0  0.61884  0.17393  0.62608  1.0000
  H   H1744     1.0  0.95844  0.13635  0.76721  1.0000
  H   H1745     1.0  0.88785  0.21628  0.86900  1.0000
  H   H1746     1.0  0.96254  0.22768  0.76158  1.0000
  C   C989      1.0  0.60428  0.17779  0.63369  1.0000
  H   H1747     1.0  0.84307  0.10913  0.84679  1.0000
  C   C990      1.0  0.59583  0.16174  0.65205  1.0000
  H   H1748     1.0  0.58313  0.09799  0.64390  1.0000
  H   H1749     1.0  0.54346  0.23255  0.78044  1.0000
  H   H1750     1.0  0.71481  0.04853  0.93121  1.0000
  H   H1751     1.0  0.60767  0.14204  0.62490  1.0000
  Fe  Fe116     1.0  0.58168  0.14359  0.53275  1.0000
  C   C991      1.0  0.66845  0.05305  0.74278  1.0000
  H   H1752     1.0  0.67707  0.03989  0.74032  1.0000
  H   H1753     1.0  0.66926  0.05716  0.76364  1.0000
  C   C992      1.0  0.69221  0.06778  0.89700  1.0000
  C   C993      1.0  0.67765  0.08181  0.88409  1.0000
  S   S235      1.0  0.68188  0.02402  0.51041  1.0000
  C   C994      1.0  0.49842  0.14579  0.53024  1.0000
  H   H1754     1.0  0.73073  0.07105  0.89380  1.0000
  H   H1755     1.0  0.73696  0.04306  0.91318  1.0000
  H   H1756     1.0  0.71253  0.09899  0.87806  1.0000
  C   C995      1.0  0.98321  0.17469  0.74564  1.0000
  C   C996      1.0  0.86163  0.21365  0.89223  1.0000
  C   C997      1.0  0.56839  0.13022  0.66504  1.0000
  H   H1757     1.0  0.58204  0.16701  0.66046  1.0000
  H   H1758     1.0  0.60454  0.19040  0.64521  1.0000
  N   N55       1.0  0.58798  0.12652  0.65248  1.0000
  C   C998      1.0  0.59381  0.14427  0.63612  1.0000
  H   H1759     1.0  0.58367  0.14825  0.62070  1.0000
  C   C999      1.0  0.73256  0.06542  0.54491  1.0000
  H   H1760     1.0  0.94332  0.21504  0.83679  1.0000
  H   H1761     1.0  0.87627  0.14877  0.94852  1.0000
  H   H1762     1.0  0.69892  0.07501  0.91241  1.0000
  H   H1763     1.0  0.61824  0.10859  0.62613  1.0000
  H   H1764     1.0  0.50544  0.10150  0.61596  1.0000
  H   H1765     1.0  0.72380  0.00776  0.53084  1.0000
  Fe  Fe117     1.0  0.54458  0.15990  0.51383  1.0000
  C   C1000     1.0  0.98039  0.12938  0.92251  1.0000
  H   H1766     1.0  0.56805  0.11264  0.70306  1.0000
  H   H1767     1.0  0.89087  0.10391  0.91014  1.0000
  H   H1768     1.0  0.62005  0.23375  0.56875  1.0000
  C   C1001     1.0  0.93776  0.08093  0.99554  1.0000
  C   C1002     1.0  0.58731  0.11144  0.63312  1.0000
  C   C1003     1.0  0.60562  0.10786  0.61493  1.0000
  H   H1769     1.0  0.60655  0.11870  0.59767  1.0000
  C   C1004     1.0  0.66608  0.09246  0.90553  1.0000
  H   H1770     1.0  0.65863  0.08257  0.92053  1.0000
  H   H1771     1.0  0.50048  0.17362  0.63450  1.0000
  H   H1772     1.0  0.98998  0.12476  0.77989  1.0000
  H   H1773     1.0  0.88855  0.22873  0.97937  1.0000
  H   H1774     1.0  0.84292  0.20820  0.86175  1.0000
  H   H1775     1.0  0.87052  0.07557  0.92909  1.0000
  H   H1776     1.0  0.51753  0.11646  0.63535  1.0000
  C   C1005     1.0  0.73039  0.09948  0.65902  1.0000
  H   H1777     1.0  0.67522  0.10109  0.91602  1.0000
  C   C1006     1.0  0.52448  0.23206  0.56159  1.0000
  H   H1778     1.0  0.66741  0.08166  0.72674  1.0000
  H   H1779     1.0  0.68352  0.05068  0.69037  1.0000
  C   C1007     1.0  0.96037  0.14472  0.83341  1.0000
  C   C1008     1.0  0.65792  0.12882  0.65646  1.0000
  H   H1780     1.0  0.64656  0.12847  0.67299  1.0000
  H   H1781     1.0  0.65551  0.10196  0.89579  1.0000
  H   H1782     1.0  0.51072  0.24252  0.79023  1.0000
  C   C1009     1.0  0.97019  0.14537  0.76355  1.0000
  H   H1783     1.0  0.55971  0.10124  0.67538  1.0000
  C   C1010     1.0  0.60604  0.08882  0.60306  1.0000
  H   H1784     1.0  0.57608  0.11511  0.61917  1.0000
  H   H1785     1.0  0.60600  0.07730  0.61931  1.0000
  H   H1786     1.0  0.59376  0.08784  0.59113  1.0000
  H   H1787     1.0  0.84043  0.23577  0.69523  1.0000
  H   H1788     1.0  0.94982  0.14744  0.81836  1.0000
  C   C1011     1.0  0.55995  0.11465  0.68498  1.0000
  H   H1789     1.0  0.81944  0.07161  0.98988  1.0000
  H   H1790     1.0  0.86364  0.11935  0.97064  1.0000
  H   H1791     1.0  0.96748  0.20568  0.91859  1.0000
  C   C1012     1.0  0.59178  0.23951  0.75839  1.0000
  H   H1792     1.0  0.90308  0.21598  0.95530  1.0000
  H   H1793     1.0  0.86364  0.24411  0.81196  1.0000
  H   H1794     1.0  0.51936  0.22357  0.54625  1.0000
  H   H1795     1.0  0.81173  0.05423  0.96977  1.0000
  H   H1796     1.0  0.55862  0.13340  0.64901  1.0000
  H   H1797     1.0  0.56762  0.14282  0.67652  1.0000
  H   H1798     1.0  0.61895  0.08712  0.58936  1.0000
  H   H1799     1.0  0.52480  0.09332  0.51448  1.0000
  C   C1013     1.0  0.72250  0.01919  0.93093  1.0000
  H   H1800     1.0  0.66007  0.06000  0.69184  1.0000
  C   C1014     1.0  0.50493  0.17075  0.78335  1.0000
  H   H1801     1.0  0.69055  0.07055  0.72714  1.0000
  Fe  Fe118     1.0  0.57078  0.18634  0.53608  1.0000
  C   C1015     1.0  0.67327  0.04636  0.82597  1.0000
  C   C1016     1.0  0.94695  0.20652  0.81936  1.0000
  C   C1017     1.0  0.96310  0.11772  0.92917  1.0000
  H   H1802     1.0  0.77370  0.02436  0.53749  1.0000
  H   H1803     1.0  0.72919  0.00899  0.91706  1.0000
  S   S236      1.0  0.93459  0.17338  0.99268  1.0000
  C   C1018     1.0  0.87558  0.22581  0.87395  1.0000
  H   H1804     1.0  0.86962  0.22944  0.85426  1.0000
  C   C1019     1.0  0.90484  0.08479  0.93775  1.0000
  H   H1805     1.0  0.98175  0.22508  0.73620  1.0000
  S   S237      1.0  0.91300  0.13529  0.98219  1.0000
  H   H1806     1.0  0.62676  0.22883  0.63950  1.0000
  H   H1807     1.0  0.80732  0.01739  0.52708  1.0000
  C   C1020     1.0  0.60128  0.06721  0.52550  1.0000
  C   C1021     1.0  0.94705  0.18525  0.82813  1.0000
  C   C1022     1.0  0.70027  0.08354  0.67516  1.0000
  H   H1808     1.0  0.96082  0.21055  0.80983  1.0000
  C   C1023     1.0  0.95954  0.18032  0.90162  1.0000
  C   C1024     1.0  0.62280  0.23640  0.65780  1.0000
  H   H1809     1.0  0.86816  0.08615  0.96003  1.0000
  H   H1810     1.0  0.53914  0.22722  0.56482  1.0000
  H   H1811     1.0  0.65315  0.09159  0.68298  1.0000
  H   H1812     1.0  0.90183  0.22498  0.90613  1.0000
  C   C1025     1.0  0.73910  0.00666  0.52488  1.0000
  C   C1026     1.0  0.99589  0.17267  0.85413  1.0000
  C   C1027     1.0  0.67479  0.06377  0.69321  1.0000
  H   H1813     1.0  0.84465  0.04412  0.89699  1.0000
  H   H1814     1.0  0.91821  0.20846  0.80759  1.0000
  H   H1815     1.0  0.90545  0.07312  0.92427  1.0000
  S   S238      1.0  0.58114  0.21506  0.54337  1.0000
  H   H1816     1.0  0.95037  0.17796  0.80930  1.0000
  C   C1028     1.0  0.95727  0.19447  0.92315  1.0000
  C   C1029     1.0  0.93255  0.21166  0.79877  1.0000
  H   H1817     1.0  0.93242  0.18193  0.83564  1.0000
  H   H1818     1.0  0.53941  0.13312  0.70570  1.0000
  H   H1819     1.0  0.98395  0.12930  0.90053  1.0000
  C   C1030     1.0  0.72339  0.03890  0.61842  1.0000
  H   H1820     1.0  0.70299  0.11128  0.65365  1.0000
  C   C1031     1.0  0.62282  0.22189  0.68197  1.0000
  H   H1821     1.0  0.67165  0.04991  0.60250  1.0000
  H   H1822     1.0  0.79949  0.03712  0.50562  1.0000
  H   H1823     1.0  0.91828  0.09204  0.93449  1.0000
  C   C1032     1.0  0.76306  0.01196  0.87994  1.0000
  H   H1824     1.0  0.49805  0.10332  0.65116  1.0000
  H   H1825     1.0  0.94010  0.19350  0.87563  1.0000
  H   H1826     1.0  0.58286  0.09179  0.53055  1.0000
  H   H1827     1.0  0.94840  0.07352  0.98230  1.0000
  N   N56       1.0  0.68039  0.07885  0.67144  1.0000
  H   H1828     1.0  0.69072  0.05924  0.64244  1.0000
  H   H1829     1.0  0.70925  0.07048  0.67674  1.0000
  H   H1830     1.0  0.66265  0.03560  0.82610  1.0000
  C   C1033     1.0  0.50878  0.15409  0.77071  1.0000
  C   C1034     1.0  0.89638  0.22990  0.95916  1.0000
  H   H1831     1.0  0.95173  0.12346  0.91675  1.0000
  H   H1832     1.0  0.84727  0.08116  0.89930  1.0000
  C   C1035     1.0  0.59036  0.23767  0.78658  1.0000
  H   H1833     1.0  0.96144  0.11520  0.82662  1.0000
  H   H1834     1.0  0.94950  0.16913  0.90777  1.0000
  C   C1036     1.0  0.74378  0.04783  0.53651  1.0000
  C   C1037     1.0  0.82931  0.23325  0.68186  1.0000
  H   H1835     1.0  0.86670  0.10400  0.83356  1.0000
  C   C1038     1.0  0.71003  0.09717  0.65340  1.0000
  H   H1836     1.0  0.84975  0.01043  0.90903  1.0000
  C   C1039     1.0  0.61176  0.09892  0.52752  1.0000
  C   C1040     1.0  0.86301  0.10250  0.87729  1.0000
  C   C1041     1.0  0.72219  0.03897  0.91701  1.0000
  S   S239      1.0  0.62419  0.03562  0.51782  1.0000
  C   C1042     1.0  0.95651  0.15796  0.85658  1.0000
  C   C1043     1.0  0.83018  0.07414  0.94754  1.0000
  H   H1837     1.0  0.64878  0.07142  0.64633  1.0000
  H   H1838     1.0  0.61249  0.21108  0.68028  1.0000
  H   H1839     1.0  0.96481  0.15215  0.87323  1.0000
  C   C1044     1.0  0.65979  0.05924  0.60981  1.0000
  C   C1045     1.0  0.66419  0.10904  0.64911  1.0000
  H   H1840     1.0  0.64650  0.05255  0.60706  1.0000
  H   H1841     1.0  0.70805  0.01496  0.93759  1.0000
  H   H1842     1.0  0.82301  0.10391  0.94290  1.0000
  Fe  Fe119     1.0  0.80098  0.00974  0.98183  1.0000
  C   C1046     1.0  0.66734  0.09584  0.67474  1.0000
  H   H1843     1.0  0.84202  0.12916  0.92009  1.0000
  H   H1844     1.0  0.82126  0.04043  0.88833  1.0000
  C   C1047     1.0  0.99699  0.12156  0.93872  1.0000
  H   H1845     1.0  0.86019  0.15351  0.97716  1.0000
  H   H1846     1.0  0.86639  0.11741  0.87727  1.0000
  H   H1847     1.0  0.70092  0.09013  0.69446  1.0000
  C   C1048     1.0  0.95928  0.12416  0.84389  1.0000
  C   C1049     1.0  0.95543  0.18971  0.87352  1.0000
  C   C1050     1.0  0.86136  0.14848  0.95659  1.0000
  H   H1848     1.0  0.94531  0.12142  0.85435  1.0000
  H   H1849     1.0  0.73827  0.08573  0.65964  1.0000
  H   H1850     1.0  0.67216  0.10433  0.69037  1.0000
  H   H1851     1.0  0.97383  0.17393  0.90172  1.0000
  H   H1852     1.0  0.90977  0.23109  0.84345  1.0000
  H   H1853     1.0  0.52857  0.21779  0.83726  1.0000
  H   H1854     1.0  0.85031  0.22209  0.90255  1.0000
  C   C1051     1.0  0.53985  0.09228  0.50715  1.0000
  C   C1052     1.0  0.88867  0.09866  0.93149  1.0000
  C   C1053     1.0  0.87422  0.24399  0.79525  1.0000
  H   H1855     1.0  0.74310  0.03744  0.55415  1.0000
  H   H1856     1.0  0.84243  0.06439  0.95072  1.0000
  C   C1054     1.0  0.83560  0.09487  0.94756  1.0000
  Fe  Fe120     1.0  0.68615  0.00936  0.55163  1.0000
  H   H1857     1.0  0.97028  0.12024  0.85791  1.0000
  H   H1858     1.0  0.65282  0.13713  0.63859  1.0000
  H   H1859     1.0  0.71776  0.06210  0.55109  1.0000
  H   H1860     1.0  0.98259  0.19654  0.83409  1.0000
  H   H1861     1.0  0.87601  0.09355  0.87859  1.0000
  H   H1862     1.0  0.68333  0.08101  0.62753  1.0000
  H   H1863     1.0  0.84408  0.01495  0.87430  1.0000
  H   H1864     1.0  0.57770  0.01570  0.57416  1.0000
  H   H1865     1.0  0.97639  0.14394  0.92733  1.0000
  H   H1866     1.0  0.88963  0.11069  0.94393  1.0000
  C   C1055     1.0  0.67975  0.07065  0.64459  1.0000
  C   C1056     1.0  0.85445  0.12858  0.95806  1.0000
  C   C1057     1.0  0.53835  0.23521  0.80139  1.0000
  C   C1058     1.0  0.77806  0.01710  0.51911  1.0000
  H   H1867     1.0  0.68922  0.00752  0.63113  1.0000
  C   C1059     1.0  0.50361  0.11120  0.63235  1.0000
  H   H1868     1.0  0.90743  0.24020  0.95957  1.0000
  H   H1869     1.0  0.80905  0.21294  0.67711  1.0000
  C   C1060     1.0  0.81486  0.06925  0.96980  1.0000
  H   H1870     1.0  0.91054  0.24412  0.73329  1.0000
  H   H1871     1.0  0.54830  0.09410  0.52433  1.0000
  S   S240      1.0  0.65565  0.00363  0.56111  1.0000
  H   H1872     1.0  0.50080  0.19229  0.56191  1.0000
  C   C1061     1.0  0.97802  0.22724  0.75783  1.0000
  C   C1062     1.0  0.88295  0.23626  0.93766  1.0000
  N   N57       1.0  0.88169  0.24320  0.88533  1.0000
  H   H1873     1.0  0.77792  0.00183  0.52487  1.0000
  H   H1874     1.0  0.51588  0.22972  0.58101  1.0000
  C   C1063     1.0  0.63036  0.09162  0.52498  1.0000
  H   H1875     1.0  0.61932  0.22869  0.70112  1.0000
  H   H1876     1.0  0.99279  0.12297  0.96047  1.0000
  H   H1877     1.0  0.74571  0.00868  0.54368  1.0000
  H   H1878     1.0  0.99649  0.18627  0.93662  1.0000
  C   C1064     1.0  0.55962  0.01327  0.61061  1.0000
  H   H1879     1.0  0.81795  0.00220  0.92378  1.0000
  H   H1880     1.0  0.64882  0.06702  0.52045  1.0000
  H   H1881     1.0  0.54983  0.24043  0.81190  1.0000
  H   H1882     1.0  0.63362  0.24647  0.66036  1.0000
  H   H1883     1.0  0.50043  0.14447  0.65349  1.0000
  H   H1884     1.0  0.58941  0.00968  0.60434  1.0000
  C   C1065     1.0  0.79834  0.02179  0.51042  1.0000
  H   H1885     1.0  0.75717  0.99953  0.87373  1.0000
  H   H1886     1.0  0.81383  0.00540  0.84862  1.0000
  C   C1066     1.0  0.82188  0.00181  0.90186  1.0000
  H   H1887     1.0  0.59844  0.24344  0.60587  1.0000
  H   H1888     1.0  0.54680  0.01143  0.60023  1.0000
  C   C1067     1.0  0.56773  0.24128  0.50436  1.0000
  H   H1889     1.0  0.92430  0.07387  0.99583  1.0000
  H   H1890     1.0  0.56447  0.24792  0.65253  1.0000
  C   C1068     1.0  0.57709  0.00688  0.59348  1.0000
  C   C1069     1.0  0.60316  0.24608  0.65580  1.0000
  H   H1891     1.0  0.59623  0.00226  0.54234  1.0000
  H   H1892     1.0  0.78513  0.48123  0.08569  1.0000
  C   C1070     1.0  0.93347  0.27900  0.13317  1.0000
  C   C1071     1.0  0.91250  0.25835  0.02944  1.0000
  H   H1893     1.0  0.55970  0.26247  0.47368  1.0000
  H   H1894     1.0  0.75717  0.46631  0.15073  1.0000
  H   H1895     1.0  0.85747  0.41605  0.06812  1.0000
  H   H1896     1.0  0.94554  0.27575  0.18483  1.0000
  Fe  Fe121     1.0  0.90183  0.31123  0.02527  1.0000
  Fe  Fe122     1.0  0.89847  0.35359  0.00661  1.0000
  H   H1897     1.0  0.51230  0.31588  0.45275  1.0000
  H   H1898     1.0  0.50302  0.27197  0.49598  1.0000
  C   C1072     1.0  0.56394  0.25988  0.49399  1.0000
  H   H1899     1.0  0.76267  0.42882  0.18427  1.0000
  Fe  Fe123     1.0  0.93290  0.33682  0.03404  1.0000
  S   S241      1.0  0.95729  0.34138  0.05815  1.0000
  C   C1073     1.0  0.50670  0.30195  0.49259  1.0000
  S   S242      1.0  0.90191  0.33778  0.04707  1.0000
  H   H1900     1.0  0.81087  0.45349  0.13996  1.0000
  S   S243      1.0  0.79275  0.48020  0.02684  1.0000
  H   H1901     1.0  0.52892  0.29709  0.46095  1.0000
  H   H1902     1.0  0.80148  0.45446  0.07338  1.0000
  C   C1074     1.0  0.81815  0.47628  0.11040  1.0000
  H   H1903     1.0  0.87362  0.38834  0.04796  1.0000
  C   C1075     1.0  0.86738  0.39938  0.03515  1.0000
  C   C1076     1.0  0.84980  0.42964  0.03028  1.0000
  C   C1077     1.0  0.97166  0.28729  0.05889  1.0000
  S   S244      1.0  0.88447  0.28590  0.03848  1.0000
  C   C1078     1.0  0.76638  0.45443  0.15802  1.0000
  C   C1079     1.0  0.77657  0.47291  0.10148  1.0000
  H   H1904     1.0  0.79689  0.47453  0.14331  1.0000
  C   C1080     1.0  0.97883  0.33945  0.03841  1.0000
  H   H1905     1.0  0.98042  0.29976  0.05586  1.0000
  S   S245      1.0  0.56136  0.29833  0.49545  1.0000
  H   H1906     1.0  0.79777  0.43095  0.04122  1.0000
  H   H1907     1.0  0.81215  0.41558  0.06227  1.0000
  H   H1908     1.0  0.77204  0.48303  0.11678  1.0000
  H   H1909     1.0  0.93862  0.29348  0.13222  1.0000
  H   H1910     1.0  0.96138  0.29401  0.09863  1.0000
  H   H1911     1.0  0.50572  0.29192  0.45259  1.0000
  H   H1912     1.0  0.74311  0.43562  0.16436  1.0000
  C   C1081     1.0  0.83247  0.48365  0.12750  1.0000
  C   C1082     1.0  0.60228  0.42694  0.49704  1.0000
  H   H1913     1.0  0.94721  0.30337  0.07222  1.0000
  H   H1914     1.0  0.99537  0.34745  0.06942  1.0000
  H   H1915     1.0  0.76596  0.43742  0.12451  1.0000
  C   C1083     1.0  0.77676  0.44452  0.13413  1.0000
  H   H1916     1.0  0.87010  0.31187  0.11811  1.0000
  C   C1084     1.0  0.97937  0.33391  0.01208  1.0000
  H   H1917     1.0  0.77292  0.43191  0.07963  1.0000
  H   H1918     1.0  0.74704  0.44823  0.19306  1.0000
  C   C1085     1.0  0.94277  0.27370  0.08469  1.0000
  S   S246      1.0  0.83803  0.44900  0.04592  1.0000
  H   H1919     1.0  0.96724  0.26279  0.17707  1.0000
  H   H1920     1.0  0.74976  0.45886  0.10177  1.0000
  H   H1921     1.0  0.89670  0.29413  0.13622  1.0000
  N   N58       1.0  0.92683  0.27508  0.10633  1.0000
  H   H1922     1.0  0.81160  0.43915  0.09819  1.0000
  H   H1923     1.0  0.76340  0.46051  0.06948  1.0000
  H   H1924     1.0  0.75580  0.49421  0.06362  1.0000
  H   H1925     1.0  0.81160  0.48856  0.09934  1.0000
  H   H1926     1.0  0.96637  0.28479  0.03926  1.0000
  C   C1086     1.0  0.91393  0.29137  0.09761  1.0000
  C   C1087     1.0  0.86830  0.39788  0.00727  1.0000
  H   H1927     1.0  0.90563  0.25824  0.09280  1.0000
  H   H1928     1.0  0.84288  0.49176  0.11423  1.0000
  S   S247      1.0  0.93286  0.30912  0.01617  1.0000
  H   H1929     1.0  0.88608  0.28107  0.11260  1.0000
  C   C1088     1.0  0.80322  0.46492  0.12831  1.0000
  C   C1089     1.0  0.74754  0.48534  0.07911  1.0000
  Fe  Fe124     1.0  0.82411  0.47556  0.02620  1.0000
  H   H1930     1.0  0.92172  0.26956  0.02272  1.0000
  H   H1931     1.0  0.74311  0.49369  0.09657  1.0000
  C   C1090     1.0  0.75909  0.46778  0.08794  1.0000
  H   H1932     1.0  0.98058  0.27505  0.06581  1.0000
  N   N59       1.0  0.78822  0.45682  0.11368  1.0000
  H   H1933     1.0  0.78593  0.43296  0.14280  1.0000
  C   C1091     1.0  0.85814  0.41512  0.04653  1.0000
  H   H1934     1.0  0.95221  0.26132  0.08886  1.0000
  C   C1092     1.0  0.91576  0.25748  0.10871  1.0000
  C   C1093     1.0  0.75407  0.44088  0.17594  1.0000
  H   H1935     1.0  0.96387  0.28634  0.16228  1.0000
  H   H1936     1.0  0.79004  0.40802  0.05336  1.0000
  C   C1094     1.0  0.89361  0.26252  0.03698  1.0000
  H   H1937     1.0  0.82595  0.46757  0.09546  1.0000
  C   C1095     1.0  0.89478  0.29321  0.11459  1.0000
  C   C1096     1.0  0.79789  0.44529  0.09195  1.0000
  H   H1938     1.0  0.77645  0.45975  0.17099  1.0000
  H   H1939     1.0  0.91084  0.29052  0.07625  1.0000
  H   H1940     1.0  0.78750  0.41695  0.10035  1.0000
  H   H1941     1.0  0.84002  0.47184  0.13833  1.0000
  H   H1942     1.0  0.93713  0.27138  0.06514  1.0000
  H   H1943     1.0  0.94236  0.25187  0.15221  1.0000
  H   H1944     1.0  0.90706  0.25639  0.12830  1.0000
  C   C1097     1.0  0.78759  0.42829  0.08379  1.0000
  H   H1945     1.0  0.92081  0.30493  0.09803  1.0000
  C   C1098     1.0  0.79752  0.42026  0.05864  1.0000
  C   C1099     1.0  0.94867  0.26531  0.14467  1.0000
  H   H1946     1.0  0.88011  0.31015  0.08413  1.0000
  C   C1100     1.0  0.51386  0.30160  0.46291  1.0000
  C   C1101     1.0  0.95677  0.27309  0.16868  1.0000
  H   H1947     1.0  0.72721  0.49363  0.17663  1.0000
  C   C1102     1.0  0.88349  0.31081  0.10532  1.0000
  H   H1948     1.0  0.61722  0.45273  0.49425  1.0000
  H   H1949     1.0  0.92160  0.27886  0.14897  1.0000
  H   H1950     1.0  0.89139  0.32356  0.10703  1.0000
  H   H1951     1.0  0.73483  0.48128  0.07010  1.0000
  H   H1952     1.0  0.49938  0.39714  0.46067  1.0000
  C   C1103     1.0  0.95534  0.29084  0.07986  1.0000
  H   H1953     1.0  0.96052  0.26266  0.12957  1.0000
  H   H1954     1.0  0.86716  0.25081  0.05112  1.0000
  H   H1955     1.0  0.82551  0.49303  0.14235  1.0000
  H   H1956     1.0  0.59068  0.43319  0.48650  1.0000
  H   H1957     1.0  0.51475  0.31243  0.50145  1.0000
  C   C1104     1.0  0.99565  0.34318  0.04907  1.0000
  S   S248      1.0  0.58240  0.39460  0.50082  1.0000
  C   C1105     1.0  0.61733  0.43809  0.50141  1.0000
  Fe  Fe125     1.0  0.57334  0.33904  0.56997  1.0000
  C   C1106     1.0  0.54841  0.36292  0.86694  1.0000
  S   S249      1.0  0.58805  0.32923  0.60682  1.0000
  S   S250      1.0  0.54912  0.32299  0.56047  1.0000
  S   S251      1.0  0.55882  0.36708  0.56214  1.0000
  Fe  Fe126     1.0  0.59386  0.32082  0.75843  1.0000
  S   S252      1.0  0.58961  0.32537  0.80229  1.0000
  S   S253      1.0  0.60317  0.29391  0.74004  1.0000
  Fe  Fe127     1.0  0.57975  0.36017  0.74232  1.0000
  S   S254      1.0  0.57416  0.36814  0.78495  1.0000
  S   S255      1.0  0.57150  0.37830  0.70625  1.0000
  Fe  Fe128     1.0  0.60233  0.35340  0.79094  1.0000
  S   S256      1.0  0.62495  0.36129  0.81711  1.0000
  Fe  Fe129     1.0  0.56212  0.33958  0.79229  1.0000
  S   S257      1.0  0.53546  0.33067  0.81643  1.0000
  S   S258      1.0  0.60868  0.34766  0.74755  1.0000
  S   S259      1.0  0.56560  0.33291  0.74925  1.0000
  C   C1107     1.0  0.89380  0.25377  0.86353  1.0000
  S   S260      1.0  0.94362  0.31981  0.93984  1.0000
  Fe  Fe130     1.0  0.88819  0.31699  0.82641  1.0000
  S   S261      1.0  0.89727  0.34646  0.81887  1.0000
  S   S262      1.0  0.87931  0.30485  0.86797  1.0000
  Fe  Fe131     1.0  0.89736  0.30799  0.76890  1.0000
  S   S263      1.0  0.90728  0.33714  0.75620  1.0000
  S   S264      1.0  0.90190  0.28258  0.74455  1.0000
  Fe  Fe132     1.0  0.92219  0.33435  0.79446  1.0000
  S   S265      1.0  0.95148  0.33943  0.80678  1.0000
  Fe  Fe133     1.0  0.88137  0.34695  0.78174  1.0000
  S   S266      1.0  0.86357  0.37399  0.77307  1.0000
  S   S267      1.0  0.91383  0.30477  0.80494  1.0000
  S   S268      1.0  0.87058  0.31794  0.79134  1.0000
  Fe  Fe134     1.0  0.71537  0.42890  0.78483  1.0000
  S   S269      1.0  0.72354  0.45906  0.77695  1.0000
  S   S270      1.0  0.68369  0.42536  0.78615  1.0000
  Fe  Fe135     1.0  0.75629  0.41462  0.77478  1.0000
  S   S271      1.0  0.76630  0.44363  0.76435  1.0000
  S   S272      1.0  0.77439  0.38739  0.77637  1.0000
  Fe  Fe136     1.0  0.74828  0.45121  0.80181  1.0000
  S   S273      1.0  0.76201  0.47052  0.82952  1.0000
  Fe  Fe137     1.0  0.74063  0.44912  0.74046  1.0000
  S   S274      1.0  0.74157  0.46439  0.69745  1.0000
  S   S275      1.0  0.73860  0.42186  0.81253  1.0000
  S   S276      1.0  0.73228  0.41925  0.74807  1.0000
  C   C1108     1.0  0.73588  0.45474  0.55096  1.0000
  H   H1958     1.0  0.54471  0.33127  0.62105  1.0000
  Fe  Fe138     1.0  0.79847  0.49350  0.98417  1.0000
  H   H1959     1.0  0.52982  0.26040  0.56762  1.0000
  N   N60       1.0  0.56743  0.35771  0.87703  1.0000
  H   H1960     1.0  0.55771  0.44394  0.56649  1.0000
  C   C1109     1.0  0.76780  0.47243  0.86376  1.0000
  H   H1961     1.0  0.99341  0.35211  0.72407  1.0000
  H   H1962     1.0  0.99679  0.32778  0.97631  1.0000
  H   H1963     1.0  0.88028  0.40515  0.83182  1.0000
  C   C1110     1.0  0.76552  0.46308  0.91227  1.0000
  C   C1111     1.0  0.76108  0.46042  0.88563  1.0000
  H   H1964     1.0  0.54243  0.25318  0.71304  1.0000
  H   H1965     1.0  0.75988  0.45386  0.92888  1.0000
  H   H1966     1.0  0.75210  0.44930  0.88218  1.0000
  C   C1112     1.0  0.59566  0.27106  0.78678  1.0000
  C   C1113     1.0  0.72589  0.47034  0.67130  1.0000
  C   C1114     1.0  0.70646  0.46840  0.67522  1.0000
  C   C1115     1.0  0.69475  0.47398  0.65417  1.0000
  H   H1967     1.0  0.70039  0.46286  0.69463  1.0000
  H   H1968     1.0  0.67978  0.47255  0.65775  1.0000
  C   C1116     1.0  0.83875  0.37733  0.77334  1.0000
  C   C1117     1.0  0.83086  0.39563  0.76945  1.0000
  C   C1118     1.0  0.81124  0.39900  0.77026  1.0000
  C   C1119     1.0  0.79925  0.38405  0.77494  1.0000
  C   C1120     1.0  0.80715  0.36574  0.77851  1.0000
  C   C1121     1.0  0.82675  0.36238  0.77757  1.0000
  H   H1969     1.0  0.84001  0.40727  0.76566  1.0000
  H   H1970     1.0  0.80540  0.41310  0.76690  1.0000
  H   H1971     1.0  0.79805  0.35404  0.78187  1.0000
  H   H1972     1.0  0.83257  0.34821  0.78006  1.0000
  C   C1122     1.0  0.97336  0.34142  0.78752  1.0000
  C   C1123     1.0  0.50782  0.29123  0.58381  1.0000
  H   H1973     1.0  0.59810  0.37372  0.95275  1.0000
  H   H1974     1.0  0.58719  0.47998  0.56590  1.0000
  H   H1975     1.0  0.96216  0.34881  0.74931  1.0000
  H   H1976     1.0  0.56732  0.27359  0.84104  1.0000
  H   H1977     1.0  0.64445  0.28957  0.66934  1.0000
  H   H1978     1.0  0.96619  0.39216  0.96473  1.0000
  H   H1979     1.0  0.53031  0.31131  0.62895  1.0000
  H   H1980     1.0  0.59750  0.24957  0.67635  1.0000
  C   C1124     1.0  0.51228  0.35686  0.79029  1.0000
  H   H1981     1.0  0.98231  0.27041  0.96049  1.0000
  H   H1982     1.0  0.87581  0.27413  0.79119  1.0000
  H   H1983     1.0  0.84148  0.42911  0.88537  1.0000
  C   C1125     1.0  0.92740  0.31232  0.91926  1.0000
  C   C1126     1.0  0.92942  0.31709  0.89155  1.0000
  C   C1127     1.0  0.91480  0.31428  0.87569  1.0000
  C   C1128     1.0  0.89832  0.30637  0.88735  1.0000
  C   C1129     1.0  0.89684  0.30035  0.91474  1.0000
  C   C1130     1.0  0.91143  0.30331  0.93070  1.0000
  H   H1984     1.0  0.94168  0.32411  0.88256  1.0000
  H   H1985     1.0  0.91612  0.31909  0.85468  1.0000
  H   H1986     1.0  0.88425  0.29398  0.92382  1.0000
  H   H1987     1.0  0.91020  0.29890  0.95196  1.0000
  C   C1131     1.0  0.64178  0.37846  0.80726  1.0000
  C   C1132     1.0  0.64012  0.39107  0.78464  1.0000
  C   C1133     1.0  0.65321  0.40516  0.77834  1.0000
  C   C1134     1.0  0.66840  0.40651  0.79407  1.0000
  C   C1135     1.0  0.67027  0.39366  0.81642  1.0000
  C   C1136     1.0  0.65697  0.37979  0.82302  1.0000
  H   H1988     1.0  0.62845  0.39032  0.77243  1.0000
  H   H1989     1.0  0.65145  0.41519  0.76127  1.0000
  H   H1990     1.0  0.68164  0.39475  0.82904  1.0000
  H   H1991     1.0  0.65835  0.37017  0.84064  1.0000
  C   C1137     1.0  0.59775  0.27262  0.75855  1.0000
  H   H1992     1.0  0.96213  0.26265  0.75535  1.0000
  H   H1993     1.0  0.57281  0.28312  0.54803  1.0000
  H   H1994     1.0  0.83806  0.31190  0.96430  1.0000
  C   C1138     1.0  0.51365  0.34002  0.80635  1.0000
  C   C1139     1.0  0.98697  0.27500  0.97948  1.0000
  H   H1995     1.0  0.62328  0.36625  0.59805  1.0000
  H   H1996     1.0  0.53444  0.26469  0.84421  1.0000
  H   H1997     1.0  0.96651  0.36750  0.97481  1.0000
  S   S277      1.0  0.64922  0.49070  0.55355  1.0000
  H   H1998     1.0  0.52429  0.37510  0.66607  1.0000
  H   H1999     1.0  0.64411  0.40473  0.53377  1.0000
  C   C1140     1.0  0.58280  0.34286  0.63434  1.0000
  C   C1141     1.0  0.57051  0.35862  0.63285  1.0000
  C   C1142     1.0  0.56702  0.36954  0.65496  1.0000
  C   C1143     1.0  0.57561  0.36457  0.67872  1.0000
  C   C1144     1.0  0.58734  0.34846  0.68052  1.0000
  C   C1145     1.0  0.59104  0.33774  0.65832  1.0000
  H   H2000     1.0  0.56361  0.36237  0.61486  1.0000
  H   H2001     1.0  0.55751  0.38163  0.65382  1.0000
  H   H2002     1.0  0.59377  0.34426  0.69888  1.0000
  H   H2003     1.0  0.60032  0.32548  0.65978  1.0000
  N   N61       1.0  0.60173  0.26304  0.63603  1.0000
  H   H2004     1.0  0.50519  0.34848  0.73146  1.0000
  N   N62       1.0  0.69531  0.36228  0.74694  1.0000
  C   C1146     1.0  0.70539  0.37210  0.76679  1.0000
  C   C1147     1.0  0.68458  0.37645  0.72929  1.0000
  C   C1148     1.0  0.68129  0.34981  0.76302  1.0000
  C   C1149     1.0  0.70858  0.35004  0.73018  1.0000
  C   C1150     1.0  0.72514  0.35976  0.71372  1.0000
  C   C1151     1.0  0.71645  0.35942  0.78712  1.0000
  C   C1152     1.0  0.66703  0.34076  0.74666  1.0000
  C   C1153     1.0  0.69340  0.39572  0.72148  1.0000
  C   C1154     1.0  0.68269  0.40727  0.70024  1.0000
  C   C1155     1.0  0.73906  0.34536  0.70141  1.0000
  C   C1156     1.0  0.72579  0.37125  0.80591  1.0000
  C   C1157     1.0  0.65458  0.32755  0.76500  1.0000
  H   H2005     1.0  0.69520  0.38096  0.77861  1.0000
  H   H2006     1.0  0.71545  0.38204  0.75645  1.0000
  H   H2007     1.0  0.68149  0.37025  0.71046  1.0000
  H   H2008     1.0  0.67066  0.38012  0.73972  1.0000
  H   H2009     1.0  0.67297  0.35782  0.77854  1.0000
  H   H2010     1.0  0.68857  0.33801  0.77431  1.0000
  H   H2011     1.0  0.71437  0.33813  0.74310  1.0000
  H   H2012     1.0  0.70096  0.34338  0.71522  1.0000
  H   H2013     1.0  0.73306  0.36815  0.72625  1.0000
  H   H2014     1.0  0.71989  0.36888  0.69673  1.0000
  H   H2015     1.0  0.70712  0.34995  0.80008  1.0000
  H   H2016     1.0  0.72763  0.35093  0.77640  1.0000
  H   H2017     1.0  0.67421  0.33240  0.73081  1.0000
  H   H2018     1.0  0.65768  0.35158  0.73693  1.0000
  H   H2019     1.0  0.69276  0.40394  0.73948  1.0000
  H   H2020     1.0  0.70822  0.39439  0.71366  1.0000
  H   H2021     1.0  0.68897  0.42118  0.69593  1.0000
  H   H2022     1.0  0.68345  0.40011  0.68122  1.0000
  H   H2023     1.0  0.66779  0.40956  0.70778  1.0000
  H   H2024     1.0  0.75055  0.35270  0.68918  1.0000
  H   H2025     1.0  0.74534  0.33613  0.71753  1.0000
  H   H2026     1.0  0.73207  0.33664  0.68810  1.0000
  H   H2027     1.0  0.73411  0.36203  0.81982  1.0000
  H   H2028     1.0  0.73538  0.38109  0.79411  1.0000
  H   H2029     1.0  0.71510  0.37942  0.81809  1.0000
  H   H2030     1.0  0.66311  0.31605  0.77484  1.0000
  H   H2031     1.0  0.64643  0.33533  0.78079  1.0000
  H   H2032     1.0  0.64455  0.32121  0.75292  1.0000
  H   H2033     1.0  0.54203  0.43371  0.66883  1.0000
  H   H2034     1.0  0.98459  0.29045  0.97946  1.0000
  H   H2035     1.0  0.58092  0.28502  0.62699  1.0000
  H   H2036     1.0  0.74821  0.47932  0.64221  1.0000
  C   C1158     1.0  0.97575  0.29659  0.73515  1.0000
  C   C1159     1.0  0.97475  0.34623  0.75974  1.0000
  Fe  Fe139     1.0  0.56293  0.32437  0.51857  1.0000
  C   C1160     1.0  0.58224  0.27184  0.64035  1.0000
  H   H2037     1.0  0.95352  0.37835  0.83390  1.0000
  H   H2038     1.0  0.61734  0.38532  0.52688  1.0000
  H   H2039     1.0  0.73675  0.43216  0.58151  1.0000
  H   H2040     1.0  0.87050  0.26917  0.90048  1.0000
  H   H2041     1.0  0.50524  0.34792  0.50898  1.0000
  H   H2042     1.0  0.59789  0.38530  0.57850  1.0000
  H   H2043     1.0  0.84459  0.43924  0.98955  1.0000
  C   C1161     1.0  0.60206  0.40782  0.50623  1.0000
  H   H2044     1.0  0.67238  0.38991  0.54585  1.0000
  C   C1162     1.0  0.72731  0.43732  0.56581  1.0000
  H   H2045     1.0  0.83241  0.36060  0.83258  1.0000
  C   C1163     1.0  0.51598  0.36755  0.68309  1.0000
  H   H2046     1.0  0.95613  0.27526  0.79415  1.0000
  C   C1164     1.0  0.61539  0.27771  0.64028  1.0000
  H   H2047     1.0  0.83572  0.33590  0.82803  1.0000
  C   C1165     1.0  0.50367  0.26016  0.54699  1.0000
  C   C1166     1.0  0.79828  0.42364  0.83922  1.0000
  C   C1167     1.0  0.58460  0.36935  0.94637  1.0000
  H   H2048     1.0  0.72206  0.40561  0.66493  1.0000
  H   H2049     1.0  0.84574  0.24999  0.86349  1.0000
  C   C1168     1.0  0.52967  0.33033  0.66100  1.0000
  C   C1169     1.0  0.59588  0.25678  0.74448  1.0000
  H   H2050     1.0  0.50620  0.32073  0.59134  1.0000
  H   H2051     1.0  0.97908  0.38608  0.91915  1.0000
  C   C1170     1.0  0.95465  0.29455  0.73134  1.0000
  C   C1171     1.0  0.57133  0.27157  0.53578  1.0000
  H   H2052     1.0  0.59095  0.30522  0.85627  1.0000
  H   H2053     1.0  0.58111  0.29972  0.89042  1.0000
  C   C1172     1.0  0.50659  0.38269  0.70105  1.0000
  H   H2054     1.0  0.50379  0.33399  0.64297  1.0000
  C   C1173     1.0  0.85247  0.41842  0.83141  1.0000
  H   H2055     1.0  0.60601  0.30181  0.88340  1.0000
  H   H2056     1.0  0.53229  0.33743  0.87492  1.0000
  H   H2057     1.0  0.94648  0.32423  0.73052  1.0000
  C   C1174     1.0  0.94618  0.31238  0.71756  1.0000
  C   C1175     1.0  0.51226  0.29297  0.55258  1.0000
  H   H2058     1.0  0.97865  0.25979  0.72747  1.0000
  H   H2059     1.0  0.53456  0.43122  0.53979  1.0000
  C   C1176     1.0  0.51297  0.36111  0.87366  1.0000
  H   H2060     1.0  0.93134  0.31023  0.71415  1.0000
  H   H2061     1.0  0.54179  0.27853  0.70701  1.0000
  C   C1177     1.0  0.96436  0.28772  0.79596  1.0000
  H   H2062     1.0  0.54206  0.29196  0.79348  1.0000
  C   C1178     1.0  0.60018  0.45181  0.56524  1.0000
  H   H2063     1.0  0.94618  0.29144  0.75060  1.0000
  H   H2064     1.0  0.74206  0.41219  0.64206  1.0000
  H   H2065     1.0  0.61273  0.41583  0.57215  1.0000
  C   C1179     1.0  0.86528  0.25623  0.89321  1.0000
  C   C1180     1.0  0.56237  0.43170  0.63427  1.0000
  H   H2066     1.0  0.86086  0.41158  0.96943  1.0000
  H   H2067     1.0  0.83220  0.40529  0.94829  1.0000
  H   H2068     1.0  0.66828  0.37138  0.57198  1.0000
  H   H2069     1.0  0.54624  0.42416  0.58455  1.0000
  H   H2070     1.0  0.54141  0.41238  0.65221  1.0000
  H   H2071     1.0  0.99594  0.32874  0.87292  1.0000
  H   H2072     1.0  0.77251  0.39564  0.84261  1.0000
  H   H2073     1.0  0.53598  0.26088  0.63269  1.0000
  H   H2074     1.0  0.70112  0.40513  0.62686  1.0000
  H   H2075     1.0  0.90948  0.37646  0.89961  1.0000
  H   H2076     1.0  0.86600  0.34353  0.95989  1.0000
  H   H2077     1.0  0.63058  0.30935  0.65579  1.0000
  H   H2078     1.0  0.70683  0.49721  0.71094  1.0000
  H   H2079     1.0  0.84631  0.33009  0.87398  1.0000
  H   H2080     1.0  0.98899  0.33509  0.82239  1.0000
  H   H2081     1.0  0.82970  0.45411  0.85510  1.0000
  H   H2082     1.0  0.61471  0.44586  0.56259  1.0000
  C   C1181     1.0  0.59208  0.30753  0.87779  1.0000
  H   H2083     1.0  0.59132  0.25215  0.82255  1.0000
  H   H2084     1.0  0.58624  0.41294  0.63623  1.0000
  C   C1182     1.0  0.87510  0.35780  0.89798  1.0000
  H   H2085     1.0  0.51236  0.36246  0.85142  1.0000
  H   H2086     1.0  0.52228  0.28405  0.75125  1.0000
  H   H2087     1.0  0.73639  0.46602  0.56490  1.0000
  S   S278      1.0  0.54805  0.35181  0.50570  1.0000
  N   N63       1.0  0.81791  0.43051  0.83846  1.0000
  H   H2088     1.0  0.88649  0.36596  0.93529  1.0000
  H   H2089     1.0  0.57241  0.40290  0.57334  1.0000
  C   C1183     1.0  0.58999  0.44375  0.59204  1.0000
  H   H2090     1.0  0.86331  0.30896  0.95928  1.0000
  H   H2091     1.0  0.85501  0.42148  0.80923  1.0000
  H   H2092     1.0  0.96975  0.39307  0.84700  1.0000
  H   H2093     1.0  0.81872  0.42052  0.89499  1.0000
  H   H2094     1.0  0.61612  0.27264  0.68450  1.0000
  H   H2095     1.0  0.87752  0.37071  0.88442  1.0000
  H   H2096     1.0  0.61318  0.29028  0.62601  1.0000
  H   H2097     1.0  0.76810  0.39379  0.87882  1.0000
  H   H2098     1.0  0.62927  0.30323  0.69160  1.0000
  H   H2099     1.0  0.52484  0.36402  0.78286  1.0000
  C   C1184     1.0  0.62438  0.25699  0.59313  1.0000
  H   H2100     1.0  0.56859  0.33317  0.85431  1.0000
  H   H2101     1.0  0.55218  0.31239  0.64415  1.0000
  C   C1185     1.0  0.82585  0.39171  0.95497  1.0000
  C   C1186     1.0  0.50654  0.28050  0.79773  1.0000
  C   C1187     1.0  0.54896  0.26626  0.71734  1.0000
  H   H2102     1.0  0.60142  0.29250  0.67414  1.0000
  H   H2103     1.0  0.59727  0.28318  0.79783  1.0000
  H   H2104     1.0  0.60907  0.47699  0.58172  1.0000
  C   C1188     1.0  0.98871  0.33133  0.89304  1.0000
  C   C1189     1.0  0.60502  0.41252  0.59202  1.0000
  H   H2105     1.0  0.98751  0.31600  0.93343  1.0000
  C   C1190     1.0  0.58188  0.36795  0.85839  1.0000
  C   C1191     1.0  0.56725  0.36274  0.90595  1.0000
  C   C1192     1.0  0.58613  0.36814  0.91582  1.0000
  C   C1193     1.0  0.57795  0.38939  0.85328  1.0000
  C   C1194     1.0  0.59018  0.32843  0.88228  1.0000
  C   C1195     1.0  0.59513  0.39924  0.83986  1.0000
  H   H2106     1.0  0.58323  0.36195  0.83844  1.0000
  H   H2107     1.0  0.59609  0.36568  0.86552  1.0000
  H   H2108     1.0  0.55735  0.37491  0.90967  1.0000
  H   H2109     1.0  0.56166  0.35106  0.91992  1.0000
  H   H2110     1.0  0.59016  0.38207  0.90642  1.0000
  H   H2111     1.0  0.59778  0.35806  0.91069  1.0000
  H   H2112     1.0  0.57350  0.39589  0.87236  1.0000
  H   H2113     1.0  0.60178  0.33534  0.86978  1.0000
  H   H2114     1.0  0.59185  0.32961  0.90394  1.0000
  H   H2115     1.0  0.59889  0.39423  0.81953  1.0000
  H   H2116     1.0  0.59201  0.41458  0.83745  1.0000
  H   H2117     1.0  0.60730  0.39662  0.85223  1.0000
  C   C1196     1.0  0.86569  0.40197  0.83944  1.0000
  S   S279      1.0  0.58854  0.33869  0.52877  1.0000
  H   H2118     1.0  0.66625  0.40117  0.59266  1.0000
  H   H2119     1.0  0.85541  0.38718  0.91340  1.0000
  H   H2120     1.0  0.86515  0.39958  0.86172  1.0000
  H   H2121     1.0  0.86196  0.38905  0.83050  1.0000
  H   H2122     1.0  0.52674  0.28900  0.83941  1.0000
  H   H2123     1.0  0.52427  0.31903  0.67562  1.0000
  H   H2124     1.0  0.72758  0.45999  0.53390  1.0000
  N   N64       1.0  0.50268  0.35482  0.67236  1.0000
  C   C1197     1.0  0.88101  0.26105  0.78337  1.0000
  H   H2125     1.0  0.97737  0.31048  0.74298  1.0000
  C   C1198     1.0  0.54009  0.27740  0.80265  1.0000
  N   N65       1.0  0.50155  0.28056  0.53688  1.0000
  H   H2126     1.0  0.99045  0.29966  0.78317  1.0000
  C   C1199     1.0  0.97906  0.35518  0.92433  1.0000
  C   C1200     1.0  0.70724  0.44197  0.57832  1.0000
  H   H2127     1.0  0.98126  0.34489  0.94168  1.0000
  C   C1201     1.0  0.77237  0.40341  0.86106  1.0000
  H   H2128     1.0  0.59612  0.26743  0.59387  1.0000
  H   H2129     1.0  0.59264  0.44891  0.54763  1.0000
  C   C1202     1.0  0.63076  0.29747  0.67148  1.0000
  H   H2130     1.0  0.67299  0.42277  0.62258  1.0000
  C   C1203     1.0  0.71633  0.42867  0.63505  1.0000
  C   C1204     1.0  0.72933  0.41754  0.65376  1.0000
  H   H2131     1.0  0.53314  0.25451  0.53315  1.0000
  H   H2132     1.0  0.87658  0.25003  0.94317  1.0000
  C   C1205     1.0  0.53791  0.27845  0.83370  1.0000
  H   H2133     1.0  0.59660  0.38596  0.61460  1.0000
  C   C1206     1.0  0.52064  0.39056  0.71811  1.0000
  H   H2134     1.0  0.51752  0.33011  0.71452  1.0000
  C   C1207     1.0  0.89401  0.26122  0.76082  1.0000
  C   C1208     1.0  0.64743  0.45004  0.60676  1.0000
  C   C1209     1.0  0.83572  0.27504  0.88175  1.0000
  S   S280      1.0  0.89639  0.32698  0.98601  1.0000
  C   C1210     1.0  0.53979  0.32075  0.63730  1.0000
  C   C1211     1.0  0.99460  0.31478  0.91301  1.0000
  H   H2135     1.0  0.96617  0.35061  0.85874  1.0000
  H   H2136     1.0  0.63004  0.27267  0.63538  1.0000
  H   H2137     1.0  0.79043  0.41851  0.88245  1.0000
  H   H2138     1.0  0.82955  0.43977  0.92926  1.0000
  H   H2139     1.0  0.61580  0.25676  0.55220  1.0000
  Fe  Fe140     1.0  0.53575  0.35097  0.54856  1.0000
  S   S281      1.0  0.50574  0.35714  0.56457  1.0000
  H   H2140     1.0  0.83060  0.40546  0.85822  1.0000
  H   H2141     1.0  0.56657  0.39213  0.83951  1.0000
  C   C1212     1.0  0.57080  0.33686  0.87508  1.0000
  H   H2142     1.0  0.95393  0.31599  0.69776  1.0000
  C   C1213     1.0  0.81967  0.44286  0.86133  1.0000
  C   C1214     1.0  0.85265  0.33799  0.95533  1.0000
  H   H2143     1.0  0.72715  0.42656  0.55104  1.0000
  H   H2144     1.0  0.54019  0.33810  0.67016  1.0000
  H   H2145     1.0  0.85261  0.31766  0.98998  1.0000
  C   C1215     1.0  0.54802  0.26816  0.74773  1.0000
  H   H2146     1.0  0.52665  0.35944  0.69460  1.0000
  H   H2147     1.0  0.78556  0.47449  0.72581  1.0000
  H   H2148     1.0  0.68281  0.44506  0.62066  1.0000
  C   C1216     1.0  0.70217  0.48125  0.62856  1.0000
  H   H2149     1.0  0.82180  0.36506  0.93965  1.0000
  C   C1217     1.0  0.98043  0.37463  0.93521  1.0000
  H   H2150     1.0  0.97817  0.37525  0.82454  1.0000
  H   H2151     1.0  0.98262  0.29758  0.71422  1.0000
  H   H2152     1.0  0.57943  0.27609  0.66130  1.0000
  H   H2153     1.0  0.56041  0.32893  0.88873  1.0000
  C   C1218     1.0  0.96927  0.36441  0.86550  1.0000
  H   H2154     1.0  0.82201  0.38473  0.91495  1.0000
  C   C1219     1.0  0.84307  0.35943  0.88473  1.0000
  C   C1220     1.0  0.83162  0.41382  0.83857  1.0000
  C   C1221     1.0  0.82892  0.37818  0.93269  1.0000
  C   C1222     1.0  0.85155  0.31787  0.96787  1.0000
  H   H2155     1.0  0.83608  0.33496  0.92244  1.0000
  C   C1223     1.0  0.50921  0.28236  0.50770  1.0000
  S   S282      1.0  0.68975  0.47953  0.52204  1.0000
  H   H2156     1.0  0.57344  0.37983  0.95248  1.0000
  H   H2157     1.0  0.80873  0.45013  0.91554  1.0000
  H   H2158     1.0  0.75038  0.45123  0.54271  1.0000
  C   C1224     1.0  0.61472  0.28453  0.66911  1.0000
  C   C1225     1.0  0.86004  0.41244  0.99101  1.0000
  C   C1226     1.0  0.99249  0.34823  0.74552  1.0000
  H   H2159     1.0  0.82803  0.40392  0.82382  1.0000
  H   H2160     1.0  0.52126  0.28961  0.59346  1.0000
  H   H2161     1.0  0.58423  0.41962  0.55162  1.0000
  H   H2162     1.0  0.54476  0.37802  0.86910  1.0000
  H   H2163     1.0  0.84484  0.37339  0.87362  1.0000
  H   H2164     1.0  0.69910  0.44787  0.56140  1.0000
  H   H2165     1.0  0.82793  0.35876  0.89156  1.0000
  H   H2166     1.0  0.84125  0.34644  0.96564  1.0000
  H   H2167     1.0  0.58144  0.35548  0.95691  1.0000
  H   H2168     1.0  0.80138  0.39821  0.86695  1.0000
  C   C1227     1.0  0.85066  0.33898  0.92454  1.0000
  H   H2169     1.0  0.85620  0.43083  0.84146  1.0000
  C   C1228     1.0  0.85008  0.37426  0.92483  1.0000
  H   H2170     1.0  0.85740  0.37324  0.94361  1.0000
  H   H2171     1.0  0.52762  0.29036  0.54818  1.0000
  H   H2172     1.0  0.85975  0.32747  0.91597  1.0000
  H   H2173     1.0  0.81808  0.34381  0.85291  1.0000
  C   C1229     1.0  0.72162  0.48290  0.62454  1.0000
  C   C1230     1.0  0.98910  0.36408  0.87594  1.0000
  H   H2174     1.0  0.54865  0.36104  0.84492  1.0000
  H   H2175     1.0  0.53189  0.35141  0.90345  1.0000
  H   H2176     1.0  0.83569  0.44813  0.81086  1.0000
  N   N66       1.0  0.85476  0.35742  0.90870  1.0000
  H   H2177     1.0  0.81061  0.39436  0.95994  1.0000
  H   H2178     1.0  0.64099  0.43883  0.62063  1.0000
  C   C1231     1.0  0.84685  0.34445  0.86395  1.0000
  C   C1232     1.0  0.83231  0.34637  0.84316  1.0000
  H   H2179     1.0  0.56823  0.40427  0.61909  1.0000
  H   H2180     1.0  0.99276  0.27558  0.79356  1.0000
  H   H2181     1.0  0.65167  0.46140  0.61863  1.0000
  C   C1233     1.0  0.73328  0.47767  0.64573  1.0000
  C   C1234     1.0  0.53172  0.35199  0.88119  1.0000
  H   H2182     1.0  0.82205  0.43293  0.79477  1.0000
  N   N67       1.0  0.99237  0.35082  0.90036  1.0000
  C   C1235     1.0  0.60448  0.39078  0.59547  1.0000
  C   C1236     1.0  0.57551  0.41798  0.57101  1.0000
  C   C1237     1.0  0.56592  0.27514  0.50951  1.0000
  H   H2183     1.0  0.85918  0.27038  0.85360  1.0000
  C   C1238     1.0  0.82383  0.44656  0.91074  1.0000
  H   H2184     1.0  0.66984  0.45388  0.57600  1.0000
  N   N68       1.0  0.58625  0.42309  0.59389  1.0000
  H   H2185     1.0  0.95686  0.30040  0.78733  1.0000
  H   H2186     1.0  0.60904  0.47832  0.54551  1.0000
  H   H2187     1.0  0.86071  0.34616  0.85264  1.0000
  H   H2188     1.0  0.80488  0.46714  0.82378  1.0000
  H   H2189     1.0  0.76186  0.41529  0.85992  1.0000
  H   H2190     1.0  0.87893  0.34586  0.88537  1.0000
  H   H2191     1.0  0.78487  0.49621  0.85264  1.0000
  C   C1239     1.0  0.63242  0.41103  0.52362  1.0000
  H   H2192     1.0  0.57044  0.44289  0.64155  1.0000
  H   H2193     1.0  0.89725  0.26752  0.87047  1.0000
  H   H2194     1.0  0.95830  0.36832  0.88131  1.0000
  H   H2195     1.0  0.55789  0.42844  0.52373  1.0000
  H   H2196     1.0  0.91986  0.35790  0.92078  1.0000
  H   H2197     1.0  0.56011  0.41567  0.67342  1.0000
  C   C1240     1.0  0.70913  0.41609  0.61452  1.0000
  H   H2198     1.0  0.97379  0.29577  0.90318  1.0000
  C   C1241     1.0  0.82166  0.44200  0.81196  1.0000
  H   H2199     1.0  0.79413  0.45321  0.80119  1.0000
  H   H2200     1.0  0.49984  0.27880  0.59125  1.0000
  H   H2201     1.0  0.52654  0.37929  0.73195  1.0000
  C   C1242     1.0  0.79172  0.41062  0.86409  1.0000
  C   C1243     1.0  0.82637  0.43326  0.88808  1.0000
  H   H2202     1.0  0.53227  0.39697  0.70499  1.0000
  H   H2203     1.0  0.84115  0.28784  0.88901  1.0000
  H   H2204     1.0  0.79662  0.41623  0.82076  1.0000
  C   C1244     1.0  0.88983  0.35637  0.91911  1.0000
  H   H2205     1.0  0.76868  0.48566  0.76671  1.0000
  H   H2206     1.0  0.78781  0.43562  0.83893  1.0000
  C   C1245     1.0  0.63258  0.43017  0.51467  1.0000
  N   N69       1.0  0.69721  0.42595  0.59376  1.0000
  H   H2207     1.0  0.80607  0.45056  0.86623  1.0000
  H   H2208     1.0  0.55360  0.28627  0.86608  1.0000
  H   H2209     1.0  0.69178  0.37541  0.55760  1.0000
  H   H2210     1.0  0.89085  0.34177  0.92827  1.0000
  C   C1246     1.0  0.67809  0.38236  0.56386  1.0000
  C   C1247     1.0  0.57608  0.41709  0.62085  1.0000
  H   H2211     1.0  0.72134  0.40841  0.60456  1.0000
  S   S283      1.0  0.68667  0.48735  0.60220  1.0000
  H   H2212     1.0  0.83214  0.38570  0.97354  1.0000
  H   H2213     1.0  0.85636  0.25004  0.91051  1.0000
  C   C1248     1.0  0.81462  0.47145  0.78195  1.0000
  C   C1249     1.0  0.80755  0.45859  0.80616  1.0000
  C   C1250     1.0  0.77700  0.47759  0.91773  1.0000
  C   C1251     1.0  0.68042  0.39586  0.58546  1.0000
  H   H2214     1.0  0.56037  0.29791  0.83362  1.0000
  H   H2215     1.0  0.83128  0.45968  0.90493  1.0000
  H   H2216     1.0  0.50287  0.27923  0.81989  1.0000
  C   C1252     1.0  0.52390  0.25283  0.55198  1.0000
  Fe  Fe141     1.0  0.92755  0.32671  0.97852  1.0000
  H   H2217     1.0  0.82651  0.27941  0.86537  1.0000
  C   C1253     1.0  0.66432  0.44221  0.58984  1.0000
  H   H2218     1.0  0.91297  0.35320  0.88812  1.0000
  H   H2219     1.0  0.96432  0.35342  0.92001  1.0000
  H   H2220     1.0  0.68662  0.38760  0.60246  1.0000
  H   H2221     1.0  0.70807  0.45377  0.59122  1.0000
  H   H2222     1.0  0.90371  0.24924  0.91035  1.0000
  H   H2223     1.0  0.95300  0.28297  0.71828  1.0000
  C   C1254     1.0  0.55595  0.28443  0.84416  1.0000
  H   H2224     1.0  0.63685  0.45606  0.59321  1.0000
  C   C1255     1.0  0.55646  0.42855  0.56758  1.0000
  H   H2225     1.0  0.63131  0.38617  0.61304  1.0000
  C   C1256     1.0  0.59227  0.25353  0.80075  1.0000
  C   C1257     1.0  0.52746  0.27014  0.76000  1.0000
  H   H2226     1.0  0.68630  0.41950  0.55644  1.0000
  H   H2227     1.0  0.55251  0.43838  0.62015  1.0000
  H   H2228     1.0  0.99391  0.37533  0.94441  1.0000
  C   C1258     1.0  0.54843  0.42388  0.54160  1.0000
  C   C1259     1.0  0.90920  0.36127  0.90601  1.0000
  C   C1260     1.0  0.67950  0.43368  0.60813  1.0000
  H   H2229     1.0  0.82801  0.47756  0.78573  1.0000
  H   H2230     1.0  0.50887  0.29564  0.79230  1.0000
  S   S284      1.0  0.65213  0.44330  0.52094  1.0000
  C   C1261     1.0  0.96768  0.37869  0.84129  1.0000
  C   C1262     1.0  0.69298  0.41216  0.57399  1.0000
  H   H2231     1.0  0.62928  0.27150  0.58902  1.0000
  H   H2232     1.0  0.97350  0.32993  0.89119  1.0000
  C   C1263     1.0  0.55081  0.42275  0.65865  1.0000
  H   H2233     1.0  0.57683  0.45236  0.59488  1.0000
  H   H2234     1.0  0.92664  0.26978  0.84275  1.0000
  H   H2235     1.0  0.65923  0.43159  0.57756  1.0000
  H   H2236     1.0  0.59728  0.25789  0.72273  1.0000
  H   H2237     1.0  0.70621  0.40557  0.56518  1.0000
  H   H2238     1.0  0.56824  0.25239  0.61657  1.0000
  C   C1264     1.0  0.62419  0.38174  0.59582  1.0000
  H   H2239     1.0  0.50051  0.31834  0.75656  1.0000
  H   H2240     1.0  0.73378  0.42681  0.66868  1.0000
  N   N70       1.0  0.52418  0.26894  0.79049  1.0000
  C   C1265     1.0  0.60140  0.47307  0.56472  1.0000
  H   H2241     1.0  0.70443  0.43445  0.64792  1.0000
  C   C1266     1.0  0.85189  0.26233  0.87092  1.0000
  H   H2242     1.0  0.82725  0.26753  0.89853  1.0000
  H   H2243     1.0  0.61396  0.41705  0.60735  1.0000
  H   H2244     1.0  0.51086  0.37521  0.88144  1.0000
  H   H2245     1.0  0.59845  0.44684  0.60879  1.0000
  H   H2246     1.0  0.55359  0.26973  0.79771  1.0000
  Fe  Fe142     1.0  0.65923  0.47451  0.51804  1.0000
  H   H2247     1.0  0.72770  0.48841  0.60513  1.0000
  H   H2248     1.0  0.63260  0.38560  0.57665  1.0000
  H   H2249     1.0  0.55570  0.28081  0.75096  1.0000
  H   H2250     1.0  0.80411  0.48309  0.77852  1.0000
  H   H2251     1.0  0.95096  0.29298  0.83548  1.0000
  H   H2252     1.0  0.72424  0.44050  0.62487  1.0000
  H   H2253     1.0  0.51356  0.40145  0.73047  1.0000
  S   S285      1.0  0.82986  0.48816  0.98391  1.0000
  C   C1267     1.0  0.96503  0.37804  0.95748  1.0000
  C   C1268     1.0  0.51331  0.34337  0.65147  1.0000
  S   S286      1.0  0.78182  0.48044  0.95221  1.0000
  H   H2254     1.0  0.95099  0.37729  0.94986  1.0000
  Fe  Fe143     1.0  0.57252  0.36616  0.52018  1.0000
  C   C1269     1.0  0.98989  0.33867  0.80088  1.0000
  H   H2255     1.0  0.54663  0.40856  0.54160  1.0000
  C   C1270     1.0  0.97737  0.26260  0.74924  1.0000
  H   H2256     1.0  0.50135  0.35230  0.88254  1.0000
  H   H2257     1.0  0.81669  0.46359  0.76352  1.0000
  H   H2258     1.0  0.54405  0.27703  0.65470  1.0000
  C   C1271     1.0  0.61721  0.39998  0.51977  1.0000
  C   C1272     1.0  0.54737  0.27035  0.63544  1.0000
  C   C1273     1.0  0.56597  0.25912  0.63589  1.0000
  C   C1274     1.0  0.77946  0.48678  0.86915  1.0000
  H   H2259     1.0  0.51003  0.30795  0.54540  1.0000
  C   C1275     1.0  0.96528  0.29015  0.82600  1.0000
  C   C1276     1.0  0.98421  0.28595  0.78150  1.0000
  C   C1277     1.0  0.57526  0.25302  0.54598  1.0000
  H   H2260     1.0  0.97140  0.27730  0.83635  1.0000
  C   C1278     1.0  0.98925  0.29617  0.90340  1.0000
  H   H2261     1.0  0.54807  0.28128  0.61838  1.0000
  S   S287      1.0  0.92952  0.35441  0.99548  1.0000
  H   H2262     1.0  0.97377  0.30228  0.82891  1.0000
  C   C1279     1.0  0.60426  0.25746  0.60723  1.0000
  C   C1280     1.0  0.92399  0.25662  0.83362  1.0000
  H   H2263     1.0  0.99587  0.29419  0.88282  1.0000
  H   H2264     1.0  0.75339  0.48565  0.74012  1.0000
  H   H2265     1.0  0.99166  0.37873  0.87964  1.0000
  N   N71       1.0  0.98541  0.28133  0.75243  1.0000
  C   C1281     1.0  0.78414  0.48925  0.89572  1.0000
  H   H2266     1.0  0.51894  0.35284  0.63413  1.0000
  H   H2267     1.0  0.88623  0.25712  0.84512  1.0000
  H   H2268     1.0  0.93768  0.24964  0.82766  1.0000
  H   H2269     1.0  0.99408  0.28444  0.91730  1.0000
  H   H2270     1.0  0.49812  0.31814  0.82890  1.0000
  H   H2271     1.0  0.49858  0.25105  0.53230  1.0000
  H   H2272     1.0  0.50078  0.39452  0.68810  1.0000
  H   H2273     1.0  0.96657  0.33095  0.00358  1.0000
  Fe  Fe144     1.0  0.67963  0.49582  0.55777  1.0000
  H   H2274     1.0  0.91644  0.26012  0.81518  1.0000
  H   H2275     1.0  0.51463  0.24872  0.82274  1.0000
  H   H2276     1.0  0.57963  0.25035  0.56610  1.0000
  C   C1282     1.0  0.99650  0.33224  0.99651  1.0000
  H   H2277     1.0  0.97822  0.26815  0.99655  1.0000
  C   C1283     1.0  0.50340  0.33630  0.71969  1.0000
  C   C1284     1.0  0.78212  0.48972  0.72663  1.0000
  H   H2278     1.0  0.51920  0.25960  0.75143  1.0000
  S   S288      1.0  0.87874  0.37787  0.99172  1.0000
  H   H2279     1.0  0.77877  0.49543  0.70616  1.0000
  H   H2280     1.0  0.79455  0.49660  0.73247  1.0000
  H   H2281     1.0  0.72219  0.48758  0.83507  1.0000
  C   C1285     1.0  0.76530  0.49272  0.74697  1.0000
  H   H2282     1.0  0.56383  0.26554  0.70912  1.0000
  H   H2283     1.0  0.55555  0.25587  0.75698  1.0000
  H   H2284     1.0  0.74067  0.49345  0.79055  1.0000
  H   H2285     1.0  0.72470  0.49684  0.75218  1.0000
  C   C1286     1.0  0.52108  0.24900  0.80162  1.0000
  C   C1287     1.0  0.85085  0.42821  0.00237  1.0000
  H   H2286     1.0  0.52451  0.27880  0.50603  1.0000
  H   H2287     1.0  0.63444  0.24888  0.60554  1.0000
  H   H2288     1.0  0.63942  0.24803  0.55639  1.0000
  C   C1288     1.0  0.62488  0.24833  0.56600  1.0000
  Fe  Fe145     1.0  0.59699  0.67780  0.46657  1.0000
  S   S289      1.0  0.61228  0.68894  0.42809  1.0000
  Fe  Fe146     1.0  0.56180  0.68727  0.30591  1.0000
  S   S290      1.0  0.56165  0.65644  0.30137  1.0000
  S   S291      1.0  0.55169  0.70072  0.34391  1.0000
  Fe  Fe147     1.0  0.57603  0.69637  0.24796  1.0000
  S   S292      1.0  0.57709  0.66614  0.23816  1.0000
  S   S293      1.0  0.58253  0.72135  0.21895  1.0000
  Fe  Fe148     1.0  0.54887  0.66521  0.26237  1.0000
  S   S294      1.0  0.52335  0.65247  0.24802  1.0000
  Fe  Fe149     1.0  0.58989  0.65996  0.27798  1.0000
  S   S295      1.0  0.61500  0.64176  0.29239  1.0000
  S   S296      1.0  0.54718  0.69576  0.26884  1.0000
  S   S297      1.0  0.59055  0.69043  0.28566  1.0000
  S   S298      1.0  0.89597  0.63490  0.04138  1.0000
  H   H2289     1.0  0.86521  0.56791  0.10618  1.0000
  Fe  Fe150     1.0  0.88831  0.66483  0.04885  1.0000
  S   S299      1.0  0.87409  0.67500  0.08680  1.0000
  S   S300      1.0  0.56878  0.68913  0.48188  1.0000
  Fe  Fe151     1.0  0.90885  0.66394  0.22220  1.0000
  S   S301      1.0  0.91075  0.64665  0.26114  1.0000
  S   S302      1.0  0.92187  0.65162  0.18472  1.0000
  Fe  Fe152     1.0  0.88998  0.69696  0.24921  1.0000
  S   S303      1.0  0.89011  0.68205  0.29066  1.0000
  S   S304      1.0  0.87896  0.72647  0.23813  1.0000
  Fe  Fe153     1.0  0.91977  0.67300  0.27680  1.0000
  S   S305      1.0  0.94374  0.67454  0.30355  1.0000
  Fe  Fe154     1.0  0.88089  0.65690  0.27119  1.0000
  S   S306      1.0  0.86134  0.63377  0.28878  1.0000
  S   S307      1.0  0.92002  0.68953  0.23683  1.0000
  S   S308      1.0  0.87854  0.67251  0.23086  1.0000
  H   H2290     1.0  0.65442  0.54646  0.48099  1.0000
  S   S309      1.0  0.70707  0.51941  0.46139  1.0000
  H   H2291     1.0  0.85248  0.73263  0.04739  1.0000
  H   H2292     1.0  0.92776  0.61079  0.28995  1.0000
  H   H2293     1.0  0.93401  0.71027  0.05580  1.0000
  H   H2294     1.0  0.52328  0.72064  0.31169  1.0000
  S   S310      1.0  0.77957  0.52428  0.07769  1.0000
  Fe  Fe155     1.0  0.68581  0.50625  0.49479  1.0000
  Fe  Fe156     1.0  0.75639  0.59557  0.26879  1.0000
  S   S311      1.0  0.76123  0.56416  0.27594  1.0000
  S   S312      1.0  0.77567  0.62033  0.26995  1.0000
  Fe  Fe157     1.0  0.71634  0.59153  0.25222  1.0000
  S   S313      1.0  0.71934  0.56001  0.25739  1.0000
  S   S314      1.0  0.69066  0.60689  0.23438  1.0000
  Fe  Fe158     1.0  0.73163  0.56418  0.29686  1.0000
  S   S315      1.0  0.71664  0.54754  0.33416  1.0000
  Fe  Fe159     1.0  0.74836  0.56239  0.23598  1.0000
  S   S316      1.0  0.76209  0.54313  0.20309  1.0000
  S   S317      1.0  0.72769  0.59576  0.29175  1.0000
  S   S318      1.0  0.74457  0.59365  0.22860  1.0000
  C   C1289     1.0  0.77525  0.52955  0.11270  1.0000
  C   C1290     1.0  0.76318  0.54493  0.11954  1.0000
  C   C1291     1.0  0.75929  0.54951  0.14673  1.0000
  C   C1292     1.0  0.76697  0.53850  0.16795  1.0000
  C   C1293     1.0  0.77900  0.52311  0.16111  1.0000
  C   C1294     1.0  0.78333  0.51890  0.13388  1.0000
  C   C1295     1.0  0.87262  0.51536  0.07392  1.0000
  H   H2295     1.0  0.87716  0.56671  0.05419  1.0000
  S   S319      1.0  0.53562  0.64694  0.48147  1.0000
  H   H2296     1.0  0.94592  0.70187  0.13986  1.0000
  C   C1296     1.0  0.70930  0.52707  0.42588  1.0000
  C   C1297     1.0  0.72507  0.53710  0.41526  1.0000
  C   C1298     1.0  0.72752  0.54351  0.38757  1.0000
  C   C1299     1.0  0.71425  0.53996  0.36969  1.0000
  C   C1300     1.0  0.69842  0.53002  0.38035  1.0000
  H   H2297     1.0  0.86550  0.58949  0.05024  1.0000
  H   H2298     1.0  0.73560  0.53986  0.42856  1.0000
  H   H2299     1.0  0.73981  0.55105  0.38000  1.0000
  C   C1301     1.0  0.64431  0.62010  0.45628  1.0000
  C   C1302     1.0  0.83758  0.63023  0.28291  1.0000
  C   C1303     1.0  0.82531  0.64504  0.27506  1.0000
  C   C1304     1.0  0.80643  0.64172  0.27164  1.0000
  C   C1305     1.0  0.79953  0.62355  0.27569  1.0000
  C   C1306     1.0  0.81179  0.60874  0.28369  1.0000
  C   C1307     1.0  0.83065  0.61209  0.28733  1.0000
  H   H2300     1.0  0.83024  0.65914  0.27229  1.0000
  H   H2301     1.0  0.79705  0.65334  0.26585  1.0000
  H   H2302     1.0  0.80671  0.59472  0.28722  1.0000
  H   H2303     1.0  0.83987  0.60052  0.29373  1.0000
  H   H2304     1.0  0.63774  0.72027  0.46333  1.0000
  C   C1308     1.0  0.96729  0.66973  0.29134  1.0000
  C   C1309     1.0  0.98158  0.67062  0.30874  1.0000
  H   H2305     1.0  0.96113  0.66379  0.25147  1.0000
  H   H2306     1.0  0.97806  0.67444  0.32915  1.0000
  H   H2307     1.0  0.85919  0.70809  0.05321  1.0000
  H   H2308     1.0  0.87769  0.54153  0.08895  1.0000
  H   H2309     1.0  0.99600  0.61030  0.08900  1.0000
  H   H2310     1.0  0.95005  0.60106  0.08188  1.0000
  H   H2311     1.0  0.90173  0.72917  0.28313  1.0000
  C   C1310     1.0  0.88832  0.66962  0.11319  1.0000
  C   C1311     1.0  0.90356  0.65682  0.11029  1.0000
  C   C1312     1.0  0.91391  0.65136  0.13237  1.0000
  C   C1313     1.0  0.90929  0.65903  0.15707  1.0000
  C   C1314     1.0  0.89456  0.67243  0.15955  1.0000
  C   C1315     1.0  0.88393  0.67758  0.13771  1.0000
  H   H2312     1.0  0.90706  0.65071  0.09130  1.0000
  H   H2313     1.0  0.92530  0.64106  0.13045  1.0000
  H   H2314     1.0  0.89150  0.67907  0.17810  1.0000
  H   H2315     1.0  0.87229  0.68768  0.13984  1.0000
  C   C1316     1.0  0.63583  0.63207  0.27565  1.0000
  C   C1317     1.0  0.65000  0.62393  0.29126  1.0000
  C   C1318     1.0  0.66679  0.61614  0.27907  1.0000
  C   C1319     1.0  0.66967  0.61635  0.25098  1.0000
  C   C1320     1.0  0.65549  0.62447  0.23533  1.0000
  C   C1321     1.0  0.63864  0.63218  0.24755  1.0000
  H   H2316     1.0  0.64798  0.62358  0.31298  1.0000
  H   H2317     1.0  0.67750  0.60995  0.29143  1.0000
  H   H2318     1.0  0.65749  0.62468  0.21358  1.0000
  H   H2319     1.0  0.62779  0.63806  0.23523  1.0000
  H   H2320     1.0  0.93169  0.61587  0.09718  1.0000
  H   H2321     1.0  0.67219  0.71316  0.25158  1.0000
  H   H2322     1.0  0.79289  0.50734  0.12934  1.0000
  H   H2323     1.0  0.86675  0.61110  0.12091  1.0000
  H   H2324     1.0  0.95479  0.58582  0.03086  1.0000
  H   H2325     1.0  0.79446  0.58575  0.04959  1.0000
  H   H2326     1.0  0.62467  0.68262  0.32145  1.0000
  H   H2327     1.0  0.51412  0.72189  0.19195  1.0000
  H   H2328     1.0  0.64675  0.74200  0.47121  1.0000
  C   C1322     1.0  0.61582  0.74219  0.47009  1.0000
  C   C1323     1.0  0.59623  0.69439  0.40394  1.0000
  C   C1324     1.0  0.57891  0.70328  0.41086  1.0000
  C   C1325     1.0  0.56549  0.70603  0.39192  1.0000
  C   C1326     1.0  0.56928  0.69945  0.36630  1.0000
  C   C1327     1.0  0.58680  0.69105  0.35924  1.0000
  C   C1328     1.0  0.60039  0.68887  0.37786  1.0000
  H   H2329     1.0  0.57582  0.70798  0.43079  1.0000
  H   H2330     1.0  0.55197  0.71260  0.39745  1.0000
  H   H2331     1.0  0.58968  0.68547  0.33992  1.0000
  H   H2332     1.0  0.61384  0.68215  0.37243  1.0000
  C   C1329     1.0  0.90128  0.61011  0.32532  1.0000
  C   C1330     1.0  0.89879  0.58943  0.31946  1.0000
  C   C1331     1.0  0.87986  0.58714  0.30843  1.0000
  H   H2333     1.0  0.93939  0.59462  0.31221  1.0000
  H   H2334     1.0  0.89734  0.61928  0.30740  1.0000
  H   H2335     1.0  0.89041  0.61315  0.34182  1.0000
  H   H2336     1.0  0.89928  0.58016  0.33831  1.0000
  H   H2337     1.0  0.90978  0.58440  0.30446  1.0000
  H   H2338     1.0  0.86825  0.59229  0.32249  1.0000
  H   H2339     1.0  0.87916  0.59507  0.28846  1.0000
  H   H2340     1.0  0.87793  0.57212  0.30588  1.0000
  H   H2341     1.0  0.90735  0.63474  0.37791  1.0000
  N   N72       1.0  0.58609  0.62758  0.38403  1.0000
  C   C1332     1.0  0.60447  0.63278  0.36883  1.0000
  C   C1333     1.0  0.57313  0.61992  0.36541  1.0000
  C   C1334     1.0  0.57681  0.64538  0.39406  1.0000
  C   C1335     1.0  0.58882  0.61399  0.40817  1.0000
  C   C1336     1.0  0.59974  0.59539  0.40249  1.0000
  C   C1337     1.0  0.61964  0.63937  0.38598  1.0000
  C   C1338     1.0  0.55706  0.64348  0.40911  1.0000
  C   C1339     1.0  0.58217  0.60867  0.34196  1.0000
  C   C1340     1.0  0.56732  0.59958  0.32768  1.0000
  C   C1341     1.0  0.60404  0.58419  0.42880  1.0000
  C   C1342     1.0  0.63745  0.64429  0.36838  1.0000
  C   C1343     1.0  0.54816  0.66270  0.41474  1.0000
  H   H2342     1.0  0.60193  0.64396  0.35251  1.0000
  H   H2343     1.0  0.61123  0.62088  0.35826  1.0000
  H   H2344     1.0  0.56259  0.61100  0.37724  1.0000
  H   H2345     1.0  0.56482  0.63156  0.35521  1.0000
  H   H2346     1.0  0.57552  0.65609  0.37680  1.0000
  H   H2347     1.0  0.58542  0.65163  0.40826  1.0000
  H   H2348     1.0  0.59576  0.62087  0.42372  1.0000
  H   H2349     1.0  0.57506  0.60991  0.41832  1.0000
  H   H2350     1.0  0.61325  0.59775  0.39050  1.0000
  H   H2351     1.0  0.59113  0.58657  0.39151  1.0000
  H   H2352     1.0  0.61482  0.65189  0.39664  1.0000
  H   H2353     1.0  0.62356  0.62809  0.40119  1.0000
  H   H2354     1.0  0.55801  0.63535  0.42885  1.0000
  H   H2355     1.0  0.54742  0.63650  0.39726  1.0000
  H   H2356     1.0  0.58972  0.61827  0.32668  1.0000
  H   H2357     1.0  0.59225  0.59753  0.34889  1.0000
  H   H2358     1.0  0.57418  0.59218  0.31049  1.0000
  H   H2359     1.0  0.55968  0.58923  0.34172  1.0000
  H   H2360     1.0  0.55719  0.61039  0.31960  1.0000
  H   H2361     1.0  0.59090  0.58063  0.44113  1.0000
  H   H2362     1.0  0.61178  0.57090  0.42416  1.0000
  H   H2363     1.0  0.61283  0.59220  0.44073  1.0000
  H   H2364     1.0  0.64404  0.63158  0.35956  1.0000
  H   H2365     1.0  0.63430  0.65496  0.35182  1.0000
  H   H2366     1.0  0.64761  0.65005  0.38083  1.0000
  H   H2367     1.0  0.54662  0.67140  0.39561  1.0000
  H   H2368     1.0  0.53406  0.66103  0.42531  1.0000
  H   H2369     1.0  0.55681  0.66997  0.42780  1.0000
  H   H2370     1.0  0.66440  0.56892  0.42704  1.0000
  C   C1344     1.0  0.98320  0.72018  0.27840  1.0000
  H   H2371     1.0  0.99585  0.65857  0.15634  1.0000
  H   H2372     1.0  0.95783  0.59889  0.40587  1.0000
  C   C1345     1.0  0.87202  0.57916  0.06479  1.0000
  C   C1346     1.0  0.93978  0.58303  0.02966  1.0000
  C   C1347     1.0  0.59160  0.74051  0.23290  1.0000
  H   H2373     1.0  0.60571  0.72392  0.26344  1.0000
  H   H2374     1.0  0.63904  0.69741  0.33796  1.0000
  N   N73       1.0  0.90498  0.73367  0.07980  1.0000
  S   S320      1.0  0.58946  0.64768  0.47269  1.0000
  H   H2375     1.0  0.62550  0.70720  0.21806  1.0000
  H   H2376     1.0  0.91268  0.60446  0.37373  1.0000
  H   H2377     1.0  0.92333  0.66490  0.36903  1.0000
  H   H2378     1.0  0.93273  0.59965  0.41232  1.0000
  H   H2379     1.0  0.95916  0.62350  0.32190  1.0000
  C   C1348     1.0  0.70266  0.66114  0.23593  1.0000
  H   H2380     1.0  0.68500  0.58042  0.19443  1.0000
  C   C1349     1.0  0.83075  0.55674  0.10927  1.0000
  H   H2381     1.0  0.92572  0.58799  0.35457  1.0000
  H   H2382     1.0  0.52784  0.71770  0.48638  1.0000
  H   H2383     1.0  0.83910  0.57533  0.04342  1.0000
  H   H2384     1.0  0.81861  0.54947  0.04298  1.0000
  H   H2385     1.0  0.91097  0.70385  0.08816  1.0000
  C   C1350     1.0  0.97423  0.67257  0.08219  1.0000
  C   C1351     1.0  0.86542  0.53289  0.08775  1.0000
  H   H2386     1.0  0.63796  0.54843  0.42594  1.0000
  H   H2387     1.0  0.93243  0.68809  0.12048  1.0000
  C   C1352     1.0  0.51398  0.65413  0.49757  1.0000
  H   H2388     1.0  0.85975  0.52846  0.10853  1.0000
  H   H2389     1.0  0.65827  0.68096  0.30383  1.0000
  H   H2390     1.0  0.63566  0.67436  0.27253  1.0000
  H   H2391     1.0  0.87091  0.71508  0.09756  1.0000
  H   H2392     1.0  0.94360  0.74162  0.01207  1.0000
  H   H2393     1.0  0.97807  0.72125  0.29991  1.0000
  N   N74       1.0  0.84224  0.56171  0.08314  1.0000
  S   S321      1.0  0.91649  0.67535  0.03466  1.0000
  H   H2394     1.0  0.66122  0.56540  0.22079  1.0000
  C   C1353     1.0  0.92855  0.71836  0.11253  1.0000
  C   C1354     1.0  0.98825  0.65716  0.09293  1.0000
  H   H2395     1.0  0.65438  0.55762  0.26941  1.0000
  H   H2396     1.0  0.98324  0.70497  0.27540  1.0000
  C   C1355     1.0  0.81359  0.56142  0.05496  1.0000
  H   H2397     1.0  0.50520  0.70447  0.43410  1.0000
  H   H2398     1.0  0.75690  0.55351  0.10360  1.0000
  N   N75       1.0  0.67908  0.57634  0.46084  1.0000
  H   H2399     1.0  0.66315  0.57556  0.16820  1.0000
  C   C1356     1.0  0.69656  0.58215  0.44357  1.0000
  C   C1357     1.0  0.51957  0.66267  0.34796  1.0000
  H   H2400     1.0  0.87367  0.63251  0.10220  1.0000
  H   H2401     1.0  0.55647  0.58457  0.47770  1.0000
  C   C1358     1.0  0.94708  0.72897  0.02527  1.0000
  C   C1359     1.0  0.69568  0.58359  0.41244  1.0000
  C   C1360     1.0  0.71327  0.59207  0.39799  1.0000
  C   C1361     1.0  0.64134  0.68864  0.26962  1.0000
  H   H2402     1.0  0.67838  0.55051  0.44176  1.0000
  H   H2403     1.0  0.71552  0.60874  0.14525  1.0000
  H   H2404     1.0  0.70121  0.59574  0.44947  1.0000
  H   H2405     1.0  0.70836  0.57173  0.44715  1.0000
  H   H2406     1.0  0.86483  0.73945  0.09004  1.0000
  H   H2407     1.0  0.82538  0.58599  0.06941  1.0000
  H   H2408     1.0  0.86457  0.72911  0.32128  1.0000
  C   C1362     1.0  0.97200  0.66461  0.26505  1.0000
  H   H2409     1.0  0.69600  0.60974  0.17044  1.0000
  C   C1363     1.0  0.85013  0.54379  0.07188  1.0000
  H   H2410     1.0  0.69480  0.56938  0.40529  1.0000
  H   H2411     1.0  0.68341  0.59215  0.40591  1.0000
  H   H2412     1.0  0.71266  0.59196  0.37581  1.0000
  H   H2413     1.0  0.71437  0.60676  0.40307  1.0000
  H   H2414     1.0  0.72599  0.58371  0.40368  1.0000
  H   H2415     1.0  0.68373  0.51598  0.41558  1.0000
  S   S322      1.0  0.95024  0.63079  0.03269  1.0000
  H   H2416     1.0  0.96558  0.74525  0.26773  1.0000
  C   C1364     1.0  0.83047  0.57207  0.06265  1.0000
  H   H2417     1.0  0.70933  0.66531  0.25373  1.0000
  N   N76       1.0  0.69268  0.55138  0.18721  1.0000
  C   C1365     1.0  0.69746  0.57163  0.18799  1.0000
  C   C1366     1.0  0.68419  0.54376  0.21454  1.0000
  C   C1367     1.0  0.71081  0.54031  0.18092  1.0000
  C   C1368     1.0  0.67985  0.54882  0.16547  1.0000
  C   C1369     1.0  0.66110  0.56046  0.16674  1.0000
  C   C1370     1.0  0.70586  0.58148  0.16117  1.0000
  C   C1371     1.0  0.89970  0.74303  0.27327  1.0000
  C   C1372     1.0  0.65076  0.55874  0.14154  1.0000
  H   H2418     1.0  0.97115  0.62840  0.08009  1.0000
  H   H2419     1.0  0.88533  0.60118  0.08307  1.0000
  H   H2420     1.0  0.70751  0.57286  0.20354  1.0000
  H   H2421     1.0  0.71134  0.58085  0.49025  1.0000
  H   H2422     1.0  0.72125  0.54319  0.19529  1.0000
  H   H2423     1.0  0.71723  0.54473  0.16050  1.0000
  H   H2424     1.0  0.68728  0.55165  0.14516  1.0000
  C   C1373     1.0  0.68511  0.56634  0.48674  1.0000
  C   C1374     1.0  0.70934  0.60201  0.16456  1.0000
  C   C1375     1.0  0.88973  0.74545  0.25025  1.0000
  H   H2425     1.0  0.71948  0.57479  0.15442  1.0000
  H   H2426     1.0  0.73562  0.51413  0.15691  1.0000
  H   H2427     1.0  0.62909  0.69847  0.26682  1.0000
  H   H2428     1.0  0.95839  0.73208  0.03792  1.0000
  C   C1376     1.0  0.95207  0.62155  0.30353  1.0000
  H   H2429     1.0  0.94779  0.63556  0.29449  1.0000
  H   H2430     1.0  0.64792  0.54386  0.13929  1.0000
  H   H2431     1.0  0.89648  0.57808  0.08822  1.0000
  H   H2432     1.0  0.71365  0.65991  0.21903  1.0000
  H   H2433     1.0  0.63436  0.73561  0.42188  1.0000
  C   C1377     1.0  0.88924  0.58789  0.07375  1.0000
  H   H2434     1.0  0.61016  0.72834  0.37214  1.0000
  S   S323      1.0  0.82712  0.50276  0.04485  1.0000
  N   N77       1.0  0.65504  0.69016  0.24490  1.0000
  C   C1378     1.0  0.64577  0.68299  0.22190  1.0000
  C   C1379     1.0  0.67186  0.67746  0.25085  1.0000
  H   H2435     1.0  0.52171  0.73618  0.21671  1.0000
  H   H2436     1.0  0.93783  0.59334  0.11357  1.0000
  C   C1380     1.0  0.86227  0.62584  0.11546  1.0000
  C   C1381     1.0  0.62603  0.69177  0.21704  1.0000
  H   H2437     1.0  0.85790  0.74276  0.34970  1.0000
  C   C1382     1.0  0.68743  0.67563  0.22769  1.0000
  H   H2438     1.0  0.92119  0.70016  0.14850  1.0000
  C   C1383     1.0  0.61999  0.68734  0.18967  1.0000
  C   C1384     1.0  0.94948  0.72102  0.26652  1.0000
  H   H2439     1.0  0.64421  0.66761  0.22537  1.0000
  H   H2440     1.0  0.65468  0.68472  0.20270  1.0000
  H   H2441     1.0  0.98012  0.68133  0.18639  1.0000
  C   C1385     1.0  0.98212  0.66502  0.15124  1.0000
  H   H2442     1.0  0.50727  0.67582  0.29032  1.0000
  C   C1386     1.0  0.49999  0.65767  0.26091  1.0000
  H   H2443     1.0  0.99065  0.61968  0.13971  1.0000
  H   H2444     1.0  0.84008  0.55138  0.12514  1.0000
  C   C1387     1.0  0.96808  0.73069  0.26173  1.0000
  H   H2445     1.0  0.84961  0.62624  0.10400  1.0000
  H   H2446     1.0  0.88686  0.73907  0.04728  1.0000
  H   H2447     1.0  0.69541  0.53821  0.22756  1.0000
  H   H2448     1.0  0.95323  0.64185  0.09652  1.0000
  C   C1388     1.0  0.62211  0.73774  0.37070  1.0000
  H   H2449     1.0  0.68192  0.67104  0.20930  1.0000
  H   H2450     1.0  0.69431  0.68915  0.22297  1.0000
  H   H2451     1.0  0.59870  0.56691  0.50138  1.0000
  H   H2452     1.0  0.94080  0.71948  0.09749  1.0000
  H   H2453     1.0  0.87836  0.51913  0.05289  1.0000
  H   H2454     1.0  0.93105  0.59453  0.03861  1.0000
  H   H2455     1.0  0.81917  0.69358  0.22051  1.0000
  H   H2456     1.0  0.60555  0.69316  0.18725  1.0000
  H   H2457     1.0  0.78934  0.56592  0.03180  1.0000
  H   H2458     1.0  0.89144  0.64214  0.35255  1.0000
  C   C1389     1.0  0.64192  0.54118  0.44524  1.0000
  C   C1390     1.0  0.91010  0.71705  0.09870  1.0000
  H   H2459     1.0  0.82159  0.54489  0.10719  1.0000
  H   H2460     1.0  0.79886  0.57791  0.15583  1.0000
  N   N78       1.0  0.92051  0.61468  0.33249  1.0000
  H   H2461     1.0  0.89912  0.59109  0.05584  1.0000
  H   H2462     1.0  0.65703  0.70580  0.29424  1.0000
  C   C1391     1.0  0.90912  0.66333  0.36240  1.0000
  H   H2463     1.0  0.65914  0.56445  0.12324  1.0000
  Fe  Fe160     1.0  0.79627  0.50851  0.04300  1.0000
  C   C1392     1.0  0.93451  0.60959  0.30939  1.0000
  H   H2464     1.0  0.97146  0.59877  0.29132  1.0000
  H   H2465     1.0  0.65043  0.59654  0.43250  1.0000
  H   H2466     1.0  0.96935  0.60382  0.12003  1.0000
  H   H2467     1.0  0.63528  0.72917  0.37304  1.0000
  C   C1393     1.0  0.92974  0.72278  0.04293  1.0000
  H   H2468     1.0  0.94453  0.58063  0.39485  1.0000
  H   H2469     1.0  0.67624  0.70830  0.19963  1.0000
  Fe  Fe161     1.0  0.92320  0.64625  0.02277  1.0000
  H   H2470     1.0  0.90762  0.67222  0.34339  1.0000
  H   H2471     1.0  0.96628  0.64008  0.15364  1.0000
  H   H2472     1.0  0.67563  0.53150  0.21231  1.0000
  H   H2473     1.0  0.63185  0.61354  0.46715  1.0000
  H   H2474     1.0  0.88609  0.55775  0.00438  1.0000
  C   C1394     1.0  0.66558  0.71755  0.20981  1.0000
  C   C1395     1.0  0.92460  0.60315  0.35811  1.0000
  H   H2475     1.0  0.95708  0.65870  0.13285  1.0000
  C   C1396     1.0  0.88896  0.72857  0.06445  1.0000
  H   H2476     1.0  0.93661  0.56969  0.04167  1.0000
  C   C1397     1.0  0.94349  0.60571  0.10134  1.0000
  N   N79       1.0  0.83863  0.63481  0.18706  1.0000
  C   C1398     1.0  0.84228  0.62749  0.15948  1.0000
  C   C1399     1.0  0.82180  0.62561  0.20221  1.0000
  C   C1400     1.0  0.83418  0.65563  0.18289  1.0000
  C   C1401     1.0  0.85557  0.63214  0.20321  1.0000
  C   C1402     1.0  0.86400  0.61195  0.20724  1.0000
  C   C1403     1.0  0.85838  0.63637  0.14089  1.0000
  C   C1404     1.0  0.82758  0.66575  0.20861  1.0000
  C   C1405     1.0  0.81810  0.60524  0.19596  1.0000
  C   C1406     1.0  0.80207  0.59698  0.21454  1.0000
  C   C1407     1.0  0.88233  0.61174  0.22086  1.0000
  C   C1408     1.0  0.82391  0.68670  0.20179  1.0000
  H   H2477     1.0  0.82938  0.62962  0.14842  1.0000
  H   H2478     1.0  0.84536  0.61216  0.16093  1.0000
  H   H2479     1.0  0.82260  0.62575  0.22436  1.0000
  H   H2480     1.0  0.80862  0.63375  0.19783  1.0000
  H   H2481     1.0  0.82313  0.65838  0.16846  1.0000
  H   H2482     1.0  0.84671  0.66305  0.17361  1.0000
  H   H2483     1.0  0.86691  0.64137  0.19432  1.0000
  H   H2484     1.0  0.85215  0.63672  0.22390  1.0000
  H   H2485     1.0  0.86724  0.60552  0.18785  1.0000
  H   H2486     1.0  0.85416  0.60321  0.22057  1.0000
  H   H2487     1.0  0.85446  0.65110  0.13437  1.0000
  H   H2488     1.0  0.87156  0.63601  0.15107  1.0000
  H   H2489     1.0  0.83837  0.66437  0.22330  1.0000
  H   H2490     1.0  0.81443  0.66004  0.21851  1.0000
  H   H2491     1.0  0.81394  0.60517  0.17503  1.0000
  H   H2492     1.0  0.83063  0.59577  0.19800  1.0000
  H   H2493     1.0  0.78925  0.60632  0.21400  1.0000
  H   H2494     1.0  0.79872  0.58313  0.20808  1.0000
  H   H2495     1.0  0.80610  0.59487  0.23554  1.0000
  H   H2496     1.0  0.87999  0.61774  0.24076  1.0000
  H   H2497     1.0  0.88798  0.59711  0.22409  1.0000
  H   H2498     1.0  0.89293  0.61998  0.20806  1.0000
  H   H2499     1.0  0.81283  0.68909  0.18747  1.0000
  H   H2500     1.0  0.88920  0.74612  0.11330  1.0000
  C   C1409     1.0  0.52156  0.74469  0.28189  1.0000
  H   H2501     1.0  0.96984  0.65880  0.19234  1.0000
  H   H2502     1.0  0.62915  0.53564  0.45668  1.0000
  H   H2503     1.0  0.65306  0.71838  0.19808  1.0000
  C   C1410     1.0  0.85489  0.72113  0.06315  1.0000
  C   C1411     1.0  0.95799  0.61458  0.11659  1.0000
  H   H2504     1.0  0.57371  0.60227  0.47206  1.0000
  H   H2505     1.0  0.89235  0.71513  0.05496  1.0000
  H   H2506     1.0  0.63961  0.62988  0.43962  1.0000
  H   H2507     1.0  0.65176  0.52917  0.44073  1.0000
  H   H2508     1.0  0.83693  0.69329  0.19280  1.0000
  C   C1412     1.0  0.96641  0.61283  0.28326  1.0000
  H   H2509     1.0  0.51433  0.71279  0.22681  1.0000
  C   C1413     1.0  0.86985  0.72628  0.08105  1.0000
  H   H2510     1.0  0.62945  0.69375  0.17307  1.0000
  H   H2511     1.0  0.98844  0.61887  0.03908  1.0000
  H   H2512     1.0  0.62391  0.70772  0.31327  1.0000
  H   H2513     1.0  0.69669  0.64716  0.24091  1.0000
  C   C1414     1.0  0.65811  0.60510  0.44510  1.0000
  H   H2514     1.0  0.95117  0.61804  0.13647  1.0000
  H   H2515     1.0  0.82021  0.56502  0.16367  1.0000
  C   C1415     1.0  0.61992  0.74191  0.42094  1.0000
  C   C1416     1.0  0.92022  0.63545  0.33596  1.0000
  H   H2516     1.0  0.91711  0.64345  0.31674  1.0000
  H   H2517     1.0  0.84153  0.71876  0.07560  1.0000
  H   H2518     1.0  0.88393  0.50807  0.08514  1.0000
  H   H2519     1.0  0.89859  0.66840  0.37807  1.0000
  C   C1417     1.0  0.81805  0.57286  0.12083  1.0000
  H   H2520     1.0  0.86123  0.50550  0.07344  1.0000
  C   C1418     1.0  0.94284  0.60731  0.37060  1.0000
  C   C1419     1.0  0.90600  0.64283  0.35827  1.0000
  C   C1420     1.0  0.94451  0.59588  0.39755  1.0000
  C   C1421     1.0  0.66876  0.56265  0.44667  1.0000
  H   H2521     1.0  0.85154  0.58778  0.09545  1.0000
  C   C1422     1.0  0.67210  0.55755  0.23202  1.0000
  H   H2522     1.0  0.68115  0.56791  0.23923  1.0000
  H   H2523     1.0  0.65182  0.55510  0.18428  1.0000
  H   H2524     1.0  0.70081  0.51493  0.16534  1.0000
  C   C1423     1.0  0.60236  0.73785  0.25509  1.0000
  H   H2525     1.0  0.52012  0.67601  0.33502  1.0000
  H   H2526     1.0  0.75032  0.56157  0.15126  1.0000
  H   H2527     1.0  0.82596  0.58558  0.12231  1.0000
  H   H2528     1.0  0.66927  0.61253  0.43236  1.0000
  H   H2529     1.0  0.93418  0.63999  0.34011  1.0000
  H   H2530     1.0  0.94335  0.62228  0.37450  1.0000
  H   H2531     1.0  0.95518  0.60331  0.35704  1.0000
  H   H2532     1.0  0.61555  0.68587  0.23269  1.0000
  H   H2533     1.0  0.97864  0.62189  0.27935  1.0000
  H   H2534     1.0  0.62007  0.67195  0.18821  1.0000
  H   H2535     1.0  0.66723  0.66305  0.25762  1.0000
  C   C1424     1.0  0.66678  0.59310  0.46834  1.0000
  H   H2536     1.0  0.60588  0.73069  0.47107  1.0000
  C   C1425     1.0  0.92116  0.73886  0.05975  1.0000
  H   H2537     1.0  0.69226  0.55263  0.48253  1.0000
  H   H2538     1.0  0.50165  0.67076  0.42712  1.0000
  C   C1426     1.0  0.50705  0.66520  0.37384  1.0000
  H   H2539     1.0  0.70300  0.51278  0.20116  1.0000
  C   C1427     1.0  0.98847  0.63174  0.02624  1.0000
  H   H2540     1.0  0.65098  0.62844  0.47043  1.0000
  H   H2541     1.0  0.80870  0.58016  0.01935  1.0000
  H   H2542     1.0  0.80204  0.55372  0.14887  1.0000
  H   H2543     1.0  0.64864  0.72006  0.24677  1.0000
  C   C1428     1.0  0.67313  0.73723  0.20809  1.0000
  C   C1429     1.0  0.97048  0.65121  0.13775  1.0000
  C   C1430     1.0  0.65097  0.55460  0.46212  1.0000
  C   C1431     1.0  0.66035  0.71039  0.23957  1.0000
  C   C1432     1.0  0.52280  0.74471  0.50332  1.0000
  H   H2544     1.0  0.51327  0.67604  0.38461  1.0000
  H   H2545     1.0  0.80495  0.55590  0.07299  1.0000
  H   H2546     1.0  0.65267  0.53708  0.25123  1.0000
  C   C1433     1.0  0.70936  0.51870  0.18147  1.0000
  H   H2547     1.0  0.61076  0.72972  0.42286  1.0000
  H   H2548     1.0  0.64045  0.56595  0.46693  1.0000
  H   H2549     1.0  0.67899  0.68232  0.26782  1.0000
  C   C1434     1.0  0.98432  0.68707  0.06282  1.0000
  C   C1435     1.0  0.96562  0.63236  0.10037  1.0000
  C   C1436     1.0  0.72866  0.50898  0.17667  1.0000
  C   C1437     1.0  0.64900  0.69285  0.29659  1.0000
  H   H2550     1.0  0.71922  0.60310  0.18030  1.0000
  H   H2551     1.0  0.67481  0.60293  0.47855  1.0000
  Fe  Fe162     1.0  0.56229  0.65906  0.49221  1.0000
  H   H2552     1.0  0.95120  0.70649  0.26021  1.0000
  H   H2553     1.0  0.97221  0.73127  0.23979  1.0000
  C   C1438     1.0  0.85759  0.57417  0.08889  1.0000
  H   H2554     1.0  0.51434  0.65161  0.33645  1.0000
  C   C1439     1.0  0.66247  0.54731  0.25704  1.0000
  H   H2555     1.0  0.99208  0.70480  0.23084  1.0000
  H   H2556     1.0  0.96369  0.66641  0.07083  1.0000
  C   C1440     1.0  0.86462  0.74329  0.32879  1.0000
  H   H2557     1.0  0.85578  0.54640  0.05055  1.0000
  C   C1441     1.0  0.93218  0.70100  0.13145  1.0000
  H   H2558     1.0  0.89875  0.71479  0.11512  1.0000
  C   C1442     1.0  0.63502  0.73246  0.47578  1.0000
  H   H2559     1.0  0.80640  0.57661  0.10784  1.0000
  H   H2560     1.0  0.67302  0.53988  0.26959  1.0000
  H   H2561     1.0  0.93247  0.74487  0.06993  1.0000
  H   H2562     1.0  0.69620  0.58124  0.14500  1.0000
  C   C1443     1.0  0.63314  0.69530  0.31861  1.0000
  H   H2563     1.0  0.68801  0.52707  0.36697  1.0000
  H   H2564     1.0  0.83875  0.53394  0.07092  1.0000
  H   H2565     1.0  0.52802  0.73499  0.26699  1.0000
  C   C1444     1.0  0.80932  0.56699  0.14903  1.0000
  H   H2566     1.0  0.67593  0.53396  0.16609  1.0000
  C   C1445     1.0  0.69592  0.52370  0.40808  1.0000
  H   H2567     1.0  0.95220  0.71760  0.01225  1.0000
  S   S324      1.0  0.87558  0.67180  0.00976  1.0000
  C   C1446     1.0  0.80080  0.57417  0.03787  1.0000
  H   H2568     1.0  0.65525  0.58874  0.48353  1.0000
  H   H2569     1.0  0.93883  0.72877  0.25451  1.0000
  H   H2570     1.0  0.96021  0.61162  0.26384  1.0000
  H   H2571     1.0  0.78524  0.51450  0.17706  1.0000
  H   H2572     1.0  0.54945  0.60873  0.46878  1.0000
  H   H2573     1.0  0.53403  0.65848  0.35305  1.0000
  H   H2574     1.0  0.50740  0.65165  0.38614  1.0000
  H   H2575     1.0  0.57263  0.74082  0.34763  1.0000
  H   H2576     1.0  0.58188  0.74408  0.41900  1.0000
  H   H2577     1.0  0.54463  0.74018  0.32207  1.0000
  H   H2578     1.0  0.94428  0.72059  0.28817  1.0000
  C   C1447     1.0  0.51310  0.73222  0.30633  1.0000
  H   H2579     1.0  0.96679  0.68003  0.09883  1.0000
  H   H2580     1.0  0.91945  0.71852  0.02947  1.0000
  C   C1448     1.0  0.55921  0.59941  0.48036  1.0000
  H   H2581     1.0  0.68618  0.73719  0.21860  1.0000
  H   H2582     1.0  0.92794  0.73069  0.12471  1.0000
  H   H2583     1.0  0.63717  0.56684  0.14323  1.0000
  H   H2584     1.0  0.99422  0.65528  0.23657  1.0000
  H   H2585     1.0  0.57933  0.73807  0.45479  1.0000
  C   C1449     1.0  0.97181  0.67107  0.17746  1.0000
  H   H2586     1.0  0.50981  0.74034  0.32428  1.0000
  C   C1450     1.0  0.97146  0.64072  0.01967  1.0000
  H   H2587     1.0  0.73763  0.51156  0.19298  1.0000
  H   H2588     1.0  0.55714  0.73580  0.29067  1.0000
  C   C1451     1.0  0.51161  0.72552  0.21323  1.0000
  C   C1452     1.0  0.99078  0.65989  0.25659  1.0000
  H   H2589     1.0  0.58592  0.73411  0.31716  1.0000
  H   H2590     1.0  0.50401  0.68994  0.46527  1.0000
  S   S325      1.0  0.65619  0.49979  0.48820  1.0000
  H   H2591     1.0  0.67635  0.74219  0.18661  1.0000
  H   H2592     1.0  0.97398  0.69767  0.05486  1.0000
  H   H2593     1.0  0.95786  0.67769  0.17367  1.0000
  N   N80       1.0  0.98003  0.64252  0.11332  1.0000
  H   H2594     1.0  0.62305  0.74528  0.35035  1.0000
  H   H2595     1.0  0.87941  0.74717  0.32899  1.0000
  C   C1453     1.0  0.69836  0.57703  0.50273  1.0000
  H   H2596     1.0  0.99463  0.69430  0.07332  1.0000
  H   H2597     1.0  0.50749  0.74370  0.50251  1.0000
  H   H2598     1.0  0.98466  0.67783  0.13767  1.0000
  C   C1454     1.0  0.55078  0.74721  0.30293  1.0000
  H   H2599     1.0  0.49826  0.63757  0.47394  1.0000
  C   C1455     1.0  0.58010  0.74617  0.32836  1.0000
  H   H2600     1.0  0.99175  0.68025  0.04548  1.0000
  H   H2601     1.0  0.67276  0.56306  0.50103  1.0000
  C   C1456     1.0  0.99572  0.62929  0.12227  1.0000
  H   H2602     1.0  0.99475  0.65048  0.07483  1.0000
  H   H2603     1.0  0.49820  0.71475  0.28208  1.0000
  H   H2604     1.0  0.66254  0.74719  0.21726  1.0000
  H   H2605     1.0  0.59779  0.60161  0.50366  1.0000
  C   C1457     1.0  0.73959  0.53961  0.76466  1.0000
  S   S326      1.0  0.57261  0.65788  0.53355  1.0000
  H   H2606     1.0  0.69835  0.52136  0.71178  1.0000
  H   H2607     1.0  0.57484  0.74293  0.50799  1.0000
  H   H2608     1.0  0.79300  0.50045  0.89924  1.0000
  H   H2609     1.0  0.64703  0.59646  0.54704  1.0000
  Fe  Fe163     1.0  0.58121  0.68755  0.52170  1.0000
  S   S327      1.0  0.57331  0.71114  0.54896  1.0000
  C   C1458     1.0  0.74048  0.50888  0.79176  1.0000
  H   H2610     1.0  0.53132  0.58767  0.51659  1.0000
  H   H2611     1.0  0.71253  0.51843  0.75626  1.0000
  N   N81       1.0  0.74182  0.51862  0.76379  1.0000
  S   S328      1.0  0.62111  0.62590  0.52964  1.0000
  S   S329      1.0  0.91353  0.70750  0.97130  1.0000
  H   H2612     1.0  0.94999  0.65709  0.92962  1.0000
  H   H2613     1.0  0.94591  0.61753  0.91713  1.0000
  S   S330      1.0  0.91318  0.65169  0.98133  1.0000
  Fe  Fe164     1.0  0.64855  0.51639  0.52451  1.0000
  S   S331      1.0  0.67799  0.52312  0.53114  1.0000
  H   H2614     1.0  0.92077  0.57797  0.00063  1.0000
  H   H2615     1.0  0.73387  0.57239  0.79196  1.0000
  H   H2616     1.0  0.96794  0.64333  0.91123  1.0000
  H   H2617     1.0  0.74192  0.54657  0.74400  1.0000
  H   H2618     1.0  0.93035  0.61152  0.99227  1.0000
  H   H2619     1.0  0.53135  0.65308  0.60967  1.0000
  H   H2620     1.0  0.75819  0.57596  0.79561  1.0000
  C   C1459     1.0  0.54503  0.58980  0.56791  1.0000
  H   H2621     1.0  0.52574  0.71639  0.52270  1.0000
  C   C1460     1.0  0.59267  0.73808  0.56912  1.0000
  C   C1461     1.0  0.53639  0.60122  0.52192  1.0000
  C   C1462     1.0  0.96244  0.64736  0.93152  1.0000
  C   C1463     1.0  0.60936  0.57335  0.51119  1.0000
  Fe  Fe165     1.0  0.88528  0.64223  0.00079  1.0000
  C   C1464     1.0  0.71033  0.51198  0.70506  1.0000
  H   H2622     1.0  0.71394  0.57279  0.53832  1.0000
  H   H2623     1.0  0.92995  0.74345  0.96660  1.0000
  C   C1465     1.0  0.58168  0.74655  0.52522  1.0000
  C   C1466     1.0  0.85759  0.55958  0.99346  1.0000
  C   C1467     1.0  0.72261  0.50283  0.83752  1.0000
  H   H2624     1.0  0.74996  0.57679  0.76237  1.0000
  H   H2625     1.0  0.97269  0.58421  0.96444  1.0000
  C   C1468     1.0  0.90441  0.72980  0.98030  1.0000
  C   C1469     1.0  0.72626  0.51220  0.74854  1.0000
  C   C1470     1.0  0.88596  0.73249  0.99127  1.0000
  H   H2626     1.0  0.75307  0.51123  0.80251  1.0000
  H   H2627     1.0  0.55496  0.55784  0.60013  1.0000
  C   C1471     1.0  0.62207  0.60139  0.52587  1.0000
  C   C1472     1.0  0.63657  0.59007  0.53677  1.0000
  C   C1473     1.0  0.63749  0.57050  0.53490  1.0000
  C   C1474     1.0  0.62371  0.56198  0.52247  1.0000
  C   C1475     1.0  0.55865  0.55691  0.57819  1.0000
  C   C1476     1.0  0.72272  0.51399  0.81011  1.0000
  C   C1477     1.0  0.72810  0.51670  0.71752  1.0000
  H   H2628     1.0  0.64853  0.56194  0.54383  1.0000
  Fe  Fe166     1.0  0.60042  0.64840  0.51331  1.0000
  H   H2629     1.0  0.76272  0.52173  0.72996  1.0000
  H   H2630     1.0  0.55821  0.54203  0.57359  1.0000
  C   C1478     1.0  0.58415  0.73300  0.54671  1.0000
  H   H2631     1.0  0.72199  0.52906  0.81384  1.0000
  C   C1479     1.0  0.74839  0.56975  0.78304  1.0000
  H   H2632     1.0  0.59427  0.72794  0.58611  1.0000
  C   C1480     1.0  0.75290  0.54871  0.78239  1.0000
  N   N82       1.0  0.53277  0.60336  0.55175  1.0000
  H   H2633     1.0  0.55986  0.59407  0.56553  1.0000
  H   H2634     1.0  0.52343  0.74571  0.54654  1.0000
  H   H2635     1.0  0.98896  0.67674  0.97786  1.0000
  C   C1481     1.0  0.53696  0.64872  0.58959  1.0000
  H   H2636     1.0  0.91443  0.61170  0.90976  1.0000
  C   C1482     1.0  0.94801  0.58463  0.94047  1.0000
  H   H2637     1.0  0.91631  0.58650  0.91101  1.0000
  H   H2638     1.0  0.88374  0.58511  0.93352  1.0000
  H   H2639     1.0  0.73058  0.53172  0.71211  1.0000
  C   C1483     1.0  0.84527  0.59138  0.98314  1.0000
  H   H2640     1.0  0.91206  0.58390  0.96029  1.0000
  H   H2641     1.0  0.50972  0.59915  0.58228  1.0000
  C   C1484     1.0  0.87459  0.56712  0.99860  1.0000
  C   C1485     1.0  0.70424  0.56502  0.52752  1.0000
  Fe  Fe167     1.0  0.90446  0.68051  0.99463  1.0000
  C   C1486     1.0  0.60870  0.59296  0.51257  1.0000
  S   S332      1.0  0.86472  0.62359  0.98387  1.0000
  C   C1487     1.0  0.91016  0.59865  0.92164  1.0000
  H   H2642     1.0  0.95865  0.66422  0.99739  1.0000
  C   C1488     1.0  0.93949  0.60025  0.98320  1.0000
  C   C1489     1.0  0.97865  0.56595  0.93265  1.0000
  H   H2643     1.0  0.57319  0.56151  0.57303  1.0000
  H   H2644     1.0  0.72493  0.54382  0.77156  1.0000
  C   C1490     1.0  0.51252  0.59948  0.55997  1.0000
  H   H2645     1.0  0.92943  0.62906  0.93910  1.0000
  H   H2646     1.0  0.53077  0.56335  0.56665  1.0000
  H   H2647     1.0  0.97585  0.59583  0.93096  1.0000
  H   H2648     1.0  0.55262  0.62470  0.55458  1.0000
  H   H2649     1.0  0.53638  0.61939  0.60170  1.0000
  C   C1491     1.0  0.53723  0.62300  0.55725  1.0000
  H   H2650     1.0  0.75165  0.54257  0.80353  1.0000
  H   H2651     1.0  0.77210  0.51844  0.76167  1.0000
  C   C1492     1.0  0.91635  0.59776  0.95083  1.0000
  S   S333      1.0  0.62340  0.53725  0.52137  1.0000
  C   C1493     1.0  0.96937  0.58388  0.94320  1.0000
  H   H2652     1.0  0.97036  0.62132  0.95266  1.0000
  H   H2653     1.0  0.62331  0.71602  0.51145  1.0000
  C   C1494     1.0  0.49791  0.61320  0.54671  1.0000
  N   N83       1.0  0.93689  0.60040  0.95342  1.0000
  H   H2654     1.0  0.95227  0.63494  0.96999  1.0000
  S   S334      1.0  0.61002  0.67806  0.50566  1.0000
  H   H2655     1.0  0.94234  0.57087  0.94820  1.0000
  C   C1495     1.0  0.53061  0.62912  0.58579  1.0000
  H   H2656     1.0  0.97344  0.65487  0.94017  1.0000
  H   H2657     1.0  0.76769  0.54694  0.77426  1.0000
  H   H2658     1.0  0.94640  0.58550  0.91843  1.0000
  H   H2659     1.0  0.95394  0.60369  0.98674  1.0000
  H   H2660     1.0  0.52557  0.67186  0.52425  1.0000
  H   H2661     1.0  0.53173  0.65907  0.57388  1.0000
  C   C1496     1.0  0.54490  0.56893  0.56165  1.0000
  C   C1497     1.0  0.94188  0.61914  0.93890  1.0000
  C   C1498     1.0  0.76080  0.51385  0.75008  1.0000
  C   C1499     1.0  0.98885  0.66426  0.99157  1.0000
  C   C1500     1.0  0.95739  0.63003  0.95006  1.0000
  H   H2662     1.0  0.54085  0.59024  0.58984  1.0000
  S   S335      1.0  0.79940  0.52246  0.00031  1.0000
  H   H2663     1.0  0.71251  0.51375  0.68271  1.0000
  H   H2664     1.0  0.69129  0.58999  0.51003  1.0000
  H   H2665     1.0  0.73987  0.50824  0.70803  1.0000
  H   H2666     1.0  0.70985  0.51075  0.80081  1.0000
  H   H2667     1.0  0.50930  0.58526  0.55471  1.0000
  H   H2668     1.0  0.88478  0.59793  0.90090  1.0000
  H   H2669     1.0  0.53142  0.63346  0.54216  1.0000
  H   H2670     1.0  0.90764  0.60850  0.96187  1.0000
  H   H2671     1.0  0.55249  0.64883  0.58858  1.0000
  C   C1501     1.0  0.51292  0.66630  0.51825  1.0000
  H   H2672     1.0  0.64847  0.71716  0.50879  1.0000
  H   H2673     1.0  0.88970  0.59228  0.00135  1.0000
  H   H2674     1.0  0.99400  0.56594  0.93431  1.0000
  H   H2675     1.0  0.51512  0.62957  0.58909  1.0000
  H   H2676     1.0  0.71158  0.55179  0.52149  1.0000
  H   H2677     1.0  0.97311  0.55342  0.94470  1.0000
  C   C1502     1.0  0.93561  0.58160  0.00038  1.0000
  C   C1503     1.0  0.88887  0.59797  0.92186  1.0000
  H   H2678     1.0  0.56168  0.61742  0.51211  1.0000
  H   H2679     1.0  0.83394  0.60071  0.97662  1.0000
  H   H2680     1.0  0.56653  0.59293  0.52083  1.0000
  H   H2681     1.0  0.88196  0.61045  0.93094  1.0000
  C   C1504     1.0  0.97168  0.65717  0.00259  1.0000
  C   C1505     1.0  0.86216  0.59893  0.98870  1.0000
  Fe  Fe168     1.0  0.83041  0.51601  0.00250  1.0000
  H   H2682     1.0  0.69182  0.56164  0.54159  1.0000
  C   C1506     1.0  0.84289  0.57184  0.98581  1.0000
  H   H2683     1.0  0.97617  0.56505  0.91112  1.0000
  H   H2684     1.0  0.87697  0.72069  0.99473  1.0000
  H   H2685     1.0  0.54914  0.56703  0.54013  1.0000
  H   H2686     1.0  0.52809  0.61206  0.51034  1.0000
  C   C1507     1.0  0.55700  0.60308  0.51025  1.0000
  H   H2687     1.0  0.82985  0.56627  0.98137  1.0000
  C   C1508     1.0  0.63517  0.72526  0.50545  1.0000
  C   C1509     1.0  0.91578  0.74534  0.97550  1.0000
  H   H2688     1.0  0.94460  0.56987  0.99262  1.0000
  H   H2689     1.0  0.63398  0.73717  0.51857  1.0000
  H   H2690     1.0  0.71004  0.50705  0.85054  1.0000
  H   H2691     1.0  0.73528  0.50546  0.84781  1.0000
  H   H2692     1.0  0.50073  0.62803  0.54889  1.0000
  S   S336      1.0  0.85572  0.53480  0.99648  1.0000
  H   H2693     1.0  0.49798  0.61120  0.52487  1.0000
  C   C1510     1.0  0.87675  0.58667  0.99673  1.0000
  H   H2694     1.0  0.54680  0.72480  0.50419  1.0000
  C   C1511     1.0  0.53132  0.72471  0.50428  1.0000
  C   C1512     1.0  0.85011  0.80903  0.22711  1.0000
  H   H2695     1.0  0.93885  0.86842  0.19249  1.0000
  H   H2696     1.0  0.97161  0.78903  0.24211  1.0000
  C   C1513     1.0  0.50161  0.84138  0.37164  1.0000
  C   C1514     1.0  0.56692  0.75858  0.31140  1.0000
  H   H2697     1.0  0.82145  0.94266  0.04639  1.0000
  H   H2698     1.0  0.87813  0.84011  0.33659  1.0000
  H   H2699     1.0  0.99605  0.87999  0.02459  1.0000
  Fe  Fe169     1.0  0.72985  0.94606  0.30019  1.0000
  S   S337      1.0  0.73011  0.91446  0.29981  1.0000
  S   S338      1.0  0.71436  0.96223  0.33495  1.0000
  Fe  Fe170     1.0  0.74672  0.95038  0.23986  1.0000
  S   S339      1.0  0.74691  0.91951  0.23658  1.0000
  S   S340      1.0  0.76065  0.97027  0.20574  1.0000
  Fe  Fe171     1.0  0.71839  0.91945  0.25935  1.0000
  S   S341      1.0  0.69861  0.89823  0.24627  1.0000
  Fe  Fe172     1.0  0.75865  0.91663  0.27705  1.0000
  S   S342      1.0  0.78130  0.89312  0.27588  1.0000
  S   S343      1.0  0.71703  0.95092  0.25986  1.0000
  S   S344      1.0  0.75947  0.94781  0.28009  1.0000
  Fe  Fe173     1.0  0.58735  0.82952  0.46937  1.0000
  S   S345      1.0  0.59582  0.81527  0.43160  1.0000
  Fe  Fe174     1.0  0.56048  0.83757  0.24047  1.0000
  S   S346      1.0  0.56239  0.81734  0.27671  1.0000
  S   S347      1.0  0.53545  0.83278  0.21741  1.0000
  Fe  Fe175     1.0  0.59429  0.85961  0.25394  1.0000
  S   S348      1.0  0.59769  0.84087  0.29146  1.0000
  S   S349      1.0  0.61063  0.88660  0.24790  1.0000
  Fe  Fe176     1.0  0.59332  0.81726  0.26601  1.0000
  S   S350      1.0  0.61109  0.79069  0.27253  1.0000
  Fe  Fe177     1.0  0.56643  0.84286  0.29799  1.0000
  S   S351      1.0  0.54943  0.84809  0.33655  1.0000
  S   S352      1.0  0.59156  0.83569  0.22755  1.0000
  S   S353      1.0  0.56291  0.86327  0.26253  1.0000
  H   H2700     1.0  0.79992  0.90621  0.04864  1.0000
  S   S354      1.0  0.92854  0.84770  0.03813  1.0000
  Fe  Fe178     1.0  0.92017  0.81951  0.05562  1.0000
  S   S355      1.0  0.92881  0.80745  0.09566  1.0000
  C   C1515     1.0  0.62889  0.78093  0.46736  1.0000
  Fe  Fe179     1.0  0.88829  0.86551  0.27711  1.0000
  S   S356      1.0  0.87912  0.84059  0.25809  1.0000
  S   S357      1.0  0.86753  0.88526  0.29918  1.0000
  Fe  Fe180     1.0  0.92951  0.85999  0.25379  1.0000
  S   S358      1.0  0.92287  0.83513  0.23218  1.0000
  S   S359      1.0  0.95819  0.87255  0.24471  1.0000
  Fe  Fe181     1.0  0.89679  0.85166  0.22189  1.0000
  S   S360      1.0  0.88477  0.85590  0.18188  1.0000
  Fe  Fe182     1.0  0.90596  0.82613  0.27041  1.0000
  S   S361      1.0  0.90944  0.79627  0.28881  1.0000
  S   S362      1.0  0.90463  0.87737  0.23994  1.0000
  S   S363      1.0  0.91395  0.85024  0.29310  1.0000
  C   C1516     1.0  0.90316  0.77684  0.27229  1.0000
  C   C1517     1.0  0.89421  0.77914  0.24835  1.0000
  Fe  Fe183     1.0  0.89907  0.85240  0.02587  1.0000
  H   H2701     1.0  0.89217  0.79300  0.23855  1.0000
  C   C1518     1.0  0.95894  0.89314  0.02686  1.0000
  C   C1519     1.0  0.97976  0.84889  0.27776  1.0000
  C   C1520     1.0  0.97942  0.86309  0.25689  1.0000
  H   H2702     1.0  0.78505  0.78331  0.31706  1.0000
  H   H2703     1.0  0.96676  0.84322  0.28670  1.0000
  H   H2704     1.0  0.76949  0.87395  0.10659  1.0000
  C   C1521     1.0  0.91665  0.82071  0.11991  1.0000
  C   C1522     1.0  0.91684  0.81498  0.14734  1.0000
  C   C1523     1.0  0.90678  0.82561  0.16658  1.0000
  C   C1524     1.0  0.89665  0.84193  0.15830  1.0000
  C   C1525     1.0  0.89638  0.84751  0.13088  1.0000
  C   C1526     1.0  0.90645  0.83697  0.11173  1.0000
  H   H2705     1.0  0.92453  0.80227  0.15367  1.0000
  H   H2706     1.0  0.90662  0.82100  0.18771  1.0000
  H   H2707     1.0  0.88866  0.86016  0.12440  1.0000
  H   H2708     1.0  0.90636  0.84157  0.09064  1.0000
  H   H2709     1.0  0.94246  0.88212  0.07600  1.0000
  H   H2710     1.0  0.63032  0.76213  0.38833  1.0000
  C   C1527     1.0  0.51404  0.83208  0.23773  1.0000
  H   H2711     1.0  0.81916  0.91434  0.08971  1.0000
  H   H2712     1.0  0.52443  0.84526  0.27047  1.0000
  H   H2713     1.0  0.58957  0.98973  0.48703  1.0000
  H   H2714     1.0  0.95963  0.81441  0.14484  1.0000
  C   C1528     1.0  0.59386  0.77427  0.23368  1.0000
  C   C1529     1.0  0.60439  0.77157  0.25610  1.0000
  C   C1530     1.0  0.67074  0.90360  0.47113  1.0000
  H   H2715     1.0  0.98133  0.91107  0.03572  1.0000
  H   H2716     1.0  0.59044  0.78833  0.22547  1.0000
  H   H2717     1.0  0.97059  0.85361  0.19810  1.0000
  C   C1531     1.0  0.58168  0.82294  0.40588  1.0000
  C   C1532     1.0  0.58663  0.81769  0.37977  1.0000
  C   C1533     1.0  0.57632  0.82500  0.35850  1.0000
  C   C1534     1.0  0.56112  0.83757  0.36339  1.0000
  C   C1535     1.0  0.55570  0.84222  0.38968  1.0000
  C   C1536     1.0  0.56600  0.83487  0.41099  1.0000
  H   H2718     1.0  0.59866  0.80832  0.37587  1.0000
  H   H2719     1.0  0.58019  0.82096  0.33833  1.0000
  H   H2720     1.0  0.54386  0.85186  0.39346  1.0000
  H   H2721     1.0  0.56199  0.83869  0.43123  1.0000
  C   C1537     1.0  0.84381  0.88808  0.29131  1.0000
  C   C1538     1.0  0.83609  0.87585  0.27519  1.0000
  C   C1539     1.0  0.81700  0.87783  0.27044  1.0000
  C   C1540     1.0  0.80547  0.89230  0.28118  1.0000
  C   C1541     1.0  0.81329  0.90496  0.29655  1.0000
  C   C1542     1.0  0.83234  0.90271  0.30181  1.0000
  H   H2722     1.0  0.84470  0.86459  0.26689  1.0000
  H   H2723     1.0  0.81107  0.86796  0.25856  1.0000
  H   H2724     1.0  0.80455  0.91608  0.30509  1.0000
  H   H2725     1.0  0.83818  0.91225  0.31430  1.0000
  C   C1543     1.0  0.67401  0.89523  0.24853  1.0000
  C   C1544     1.0  0.66754  0.87766  0.24377  1.0000
  C   C1545     1.0  0.64823  0.87465  0.24418  1.0000
  C   C1546     1.0  0.63509  0.88930  0.24897  1.0000
  C   C1547     1.0  0.64154  0.90691  0.25373  1.0000
  C   C1548     1.0  0.66087  0.90983  0.25381  1.0000
  H   H2726     1.0  0.67756  0.86628  0.23954  1.0000
  H   H2727     1.0  0.64353  0.86109  0.24019  1.0000
  H   H2728     1.0  0.63150  0.91839  0.25725  1.0000
  H   H2729     1.0  0.66560  0.92345  0.25738  1.0000
  C   C1549     1.0  0.70818  0.97804  0.42451  1.0000
  H   H2730     1.0  0.61729  0.92723  0.48243  1.0000
  C   C1550     1.0  0.69755  0.98004  0.37895  1.0000
  C   C1551     1.0  0.71257  0.96815  0.36959  1.0000
  C   C1552     1.0  0.72545  0.96133  0.38803  1.0000
  C   C1553     1.0  0.72329  0.96628  0.41513  1.0000
  H   H2731     1.0  0.73714  0.95226  0.38138  1.0000
  H   H2732     1.0  0.73342  0.96087  0.42895  1.0000
  C   C1554     1.0  0.77789  0.97456  0.11327  1.0000
  C   C1555     1.0  0.83202  0.87680  0.05273  1.0000
  C   C1556     1.0  0.77621  0.98715  0.15762  1.0000
  C   C1557     1.0  0.76730  0.97123  0.17010  1.0000
  C   C1558     1.0  0.76411  0.95675  0.15396  1.0000
  C   C1559     1.0  0.76914  0.95852  0.12580  1.0000
  H   H2733     1.0  0.67068  0.96220  0.44686  1.0000
  H   H2734     1.0  0.64189  0.90176  0.46018  1.0000
  H   H2735     1.0  0.75771  0.94423  0.16315  1.0000
  H   H2736     1.0  0.76631  0.94734  0.11359  1.0000
  H   H2737     1.0  0.96519  0.78142  0.02014  1.0000
  H   H2738     1.0  0.50453  0.78422  0.28012  1.0000
  C   C1560     1.0  0.93262  0.94018  0.00765  1.0000
  C   C1561     1.0  0.87493  0.90015  0.02054  1.0000
  C   C1562     1.0  0.80848  0.93468  0.04755  1.0000
  H   H2739     1.0  0.51500  0.89091  0.20225  1.0000
  C   C1563     1.0  0.71533  0.92455  0.17812  1.0000
  H   H2740     1.0  0.70498  0.91095  0.44620  1.0000
  H   H2741     1.0  0.81068  0.81401  0.29070  1.0000
  C   C1564     1.0  0.66107  0.93342  0.44640  1.0000
  H   H2742     1.0  0.71156  0.91874  0.48526  1.0000
  H   H2743     1.0  0.65670  0.79168  0.45660  1.0000
  H   H2744     1.0  0.53335  0.79228  0.20257  1.0000
  C   C1565     1.0  0.70722  0.98366  0.20177  1.0000
  H   H2745     1.0  0.64242  0.80445  0.48100  1.0000
  H   H2746     1.0  0.50239  0.79910  0.48700  1.0000
  H   H2747     1.0  0.62637  0.77987  0.42479  1.0000
  H   H2748     1.0  0.85785  0.94455  0.03252  1.0000
  C   C1566     1.0  0.69350  0.91965  0.43729  1.0000
  H   H2749     1.0  0.53970  0.79504  0.45251  1.0000
  H   H2750     1.0  0.85185  0.85499  0.01525  1.0000
  H   H2751     1.0  0.51810  0.80650  0.44283  1.0000
  H   H2752     1.0  0.60547  0.75939  0.38962  1.0000
  H   H2753     1.0  0.69879  0.97945  0.22079  1.0000
  C   C1567     1.0  0.97452  0.81013  0.14033  1.0000
  C   C1568     1.0  0.83758  0.88948  0.12573  1.0000
  H   H2754     1.0  0.83988  0.82301  0.26235  1.0000
  H   H2755     1.0  0.67612  0.95163  0.41524  1.0000
  S   S364      1.0  0.89023  0.82488  0.04692  1.0000
  H   H2756     1.0  0.55639  0.77580  0.26538  1.0000
  H   H2757     1.0  0.97313  0.82144  0.09880  1.0000
  H   H2758     1.0  0.86615  0.79936  0.27410  1.0000
  H   H2759     1.0  0.70772  0.89869  0.16087  1.0000
  S   S365      1.0  0.83271  0.98726  0.03816  1.0000
  C   C1569     1.0  0.97570  0.81490  0.19661  1.0000
  C   C1570     1.0  0.71549  0.96821  0.09568  1.0000
  H   H2760     1.0  0.78952  0.78912  0.28114  1.0000
  H   H2761     1.0  0.85466  0.88555  0.08830  1.0000
  N   N84       1.0  0.62773  0.87458  0.34178  1.0000
  C   C1571     1.0  0.64124  0.88905  0.32981  1.0000
  C   C1572     1.0  0.60983  0.87744  0.32785  1.0000
  C   C1573     1.0  0.62422  0.87671  0.37162  1.0000
  C   C1574     1.0  0.63552  0.85494  0.33774  1.0000
  C   C1575     1.0  0.64431  0.85148  0.30895  1.0000
  C   C1576     1.0  0.66076  0.88776  0.34129  1.0000
  C   C1577     1.0  0.60867  0.86462  0.38661  1.0000
  C   C1578     1.0  0.59851  0.89615  0.33181  1.0000
  C   C1579     1.0  0.57997  0.89635  0.31871  1.0000
  C   C1580     1.0  0.64923  0.83070  0.30615  1.0000
  C   C1581     1.0  0.67435  0.90066  0.32450  1.0000
  C   C1582     1.0  0.60711  0.86720  0.41681  1.0000
  H   H2762     1.0  0.63542  0.90341  0.33318  1.0000
  H   H2763     1.0  0.64313  0.88869  0.30747  1.0000
  H   H2764     1.0  0.61281  0.87689  0.30572  1.0000
  H   H2765     1.0  0.60030  0.86579  0.33413  1.0000
  H   H2766     1.0  0.62087  0.89163  0.37556  1.0000
  H   H2767     1.0  0.63721  0.87288  0.38189  1.0000
  H   H2768     1.0  0.64628  0.85063  0.35209  1.0000
  H   H2769     1.0  0.62430  0.84469  0.34261  1.0000
  H   H2770     1.0  0.65740  0.85915  0.30419  1.0000
  H   H2771     1.0  0.63458  0.85617  0.29349  1.0000
  H   H2772     1.0  0.65952  0.89216  0.36224  1.0000
  H   H2773     1.0  0.66712  0.87336  0.34156  1.0000
  H   H2774     1.0  0.61177  0.84952  0.38408  1.0000
  H   H2775     1.0  0.59477  0.86850  0.37908  1.0000
  H   H2776     1.0  0.59513  0.89834  0.35344  1.0000
  H   H2777     1.0  0.60641  0.90817  0.32218  1.0000
  H   H2778     1.0  0.57117  0.88487  0.32813  1.0000
  H   H2779     1.0  0.57214  0.90991  0.32143  1.0000
  H   H2780     1.0  0.58252  0.89465  0.29675  1.0000
  N   N85       1.0  0.82582  0.88583  0.07859  1.0000
  H   H2781     1.0  0.65555  0.82874  0.28541  1.0000
  H   H2782     1.0  0.63645  0.82237  0.30958  1.0000
  H   H2783     1.0  0.68793  0.90020  0.33370  1.0000
  H   H2784     1.0  0.59567  0.85868  0.42685  1.0000
  H   H2785     1.0  0.62029  0.86235  0.42581  1.0000
  H   H2786     1.0  0.60382  0.88209  0.42073  1.0000
  N   N86       1.0  0.82057  0.93239  0.20735  1.0000
  C   C1583     1.0  0.83556  0.92194  0.22272  1.0000
  C   C1584     1.0  0.80366  0.92051  0.20898  1.0000
  C   C1585     1.0  0.82830  0.93654  0.17852  1.0000
  C   C1586     1.0  0.81465  0.95073  0.21919  1.0000
  C   C1587     1.0  0.81022  0.94980  0.25024  1.0000
  C   C1588     1.0  0.85376  0.93256  0.22402  1.0000
  C   C1589     1.0  0.81383  0.94386  0.15833  1.0000
  C   C1590     1.0  0.80677  0.90135  0.19646  1.0000
  C   C1591     1.0  0.78817  0.89231  0.19434  1.0000
  C   C1592     1.0  0.80342  0.96899  0.25943  1.0000
  C   C1593     1.0  0.86686  0.92187  0.24301  1.0000
  C   C1594     1.0  0.82352  0.94987  0.13073  1.0000
  H   H2787     1.0  0.84003  0.90865  0.21345  1.0000
  H   H2788     1.0  0.82995  0.91739  0.24356  1.0000
  H   H2789     1.0  0.79847  0.91719  0.23035  1.0000
  H   H2790     1.0  0.79173  0.92846  0.19985  1.0000
  H   H2791     1.0  0.83593  0.92400  0.17054  1.0000
  H   H2792     1.0  0.83908  0.94730  0.17754  1.0000
  H   H2793     1.0  0.82543  0.96135  0.21386  1.0000
  H   H2794     1.0  0.80186  0.95692  0.21015  1.0000
  H   H2795     1.0  0.82283  0.94540  0.26096  1.0000
  H   H2796     1.0  0.79916  0.93980  0.25688  1.0000
  H   H2797     1.0  0.86142  0.93407  0.20373  1.0000
  H   H2798     1.0  0.85084  0.94671  0.23126  1.0000
  H   H2799     1.0  0.80557  0.95617  0.16562  1.0000
  H   H2800     1.0  0.80401  0.93282  0.15540  1.0000
  H   H2801     1.0  0.81398  0.90274  0.17597  1.0000
  H   H2802     1.0  0.81531  0.89157  0.20936  1.0000
  H   H2803     1.0  0.79079  0.87834  0.18629  1.0000
  H   H2804     1.0  0.78039  0.89041  0.21454  1.0000
  H   H2805     1.0  0.77949  0.90119  0.18053  1.0000
  C   C1595     1.0  0.83741  0.85553  0.05545  1.0000
  H   H2806     1.0  0.85691  0.86971  0.14546  1.0000
  C   C1596     1.0  0.65552  0.89380  0.45760  1.0000
  H   H2807     1.0  0.88044  0.92881  0.24184  1.0000
  H   H2808     1.0  0.86062  0.92176  0.26415  1.0000
  H   H2809     1.0  0.86959  0.90719  0.23756  1.0000
  H   H2810     1.0  0.83200  0.96227  0.13214  1.0000
  H   H2811     1.0  0.83274  0.93835  0.12280  1.0000
  H   H2812     1.0  0.81287  0.95380  0.11615  1.0000
  H   H2813     1.0  0.91801  0.88151  0.11309  1.0000
  H   H2814     1.0  0.82161  0.77740  0.28973  1.0000
  C   C1597     1.0  0.98817  0.82407  0.14967  1.0000
  C   C1598     1.0  0.50182  0.79778  0.31700  1.0000
  C   C1599     1.0  0.52686  0.80287  0.45997  1.0000
  C   C1600     1.0  0.84077  0.88118  0.09795  1.0000
  H   H2815     1.0  0.50771  0.82873  0.38254  1.0000
  S   S366      1.0  0.92884  0.80496  0.01842  1.0000
  C   C1601     1.0  0.51239  0.83950  0.26295  1.0000
  H   H2816     1.0  0.70369  0.90331  0.37333  1.0000
  H   H2817     1.0  0.71929  0.90625  0.39893  1.0000
  H   H2818     1.0  0.50762  0.89084  0.23771  1.0000
  H   H2819     1.0  0.94907  0.80025  0.23577  1.0000
  H   H2820     1.0  0.87040  0.78078  0.31569  1.0000
  H   H2821     1.0  0.51248  0.77795  0.47416  1.0000
  C   C1602     1.0  0.54262  0.78323  0.21537  1.0000
  H   H2822     1.0  0.72882  0.93085  0.18091  1.0000
  S   S367      1.0  0.57007  0.81310  0.50117  1.0000
  C   C1603     1.0  0.86378  0.83621  0.33312  1.0000
  H   H2823     1.0  0.57543  0.76449  0.29360  1.0000
  H   H2824     1.0  0.77787  0.80604  0.30234  1.0000
  H   H2825     1.0  0.72825  0.90927  0.14416  1.0000
  H   H2826     1.0  0.95715  0.93195  0.02861  1.0000
  H   H2827     1.0  0.68750  0.98553  0.36504  1.0000
  C   C1604     1.0  0.81318  0.91365  0.04793  1.0000
  H   H2828     1.0  0.50672  0.86980  0.22016  1.0000
  C   C1605     1.0  0.77749  0.88046  0.12129  1.0000
  H   H2829     1.0  0.82632  0.84762  0.06763  1.0000
  H   H2830     1.0  0.50585  0.84110  0.34972  1.0000
  H   H2831     1.0  0.91329  0.75680  0.30277  1.0000
  C   C1606     1.0  0.89966  0.75014  0.09631  1.0000
  C   C1607     1.0  0.60904  0.75332  0.26635  1.0000
  S   S368      1.0  0.61079  0.83382  0.49463  1.0000
  C   C1608     1.0  0.70607  0.91164  0.39044  1.0000
  C   C1609     1.0  0.78160  0.98876  0.12957  1.0000
  H   H2832     1.0  0.83652  0.80932  0.33827  1.0000
  H   H2833     1.0  0.53107  0.81608  0.46751  1.0000
  H   H2834     1.0  0.85147  0.77743  0.34097  1.0000
  C   C1610     1.0  0.69539  0.98499  0.40605  1.0000
  C   C1611     1.0  0.80776  0.80237  0.30616  1.0000
  H   H2835     1.0  0.85476  0.83705  0.35223  1.0000
  H   H2836     1.0  0.86725  0.89131  0.13170  1.0000
  H   H2837     1.0  0.97693  0.79603  0.15071  1.0000
  H   H2838     1.0  0.65163  0.97678  0.41185  1.0000
  H   H2839     1.0  0.94208  0.91768  0.06610  1.0000
  C   C1612     1.0  0.59577  0.76319  0.44278  1.0000
  C   C1613     1.0  0.62901  0.76954  0.44211  1.0000
  H   H2840     1.0  0.71446  0.93394  0.12321  1.0000
  H   H2841     1.0  0.96182  0.81150  0.19049  1.0000
  C   C1614     1.0  0.49826  0.82462  0.22832  1.0000
  H   H2842     1.0  0.92267  0.94227  0.02551  1.0000
  H   H2843     1.0  0.97910  0.85948  0.16459  1.0000
  C   C1615     1.0  0.85149  0.79495  0.27526  1.0000
  H   H2844     1.0  0.83528  0.90488  0.12378  1.0000
  C   C1616     1.0  0.97218  0.84820  0.17776  1.0000
  Fe  Fe184     1.0  0.68565  0.99550  0.49293  1.0000
  C   C1617     1.0  0.99642  0.87035  0.24554  1.0000
  H   H2845     1.0  0.92736  0.86492  0.16273  1.0000
  C   C1618     1.0  0.56085  0.76032  0.44081  1.0000
  H   H2846     1.0  0.85187  0.89087  0.16223  1.0000
  H   H2847     1.0  0.50748  0.85391  0.37900  1.0000
  S   S369      1.0  0.57219  0.85692  0.47771  1.0000
  H   H2848     1.0  0.98407  0.86925  0.05490  1.0000
  C   C1619     1.0  0.95252  0.84727  0.16748  1.0000
  H   H2849     1.0  0.80614  0.80848  0.32606  1.0000
  H   H2850     1.0  0.69858  0.99331  0.18885  1.0000
  C   C1620     1.0  0.97465  0.89804  0.04435  1.0000
  Fe  Fe185     1.0  0.80118  0.99189  0.04192  1.0000
  C   C1621     1.0  0.94121  0.86570  0.17084  1.0000
  C   C1622     1.0  0.71421  0.96651  0.18688  1.0000
  H   H2851     1.0  0.80970  0.86473  0.10235  1.0000
  H   H2852     1.0  0.87964  0.76548  0.21971  1.0000
  H   H2853     1.0  0.92353  0.88529  0.01929  1.0000
  H   H2854     1.0  0.78769  0.90257  0.09331  1.0000
  H   H2855     1.0  0.79950  0.93803  0.06591  1.0000
  H   H2856     1.0  0.63704  0.96490  0.43838  1.0000
  H   H2857     1.0  0.68755  0.89493  0.41702  1.0000
  H   H2858     1.0  0.69049  0.94623  0.47115  1.0000
  N   N87       1.0  0.53578  0.75827  0.28811  1.0000
  H   H2859     1.0  0.94443  0.83595  0.17860  1.0000
  C   C1623     1.0  0.86106  0.93210  0.02178  1.0000
  C   C1624     1.0  0.65264  0.87401  0.47068  1.0000
  H   H2860     1.0  0.96418  0.83141  0.23015  1.0000
  C   C1625     1.0  0.87089  0.91659  0.03397  1.0000
  C   C1626     1.0  0.97968  0.83308  0.02230  1.0000
  C   C1627     1.0  0.58787  0.75873  0.22172  1.0000
  C   C1628     1.0  0.92035  0.89487  0.10066  1.0000
  C   C1629     1.0  0.68950  0.91008  0.41178  1.0000
  C   C1630     1.0  0.93336  0.90901  0.05493  1.0000
  C   C1631     1.0  0.66552  0.95297  0.43254  1.0000
  H   H2861     1.0  0.94858  0.87759  0.15972  1.0000
  H   H2862     1.0  0.68750  0.92006  0.14176  1.0000
  H   H2863     1.0  0.49945  0.81880  0.20887  1.0000
  H   H2864     1.0  0.64857  0.90423  0.19204  1.0000
  C   C1632     1.0  0.65597  0.91169  0.17416  1.0000
  H   H2865     1.0  0.84228  0.86580  0.10277  1.0000
  N   N88       1.0  0.70266  0.93862  0.16361  1.0000
  C   C1633     1.0  0.69771  0.95453  0.18134  1.0000
  H   H2866     1.0  0.64245  0.95455  0.40646  1.0000
  H   H2867     1.0  0.87423  0.81606  0.30546  1.0000
  H   H2868     1.0  0.80081  0.89787  0.12207  1.0000
  C   C1634     1.0  0.89222  0.76819  0.08063  1.0000
  H   H2869     1.0  0.67703  0.91643  0.40237  1.0000
  C   C1635     1.0  0.88395  0.78235  0.10022  1.0000
  C   C1636     1.0  0.70343  0.96234  0.12142  1.0000
  N   N89       1.0  0.98431  0.83040  0.17796  1.0000
  H   H2870     1.0  0.83903  0.91208  0.06716  1.0000
  H   H2871     1.0  0.82634  0.80371  0.25456  1.0000
  H   H2872     1.0  0.52527  0.85152  0.47062  1.0000
  H   H2873     1.0  0.87167  0.77661  0.11266  1.0000
  H   H2874     1.0  0.90381  0.77487  0.06772  1.0000
  H   H2875     1.0  0.88110  0.76540  0.06753  1.0000
  H   H2876     1.0  0.61724  0.75119  0.28365  1.0000
  H   H2877     1.0  0.74592  0.89957  0.18423  1.0000
  H   H2878     1.0  0.87925  0.79538  0.08879  1.0000
  H   H2879     1.0  0.89458  0.78592  0.11372  1.0000
  C   C1637     1.0  0.97282  0.81843  0.22701  1.0000
  S   S370      1.0  0.78362  0.97602  0.07736  1.0000
  H   H2880     1.0  0.80017  0.96795  0.28165  1.0000
  H   H2881     1.0  0.96060  0.80542  0.26477  1.0000
  C   C1638     1.0  0.51128  0.84893  0.47960  1.0000
  C   C1639     1.0  0.67389  0.91957  0.18234  1.0000
  C   C1640     1.0  0.85446  0.88511  0.14218  1.0000
  N   N90       1.0  0.84355  0.79272  0.30427  1.0000
  H   H2882     1.0  0.68954  0.95874  0.11558  1.0000
  C   C1641     1.0  0.84053  0.84759  0.02780  1.0000
  H   H2883     1.0  0.66439  0.90532  0.49207  1.0000
  H   H2884     1.0  0.51120  0.80933  0.30973  1.0000
  H   H2885     1.0  0.82031  0.77788  0.32536  1.0000
  C   C1642     1.0  0.94849  0.92553  0.01459  1.0000
  H   H2886     1.0  0.81437  0.97940  0.25423  1.0000
  H   H2887     1.0  0.59170  0.77038  0.46148  1.0000
  C   C1643     1.0  0.50697  0.78048  0.30147  1.0000
  C   C1644     1.0  0.53241  0.77873  0.24306  1.0000
  H   H2888     1.0  0.51187  0.90290  0.49157  1.0000
  H   H2889     1.0  0.72739  0.94895  0.14014  1.0000
  H   H2890     1.0  0.98641  0.81959  0.23571  1.0000
  H   H2891     1.0  0.98461  0.80179  0.19508  1.0000
  H   H2892     1.0  0.53644  0.78588  0.30245  1.0000
  H   H2893     1.0  0.92956  0.90338  0.11120  1.0000
  H   H2894     1.0  0.84430  0.88389  0.04227  1.0000
  H   H2895     1.0  0.52764  0.76875  0.32719  1.0000
  C   C1645     1.0  0.64224  0.79704  0.46230  1.0000
  H   H2896     1.0  0.51949  0.77176  0.23963  1.0000
  C   C1646     1.0  0.82473  0.90678  0.07202  1.0000
  H   H2897     1.0  0.64102  0.86769  0.46172  1.0000
  C   C1647     1.0  0.69866  0.92274  0.49765  1.0000
  N   N91       1.0  0.67724  0.92223  0.45810  1.0000
  S   S371      1.0  0.70622  0.98357  0.45927  1.0000
  H   H2898     1.0  0.79908  0.87409  0.07334  1.0000
  H   H2899     1.0  0.55792  0.76576  0.46103  1.0000
  H   H2900     1.0  0.49822  0.85448  0.44214  1.0000
  H   H2901     1.0  0.70853  0.98033  0.08466  1.0000
  H   H2902     1.0  0.82546  0.88297  0.13752  1.0000
  H   H2903     1.0  0.59546  0.77458  0.42628  1.0000
  H   H2904     1.0  0.85223  0.78127  0.26614  1.0000
  C   C1648     1.0  0.79376  0.89117  0.10671  1.0000
  Fe  Fe186     1.0  0.89935  0.81179  0.00818  1.0000
  H   H2905     1.0  0.82143  0.91101  0.02860  1.0000
  H   H2906     1.0  0.70153  0.97471  0.13353  1.0000
  C   C1649     1.0  0.78892  0.79465  0.30138  1.0000
  H   H2907     1.0  0.56150  0.77031  0.32349  1.0000
  H   H2908     1.0  0.70925  0.92082  0.19897  1.0000
  H   H2909     1.0  0.67712  0.89593  0.30387  1.0000
  H   H2910     1.0  0.65474  0.92577  0.43124  1.0000
  H   H2911     1.0  0.71941  0.99129  0.20690  1.0000
  H   H2912     1.0  0.90657  0.90243  0.09880  1.0000
  C   C1650     1.0  0.52747  0.77347  0.30539  1.0000
  H   H2913     1.0  0.95376  0.84504  0.14564  1.0000
  C   C1651     1.0  0.84458  0.81060  0.31816  1.0000
  C   C1652     1.0  0.92779  0.89923  0.01048  1.0000
  H   H2914     1.0  0.68293  0.89350  0.47328  1.0000
  H   H2915     1.0  0.99457  0.75655  0.26551  1.0000
  C   C1653     1.0  0.86440  0.81641  0.32365  1.0000
  H   H2916     1.0  0.79048  0.97397  0.24978  1.0000
  H   H2917     1.0  0.86477  0.81340  0.22649  1.0000
  H   H2918     1.0  0.85016  0.79500  0.21908  1.0000
  H   H2919     1.0  0.66866  0.91537  0.32325  1.0000
  H   H2920     1.0  0.65926  0.90155  0.15855  1.0000
  C   C1654     1.0  0.68396  0.93313  0.47996  1.0000
  H   H2921     1.0  0.95457  0.87865  0.03316  1.0000
  H   H2922     1.0  0.98882  0.83645  0.13463  1.0000
  H   H2923     1.0  0.73648  0.87999  0.17016  1.0000
  H   H2924     1.0  0.96660  0.82756  0.03109  1.0000
  H   H2925     1.0  0.96923  0.90006  0.06542  1.0000
  H   H2926     1.0  0.69979  0.93336  0.43081  1.0000
  C   C1655     1.0  0.71282  0.94538  0.13716  1.0000
  H   H2927     1.0  0.87502  0.91720  0.05423  1.0000
  S   S372      1.0  0.88504  0.88028  0.03856  1.0000
  H   H2928     1.0  0.99628  0.88137  0.22942  1.0000
  H   H2929     1.0  0.65946  0.82538  0.32074  1.0000
  C   C1656     1.0  0.88720  0.76353  0.23766  1.0000
  H   H2930     1.0  0.61471  0.78702  0.47291  1.0000
  H   H2931     1.0  0.72943  0.97251  0.10061  1.0000
  C   C1657     1.0  0.50471  0.88528  0.21839  1.0000
  C   C1658     1.0  0.68478  0.93000  0.15783  1.0000
  H   H2932     1.0  0.83788  0.82262  0.30665  1.0000
  C   C1659     1.0  0.84067  0.80853  0.25583  1.0000
  C   C1660     1.0  0.85526  0.77765  0.31881  1.0000
  H   H2933     1.0  0.70763  0.92646  0.38251  1.0000
  H   H2934     1.0  0.91968  0.88208  0.06363  1.0000
  C   C1661     1.0  0.82352  0.78663  0.30618  1.0000
  H   H2935     1.0  0.65897  0.89278  0.43576  1.0000
  C   C1662     1.0  0.64802  0.96283  0.42168  1.0000
  H   H2936     1.0  0.64642  0.92314  0.16636  1.0000
  H   H2937     1.0  0.57995  0.76085  0.20415  1.0000
  H   H2938     1.0  0.54643  0.77020  0.20518  1.0000
  H   H2939     1.0  0.84237  0.81921  0.21373  1.0000
  H   H2940     1.0  0.63752  0.80724  0.44605  1.0000
  C   C1663     1.0  0.54506  0.76651  0.26180  1.0000
  H   H2941     1.0  0.64968  0.93545  0.46250  1.0000
  H   H2942     1.0  0.85082  0.85302  0.06507  1.0000
  H   H2943     1.0  0.69162  0.94908  0.20154  1.0000
  C   C1664     1.0  0.98991  0.88245  0.04526  1.0000
  C   C1665     1.0  0.92943  0.89068  0.07284  1.0000
  H   H2944     1.0  0.55544  0.79095  0.21730  1.0000
  H   H2945     1.0  0.85828  0.84647  0.31755  1.0000
  C   C1666     1.0  0.96294  0.80224  0.24328  1.0000
  H   H2946     1.0  0.82090  0.87869  0.03836  1.0000
  C   C1667     1.0  0.99510  0.83282  0.03788  1.0000
  H   H2947     1.0  0.72235  0.97169  0.16815  1.0000
  H   H2948     1.0  0.76785  0.89025  0.13251  1.0000
  H   H2949     1.0  0.78274  0.86936  0.13595  1.0000
  H   H2950     1.0  0.68649  0.96399  0.17299  1.0000
  H   H2951     1.0  0.72384  0.95805  0.19969  1.0000
  S   S373      1.0  0.65485  0.99015  0.49910  1.0000
  C   C1668     1.0  0.73281  0.89284  0.18084  1.0000
  H   H2952     1.0  0.63349  0.77199  0.48497  1.0000
  H   H2953     1.0  0.66981  0.92910  0.19848  1.0000
  C   C1669     1.0  0.90623  0.75870  0.28437  1.0000
  N   N92       1.0  0.94218  0.90669  0.02672  1.0000
  H   H2954     1.0  0.71750  0.95654  0.08220  1.0000
  C   C1670     1.0  0.80727  0.87809  0.08987  1.0000
  H   H2955     1.0  0.91966  0.91695  0.05409  1.0000
  C   C1671     1.0  0.72040  0.90622  0.16401  1.0000
  H   H2956     1.0  0.87022  0.80681  0.33975  1.0000
  H   H2957     1.0  0.68240  0.90760  0.19095  1.0000
  H   H2958     1.0  0.72535  0.88866  0.20067  1.0000
  H   H2959     1.0  0.66554  0.86500  0.46742  1.0000
  H   H2960     1.0  0.67490  0.94098  0.14950  1.0000
  H   H2961     1.0  0.99377  0.82728  0.05867  1.0000
  H   H2962     1.0  0.67188  0.93765  0.49389  1.0000
  C   C1672     1.0  0.51580  0.79119  0.48231  1.0000
  H   H2963     1.0  0.68380  0.99421  0.41260  1.0000
  H   H2964     1.0  0.83934  0.75289  0.31135  1.0000
  C   C1673     1.0  0.97764  0.80820  0.11001  1.0000
  H   H2965     1.0  0.55198  0.75507  0.25014  1.0000
  C   C1674     1.0  0.61913  0.75185  0.39225  1.0000
  H   H2966     1.0  0.59189  0.75452  0.33305  1.0000
  H   H2967     1.0  0.64354  0.76388  0.43749  1.0000
  H   H2968     1.0  0.52867  0.79231  0.25184  1.0000
  H   H2969     1.0  0.96909  0.79684  0.10436  1.0000
  S   S374      1.0  0.60650  0.88984  0.49759  1.0000
  H   H2970     1.0  0.80077  0.93926  0.02962  1.0000
  N   N93       1.0  0.61518  0.75417  0.44393  1.0000
  H   H2971     1.0  0.99260  0.80474  0.10398  1.0000
  H   H2972     1.0  0.91194  0.75444  0.10618  1.0000
  H   H2973     1.0  0.54147  0.78333  0.50127  1.0000
  H   H2974     1.0  0.56054  0.77218  0.42506  1.0000
  H   H2975     1.0  0.99704  0.83172  0.30422  1.0000
  H   H2976     1.0  0.91667  0.75031  0.04491  1.0000
  C   C1675     1.0  0.99693  0.84238  0.28762  1.0000
  H   H2977     1.0  0.54976  0.75062  0.43765  1.0000
  H   H2978     1.0  0.99132  0.89443  0.30212  1.0000
  C   C1676     1.0  0.57991  0.74988  0.43906  1.0000
  H   H2979     1.0  0.91462  0.90809  0.01169  1.0000
  H   H2980     1.0  0.64882  0.87442  0.49269  1.0000
  H   H2981     1.0  0.96567  0.89217  0.00605  1.0000
  H   H2982     1.0  0.84485  0.83249  0.03029  1.0000
  H   H2983     1.0  0.50309  0.79448  0.33890  1.0000
  H   H2984     1.0  0.52877  0.75213  0.48449  1.0000
  H   H2985     1.0  0.94807  0.96478  0.01383  1.0000
  H   H2986     1.0  0.50982  0.75208  0.27188  1.0000
  C   C1677     1.0  0.85398  0.75733  0.31037  1.0000
  H   H2987     1.0  0.61101  0.75056  0.48729  1.0000
  H   H2988     1.0  0.61348  0.98230  0.47789  1.0000
  H   H2989     1.0  0.86030  0.75604  0.28953  1.0000
  H   H2990     1.0  0.82748  0.84899  0.01718  1.0000
  C   C1678     1.0  0.60409  0.98923  0.49331  1.0000
  H   H2991     1.0  0.99421  0.74904  0.30006  1.0000
  C   C1679     1.0  0.62230  0.92348  0.50207  1.0000
  H   H2992     1.0  0.86439  0.75269  0.00424  1.0000
  H   H2993     1.0  0.61992  0.97769  0.52579  1.0000
  H   H2994     1.0  0.75553  0.97557  0.55472  1.0000
  Fe  Fe187     1.0  0.66104  0.97695  0.53974  1.0000
  S   S375      1.0  0.65076  0.94822  0.55657  1.0000
  S   S376      1.0  0.69193  0.98154  0.53359  1.0000
  H   H2995     1.0  0.57505  0.97761  0.60844  1.0000
  H   H2996     1.0  0.52806  0.80203  0.51508  1.0000
  C   C1680     1.0  0.83047  0.98083  0.86469  1.0000
  Fe  Fe188     1.0  0.59258  0.81850  0.52722  1.0000
  C   C1681     1.0  0.85526  0.93141  0.99581  1.0000
  S   S377      1.0  0.60301  0.79311  0.55260  1.0000
  H   H2997     1.0  0.79546  0.97946  0.89127  1.0000
  H   H2998     1.0  0.94404  0.88430  0.97890  1.0000
  H   H2999     1.0  0.69300  0.90992  0.50869  1.0000
  S   S378      1.0  0.57879  0.84543  0.54154  1.0000
  N   N94       1.0  0.59285  0.97810  0.57107  1.0000
  H   H3000     1.0  0.54598  0.80640  0.57998  1.0000
  H   H3001     1.0  0.51910  0.79559  0.55926  1.0000
  H   H3002     1.0  0.92217  0.88969  0.94401  1.0000
  H   H3003     1.0  0.95778  0.78001  0.98667  1.0000
  S   S379      1.0  0.96179  0.84142  0.97591  1.0000
  S   S380      1.0  0.90568  0.83990  0.98584  1.0000
  C   C1682     1.0  0.94055  0.95915  0.99785  1.0000
  H   H3004     1.0  0.73255  0.98177  0.50515  1.0000
  C   C1683     1.0  0.52684  0.78783  0.50787  1.0000
  C   C1684     1.0  0.57396  0.95029  0.55939  1.0000
  H   H3005     1.0  0.83725  0.95663  0.91480  1.0000
  H   H3006     1.0  0.71087  0.94799  0.50873  1.0000
  C   C1685     1.0  0.57561  0.92915  0.55679  1.0000
  H   H3007     1.0  0.83692  0.99639  0.81148  1.0000
  C   C1686     1.0  0.59592  0.77005  0.54915  1.0000
  H   H3008     1.0  0.74585  0.95799  0.53663  1.0000
  H   H3009     1.0  0.60524  0.75996  0.58772  1.0000
  C   C1687     1.0  0.63232  0.93649  0.51434  1.0000
  H   H3010     1.0  0.56482  0.78981  0.58749  1.0000
  C   C1688     1.0  0.90896  0.76331  0.98212  1.0000
  C   C1689     1.0  0.84006  0.97183  0.91095  1.0000
  C   C1690     1.0  0.87411  0.96434  0.91959  1.0000
  H   H3011     1.0  0.60432  0.95076  0.56097  1.0000
  C   C1691     1.0  0.63865  0.93198  0.53987  1.0000
  C   C1692     1.0  0.63490  0.91424  0.55286  1.0000
  C   C1693     1.0  0.62509  0.90109  0.54040  1.0000
  C   C1694     1.0  0.49793  0.77357  0.53202  1.0000
  C   C1695     1.0  0.60519  0.97823  0.52068  1.0000
  H   H3012     1.0  0.91787  0.77513  0.97828  1.0000
  H   H3013     1.0  0.63967  0.91058  0.57268  1.0000
  H   H3014     1.0  0.62244  0.88746  0.55057  1.0000
  H   H3015     1.0  0.82594  0.97415  0.81121  1.0000
  H   H3016     1.0  0.81315  0.99577  0.80260  1.0000
  C   C1696     1.0  0.59148  0.95714  0.57135  1.0000
  H   H3017     1.0  0.55049  0.76530  0.56590  1.0000
  H   H3018     1.0  0.57190  0.95715  0.53912  1.0000
  C   C1697     1.0  0.52419  0.78080  0.55703  1.0000
  C   C1698     1.0  0.54544  0.78001  0.56116  1.0000
  S   S381      1.0  0.79747  0.98047  0.00157  1.0000
  H   H3019     1.0  0.60269  0.98131  0.62526  1.0000
  H   H3020     1.0  0.54304  0.75500  0.52677  1.0000
  H   H3021     1.0  0.83944  0.97729  0.93132  1.0000
  H   H3022     1.0  0.77816  0.95624  0.95781  1.0000
  C   C1699     1.0  0.57655  0.98580  0.58852  1.0000
  Fe  Fe189     1.0  0.82891  0.97670  0.99792  1.0000
  H   H3023     1.0  0.79637  0.98300  0.93981  1.0000
  H   H3024     1.0  0.61363  0.95978  0.61416  1.0000
  H   H3025     1.0  0.88874  0.96431  0.91032  1.0000
  C   C1700     1.0  0.61126  0.98219  0.58150  1.0000
  H   H3026     1.0  0.60119  0.96377  0.51820  1.0000
  H   H3027     1.0  0.59109  0.95062  0.59233  1.0000
  H   H3028     1.0  0.86494  0.98639  0.89149  1.0000
  H   H3029     1.0  0.63401  0.97583  0.64125  1.0000
  H   H3030     1.0  0.54168  0.78611  0.60349  1.0000
  H   H3031     1.0  0.99053  0.77840  0.96776  1.0000
  C   C1701     1.0  0.86070  0.97213  0.89879  1.0000
  H   H3032     1.0  0.51716  0.77233  0.57437  1.0000
  H   H3033     1.0  0.83261  0.96588  0.86002  1.0000
  H   H3034     1.0  0.90752  0.90544  0.96399  1.0000
  H   H3035     1.0  0.58769  0.92557  0.54243  1.0000
  H   H3036     1.0  0.94084  0.90903  0.97016  1.0000
  H   H3037     1.0  0.51599  0.90356  0.52664  1.0000
  H   H3038     1.0  0.86263  0.96318  0.88148  1.0000
  C   C1702     1.0  0.78307  0.95735  0.93605  1.0000
  C   C1703     1.0  0.80032  0.96928  0.93169  1.0000
  H   H3039     1.0  0.56272  0.92441  0.54899  1.0000
  H   H3040     1.0  0.55368  0.78574  0.54287  1.0000
  H   H3041     1.0  0.85542  0.91445  0.96197  1.0000
  C   C1704     1.0  0.81629  0.99031  0.84540  1.0000
  H   H3042     1.0  0.56120  0.95326  0.57282  1.0000
  H   H3043     1.0  0.57772  0.98810  0.53640  1.0000
  C   C1705     1.0  0.98121  0.84050  0.99548  1.0000
  C   C1706     1.0  0.61381  0.97528  0.61132  1.0000
  H   H3044     1.0  0.62302  0.97561  0.56926  1.0000
  C   C1707     1.0  0.74384  0.97259  0.54264  1.0000
  H   H3045     1.0  0.69207  0.93919  0.53234  1.0000
  C   C1708     1.0  0.59876  0.75633  0.57013  1.0000
  C   C1709     1.0  0.63261  0.98084  0.61985  1.0000
  H   H3046     1.0  0.98522  0.79943  0.98444  1.0000
  C   C1710     1.0  0.59223  0.98738  0.54287  1.0000
  N   N95       1.0  0.51899  0.77439  0.53056  1.0000
  H   H3047     1.0  0.95029  0.95786  0.97950  1.0000
  H   H3048     1.0  0.87076  0.94974  0.92694  1.0000
  H   H3049     1.0  0.63366  0.99631  0.61785  1.0000
  H   H3050     1.0  0.95799  0.92400  0.99599  1.0000
  H   H3051     1.0  0.57748  0.92146  0.57666  1.0000
  H   H3052     1.0  0.73043  0.97379  0.55537  1.0000
  H   H3053     1.0  0.56321  0.98405  0.57928  1.0000
  H   H3054     1.0  0.61379  0.99746  0.57880  1.0000
  H   H3055     1.0  0.80850  0.95767  0.89336  1.0000
  Fe  Fe190     1.0  0.59479  0.86038  0.50575  1.0000
  H   H3056     1.0  0.64433  0.97431  0.60733  1.0000
  S   S382      1.0  0.84234  0.95033  0.97970  1.0000
  H   H3057     1.0  0.78655  0.94301  0.92967  1.0000
  H   H3058     1.0  0.80268  0.98342  0.84815  1.0000
  Fe  Fe191     1.0  0.55729  0.84070  0.51268  1.0000
  H   H3059     1.0  0.81116  0.96223  0.94396  1.0000
  C   C1711     1.0  0.58745  0.76506  0.52650  1.0000
  C   C1712     1.0  0.80717  0.97184  0.90126  1.0000
  C   C1713     1.0  0.54963  0.79129  0.58452  1.0000
  C   C1714     1.0  0.86947  0.89957  0.99439  1.0000
  C   C1715     1.0  0.85977  0.91515  0.98209  1.0000
  H   H3060     1.0  0.90960  0.88081  0.97478  1.0000
  N   N96       1.0  0.82524  0.98186  0.89452  1.0000
  C   C1716     1.0  0.74354  0.98618  0.51747  1.0000
  H   H3061     1.0  0.92468  0.93566  0.99130  1.0000
  H   H3062     1.0  0.92891  0.96927  0.99274  1.0000
  S   S383      1.0  0.52682  0.84187  0.52864  1.0000
  H   H3063     1.0  0.77152  0.96383  0.92452  1.0000
  H   H3064     1.0  0.58535  0.77544  0.51006  1.0000
  H   H3065     1.0  0.87229  0.88697  0.98387  1.0000
  C   C1717     1.0  0.98748  0.78398  0.98774  1.0000
  C   C1718     1.0  0.91727  0.89292  0.96491  1.0000
  C   C1719     1.0  0.96912  0.77595  0.00013  1.0000
  C   C1720     1.0  0.89036  0.76609  0.99238  1.0000
  H   H3066     1.0  0.50650  0.88310  0.51529  1.0000
  H   H3067     1.0  0.87310  0.97312  0.93710  1.0000
  H   H3068     1.0  0.97053  0.76044  0.00241  1.0000
  C   C1721     1.0  0.93403  0.89658  0.98043  1.0000
  H   H3069     1.0  0.84406  0.98727  0.85855  1.0000
  C   C1722     1.0  0.61874  0.90565  0.51485  1.0000
  C   C1723     1.0  0.52751  0.75485  0.52802  1.0000
  C   C1724     1.0  0.50838  0.84414  0.50732  1.0000
  H   H3070     1.0  0.71487  0.92747  0.53111  1.0000
  C   C1725     1.0  0.50643  0.89862  0.51255  1.0000
  C   C1726     1.0  0.87886  0.75063  0.99665  1.0000
  Fe  Fe192     1.0  0.93471  0.83383  0.99975  1.0000
  H   H3071     1.0  0.63509  0.95003  0.50404  1.0000
  S   S384      1.0  0.88078  0.78872  0.99899  1.0000
  C   C1727     1.0  0.70443  0.93519  0.51872  1.0000
  C   C1728     1.0  0.82361  0.98902  0.81591  1.0000
  H   H3072     1.0  0.75718  0.98474  0.50546  1.0000
