data_image0
_chemical_formula_structural       CHCH3FeH3FeHFeCHC2H3SHCH3C3HSH3CH2CH2SHCHCH6CH3NH3CHCH2CH2CH2C2SHCSHC2H2CSH8C4HCSHCH6C2HNCSCH2C2HCHC2HCHC2H6CHCHFeSHFeS2FeS2FeSFeS3HFeS2FeSFeCS2C2HCH2CH4C5H2C2H5C6H4C2H3CH3S2H2CHC2H8CH2NH3CH7C2H3CH5SHC2N2CFeC2H3CHCHCH3C2HCH7NC4HC5HCH22CH5CH2CH5CH2C3HC2H2C4H2CHCH3C2H2CH3CHC2HCH3C2HCHCH2CH3CHNHC3H4CH2NHS2HSH6CSFeSCFeSFeS3CSCFeS2FeSFeSFeS3FeS2FeS2FeSFeS3C2H4FeSH4C6H4C6H4C6H6C6HCH2C6H4CHC3FeCNH5C6H3C3H2CH2CNC2HC2HC4H8CHCH10C2HC2H6CH3NH3CH4NHC6HC2H10CH3C2H2CH4NC12H28SH2SH5C3H2C2H3SHCHCH2C2Fe2H4C2H4C2H3CH3FeH4CH2CH2NCH2SH4C2HSCH4CH2CH5C3H3CHNC4HCH2CH2CHC2HC2H2CH3CH2CH4CNCH5CH3CH2S2H3C2H3CH2C3H6C2H3SHC3HC2H2CH2FeCHCH3C2HC3H9C3H4CNH5CH2CH5CH3CH2SCHCSH2C2H2CH3CH4FeSH2SH3SCHFeS2C6H3SC6H4FeH2CH2FeH2C6H3C6H3CHCH3CNHFeH2SH5FeCFeH3CH4SHCH3CH3C2HCHSH3CHCHSHC5SHSCH4CHCH14C2H2CSHSH2CH3CH5CH2CH2CSHCNC2H2C2H3NC4HC3H2C2H2C2H9NH3SH2CH2CFeH3CH2CHSH3CHFeS2H2CFeSFeCSH2CFeHCHNHCSHCH3CHCHC3FeSC2H3S2H3FeHC6H2SHC6H5CHFeH4CNHC3HC3H2NCH2SHCH3C2H4SH3CH4CH3SHC2H4C4HC2H4C2H2CH4SH2CHSH8SCH4FeH6CHC2H2CFeSHFeS2FeSFeS3HFeS2FeSHFeSFeS3CHCH9CHCHC6H4C2HC3H7SH2C5H2CH3C2SH4C6H4C3HC2HCH5C2H5CH4NCH3CHC2N2H2C3HC2HCH3SH8C2HCH5CH2C4HC4H5SH4CHC4H5C2HCHCH3C2H7SH5C2SHCHC4H2CH4C2H5CH3CH4NH4CH3SH5CH3CHFeH3CH4CH2CSH2CH2C3H2C2H5SHFeCSC2H2FeS2FeHFeSFeHS2CFeS2FeS2FeSFeS3CSFeS2CH2FeSFeSHSC3H2CSC6H4CH2CHC3H5C3H4C2HC3H3C6H4C6H9C2H2CHCH2C2HCHCH2C2H6CH5CH5CSCH2C2HNH2CH2SH4C3H6FeHNC12H23CHC2HC3HSH6NC12H16CHCH9NC2H5NHCH4SC2HC2HFeHCH6FeH5CHSFeC3H3CH3C2HCH2C3H4NC2HCHSH5CH2C3SHCNH2FeH2CHCHC2HSCHS2CH2CH9CH2CH2CH3CH2C2H4CH5NHCH2C3H8CHCHCHCH4C2H3CHCHSH4CH5SCH3CH3C2HCHC3SHCH5SCFeH5SC3SNCNHC3H4CH5C2H3C3H5CH4CHC2H2FeHCHSH2CSHCH6CFeCHSH2SC2H2SCHCH2CHC2HC2HSFeSHFeS2FeSFeHFeS3H2FeHSH3CS2FeS2H2CFeSH2S2FeS2CFeHCSHC6H4C2H6C8H4C6H4NC6H6CH2CHCH2FeH4C2H5CH3C2NC2NHC3HNC2H2C2H3SHCH3CH2CHFeH6CH2C3H3C2H2NC2H5NH3CH2C2HNCH2CH2CH2C3H4NHCH2C4SHNH3CHCH6CHCH2NC12H17CH14SH2CH2SC2FeHCHC2H3CH5C2H2C4H3CFe2H2C2H3C2HCH2CHCH2C3H2C2HCH2CH2CHCH7CHC3H6CH3C2HCHSH3CHCH8CH2CS2H3SHCH7CHFeSCFeS2FeS2FeSFeS3FeS2HSH3SH2C6H4C2SH2CH4C6H9C6H3CHCHFeCH4C2H3C2H2C2H5SCHCH2SH4NC11H26CHCHC3H5CH5CHCFeH2FeH3CHC2HCH2CH3CH2C3H2CH4SC2H2CNC8H2CSH13SH7CH5CH2C4NHNC2HCHC3HCHC2H4FeH3CH2CSH4FeH5CH2SH2C3SH3S2H2SFeCSHCH3CHS2FeSCFeH2S3HC2HC6HCH4CFeC7H3CH3FeHCH3C5H5FeCH2CHSH6S2CHCHSH3C2FeH6SCFeHCHNCHCHSH3C2H5CSH2CHCH4CH8CHCHCNC12H28CH3FeCHCH3NH4C2HSH2FeH2CH4CHSH2C2FeH2CHCSCHN2CH4SH3FeS2FeSHCHFeSHSHCHCH2CH2CHFeS2FeS2FeSFeS3FeS3FeSFeS3FeSFeSFe2S2CH2C2HC6H4C2H2C4H2CH2C6H4C6H4C2HC2H2CHC6H4C6H4C4H4C3H4SCHNC11H26CH2CHCHC2HC2HC2S2H4C2H2CH11CH3CHNCHNC3HCHCHC2H6SH10CH4CHCHCHSH4CH3CSH4FeCH2C2HCH3FeH3CH3CH8SHC2HC4HCNC2HCH2CH3C4H3C2H5C2SC2H2CH8NH3C2H2NH3CH6SC2HCHCH3CHCH2CH4CNH2C2HNCH2CH6CHNC2H2C2FeHCHSHCSHCHC2H7FeHSHC3H4CHCH2CHCH2C2H3CH2C2H2CH4CH4CSHCH9CH7CH4CH3NH3C2H2C2H2CH4CHCFeC2H3C3H2SH9C2H2CH4SH2SHCSHFeSFeS2CHFeS2H3SCNSHFeSHFeSCHSHCHFeS2FeS2FeSFeS3FeS2HFeSHSH6CHC2H2C3HCH2C6H3C7H4C2HSHC6H5C2H2C7H10C2H2SH3CSH2C5H4C2NC12H23CH4NC5HC4HCH10FeH12SCH3CH11NC10H26CH4C2HCH3C3H3C2HC3H2CH2CH7CH3FeC2H2CSHSH5FeC3HFeH2CNHCH7CH2CH3C3SFeS2FeSHFeSFeSCFeSFeS2FeSFeS3H3FeSHCH6C7H5C4HC6H5CH2C6H4CH6C2H4SHNCH2NC4FeHC6HCH6CH10CH4CH3C2SCH2CHCHCHCNCH3C2H4CH3C2SC2FeN2C11H23CH2NH4C3H2CHCH2CH2CH2SHC2HCH2CSH4NSHC2SH3CH4CH2C2H2CH4CH7NC5HC4HCSH17CH3CH5CH4CH2C2H3CH2CH3C3H4CHCFeH2SH3CHCSC2SHCH4C4HCH11C4H3CH5CH11CFeH6C3SH4CH8S2C2HC2HC2H2SHC2FeS2CSHFeSFeS2HFeHSFeHSH2S2CH3CHSC2H7CH3C6H4C6H3FeH2C3H3C2H2C2H4CH2C2HSHNC12H29CH5CH2C3HCHCH2CH5CHCH6FeH3CH4CHC2H2NH2C2H2NH2CH3CNH5CFeHC2H3C2SC2NCNCHC2H3CHCH4FeS2FeS2FeSFeS3H2SHFeS2FeS2FeSFeS3FeS2FeS2FeHFeS3FeS2FeSFeSFeS3FeHSCH3C3H3C6H4CHC6H4C6H4C6H4C6H3FeC6H4C2H2CH3CHSC6H4C2HCFeHCHCH5CH5CH5C2H3CHCH8NC12H26CHSNC6NCHC2H13NHCH6NC11H8CH13CH5CNCHC3HCHCH14CH7CHC2H2CHC3SCH4SH4CHC2SCH10NC12H27NC11H17SH3CHCFeH3CH5CHCH3C3NHNFeHCHCH3CHC2H6CH2CH2C4HCFeHCHCHCH4CH2CH2C3H8CH2SC4HCSHSC2HSCH2CHCH9FeH5C2H3CH8CHC4H4C2H2C2HC2HCH4CHCHC2SH2C2NCH2FeSCHSHFeSHSHSFeS2FeS2FeSFeS3C4SH2C6H4CH4CH2FeH3C4H3CNSFeHC7H2CH3C2H3FeH2CH3C2H3C2HSNH7CH2FeCHCH2CH2C4SH11CHC4H2CH5FeSH6NHCHC2HC3NH2CH5CH15C2HCHCH2C2H3C2H3C2HCH3C2H3CH4C3H3CH8CH2C2H2CHC2HC2HCH3CH2SH3CH7CH3CSH3CH3SCH2CHSHCSH4FeS2FeSHFeSFeS3FeS2FeSFeSFeS3FeS2HCFeSFeS3HCHSH2C3H2C6H4C6H4C4H8C4H3CH2SCH3C6H3CH4SH2C2HCH2CHCNCHC2HC2H2C2HCSH5C2H3CHCH8CHCNHCH3CH7CH4C3NC12H28CHCH5C2H2CH5FeNCH7CH2CH2CSNH2C2NHCHC2HNC8HC2H14FeH7C3HC2H2CHCH12CH2CH2CHCH2NC6H3C2SH13C4HCH7C3HCH2C2HC2HCH3CS2CHCH2CHC3HC2H4C2H3SCHFe2HCH2CH2SH4SH6C2H3FeHCHCH2C2HCH9FeHSCSHSH4CHCH3FeS2FeS2FeSFeS3FeS2FeS2FeSFeS3H3FeS2HFeHFeS2H2C2H4CHC6H4CHCHC2H3C6H4C3HC7H4C2H3C4H4CFeHSH4CH4C6H4C6H4C4H10NC12H29CH3C2HC2H6SHCSH4NCHCH2C2HC2H8NH2NC6HC2H13C2HC2H2C3H2CH4CH5CH2C3SCFeH3C3S2HCHCH2CH4NC2HC2HSC3H11NH8FeCHC3FeCH2C2HC2HCH4NH6C2H5NC2HC2FeCH2C2HCH4C2HCH6CH2NC2SHNH3CH4C2H2CH2C3H2CHCHCH2C3H2SHC3SCSH3FeH6FeHCH2C2HCH3CH15C2HC2SHSC2H6CS3HFeS2FeS2FeSFeS3HFeH2FeS3FeSFeSFeS2FeHSFeSHS2H3C6H6C2HCH4C7H2NSC6H4C6H2C8H5CNC4HC5HCH6CHSHC2H8CH7NC11H26SHSH2CH2C4H2C2HCH2CH3NCHC2HC2H5CH21CH4CH4C2HSH12NH4CH2CH6C2SC2H7NC2HC3HC4FeH8CH3FeH3CH2CH2CHC2H3CHCHC2H2C2H3CH5CHC2H4C2NC2HCHCHC3HFeCH2SH2CHCHCHC2H3CH2CHC2HCH3CH5CH3NFeCSHC2S2CHC2SHCH5SCHC2FeHCH7C2H5CH2CH2C2HC2H5NHC3FeCH5CHNH2C2H5C2H2C2H4C2HCH5CFeCH3CH8CFeHSFeS2FeS2FeCHCSHCSHSC2FeS2FeS2FeSFeHS2FeS2FeS2FeSFeHS2HC2HFeCHC4HC6H4C2H2SC2HNH2CHFeSH7C2SHC3FeH2CH4C7H7C6H4C4H2CH4C4HCH5CH7CH2CH2C2H5CH4CHC3HSCHCFeHCH2NCHSHSHCHCH3SHCHCH2SHCHSH4C2H3CSHCN2HNC10HCH22CH3C2H7CHC7H10CHNC10H27C2HCHCH6CHSHCH6CH10CH2CH13SC2H2CHCH2C2FeHCH2NH2NCH3CH5C5FeC4H2FeS2HC4H4FeS2FeS2FeSFeS3FeSHFeS2FeSFeHS2C6H3C6H5CHCHC2FeH2C7H4CH6SCHNC12H16CHCH9CH5C4HC2HNHC3HNH7CH5FeC4HCH2CH5CHCH5CH3CHSH4CH4CSCHCHCH6CH5SCH4CH4CHS2CHCH2C2H2CH2S2H2CHC2H2CH3NCHCH2C2H3SCH7CNHC3HC2SH3CH4CH5CHC3HC2HCSH2CHCH2CH2C2H8CSFeHCHNHC2H3CHCHCHC2H3CHCH3NH7C2H4FeHCHCH3CH2CH3CHC2HC2H4CH3C2H3CHFeSHFeSCSCH2C2H3CHC2HSHCHC2FeSH2CH7SCHSHFeC2H2CH7CHSH6
_chemical_formula_sum              "C2592 H4608 Fe288 S576 N144"
_cell_length_a       72.0046
_cell_length_b       71.9997
_cell_length_c       72.2237
_cell_angle_alpha    75.0767
_cell_angle_beta     75.2143
_cell_angle_gamma    74.8662

_space_group_name_H-M_alt    "P 1"
_space_group_IT_number       1

loop_
  _space_group_symop_operation_xyz
  'x, y, z'

loop_
  _atom_site_type_symbol
  _atom_site_label
  _atom_site_symmetry_multiplicity
  _atom_site_fract_x
  _atom_site_fract_y
  _atom_site_fract_z
  _atom_site_occupancy
  C   C1        1.0  0.26996  0.44604  0.11001  1.0000
  H   H1        1.0  0.04662  0.47206  0.18657  1.0000
  C   C2        1.0  0.14874  0.43059  0.04938  1.0000
  H   H2        1.0  0.19347  0.48356  0.05012  1.0000
  H   H3        1.0  0.23194  0.42829  0.07432  1.0000
  H   H4        1.0  0.22169  0.41959  0.16591  1.0000
  Fe  Fe1       1.0  0.32040  0.40042  0.16489  1.0000
  H   H5        1.0  0.18896  0.44139  0.21034  1.0000
  H   H6        1.0  0.14292  0.40571  0.21741  1.0000
  H   H7        1.0  0.23944  0.40923  0.21357  1.0000
  Fe  Fe2       1.0  0.30716  0.37612  0.20506  1.0000
  H   H8        1.0  0.22384  0.46499  0.04188  1.0000
  Fe  Fe3       1.0  0.13303  0.47576  0.20148  1.0000
  C   C3        1.0  0.25449  0.44825  0.12604  1.0000
  H   H9        1.0  0.06800  0.43323  0.23072  1.0000
  C   C4        1.0  0.20573  0.42386  0.17181  1.0000
  C   C5        1.0  0.20508  0.43559  0.20916  1.0000
  H   H10       1.0  0.20175  0.43984  0.17144  1.0000
  H   H11       1.0  0.21221  0.44456  0.19556  1.0000
  H   H12       1.0  0.11261  0.43228  0.19205  1.0000
  S   S1        1.0  0.23123  0.46199  0.12242  1.0000
  H   H13       1.0  0.17867  0.42481  0.16297  1.0000
  C   C6        1.0  0.25779  0.43991  0.14503  1.0000
  H   H14       1.0  0.23784  0.41911  0.18895  1.0000
  H   H15       1.0  0.21010  0.37296  0.22025  1.0000
  H   H16       1.0  0.15597  0.41479  0.05255  1.0000
  C   C7        1.0  0.22948  0.44437  0.06833  1.0000
  C   C8        1.0  0.18170  0.48276  0.04321  1.0000
  C   C9        1.0  0.27671  0.42984  0.14794  1.0000
  H   H17       1.0  0.25584  0.47327  0.99129  1.0000
  S   S2        1.0  0.14860  0.44483  0.19944  1.0000
  H   H18       1.0  0.27932  0.42371  0.16257  1.0000
  H   H19       1.0  0.24589  0.44173  0.15744  1.0000
  H   H20       1.0  0.20279  0.46489  0.98795  1.0000
  C   C10       1.0  0.09759  0.43630  0.20080  1.0000
  H   H21       1.0  0.30168  0.47527  0.09364  1.0000
  H   H22       1.0  0.21279  0.47091  0.21184  1.0000
  C   C11       1.0  0.31600  0.47720  0.08388  1.0000
  H   H23       1.0  0.20867  0.42644  0.05188  1.0000
  H   H24       1.0  0.06921  0.48299  0.20004  1.0000
  S   S3        1.0  0.00539  0.47388  0.19695  1.0000
  H   H25       1.0  0.32691  0.48473  0.05235  1.0000
  C   C12       1.0  0.20561  0.44282  0.04834  1.0000
  H   H26       1.0  0.21546  0.46853  0.16197  1.0000
  C   C13       1.0  0.22484  0.44906  0.04790  1.0000
  H   H27       1.0  0.14354  0.43400  0.03541  1.0000
  H   H28       1.0  0.08844  0.42672  0.19932  1.0000
  H   H29       1.0  0.28544  0.39895  0.23093  1.0000
  H   H30       1.0  0.10860  0.44294  0.22259  1.0000
  H   H31       1.0  0.21732  0.45199  0.07849  1.0000
  H   H32       1.0  0.21992  0.42821  0.01685  1.0000
  C   C14       1.0  0.21370  0.44430  0.01318  1.0000
  H   H33       1.0  0.22607  0.45174  0.01099  1.0000
  H   H34       1.0  0.13576  0.43332  0.06130  1.0000
  H   H35       1.0  0.23752  0.44099  0.03861  1.0000
  N   N1        1.0  0.21024  0.41413  0.20786  1.0000
  H   H36       1.0  0.07352  0.45597  0.22994  1.0000
  H   H37       1.0  0.09131  0.45184  0.19479  1.0000
  H   H38       1.0  0.18462  0.38487  0.22244  1.0000
  C   C15       1.0  0.05394  0.48501  0.20688  1.0000
  H   H39       1.0  0.26736  0.45167  0.09534  1.0000
  C   C16       1.0  0.14890  0.43118  0.22328  1.0000
  H   H40       1.0  0.19858  0.40446  0.15711  1.0000
  H   H41       1.0  0.18664  0.42445  0.03234  1.0000
  C   C17       1.0  0.20825  0.44886  0.99276  1.0000
  H   H42       1.0  0.30073  0.43448  0.10040  1.0000
  H   H43       1.0  0.19686  0.44105  0.99279  1.0000
  C   C18       1.0  0.29223  0.42801  0.13182  1.0000
  H   H44       1.0  0.16717  0.43982  0.06266  1.0000
  H   H45       1.0  0.18906  0.46804  0.22710  1.0000
  C   C19       1.0  0.18090  0.44058  0.03131  1.0000
  C   C20       1.0  0.09871  0.43363  0.22221  1.0000
  S   S4        1.0  0.12133  0.48428  0.23062  1.0000
  H   H46       1.0  0.19473  0.44732  0.06115  1.0000
  C   C21       1.0  0.24092  0.38740  0.19777  1.0000
  S   S5        1.0  0.32084  0.36830  0.17576  1.0000
  H   H47       1.0  0.15464  0.45900  0.04554  1.0000
  C   C22       1.0  0.26188  0.38580  0.18578  1.0000
  C   C23       1.0  0.02106  0.48104  0.20791  1.0000
  H   H48       1.0  0.23246  0.38306  0.18938  1.0000
  H   H49       1.0  0.24139  0.37662  0.21184  1.0000
  C   C24       1.0  0.28880  0.43607  0.11290  1.0000
  S   S6        1.0  0.28370  0.36124  0.22579  1.0000
  H   H50       1.0  0.24302  0.44947  0.06752  1.0000
  H   H51       1.0  0.19357  0.47662  0.17908  1.0000
  H   H52       1.0  0.26862  0.37020  0.18501  1.0000
  H   H53       1.0  0.26187  0.39448  0.17065  1.0000
  H   H54       1.0  0.27100  0.39123  0.19263  1.0000
  H   H55       1.0  0.19909  0.42904  0.14306  1.0000
  H   H56       1.0  0.28098  0.47849  0.15577  1.0000
  H   H57       1.0  0.20223  0.39660  0.19175  1.0000
  C   C25       1.0  0.19480  0.42023  0.15795  1.0000
  C   C26       1.0  0.31339  0.48020  0.12525  1.0000
  C   C27       1.0  0.23230  0.40834  0.20196  1.0000
  C   C28       1.0  0.29160  0.47436  0.21327  1.0000
  H   H58       1.0  0.27390  0.45287  0.23045  1.0000
  C   C29       1.0  0.16293  0.44356  0.04823  1.0000
  S   S7        1.0  0.30378  0.40875  0.19326  1.0000
  H   H59       1.0  0.18028  0.47708  0.01532  1.0000
  C   C30       1.0  0.19998  0.41210  0.19289  1.0000
  H   H60       1.0  0.18385  0.41664  0.19775  1.0000
  H   H61       1.0  0.17459  0.44607  0.01790  1.0000
  H   H62       1.0  0.32643  0.46286  0.08473  1.0000
  H   H63       1.0  0.30608  0.47316  0.05948  1.0000
  H   H64       1.0  0.17150  0.47483  0.05469  1.0000
  H   H65       1.0  0.31037  0.46656  0.12320  1.0000
  C   C31       1.0  0.20230  0.48046  0.16408  1.0000
  C   C32       1.0  0.19082  0.47259  0.02540  1.0000
  H   H66       1.0  0.22700  0.43597  0.22561  1.0000
  N   N2        1.0  0.19748  0.45046  0.02983  1.0000
  C   C33       1.0  0.04107  0.47872  0.19928  1.0000
  S   S8        1.0  0.31615  0.41604  0.13468  1.0000
  C   C34       1.0  0.20276  0.40239  0.22778  1.0000
  H   H67       1.0  0.10520  0.41797  0.22734  1.0000
  H   H68       1.0  0.31802  0.47622  0.13962  1.0000
  C   C35       1.0  0.29473  0.46516  0.19557  1.0000
  C   C36       1.0  0.19794  0.38238  0.22859  1.0000
  H   H69       1.0  0.27448  0.47422  0.13483  1.0000
  C   C37       1.0  0.24333  0.48543  0.99218  1.0000
  H   H70       1.0  0.20336  0.47959  0.01712  1.0000
  C   C38       1.0  0.20521  0.46274  0.22573  1.0000
  C   C39       1.0  0.21094  0.44061  0.22633  1.0000
  H   H71       1.0  0.19334  0.48157  0.15322  1.0000
  C   C40       1.0  0.14485  0.41234  0.22845  1.0000
  H   H72       1.0  0.30459  0.45043  0.19751  1.0000
  C   C41       1.0  0.31274  0.48387  0.06285  1.0000
  C   C42       1.0  0.28485  0.46013  0.23267  1.0000
  H   H73       1.0  0.10353  0.48052  0.14376  1.0000
  H   H74       1.0  0.30157  0.47465  0.18220  1.0000
  H   H75       1.0  0.08269  0.47755  0.16344  1.0000
  H   H76       1.0  0.28048  0.46362  0.19350  1.0000
  H   H77       1.0  0.29798  0.44819  0.23443  1.0000
  H   H78       1.0  0.15551  0.45386  0.23347  1.0000
  C   C43       1.0  0.27709  0.48548  0.14129  1.0000
  H   H79       1.0  0.08027  0.48090  0.13837  1.0000
  C   C44       1.0  0.08734  0.48524  0.14813  1.0000
  H   H80       1.0  0.30574  0.47775  0.21348  1.0000
  Fe  Fe4       1.0  0.23391  0.48711  0.09644  1.0000
  S   S9        1.0  0.25434  0.48856  0.02463  1.0000
  H   H81       1.0  0.28099  0.48849  0.21077  1.0000
  Fe  Fe5       1.0  0.16977  0.42308  0.33108  1.0000
  S   S10       1.0  0.15407  0.39828  0.33645  1.0000
  S   S11       1.0  0.16099  0.44888  0.34591  1.0000
  Fe  Fe6       1.0  0.20093  0.40903  0.29834  1.0000
  S   S12       1.0  0.18862  0.38297  0.30033  1.0000
  S   S13       1.0  0.22644  0.41971  0.27701  1.0000
  Fe  Fe7       1.0  0.15932  0.40346  0.30371  1.0000
  S   S14       1.0  0.13822  0.40018  0.28720  1.0000
  Fe  Fe8       1.0  0.18441  0.37926  0.33283  1.0000
  S   S15       1.0  0.19129  0.34744  0.34794  1.0000
  S   S16       1.0  0.17198  0.42997  0.29870  1.0000
  S   S17       1.0  0.19966  0.40351  0.33054  1.0000
  H   H82       1.0  0.24330  0.31595  0.31257  1.0000
  Fe  Fe9       1.0  0.24415  0.28785  0.43023  1.0000
  S   S18       1.0  0.24938  0.26407  0.41339  1.0000
  S   S19       1.0  0.23300  0.32041  0.42028  1.0000
  Fe  Fe10      1.0  0.27671  0.25222  0.42568  1.0000
  S   S20       1.0  0.30626  0.24074  0.40843  1.0000
  Fe  Fe11      1.0  0.23465  0.24724  0.44172  1.0000
  C   C45       1.0  0.08436  0.37791  0.26574  1.0000
  S   S21       1.0  0.27277  0.27716  0.44046  1.0000
  S   S22       1.0  0.22719  0.27194  0.45754  1.0000
  C   C46       1.0  0.30994  0.21510  0.41435  1.0000
  C   C47       1.0  0.26763  0.37719  0.24025  1.0000
  H   H83       1.0  0.12919  0.47611  0.32274  1.0000
  C   C48       1.0  0.31479  0.17435  0.42789  1.0000
  H   H84       1.0  0.25032  0.19140  0.41675  1.0000
  H   H85       1.0  0.09999  0.37536  0.25801  1.0000
  C   C49       1.0  0.29385  0.20616  0.41880  1.0000
  H   H86       1.0  0.21720  0.34683  0.28669  1.0000
  H   H87       1.0  0.05851  0.40074  0.26701  1.0000
  H   H88       1.0  0.28349  0.48781  0.26605  1.0000
  H   H89       1.0  0.18726  0.29854  0.47450  1.0000
  C   C50       1.0  0.12899  0.27212  0.46863  1.0000
  C   C51       1.0  0.28572  0.30955  0.35677  1.0000
  C   C52       1.0  0.09049  0.44333  0.28295  1.0000
  C   C53       1.0  0.19482  0.22612  0.46441  1.0000
  C   C54       1.0  0.27262  0.45332  0.26881  1.0000
  H   H90       1.0  0.22962  0.34598  0.32588  1.0000
  H   H91       1.0  0.28679  0.29565  0.35218  1.0000
  C   C55       1.0  0.24342  0.36735  0.34326  1.0000
  C   C56       1.0  0.17696  0.48175  0.27590  1.0000
  H   H92       1.0  0.20868  0.33310  0.31082  1.0000
  H   H93       1.0  0.25320  0.37888  0.31240  1.0000
  H   H94       1.0  0.22048  0.32054  0.29095  1.0000
  H   H95       1.0  0.10562  0.44117  0.25378  1.0000
  H   H96       1.0  0.24042  0.39911  0.33885  1.0000
  C   C57       1.0  0.20410  0.34078  0.36708  1.0000
  C   C58       1.0  0.21437  0.32134  0.37162  1.0000
  C   C59       1.0  0.22372  0.31511  0.38763  1.0000
  C   C60       1.0  0.22268  0.32825  0.39928  1.0000
  C   C61       1.0  0.21290  0.34787  0.39439  1.0000
  C   C62       1.0  0.20366  0.35418  0.37824  1.0000
  H   H97       1.0  0.21494  0.31103  0.36282  1.0000
  H   H98       1.0  0.23161  0.30012  0.39101  1.0000
  H   H99       1.0  0.21221  0.35815  0.40328  1.0000
  H   H100      1.0  0.19581  0.36924  0.37473  1.0000
  C   C63       1.0  0.14381  0.41148  0.26251  1.0000
  C   C64       1.0  0.10124  0.45767  0.28597  1.0000
  H   H101      1.0  0.31740  0.45930  0.24572  1.0000
  H   H102      1.0  0.12165  0.28578  0.47422  1.0000
  H   H103      1.0  0.25158  0.32994  0.28865  1.0000
  C   C65       1.0  0.24370  0.38563  0.35016  1.0000
  H   H104      1.0  0.25809  0.44966  0.27021  1.0000
  H   H105      1.0  0.22436  0.38110  0.27326  1.0000
  H   H106      1.0  0.07490  0.40180  0.24329  1.0000
  S   S23       1.0  0.26258  0.23308  0.45241  1.0000
  S   S24       1.0  0.21374  0.22810  0.44347  1.0000
  H   H107      1.0  0.26294  0.01171  0.46048  1.0000
  H   H108      1.0  0.10295  0.45417  0.30142  1.0000
  C   C66       1.0  0.26536  0.14851  0.47241  1.0000
  H   H109      1.0  0.30047  0.35203  0.30643  1.0000
  C   C67       1.0  0.30772  0.35406  0.27530  1.0000
  C   C68       1.0  0.24047  0.33039  0.30244  1.0000
  H   H110      1.0  0.27277  0.31156  0.36893  1.0000
  H   H111      1.0  0.27946  0.21497  0.41719  1.0000
  H   H112      1.0  0.31013  0.46143  0.27107  1.0000
  H   H113      1.0  0.30068  0.35984  0.26236  1.0000
  H   H114      1.0  0.29272  0.40564  0.29138  1.0000
  H   H115      1.0  0.12989  0.25959  0.48136  1.0000
  H   H116      1.0  0.15742  0.47078  0.30170  1.0000
  H   H117      1.0  0.30260  0.43459  0.26912  1.0000
  C   C69       1.0  0.03893  0.44240  0.25751  1.0000
  H   H118      1.0  0.01701  0.46345  0.27296  1.0000
  H   H119      1.0  0.18909  0.35728  0.24995  1.0000
  N   N3        1.0  0.07681  0.43514  0.25673  1.0000
  H   H120      1.0  0.20680  0.36703  0.25616  1.0000
  H   H121      1.0  0.11152  0.46246  0.35580  1.0000
  H   H122      1.0  0.11608  0.45659  0.27639  1.0000
  C   C70       1.0  0.28739  0.43317  0.27054  1.0000
  H   H123      1.0  0.07699  0.36787  0.26221  1.0000
  H   H124      1.0  0.24755  0.47440  0.24466  1.0000
  H   H125      1.0  0.17485  0.32771  0.43817  1.0000
  H   H126      1.0  0.23236  0.38698  0.36372  1.0000
  H   H127      1.0  0.22847  0.18699  0.45900  1.0000
  H   H128      1.0  0.28725  0.37356  0.29250  1.0000
  H   H129      1.0  0.25396  0.18706  0.45112  1.0000
  C   C71       1.0  0.20922  0.47099  0.31645  1.0000
  C   C72       1.0  0.19532  0.45900  0.32322  1.0000
  H   H130      1.0  0.31973  0.36189  0.27324  1.0000
  H   H131      1.0  0.26875  0.31556  0.32477  1.0000
  H   H132      1.0  0.23301  0.15720  0.44486  1.0000
  C   C73       1.0  0.32088  0.07383  0.47467  1.0000
  H   H133      1.0  0.03984  0.42777  0.25469  1.0000
  H   H134      1.0  0.13788  0.38846  0.25227  1.0000
  H   H135      1.0  0.29755  0.32462  0.32822  1.0000
  H   H136      1.0  0.08110  0.41036  0.28078  1.0000
  H   H137      1.0  0.26155  0.42267  0.24920  1.0000
  S   S25       1.0  0.31675  0.14922  0.43796  1.0000
  H   H138      1.0  0.22825  0.36853  0.34168  1.0000
  C   C74       1.0  0.23759  0.38501  0.26390  1.0000
  C   C75       1.0  0.07407  0.39924  0.25925  1.0000
  N   N4        1.0  0.26043  0.34723  0.31614  1.0000
  N   N5        1.0  0.27666  0.46906  0.25065  1.0000
  C   C76       1.0  0.01888  0.44843  0.27042  1.0000
  Fe  Fe12      1.0  0.25631  0.25902  0.46629  1.0000
  C   C77       1.0  0.07822  0.43986  0.23487  1.0000
  C   C78       1.0  0.29275  0.35743  0.29403  1.0000
  H   H139      1.0  0.29910  0.30824  0.36238  1.0000
  H   H140      1.0  0.24706  0.35446  0.35499  1.0000
  H   H141      1.0  0.07550  0.44576  0.29210  1.0000
  C   C79       1.0  0.30661  0.20465  0.46986  1.0000
  H   H142      1.0  0.19776  0.44586  0.31760  1.0000
  C   C80       1.0  0.26580  0.32884  0.33109  1.0000
  H   H143      1.0  0.25310  0.32704  0.34354  1.0000
  C   C81       1.0  0.29619  0.00702  0.47568  1.0000
  H   H144      1.0  0.01724  0.43787  0.28467  1.0000
  H   H145      1.0  0.05390  0.45832  0.26789  1.0000
  H   H146      1.0  0.25873  0.15729  0.43635  1.0000
  C   C82       1.0  0.14189  0.40266  0.24814  1.0000
  C   C83       1.0  0.17850  0.46394  0.33727  1.0000
  H   H147      1.0  0.29374  0.19868  0.47025  1.0000
  C   C84       1.0  0.24327  0.17715  0.45696  1.0000
  H   H148      1.0  0.09593  0.47901  0.37116  1.0000
  H   H149      1.0  0.25825  0.38449  0.35345  1.0000
  H   H150      1.0  0.26807  0.35529  0.28445  1.0000
  H   H151      1.0  0.20246  0.31316  0.45546  1.0000
  H   H152      1.0  0.30045  0.12086  0.47169  1.0000
  H   H153      1.0  0.29841  0.00713  0.45980  1.0000
  H   H154      1.0  0.29417  0.07855  0.46427  1.0000
  N   N6        1.0  0.16878  0.29374  0.42614  1.0000
  C   C85       1.0  0.14910  0.29062  0.43870  1.0000
  C   C86       1.0  0.16617  0.31109  0.40919  1.0000
  C   C87       1.0  0.17828  0.27545  0.41781  1.0000
  C   C88       1.0  0.18221  0.29633  0.43785  1.0000
  H   H155      1.0  0.31998  0.03394  0.46099  1.0000
  C   C89       1.0  0.14967  0.27350  0.45688  1.0000
  C   C90       1.0  0.19763  0.27636  0.40235  1.0000
  C   C91       1.0  0.14871  0.32861  0.41270  1.0000
  C   C92       1.0  0.15023  0.34626  0.39567  1.0000
  C   C93       1.0  0.17555  0.48116  0.34426  1.0000
  H   H156      1.0  0.29355  0.02267  0.47683  1.0000
  C   C94       1.0  0.20456  0.25818  0.39321  1.0000
  H   H157      1.0  0.13995  0.28804  0.42963  1.0000
  H   H158      1.0  0.14054  0.30393  0.44430  1.0000
  H   H159      1.0  0.17986  0.31701  0.40367  1.0000
  H   H160      1.0  0.16386  0.30636  0.39655  1.0000
  H   H161      1.0  0.16781  0.27174  0.41100  1.0000
  H   H162      1.0  0.18204  0.26253  0.42956  1.0000
  H   H163      1.0  0.18632  0.28249  0.44847  1.0000
  H   H164      1.0  0.19642  0.29899  0.42819  1.0000
  H   H165      1.0  0.15795  0.27577  0.46684  1.0000
  H   H166      1.0  0.25745  0.02846  0.47699  1.0000
  H   H167      1.0  0.15648  0.25911  0.45264  1.0000
  H   H168      1.0  0.31805  0.20110  0.45698  1.0000
  H   H169      1.0  0.20936  0.27709  0.40932  1.0000
  H   H170      1.0  0.19589  0.28926  0.39021  1.0000
  H   H171      1.0  0.13467  0.32424  0.41390  1.0000
  H   H172      1.0  0.14791  0.33352  0.42624  1.0000
  H   H173      1.0  0.13703  0.35817  0.39795  1.0000
  H   H174      1.0  0.16337  0.35206  0.39471  1.0000
  H   H175      1.0  0.15128  0.34210  0.38158  1.0000
  H   H176      1.0  0.18137  0.37993  0.25870  1.0000
  H   H177      1.0  0.14647  0.48131  0.28050  1.0000
  H   H178      1.0  0.28332  0.34030  0.34507  1.0000
  C   C95       1.0  0.19354  0.37101  0.24967  1.0000
  H   H179      1.0  0.26175  0.13618  0.46824  1.0000
  H   H180      1.0  0.22452  0.19074  0.42497  1.0000
  H   H181      1.0  0.19375  0.25747  0.38498  1.0000
  H   H182      1.0  0.21887  0.25888  0.38292  1.0000
  H   H183      1.0  0.20659  0.24456  0.40461  1.0000
  C   C96       1.0  0.25040  0.37208  0.25237  1.0000
  H   H184      1.0  0.08371  0.37432  0.28178  1.0000
  H   H185      1.0  0.30227  0.22091  0.46798  1.0000
  C   C97       1.0  0.28401  0.32708  0.33957  1.0000
  H   H186      1.0  0.23526  0.36150  0.30275  1.0000
  H   H187      1.0  0.08598  0.46206  0.25476  1.0000
  H   H188      1.0  0.24306  0.48162  0.27911  1.0000
  H   H189      1.0  0.09838  0.42824  0.28848  1.0000
  H   H190      1.0  0.15083  0.43655  0.26811  1.0000
  C   C98       1.0  0.25804  0.36569  0.32355  1.0000
  H   H191      1.0  0.18225  0.46698  0.27218  1.0000
  H   H192      1.0  0.27221  0.36740  0.32555  1.0000
  C   C99       1.0  0.30160  0.07192  0.47639  1.0000
  C   C100      1.0  0.24083  0.34723  0.31212  1.0000
  C   C101      1.0  0.25868  0.40840  0.25040  1.0000
  H   H193      1.0  0.21329  0.39982  0.23752  1.0000
  C   C102      1.0  0.24177  0.40318  0.26286  1.0000
  C   C103      1.0  0.22046  0.33294  0.29746  1.0000
  H   H194      1.0  0.22234  0.46673  0.30594  1.0000
  H   H195      1.0  0.05313  0.43441  0.28240  1.0000
  C   C104      1.0  0.08370  0.41351  0.26451  1.0000
  C   C105      1.0  0.29635  0.18579  0.42534  1.0000
  C   C106      1.0  0.18466  0.21088  0.46870  1.0000
  C   C107      1.0  0.23958  0.18161  0.42199  1.0000
  H   H196      1.0  0.18884  0.20016  0.45948  1.0000
  H   H197      1.0  0.28147  0.33209  0.29452  1.0000
  C   C108      1.0  0.24401  0.16661  0.44043  1.0000
  H   H198      1.0  0.24705  0.35813  0.25290  1.0000
  C   C109      1.0  0.31082  0.46967  0.25572  1.0000
  H   H199      1.0  0.28122  0.42661  0.30249  1.0000
  H   H200      1.0  0.28395  0.17890  0.42861  1.0000
  H   H201      1.0  0.12023  0.13872  0.48271  1.0000
  C   C110      1.0  0.28168  0.41968  0.29026  1.0000
  C   C111      1.0  0.27532  0.34734  0.29701  1.0000
  H   H202      1.0  0.24055  0.17385  0.41022  1.0000
  H   H203      1.0  0.09993  0.40908  0.25984  1.0000
  C   C112      1.0  0.09008  0.44602  0.26100  1.0000
  H   H204      1.0  0.27603  0.15447  0.45952  1.0000
  H   H205      1.0  0.31420  0.33815  0.27612  1.0000
  H   H206      1.0  0.12226  0.47604  0.36664  1.0000
  C   C113      1.0  0.14930  0.42968  0.25711  1.0000
  H   H207      1.0  0.27133  0.45903  0.28214  1.0000
  C   C114      1.0  0.05598  0.44263  0.26698  1.0000
  C   C115      1.0  0.27188  0.39522  0.23957  1.0000
  H   H208      1.0  0.26705  0.41642  0.29167  1.0000
  C   C116      1.0  0.25979  0.01281  0.47608  1.0000
  H   H209      1.0  0.28755  0.42544  0.25907  1.0000
  H   H210      1.0  0.18875  0.41095  0.23503  1.0000
  H   H211      1.0  0.09262  0.47289  0.28271  1.0000
  C   C117      1.0  0.10969  0.47673  0.36001  1.0000
  C   C118      1.0  0.15167  0.43960  0.23752  1.0000
  H   H212      1.0  0.00708  0.44856  0.26298  1.0000
  C   C119      1.0  0.17444  0.31355  0.44885  1.0000
  H   H213      1.0  0.12001  0.26952  0.45948  1.0000
  C   C120      1.0  0.15649  0.48318  0.28895  1.0000
  H   H214      1.0  0.15929  0.31367  0.45738  1.0000
  H   H215      1.0  0.19708  0.25156  0.47341  1.0000
  C   C121      1.0  0.18718  0.31239  0.46327  1.0000
  H   H216      1.0  0.18750  0.48403  0.28353  1.0000
  H   H217      1.0  0.18127  0.32497  0.47080  1.0000
  H   H218      1.0  0.20341  0.43331  0.24075  1.0000
  C   C122      1.0  0.28993  0.48104  0.25300  1.0000
  H   H219      1.0  0.16277  0.48493  0.35538  1.0000
  N   N7        1.0  0.24699  0.16416  0.47633  1.0000
  H   H220      1.0  0.22714  0.14628  0.47622  1.0000
  C   C123      1.0  0.32475  0.48355  0.25205  1.0000
  C   C124      1.0  0.25714  0.48260  0.24789  1.0000
  C   C125      1.0  0.18933  0.23986  0.47645  1.0000
  H   H221      1.0  0.23252  0.20589  0.47702  1.0000
  H   H222      1.0  0.26389  0.18229  0.48154  1.0000
  H   H223      1.0  0.20951  0.46590  0.23814  1.0000
  H   H224      1.0  0.03929  0.45307  0.24332  1.0000
  C   C126      1.0  0.20613  0.48839  0.32315  1.0000
  H   H225      1.0  0.14041  0.48864  0.33322  1.0000
  H   H226      1.0  0.21967  0.32260  0.48394  1.0000
  N   N8        1.0  0.31424  0.99505  0.48350  1.0000
  H   H227      1.0  0.24603  0.00754  0.48352  1.0000
  S   S26       1.0  0.23160  0.39180  0.66659  1.0000
  S   S27       1.0  0.25631  0.34165  0.65122  1.0000
  H   H228      1.0  0.09048  0.09082  0.58832  1.0000
  S   S28       1.0  0.26856  0.42610  0.65571  1.0000
  H   H229      1.0  0.27279  0.00174  0.50149  1.0000
  H   H230      1.0  0.14532  0.21795  0.59657  1.0000
  H   H231      1.0  0.29728  0.03243  0.56298  1.0000
  H   H232      1.0  0.11660  0.09526  0.55851  1.0000
  H   H233      1.0  0.14313  0.03836  0.54287  1.0000
  H   H234      1.0  0.21564  0.16655  0.48737  1.0000
  C   C127      1.0  0.28788  0.24458  0.67540  1.0000
  S   S29       1.0  0.23411  0.00654  0.57118  1.0000
  Fe  Fe13      1.0  0.25595  0.03894  0.52284  1.0000
  S   S30       1.0  0.23613  0.05216  0.54746  1.0000
  C   C128      1.0  0.01086  0.18375  0.59636  1.0000
  Fe  Fe14      1.0  0.25343  0.02808  0.56668  1.0000
  S   S31       1.0  0.26011  0.03768  0.59125  1.0000
  Fe  Fe15      1.0  0.21825  0.03016  0.55008  1.0000
  S   S32       1.0  0.18554  0.04068  0.55571  1.0000
  S   S33       1.0  0.27471  0.01631  0.54179  1.0000
  S   S34       1.0  0.23626  0.01920  0.52332  1.0000
  C   C129      1.0  0.16128  0.46341  0.71381  1.0000
  S   S35       1.0  0.01848  0.15990  0.51264  1.0000
  C   C130      1.0  0.22963  0.32306  0.50974  1.0000
  Fe  Fe16      1.0  0.10836  0.16694  0.55228  1.0000
  S   S36       1.0  0.13311  0.14176  0.55970  1.0000
  S   S37       1.0  0.07768  0.16046  0.56462  1.0000
  Fe  Fe17      1.0  0.13677  0.19362  0.52984  1.0000
  S   S38       1.0  0.16346  0.17036  0.53465  1.0000
  Fe  Fe18      1.0  0.14758  0.15046  0.52842  1.0000
  S   S39       1.0  0.16428  0.12843  0.50968  1.0000
  Fe  Fe19      1.0  0.14700  0.16363  0.56542  1.0000
  S   S40       1.0  0.16514  0.15457  0.58883  1.0000
  S   S41       1.0  0.12218  0.17460  0.52038  1.0000
  S   S42       1.0  0.12087  0.18824  0.56126  1.0000
  Fe  Fe20      1.0  0.20382  0.27039  0.63207  1.0000
  S   S43       1.0  0.22456  0.27512  0.60313  1.0000
  S   S44       1.0  0.19667  0.28941  0.65444  1.0000
  Fe  Fe21      1.0  0.19386  0.23450  0.62457  1.0000
  S   S45       1.0  0.21399  0.23602  0.59530  1.0000
  S   S46       1.0  0.17463  0.21228  0.63720  1.0000
  Fe  Fe22      1.0  0.23484  0.24250  0.60991  1.0000
  S   S47       1.0  0.26699  0.22961  0.60336  1.0000
  Fe  Fe23      1.0  0.20181  0.26839  0.59116  1.0000
  S   S48       1.0  0.19410  0.28382  0.56209  1.0000
  S   S49       1.0  0.21594  0.23794  0.63990  1.0000
  S   S50       1.0  0.17991  0.26661  0.61949  1.0000
  C   C131      1.0  0.28310  0.27498  0.61453  1.0000
  C   C132      1.0  0.27043  0.48348  0.67064  1.0000
  H   H235      1.0  0.31974  0.09358  0.54073  1.0000
  H   H236      1.0  0.31211  0.37470  0.68706  1.0000
  H   H237      1.0  0.19517  0.34831  0.59045  1.0000
  H   H238      1.0  0.05271  0.17637  0.50364  1.0000
  Fe  Fe24      1.0  0.30904  0.12512  0.60770  1.0000
  S   S51       1.0  0.27695  0.13875  0.61226  1.0000
  H   H239      1.0  0.09340  0.13700  0.52374  1.0000
  H   H240      1.0  0.12297  0.29668  0.59413  1.0000
  H   H241      1.0  0.28579  0.45790  0.63400  1.0000
  H   H242      1.0  0.00906  0.12548  0.61102  1.0000
  C   C133      1.0  0.24324  0.26081  0.51451  1.0000
  C   C134      1.0  0.24610  0.25717  0.53365  1.0000
  C   C135      1.0  0.23078  0.26364  0.54839  1.0000
  C   C136      1.0  0.21267  0.27429  0.54396  1.0000
  C   C137      1.0  0.20971  0.27791  0.52486  1.0000
  C   C138      1.0  0.22498  0.27110  0.51016  1.0000
  H   H243      1.0  0.26027  0.24951  0.53705  1.0000
  H   H244      1.0  0.23328  0.26101  0.56303  1.0000
  H   H245      1.0  0.19567  0.28600  0.52141  1.0000
  H   H246      1.0  0.22266  0.27414  0.49548  1.0000
  C   C139      1.0  0.26934  0.20469  0.60422  1.0000
  C   C140      1.0  0.28739  0.19357  0.59662  1.0000
  C   C141      1.0  0.28954  0.17334  0.59823  1.0000
  C   C142      1.0  0.27367  0.16428  0.60761  1.0000
  C   C143      1.0  0.25544  0.17554  0.61457  1.0000
  C   C144      1.0  0.25329  0.19574  0.61296  1.0000
  H   H247      1.0  0.29976  0.20053  0.58982  1.0000
  H   H248      1.0  0.30352  0.16476  0.59240  1.0000
  H   H249      1.0  0.24313  0.16855  0.62179  1.0000
  H   H250      1.0  0.23930  0.20424  0.61892  1.0000
  C   C145      1.0  0.16643  0.17252  0.60076  1.0000
  C   C146      1.0  0.15509  0.17326  0.61950  1.0000
  C   C147      1.0  0.15769  0.18565  0.63035  1.0000
  C   C148      1.0  0.17183  0.19726  0.62268  1.0000
  C   C149      1.0  0.18335  0.19647  0.60393  1.0000
  C   C150      1.0  0.18063  0.18411  0.59298  1.0000
  H   H251      1.0  0.14452  0.16393  0.62583  1.0000
  H   H252      1.0  0.14888  0.18603  0.64488  1.0000
  H   H253      1.0  0.19458  0.20500  0.59805  1.0000
  H   H254      1.0  0.18991  0.18307  0.57877  1.0000
  H   H255      1.0  0.19816  0.14557  0.51573  1.0000
  H   H256      1.0  0.12964  0.29045  0.51597  1.0000
  C   C151      1.0  0.06195  0.15959  0.54972  1.0000
  C   C152      1.0  0.06425  0.16903  0.53001  1.0000
  C   C153      1.0  0.05096  0.16878  0.51880  1.0000
  C   C154      1.0  0.03525  0.15912  0.52715  1.0000
  C   C155      1.0  0.03320  0.14926  0.54672  1.0000
  C   C156      1.0  0.04638  0.14968  0.55801  1.0000
  H   H257      1.0  0.07609  0.17680  0.52348  1.0000
  C   C157      1.0  0.23347  0.19554  0.49122  1.0000
  H   H258      1.0  0.02140  0.14144  0.55310  1.0000
  H   H259      1.0  0.04450  0.14232  0.57324  1.0000
  C   C158      1.0  0.17989  0.06506  0.54298  1.0000
  C   C159      1.0  0.19187  0.07169  0.52517  1.0000
  C   C160      1.0  0.18696  0.09113  0.51492  1.0000
  C   C161      1.0  0.17049  0.10419  0.52279  1.0000
  C   C162      1.0  0.15881  0.09758  0.54077  1.0000
  C   C163      1.0  0.16327  0.07799  0.55068  1.0000
  H   H260      1.0  0.20471  0.06173  0.51909  1.0000
  H   H261      1.0  0.14602  0.10740  0.54681  1.0000
  H   H262      1.0  0.15400  0.07292  0.56446  1.0000
  H   H263      1.0  0.16870  0.24991  0.50107  1.0000
  C   C164      1.0  0.30170  0.05295  0.50926  1.0000
  H   H264      1.0  0.29426  0.04542  0.52285  1.0000
  C   C165      1.0  0.28215  0.04564  0.58777  1.0000
  C   C166      1.0  0.28365  0.05660  0.60061  1.0000
  C   C167      1.0  0.29205  0.06128  0.49361  1.0000
  Fe  Fe25      1.0  0.25382  0.99713  0.54397  1.0000
  C   C168      1.0  0.19552  0.44737  0.70461  1.0000
  N   N9        1.0  0.30626  0.42221  0.71496  1.0000
  H   H265      1.0  0.27129  0.06021  0.61217  1.0000
  H   H266      1.0  0.12021  0.10506  0.50242  1.0000
  H   H267      1.0  0.28101  0.14370  0.70106  1.0000
  H   H268      1.0  0.32206  0.21483  0.52068  1.0000
  H   H269      1.0  0.21901  0.35115  0.55630  1.0000
  C   C169      1.0  0.21270  0.30477  0.65287  1.0000
  C   C170      1.0  0.22860  0.30663  0.63718  1.0000
  C   C171      1.0  0.24170  0.31825  0.63670  1.0000
  C   C172      1.0  0.23886  0.32827  0.65178  1.0000
  C   C173      1.0  0.22274  0.32676  0.66731  1.0000
  C   C174      1.0  0.20973  0.31497  0.66787  1.0000
  H   H270      1.0  0.23098  0.29894  0.62553  1.0000
  H   H271      1.0  0.25408  0.31954  0.62462  1.0000
  H   H272      1.0  0.19738  0.31370  0.68000  1.0000
  C   C175      1.0  0.26830  0.44815  0.66212  1.0000
  C   C176      1.0  0.25882  0.45276  0.68043  1.0000
  C   C177      1.0  0.26014  0.47038  0.68478  1.0000
  H   H273      1.0  0.07434  0.12094  0.51582  1.0000
  H   H274      1.0  0.10167  0.15837  0.49157  1.0000
  C   C178      1.0  0.27853  0.46133  0.64818  1.0000
  H   H275      1.0  0.25071  0.44270  0.69119  1.0000
  H   H276      1.0  0.25317  0.47395  0.69888  1.0000
  C   C179      1.0  0.31485  0.19549  0.48842  1.0000
  N   N10       1.0  0.30568  0.19196  0.52619  1.0000
  C   C180      1.0  0.29976  0.20125  0.50669  1.0000
  C   C181      1.0  0.28985  0.19919  0.54261  1.0000
  H   H277      1.0  0.26547  0.33934  0.55378  1.0000
  C   C182      1.0  0.31049  0.16979  0.52971  1.0000
  C   C183      1.0  0.29449  0.15971  0.52842  1.0000
  H   H278      1.0  0.24198  0.12770  0.50431  1.0000
  C   C184      1.0  0.30002  0.11542  0.67230  1.0000
  C   C185      1.0  0.26815  0.20286  0.54064  1.0000
  C   C186      1.0  0.25401  0.20700  0.55957  1.0000
  C   C187      1.0  0.30286  0.13794  0.52818  1.0000
  H   H279      1.0  0.13558  0.04437  0.51975  1.0000
  H   H280      1.0  0.03211  0.18909  0.56896  1.0000
  H   H281      1.0  0.08734  0.10417  0.50029  1.0000
  H   H282      1.0  0.28578  0.19786  0.50617  1.0000
  H   H283      1.0  0.29149  0.18891  0.55681  1.0000
  H   H284      1.0  0.29152  0.21363  0.54426  1.0000
  H   H285      1.0  0.23186  0.14815  0.51683  1.0000
  H   H286      1.0  0.30403  0.16457  0.71392  1.0000
  C   C188      1.0  0.31767  0.47467  0.69305  1.0000
  H   H287      1.0  0.29965  0.25272  0.66750  1.0000
  C   C189      1.0  0.16884  0.20959  0.48475  1.0000
  H   H288      1.0  0.28246  0.16049  0.54152  1.0000
  H   H289      1.0  0.28304  0.36579  0.53576  1.0000
  H   H290      1.0  0.27772  0.27394  0.54928  1.0000
  H   H291      1.0  0.27523  0.29745  0.65940  1.0000
  H   H292      1.0  0.31160  0.15018  0.65237  1.0000
  H   H293      1.0  0.26493  0.21590  0.52888  1.0000
  H   H294      1.0  0.26484  0.19026  0.53699  1.0000
  H   H295      1.0  0.23863  0.21052  0.55748  1.0000
  H   H296      1.0  0.25584  0.19396  0.57162  1.0000
  H   H297      1.0  0.25665  0.21969  0.56386  1.0000
  C   C190      1.0  0.23767  0.20683  0.50442  1.0000
  C   C191      1.0  0.99782  0.12580  0.60283  1.0000
  H   H298      1.0  0.31127  0.39096  0.71563  1.0000
  C   C192      1.0  0.13047  0.04515  0.53546  1.0000
  C   C193      1.0  0.30115  0.06268  0.59877  1.0000
  H   H299      1.0  0.21025  0.44198  0.70835  1.0000
  H   H300      1.0  0.22583  0.43615  0.67478  1.0000
  H   H301      1.0  0.23514  0.33364  0.57030  1.0000
  H   H302      1.0  0.27685  0.43308  0.70957  1.0000
  H   H303      1.0  0.10572  0.12081  0.55265  1.0000
  H   H304      1.0  0.08231  0.08903  0.55745  1.0000
  C   C194      1.0  0.10248  0.10600  0.55914  1.0000
  H   H305      1.0  0.10286  0.10977  0.58786  1.0000
  H   H306      1.0  0.11795  0.20485  0.62123  1.0000
  H   H307      1.0  0.25179  0.16867  0.50327  1.0000
  N   N11       1.0  0.18140  0.45948  0.71862  1.0000
  H   H308      1.0  0.07879  0.11654  0.58208  1.0000
  H   H309      1.0  0.21897  0.19159  0.49783  1.0000
  H   H310      1.0  0.00350  0.15193  0.58227  1.0000
  C   C195      1.0  0.08863  0.10174  0.54815  1.0000
  H   H311      1.0  0.31163  0.11848  0.65920  1.0000
  H   H312      1.0  0.20376  0.43164  0.67075  1.0000
  H   H313      1.0  0.09586  0.20619  0.61313  1.0000
  H   H314      1.0  0.10952  0.07414  0.51245  1.0000
  N   N12       1.0  0.26811  0.25618  0.67128  1.0000
  H   H315      1.0  0.30603  0.39079  0.66469  1.0000
  C   C196      1.0  0.26217  0.27413  0.68038  1.0000
  C   C197      1.0  0.25322  0.24348  0.68144  1.0000
  C   C198      1.0  0.26773  0.26179  0.64969  1.0000
  C   C199      1.0  0.12735  0.38241  0.72036  1.0000
  C   C200      1.0  0.22510  0.33509  0.56041  1.0000
  C   C201      1.0  0.23147  0.25335  0.68047  1.0000
  H   H316      1.0  0.07595  0.11454  0.54820  1.0000
  C   C202      1.0  0.21173  0.44321  0.66995  1.0000
  C   C203      1.0  0.21806  0.23866  0.68960  1.0000
  H   H317      1.0  0.28802  0.24258  0.69120  1.0000
  H   H318      1.0  0.28650  0.09038  0.68770  1.0000
  H   H319      1.0  0.24800  0.28339  0.67687  1.0000
  H   H320      1.0  0.25954  0.26946  0.69664  1.0000
  H   H321      1.0  0.25406  0.23796  0.69719  1.0000
  H   H322      1.0  0.25647  0.23025  0.67495  1.0000
  H   H323      1.0  0.13501  0.24014  0.54779  1.0000
  H   H324      1.0  0.25547  0.27450  0.64693  1.0000
  H   H325      1.0  0.20219  0.21750  0.55986  1.0000
  H   H326      1.0  0.99814  0.18459  0.57195  1.0000
  C   C204      1.0  0.29441  0.22387  0.67027  1.0000
  H   H327      1.0  0.20183  0.21356  0.53631  1.0000
  H   H328      1.0  0.22987  0.25931  0.66508  1.0000
  H   H329      1.0  0.22597  0.26548  0.68863  1.0000
  C   C205      1.0  0.17320  0.23891  0.49216  1.0000
  C   C206      1.0  0.27635  0.28855  0.67425  1.0000
  H   H330      1.0  0.31488  0.16485  0.67819  1.0000
  H   H331      1.0  0.31407  0.48837  0.69882  1.0000
  C   C207      1.0  0.30743  0.45925  0.70788  1.0000
  H   H332      1.0  0.13021  0.36634  0.72103  1.0000
  H   H333      1.0  0.20271  0.24612  0.68824  1.0000
  H   H334      1.0  0.29183  0.28110  0.67440  1.0000
  H   H335      1.0  0.21842  0.23299  0.70536  1.0000
  N   N13       1.0  0.23204  0.10915  0.57686  1.0000
  C   C208      1.0  0.21035  0.11324  0.57689  1.0000
  C   C209      1.0  0.23834  0.12846  0.57305  1.0000
  C   C210      1.0  0.24293  0.09920  0.55995  1.0000
  C   C211      1.0  0.23740  0.09585  0.59552  1.0000
  C   C212      1.0  0.22188  0.09735  0.61475  1.0000
  C   C213      1.0  0.20232  0.09531  0.57662  1.0000
  C   C214      1.0  0.26566  0.09607  0.55553  1.0000
  C   C215      1.0  0.22823  0.14191  0.58797  1.0000
  C   C216      1.0  0.23405  0.16190  0.58075  1.0000
  C   C217      1.0  0.23058  0.08568  0.63258  1.0000
  C   C218      1.0  0.17990  0.09938  0.58217  1.0000
  C   C219      1.0  0.27510  0.08278  0.54075  1.0000
  H   H336      1.0  0.20677  0.12482  0.56396  1.0000
  H   H337      1.0  0.20140  0.11957  0.58963  1.0000
  H   H338      1.0  0.25429  0.12592  0.57290  1.0000
  H   H339      1.0  0.23614  0.13709  0.55826  1.0000
  H   H340      1.0  0.23782  0.10755  0.54624  1.0000
  H   H341      1.0  0.23961  0.08436  0.56268  1.0000
  H   H342      1.0  0.24066  0.08009  0.59447  1.0000
  H   H343      1.0  0.25136  0.09820  0.59765  1.0000
  H   H344      1.0  0.20926  0.09115  0.61486  1.0000
  H   H345      1.0  0.21600  0.11267  0.61667  1.0000
  H   H346      1.0  0.20660  0.09208  0.56167  1.0000
  H   H347      1.0  0.20825  0.08195  0.58681  1.0000
  H   H348      1.0  0.27164  0.08928  0.56900  1.0000
  H   H349      1.0  0.27024  0.11030  0.54906  1.0000
  H   H350      1.0  0.21200  0.14468  0.59052  1.0000
  H   H351      1.0  0.23313  0.13525  0.60205  1.0000
  H   H352      1.0  0.22693  0.17115  0.59185  1.0000
  H   H353      1.0  0.25022  0.16006  0.57853  1.0000
  H   H354      1.0  0.22914  0.16966  0.56685  1.0000
  H   H355      1.0  0.23591  0.06993  0.63166  1.0000
  H   H356      1.0  0.24298  0.09166  0.63355  1.0000
  H   H357      1.0  0.21914  0.08672  0.64610  1.0000
  H   H358      1.0  0.17466  0.08618  0.58221  1.0000
  H   H359      1.0  0.17469  0.10281  0.59702  1.0000
  H   H360      1.0  0.17348  0.11193  0.57144  1.0000
  H   H361      1.0  0.26965  0.08900  0.52688  1.0000
  H   H362      1.0  0.29129  0.08120  0.53744  1.0000
  H   H363      1.0  0.27182  0.06790  0.54684  1.0000
  S   S52       1.0  0.14169  0.22392  0.51491  1.0000
  H   H364      1.0  0.28841  0.16634  0.51502  1.0000
  H   H365      1.0  0.30804  0.13795  0.71879  1.0000
  S   S53       1.0  0.26844  0.05793  0.49489  1.0000
  H   H366      1.0  0.27970  0.16907  0.69158  1.0000
  H   H367      1.0  0.27538  0.13024  0.65831  1.0000
  H   H368      1.0  0.09449  0.13769  0.48788  1.0000
  H   H369      1.0  0.28628  0.21348  0.68152  1.0000
  H   H370      1.0  0.18533  0.46399  0.67728  1.0000
  C   C220      1.0  0.12698  0.27603  0.52502  1.0000
  C   C221      1.0  0.12420  0.47482  0.72264  1.0000
  C   C222      1.0  0.18671  0.47898  0.71613  1.0000
  H   H371      1.0  0.21877  0.46689  0.71277  1.0000
  H   H372      1.0  0.19602  0.09606  0.50095  1.0000
  C   C223      1.0  0.31182  0.99819  0.50393  1.0000
  C   C224      1.0  0.20018  0.33208  0.59259  1.0000
  H   H373      1.0  0.29144  0.46556  0.70972  1.0000
  H   H374      1.0  0.21165  0.30955  0.57591  1.0000
  H   H375      1.0  0.28710  0.40430  0.69419  1.0000
  S   S54       1.0  0.32572  0.11939  0.57835  1.0000
  H   H376      1.0  0.27010  0.12618  0.68438  1.0000
  C   C225      1.0  0.31623  0.41685  0.73221  1.0000
  H   H377      1.0  0.13342  0.26482  0.51585  1.0000
  C   C226      1.0  0.20729  0.47808  0.71955  1.0000
  H   H378      1.0  0.23544  0.29672  0.55494  1.0000
  H   H379      1.0  0.30215  0.07088  0.60893  1.0000
  C   C227      1.0  0.09299  0.10571  0.58067  1.0000
  C   C228      1.0  0.31633  0.21561  0.66986  1.0000
  Fe  Fe26      1.0  0.24895  0.36112  0.67327  1.0000
  Fe  Fe27      1.0  0.25470  0.40142  0.67533  1.0000
  H   H380      1.0  0.25360  0.30033  0.53357  1.0000
  H   H381      1.0  0.20750  0.34378  0.49463  1.0000
  H   H382      1.0  0.27183  0.28886  0.61385  1.0000
  H   H383      1.0  0.22040  0.33451  0.67897  1.0000
  C   C229      1.0  0.10728  0.13205  0.51379  1.0000
  C   C230      1.0  0.11180  0.20610  0.60822  1.0000
  H   H384      1.0  0.11904  0.19303  0.60161  1.0000
  H   H385      1.0  0.24884  0.36191  0.54683  1.0000
  H   H386      1.0  0.05833  0.09271  0.53909  1.0000
  H   H387      1.0  0.13031  0.28323  0.55066  1.0000
  C   C231      1.0  0.30921  0.15209  0.68807  1.0000
  C   C232      1.0  0.11485  0.22507  0.59346  1.0000
  H   H388      1.0  0.14134  0.21358  0.57495  1.0000
  H   H389      1.0  0.17013  0.21176  0.55752  1.0000
  H   H390      1.0  0.10798  0.23739  0.60117  1.0000
  C   C233      1.0  0.22120  0.32850  0.53022  1.0000
  H   H391      1.0  0.26265  0.33110  0.52062  1.0000
  H   H392      1.0  0.23609  0.30711  0.51126  1.0000
  H   H393      1.0  0.00690  0.18859  0.61050  1.0000
  Fe  Fe28      1.0  0.21852  0.38648  0.69863  1.0000
  H   H394      1.0  0.09370  0.06802  0.53551  1.0000
  H   H395      1.0  0.11874  0.13736  0.51752  1.0000
  H   H396      1.0  0.28405  0.18894  0.63881  1.0000
  H   H397      1.0  0.32045  0.20048  0.66702  1.0000
  C   C234      1.0  0.13701  0.22446  0.58454  1.0000
  H   H398      1.0  0.16790  0.23308  0.53807  1.0000
  H   H399      1.0  0.16070  0.47340  0.69932  1.0000
  C   C235      1.0  0.02774  0.19325  0.58350  1.0000
  H   H400      1.0  0.31072  0.08418  0.67309  1.0000
  H   H401      1.0  0.29665  0.21760  0.50460  1.0000
  N   N14       1.0  0.09726  0.09824  0.52759  1.0000
  C   C236      1.0  0.06404  0.09395  0.52312  1.0000
  H   H402      1.0  0.11866  0.06624  0.55367  1.0000
  H   H403      1.0  0.11878  0.03658  0.54222  1.0000
  S   S55       1.0  0.27342  0.37108  0.67915  1.0000
  H   H404      1.0  0.20717  0.46965  0.68042  1.0000
  H   H405      1.0  0.10683  0.22668  0.58168  1.0000
  H   H406      1.0  0.19028  0.43383  0.70592  1.0000
  H   H407      1.0  0.29852  0.25341  0.63493  1.0000
  C   C237      1.0  0.27946  0.47891  0.65235  1.0000
  C   C238      1.0  0.32119  0.05429  0.50734  1.0000
  H   H408      1.0  0.29449  0.18680  0.65938  1.0000
  S   S56       1.0  0.23433  0.35486  0.70501  1.0000
  C   C239      1.0  0.10523  0.07659  0.52775  1.0000
  H   H409      1.0  0.12567  0.10499  0.52461  1.0000
  H   H410      1.0  0.21144  0.12305  0.52824  1.0000
  H   H411      1.0  0.06903  0.07896  0.51988  1.0000
  H   H412      1.0  0.20138  0.32007  0.50620  1.0000
  C   C240      1.0  0.29646  0.18083  0.64617  1.0000
  H   H413      1.0  0.21312  0.17070  0.69304  1.0000
  H   H414      1.0  0.29335  0.15474  0.63877  1.0000
  C   C241      1.0  0.17346  0.22660  0.55181  1.0000
  H   H415      1.0  0.17155  0.23381  0.57981  1.0000
  H   H416      1.0  0.13587  0.24947  0.60305  1.0000
  H   H417      1.0  0.04074  0.18810  0.59053  1.0000
  H   H418      1.0  0.21194  0.32724  0.60125  1.0000
  H   H419      1.0  0.28738  0.48892  0.64132  1.0000
  C   C242      1.0  0.12300  0.06651  0.53775  1.0000
  C   C243      1.0  0.11332  0.10930  0.51684  1.0000
  C   C244      1.0  0.08115  0.10513  0.51591  1.0000
  H   H420      1.0  0.27319  0.29492  0.70304  1.0000
  H   H421      1.0  0.25882  0.16467  0.65334  1.0000
  H   H422      1.0  0.25215  0.21105  0.49843  1.0000
  C   C245      1.0  0.16281  0.22389  0.49622  1.0000
  H   H423      1.0  0.30259  0.41971  0.67720  1.0000
  N   N15       1.0  0.14236  0.24388  0.57359  1.0000
  C   C246      1.0  0.16446  0.24014  0.56688  1.0000
  C   C247      1.0  0.19581  0.22382  0.54655  1.0000
  C   C248      1.0  0.21095  0.13322  0.51386  1.0000
  C   C249      1.0  0.14755  0.27373  0.58474  1.0000
  H   H424      1.0  0.31428  0.20142  0.62797  1.0000
  C   C250      1.0  0.29829  0.04088  0.57294  1.0000
  H   H425      1.0  0.26006  0.27062  0.57200  1.0000
  H   H426      1.0  0.28994  0.09490  0.66138  1.0000
  C   C251      1.0  0.29646  0.15851  0.65153  1.0000
  H   H427      1.0  0.26175  0.18047  0.66719  1.0000
  H   H428      1.0  0.22221  0.17763  0.66712  1.0000
  C   C252      1.0  0.13556  0.25780  0.58772  1.0000
  H   H429      1.0  0.11995  0.26540  0.58777  1.0000
  C   C253      1.0  0.26202  0.16485  0.66760  1.0000
  C   C254      1.0  0.22573  0.17527  0.68180  1.0000
  H   H430      1.0  0.14668  0.29918  0.59596  1.0000
  C   C255      1.0  0.27704  0.35834  0.52760  1.0000
  C   C256      1.0  0.27083  0.30284  0.68818  1.0000
  H   H431      1.0  0.32526  0.22485  0.65805  1.0000
  H   H432      1.0  0.16206  0.26654  0.58858  1.0000
  C   C257      1.0  0.28705  0.15433  0.68817  1.0000
  H   H433      1.0  0.02343  0.20951  0.58141  1.0000
  H   H434      1.0  0.20020  0.23807  0.53931  1.0000
  H   H435      1.0  0.25521  0.31063  0.68918  1.0000
  C   C258      1.0  0.31249  0.15112  0.70840  1.0000
  H   H436      1.0  0.22757  0.18935  0.68396  1.0000
  H   H437      1.0  0.11578  0.25437  0.56195  1.0000
  C   C259      1.0  0.13198  0.25155  0.55661  1.0000
  H   H438      1.0  0.16967  0.25400  0.55997  1.0000
  H   H439      1.0  0.01655  0.16761  0.59914  1.0000
  H   H440      1.0  0.22252  0.22618  0.68193  1.0000
  H   H441      1.0  0.23737  0.19784  0.51945  1.0000
  C   C260      1.0  0.13730  0.28848  0.59795  1.0000
  N   N16       1.0  0.28201  0.15213  0.66983  1.0000
  C   C261      1.0  0.24433  0.15933  0.68373  1.0000
  H   H442      1.0  0.24114  0.14552  0.68233  1.0000
  H   H443      1.0  0.13491  0.28084  0.61357  1.0000
  H   H444      1.0  0.31854  0.13880  0.68299  1.0000
  H   H445      1.0  0.00453  0.11619  0.59200  1.0000
  H   H446      1.0  0.26437  0.24977  0.64476  1.0000
  C   C262      1.0  0.28085  0.13118  0.67112  1.0000
  H   H447      1.0  0.15251  0.26997  0.53736  1.0000
  H   H448      1.0  0.24728  0.15734  0.69855  1.0000
  H   H449      1.0  0.15013  0.28203  0.56948  1.0000
  C   C263      1.0  0.13651  0.27090  0.54284  1.0000
  H   H450      1.0  0.31379  0.16339  0.54455  1.0000
  H   H451      1.0  0.11087  0.27694  0.52961  1.0000
  S   S57       1.0  0.24021  0.39887  0.70697  1.0000
  S   S58       1.0  0.26286  0.25260  0.49642  1.0000
  H   H452      1.0  0.21098  0.31847  0.53810  1.0000
  H   H453      1.0  0.19505  0.33038  0.56518  1.0000
  H   H454      1.0  0.21507  0.45102  0.65448  1.0000
  C   C264      1.0  0.31189  0.44002  0.70032  1.0000
  C   C265      1.0  0.31304  0.40493  0.70482  1.0000
  H   H455      1.0  0.12188  0.46012  0.72277  1.0000
  H   H456      1.0  0.31803  0.17937  0.61896  1.0000
  H   H457      1.0  0.30708  0.01414  0.50421  1.0000
  C   C266      1.0  0.26241  0.30118  0.55931  1.0000
  H   H458      1.0  0.20882  0.12507  0.50368  1.0000
  H   H459      1.0  0.28900  0.34655  0.52214  1.0000
  C   C267      1.0  0.22998  0.14081  0.50588  1.0000
  C   C268      1.0  0.20756  0.32574  0.57288  1.0000
  C   C269      1.0  0.00947  0.33220  0.64824  1.0000
  H   H460      1.0  0.27809  0.26418  0.60944  1.0000
  H   H461      1.0  0.18520  0.48811  0.70138  1.0000
  H   H462      1.0  0.31399  0.98977  0.54379  1.0000
  H   H463      1.0  0.29969  0.99150  0.51398  1.0000
  H   H464      1.0  0.15808  0.44949  0.71263  1.0000
  H   H465      1.0  0.13556  0.07385  0.53125  1.0000
  C   C270      1.0  0.21349  0.32769  0.49798  1.0000
  C   C271      1.0  0.22934  0.15501  0.48582  1.0000
  H   H466      1.0  0.18762  0.32520  0.60112  1.0000
  H   H467      1.0  0.05202  0.10644  0.49660  1.0000
  H   H468      1.0  0.28011  0.31404  0.68267  1.0000
  S   S59       1.0  0.18594  0.39770  0.70540  1.0000
  H   H469      1.0  0.28318  0.27606  0.57154  1.0000
  C   C272      1.0  0.30258  0.40581  0.68819  1.0000
  C   C273      1.0  0.19918  0.45770  0.68271  1.0000
  C   C274      1.0  0.29650  0.09501  0.67369  1.0000
  H   H470      1.0  0.26833  0.13793  0.50369  1.0000
  C   C275      1.0  0.24629  0.30598  0.54716  1.0000
  C   C276      1.0  0.14372  0.47288  0.72843  1.0000
  H   H471      1.0  0.31479  0.13613  0.51510  1.0000
  H   H472      1.0  0.29114  0.13084  0.52762  1.0000
  C   C277      1.0  0.24995  0.17703  0.48845  1.0000
  H   H473      1.0  0.03545  0.09558  0.51733  1.0000
  H   H474      1.0  0.21190  0.34364  0.52809  1.0000
  Fe  Fe29      1.0  0.25748  0.36766  0.71040  1.0000
  C   C278      1.0  0.04699  0.10442  0.51273  1.0000
  H   H475      1.0  0.32262  0.01216  0.53135  1.0000
  C   C279      1.0  0.31541  0.18527  0.63236  1.0000
  H   H476      1.0  0.30400  0.44387  0.68804  1.0000
  H   H477      1.0  0.27463  0.30859  0.55106  1.0000
  H   H478      1.0  0.14133  0.38747  0.71342  1.0000
  C   C280      1.0  0.31305  0.38923  0.67719  1.0000
  C   C281      1.0  0.27132  0.27913  0.56324  1.0000
  H   H479      1.0  0.02163  0.33023  0.65592  1.0000
  C   C282      1.0  0.28423  0.42506  0.72191  1.0000
  C   C283      1.0  0.25994  0.34966  0.54115  1.0000
  C   C284      1.0  0.31603  0.04650  0.57145  1.0000
  H   H480      1.0  0.22627  0.22057  0.50512  1.0000
  H   H481      1.0  0.24114  0.33120  0.50091  1.0000
  H   H482      1.0  0.30873  0.13034  0.54160  1.0000
  H   H483      1.0  0.30008  0.11455  0.49754  1.0000
  H   H484      1.0  0.30529  0.11457  0.68568  1.0000
  H   H485      1.0  0.14500  0.48782  0.72870  1.0000
  H   H486      1.0  0.27205  0.36932  0.51496  1.0000
  H   H487      1.0  0.04040  0.11901  0.51663  1.0000
  H   H488      1.0  0.24339  0.35230  0.51969  1.0000
  C   C285      1.0  0.10580  0.14220  0.49267  1.0000
  C   C286      1.0  0.28668  0.26681  0.63535  1.0000
  C   C287      1.0  0.27752  0.13989  0.48882  1.0000
  H   H489      1.0  0.29220  0.27776  0.63956  1.0000
  H   H490      1.0  0.29694  0.27807  0.60447  1.0000
  H   H491      1.0  0.11638  0.39017  0.71107  1.0000
  H   H492      1.0  0.29142  0.22424  0.65583  1.0000
  C   C288      1.0  0.25058  0.33979  0.53005  1.0000
  N   N17       1.0  0.23607  0.32724  0.54223  1.0000
  H   H493      1.0  0.12387  0.48428  0.70786  1.0000
  H   H494      1.0  0.16087  0.19795  0.48782  1.0000
  H   H495      1.0  0.31256  0.47824  0.67902  1.0000
  H   H496      1.0  0.25647  0.30559  0.57366  1.0000
  H   H497      1.0  0.28162  0.10892  0.48837  1.0000
  C   C289      1.0  0.32623  0.99590  0.53330  1.0000
  H   H498      1.0  0.17611  0.48765  0.72651  1.0000
  H   H499      1.0  0.28708  0.15007  0.48805  1.0000
  C   C290      1.0  0.27662  0.00027  0.48602  1.0000
  H   H500      1.0  0.01351  0.34049  0.63306  1.0000
  H   H501      1.0  0.31868  0.17933  0.48958  1.0000
  H   H502      1.0  0.15076  0.41838  0.72595  1.0000
  H   H503      1.0  0.00766  0.31756  0.64753  1.0000
  H   H504      1.0  0.31218  0.45694  0.72187  1.0000
  C   C291      1.0  0.29071  0.11987  0.48641  1.0000
  H   H505      1.0  0.27977  0.41057  0.72666  1.0000
  H   H506      1.0  0.24820  0.45253  0.72914  1.0000
  H   H507      1.0  0.32007  0.20043  0.55674  1.0000
  C   C292      1.0  0.31753  0.05730  0.58447  1.0000
  H   H508      1.0  0.31990  0.21500  0.68412  1.0000
  H   H509      1.0  0.32426  0.16462  0.51950  1.0000
  S   S60       1.0  0.31926  0.09498  0.62465  1.0000
  C   C293      1.0  0.32410  0.19856  0.52580  1.0000
  H   H510      1.0  0.99615  0.33346  0.68779  1.0000
  C   C294      1.0  0.17624  0.39554  0.73040  1.0000
  S   S61       1.0  0.27759  0.35327  0.73191  1.0000
  H   H511      1.0  0.11197  0.48165  0.73332  1.0000
  H   H512      1.0  0.11396  0.33942  0.81679  1.0000
  C   C295      1.0  0.18598  0.38167  0.74414  1.0000
  C   C296      1.0  0.25242  0.44131  0.74191  1.0000
  H   H513      1.0  0.19709  0.41737  0.82407  1.0000
  H   H514      1.0  0.99925  0.46904  0.85908  1.0000
  C   C297      1.0  0.22545  0.43617  0.79939  1.0000
  H   H515      1.0  0.23158  0.42836  0.78711  1.0000
  H   H516      1.0  0.26767  0.46253  0.77043  1.0000
  H   H517      1.0  0.17406  0.48477  0.85547  1.0000
  C   C298      1.0  0.28036  0.46989  0.94231  1.0000
  H   H518      1.0  0.23244  0.41213  0.85601  1.0000
  H   H519      1.0  0.26264  0.48317  0.89010  1.0000
  H   H520      1.0  0.03802  0.40388  0.89214  1.0000
  H   H521      1.0  0.06471  0.38199  0.86032  1.0000
  Fe  Fe30      1.0  0.30616  0.39366  0.80702  1.0000
  S   S62       1.0  0.27955  0.40155  0.79318  1.0000
  H   H522      1.0  0.21005  0.44373  0.79865  1.0000
  H   H523      1.0  0.27819  0.42551  0.75314  1.0000
  S   S63       1.0  0.30610  0.37582  0.83760  1.0000
  H   H524      1.0  0.21195  0.44122  0.74038  1.0000
  H   H525      1.0  0.07628  0.35266  0.76566  1.0000
  H   H526      1.0  0.24266  0.37975  0.80821  1.0000
  S   S64       1.0  0.01851  0.39179  0.81570  1.0000
  C   C299      1.0  0.17673  0.38820  0.84514  1.0000
  H   H527      1.0  0.26822  0.34960  0.80940  1.0000
  Fe  Fe31      1.0  0.13427  0.41884  0.80296  1.0000
  S   S65       1.0  0.14898  0.38965  0.79513  1.0000
  S   S66       1.0  0.23273  0.42716  0.92448  1.0000
  C   C300      1.0  0.03145  0.40981  0.81461  1.0000
  C   C301      1.0  0.04921  0.40389  0.82123  1.0000
  C   C302      1.0  0.05955  0.41782  0.82154  1.0000
  C   C303      1.0  0.05211  0.43782  0.81530  1.0000
  C   C304      1.0  0.03448  0.44376  0.80840  1.0000
  C   C305      1.0  0.02416  0.42979  0.80800  1.0000
  H   H528      1.0  0.05480  0.38846  0.82653  1.0000
  H   H529      1.0  0.07303  0.41315  0.82703  1.0000
  H   H530      1.0  0.02874  0.45925  0.80344  1.0000
  S   S67       1.0  0.11625  0.44485  0.78623  1.0000
  C   C306      1.0  0.29180  0.41662  0.88197  1.0000
  C   C307      1.0  0.28019  0.40247  0.88772  1.0000
  C   C308      1.0  0.26212  0.40562  0.90098  1.0000
  C   C309      1.0  0.25540  0.42314  0.90802  1.0000
  C   C310      1.0  0.26686  0.43738  0.90190  1.0000
  C   C311      1.0  0.28505  0.43406  0.88904  1.0000
  H   H531      1.0  0.28541  0.38887  0.88248  1.0000
  H   H532      1.0  0.25332  0.39452  0.90574  1.0000
  H   H533      1.0  0.26191  0.45075  0.90745  1.0000
  H   H534      1.0  0.29393  0.44505  0.88463  1.0000
  Fe  Fe32      1.0  0.09678  0.44738  0.81556  1.0000
  H   H535      1.0  0.16942  0.42925  0.88806  1.0000
  H   H536      1.0  0.20197  0.37423  0.82668  1.0000
  C   C312      1.0  0.22630  0.42170  0.81891  1.0000
  H   H537      1.0  0.27240  0.36521  0.82310  1.0000
  H   H538      1.0  0.14853  0.38160  0.84699  1.0000
  Fe  Fe33      1.0  0.32025  0.39851  0.84149  1.0000
  H   H539      1.0  0.27567  0.46729  0.92985  1.0000
  H   H540      1.0  0.12500  0.47088  0.86025  1.0000
  C   C313      1.0  0.27920  0.48025  0.78317  1.0000
  C   C314      1.0  0.15045  0.40664  0.75658  1.0000
  C   C315      1.0  0.15975  0.39230  0.77030  1.0000
  C   C316      1.0  0.17748  0.37976  0.76412  1.0000
  C   C317      1.0  0.19928  0.43399  0.74509  1.0000
  C   C318      1.0  0.20632  0.39942  0.85927  1.0000
  H   H541      1.0  0.13682  0.41638  0.76129  1.0000
  H   H542      1.0  0.18472  0.36869  0.77477  1.0000
  H   H543      1.0  0.24720  0.48024  0.85014  1.0000
  C   C319      1.0  0.27778  0.36643  0.74925  1.0000
  C   C320      1.0  0.26182  0.38123  0.75461  1.0000
  C   C321      1.0  0.26235  0.39149  0.76850  1.0000
  C   C322      1.0  0.27892  0.38731  0.77688  1.0000
  C   C323      1.0  0.29475  0.37228  0.77175  1.0000
  C   C324      1.0  0.29415  0.36184  0.75801  1.0000
  H   H544      1.0  0.24897  0.38459  0.74823  1.0000
  H   H545      1.0  0.24990  0.40275  0.77269  1.0000
  H   H546      1.0  0.30744  0.36867  0.77832  1.0000
  C   C325      1.0  0.15841  0.40788  0.73660  1.0000
  H   H547      1.0  0.28013  0.44891  0.73808  1.0000
  C   C326      1.0  0.13661  0.48143  0.87948  1.0000
  H   H548      1.0  0.04009  0.36391  0.77897  1.0000
  H   H549      1.0  0.16826  0.37016  0.82989  1.0000
  H   H550      1.0  0.17319  0.40177  0.83414  1.0000
  C   C327      1.0  0.26234  0.35603  0.82269  1.0000
  N   N18       1.0  0.28159  0.48261  0.81787  1.0000
  H   H551      1.0  0.17488  0.45859  0.74985  1.0000
  Fe  Fe34      1.0  0.13353  0.46271  0.79377  1.0000
  H   H552      1.0  0.04474  0.41442  0.86645  1.0000
  H   H553      1.0  0.24171  0.41365  0.81842  1.0000
  S   S68       1.0  0.20925  0.47482  0.89307  1.0000
  H   H554      1.0  0.31522  0.46525  0.86217  1.0000
  H   H555      1.0  0.17196  0.39187  0.85986  1.0000
  H   H556      1.0  0.21029  0.41576  0.77062  1.0000
  H   H557      1.0  0.30260  0.48892  0.79086  1.0000
  H   H558      1.0  0.02354  0.37966  0.88263  1.0000
  Fe  Fe35      1.0  0.21821  0.45928  0.92158  1.0000
  C   C328      1.0  0.32363  0.46206  0.84779  1.0000
  Fe  Fe36      1.0  0.13160  0.43913  0.83541  1.0000
  H   H559      1.0  0.20125  0.36484  0.85219  1.0000
  H   H560      1.0  0.01049  0.43449  0.80284  1.0000
  H   H561      1.0  0.23884  0.44795  0.97726  1.0000
  C   C329      1.0  0.23321  0.37828  0.83996  1.0000
  H   H562      1.0  0.23420  0.44734  0.79770  1.0000
  H   H563      1.0  0.06270  0.41937  0.76387  1.0000
  H   H564      1.0  0.16958  0.47105  0.79875  1.0000
  H   H565      1.0  0.20460  0.43051  0.87730  1.0000
  S   S69       1.0  0.18933  0.47100  0.94021  1.0000
  H   H566      1.0  0.19356  0.43848  0.77490  1.0000
  C   C330      1.0  0.13538  0.46733  0.86978  1.0000
  H   H567      1.0  0.06276  0.38752  0.76751  1.0000
  H   H568      1.0  0.24420  0.38642  0.84028  1.0000
  H   H569      1.0  0.22489  0.41858  0.88911  1.0000
  C   C331      1.0  0.02433  0.39429  0.87308  1.0000
  H   H570      1.0  0.00489  0.37243  0.86063  1.0000
  H   H571      1.0  0.01541  0.43509  0.86952  1.0000
  H   H572      1.0  0.07492  0.44338  0.77503  1.0000
  C   C332      1.0  0.05029  0.35375  0.78819  1.0000
  C   C333      1.0  0.16053  0.44391  0.88538  1.0000
  H   H573      1.0  0.20657  0.46506  0.85630  1.0000
  C   C334      1.0  0.00744  0.42814  0.86272  1.0000
  H   H574      1.0  0.17595  0.48299  0.83055  1.0000
  S   S70       1.0  0.06396  0.45566  0.81695  1.0000
  H   H575      1.0  0.29142  0.45103  0.77627  1.0000
  H   H576      1.0  0.30606  0.31953  0.78302  1.0000
  H   H577      1.0  0.26941  0.46664  0.85831  1.0000
  C   C335      1.0  0.27474  0.43554  0.73943  1.0000
  H   H578      1.0  0.21134  0.46491  0.83048  1.0000
  C   C336      1.0  0.26952  0.46720  0.82742  1.0000
  H   H579      1.0  0.20697  0.47466  0.73554  1.0000
  S   S71       1.0  0.31749  0.41787  0.81207  1.0000
  H   H580      1.0  0.08977  0.38699  0.74165  1.0000
  C   C337      1.0  0.21202  0.40776  0.82288  1.0000
  C   C338      1.0  0.30983  0.46140  0.83518  1.0000
  C   C339      1.0  0.25917  0.46699  0.84905  1.0000
  C   C340      1.0  0.25022  0.44877  0.85752  1.0000
  C   C341      1.0  0.04149  0.40095  0.87716  1.0000
  S   S72       1.0  0.15351  0.43633  0.80752  1.0000
  H   H581      1.0  0.32197  0.45018  0.75450  1.0000
  S   S73       1.0  0.11348  0.41972  0.83173  1.0000
  C   C342      1.0  0.17626  0.48154  0.78709  1.0000
  H   H582      1.0  0.25758  0.46920  0.81943  1.0000
  H   H583      1.0  0.27863  0.45227  0.82627  1.0000
  H   H584      1.0  0.26977  0.45199  0.79530  1.0000
  H   H585      1.0  0.00659  0.41733  0.90089  1.0000
  C   C343      1.0  0.19980  0.46558  0.84396  1.0000
  H   H586      1.0  0.30214  0.46401  0.79909  1.0000
  C   C344      1.0  0.18033  0.44822  0.73960  1.0000
  H   H587      1.0  0.31054  0.41660  0.91840  1.0000
  H   H588      1.0  0.23252  0.35852  0.82130  1.0000
  H   H589      1.0  0.13191  0.37923  0.74922  1.0000
  H   H590      1.0  0.07246  0.39042  0.87795  1.0000
  H   H591      1.0  0.30102  0.45033  0.84361  1.0000
  H   H592      1.0  0.24599  0.44768  0.75518  1.0000
  H   H593      1.0  0.30892  0.29332  0.79145  1.0000
  H   H594      1.0  0.24008  0.44806  0.84860  1.0000
  H   H595      1.0  0.26195  0.43523  0.85789  1.0000
  H   H596      1.0  0.24199  0.44914  0.87269  1.0000
  H   H597      1.0  0.02886  0.39154  0.85793  1.0000
  H   H598      1.0  0.31906  0.45626  0.82196  1.0000
  H   H599      1.0  0.20345  0.40806  0.89561  1.0000
  H   H600      1.0  0.12760  0.35804  0.81441  1.0000
  C   C345      1.0  0.19899  0.37870  0.84099  1.0000
  C   C346      1.0  0.21316  0.41598  0.88331  1.0000
  H   H601      1.0  0.29348  0.45840  0.94540  1.0000
  H   H602      1.0  0.26845  0.46850  0.95548  1.0000
  C   C347      1.0  0.14729  0.44851  0.87284  1.0000
  S   S74       1.0  0.14590  0.43021  0.86156  1.0000
  H   H603      1.0  0.23391  0.48224  0.96721  1.0000
  S   S75       1.0  0.31551  0.41227  0.86745  1.0000
  H   H604      1.0  0.08351  0.41858  0.74373  1.0000
  H   H605      1.0  0.23140  0.38997  0.87402  1.0000
  C   C348      1.0  0.29228  0.47879  0.79789  1.0000
  H   H606      1.0  0.26207  0.34388  0.83578  1.0000
  H   H607      1.0  0.05839  0.37140  0.88616  1.0000
  H   H608      1.0  0.31061  0.42792  0.74158  1.0000
  C   C349      1.0  0.31499  0.30621  0.79082  1.0000
  H   H609      1.0  0.17271  0.45458  0.90399  1.0000
  H   H610      1.0  0.19292  0.45262  0.84750  1.0000
  H   H611      1.0  0.30646  0.35027  0.75401  1.0000
  H   H612      1.0  0.31258  0.40296  0.74197  1.0000
  H   H613      1.0  0.09522  0.44289  0.75419  1.0000
  C   C350      1.0  0.24168  0.36846  0.82194  1.0000
  H   H614      1.0  0.22196  0.43051  0.83037  1.0000
  H   H615      1.0  0.10739  0.35469  0.83470  1.0000
  C   C351      1.0  0.12014  0.38687  0.74088  1.0000
  H   H616      1.0  0.21427  0.40182  0.80950  1.0000
  H   H617      1.0  0.16640  0.36068  0.85596  1.0000
  C   C352      1.0  0.22234  0.40396  0.86739  1.0000
  S   S76       1.0  0.11290  0.46722  0.82211  1.0000
  H   H618      1.0  0.20182  0.47689  0.79927  1.0000
  C   C353      1.0  0.19666  0.42619  0.76716  1.0000
  N   N19       1.0  0.00458  0.40830  0.87520  1.0000
  C   C354      1.0  0.27694  0.46023  0.78130  1.0000
  C   C355      1.0  0.10071  0.37993  0.75118  1.0000
  H   H619      1.0  0.08053  0.34678  0.79023  1.0000
  H   H620      1.0  0.23320  0.36636  0.85334  1.0000
  C   C356      1.0  0.16431  0.37421  0.84445  1.0000
  C   C357      1.0  0.16229  0.45819  0.89449  1.0000
  H   H621      1.0  0.16937  0.43875  0.74354  1.0000
  H   H622      1.0  0.19447  0.41291  0.85747  1.0000
  H   H623      1.0  0.31373  0.30810  0.80592  1.0000
  N   N20       1.0  0.09240  0.38328  0.77175  1.0000
  C   C358      1.0  0.10606  0.37017  0.78483  1.0000
  C   C359      1.0  0.29660  0.48183  0.82949  1.0000
  C   C360      1.0  0.09073  0.40431  0.77285  1.0000
  C   C361      1.0  0.07216  0.37867  0.77811  1.0000
  H   H624      1.0  0.29638  0.47795  0.89543  1.0000
  C   C362      1.0  0.09856  0.36946  0.80711  1.0000
  C   C363      1.0  0.07845  0.42022  0.75916  1.0000
  C   C364      1.0  0.07987  0.44084  0.75983  1.0000
  H   H625      1.0  0.99827  0.40128  0.93584  1.0000
  H   H626      1.0  0.04519  0.35623  0.80339  1.0000
  C   C365      1.0  0.11279  0.35446  0.81890  1.0000
  C   C366      1.0  0.07127  0.35691  0.78013  1.0000
  H   H627      1.0  0.12028  0.37502  0.78101  1.0000
  H   H628      1.0  0.11006  0.35488  0.78234  1.0000
  C   C367      1.0  0.06036  0.38515  0.87528  1.0000
  C   C368      1.0  0.19447  0.48487  0.78743  1.0000
  H   H629      1.0  0.10553  0.40765  0.77024  1.0000
  H   H630      1.0  0.08375  0.40665  0.78789  1.0000
  H   H631      1.0  0.06446  0.38327  0.79212  1.0000
  H   H632      1.0  0.19976  0.37209  0.73934  1.0000
  H   H633      1.0  0.10372  0.36399  0.75109  1.0000
  H   H634      1.0  0.30633  0.44300  0.91409  1.0000
  H   H635      1.0  0.09721  0.38399  0.81053  1.0000
  H   H636      1.0  0.08412  0.36517  0.81242  1.0000
  H   H637      1.0  0.00406  0.46335  0.83512  1.0000
  N   N21       1.0  0.21294  0.39133  0.84069  1.0000
  H   H638      1.0  0.99454  0.37088  0.88607  1.0000
  H   H639      1.0  0.18436  0.41827  0.77252  1.0000
  H   H640      1.0  0.19950  0.38875  0.87157  1.0000
  S   S77       1.0  0.23302  0.48250  0.92324  1.0000
  H   H641      1.0  0.04979  0.33841  0.78841  1.0000
  H   H642      1.0  0.14276  0.46390  0.74349  1.0000
  C   C369      1.0  0.15024  0.47693  0.89165  1.0000
  H   H643      1.0  0.23037  0.42562  0.98058  1.0000
  H   H644      1.0  0.01697  0.42635  0.84826  1.0000
  C   C370      1.0  0.22608  0.44192  0.97746  1.0000
  Fe  Fe37      1.0  0.18173  0.48854  0.91157  1.0000
  H   H645      1.0  0.11816  0.40296  0.73931  1.0000
  H   H646      1.0  0.00505  0.38023  0.91147  1.0000
  H   H647      1.0  0.31808  0.42804  0.93392  1.0000
  C   C371      1.0  0.31670  0.42914  0.91870  1.0000
  H   H648      1.0  0.32517  0.46851  0.76558  1.0000
  H   H649      1.0  0.20283  0.42109  0.73807  1.0000
  C   C372      1.0  0.18407  0.48429  0.84116  1.0000
  H   H650      1.0  0.24623  0.42828  0.74341  1.0000
  S   S78       1.0  0.14417  0.48757  0.77072  1.0000
  H   H651      1.0  0.28632  0.48742  0.76852  1.0000
  H   H652      1.0  0.07032  0.45199  0.75058  1.0000
  H   H653      1.0  0.22239  0.44682  0.96270  1.0000
  C   C373      1.0  0.99657  0.41099  0.89601  1.0000
  H   H654      1.0  0.28942  0.48746  0.84313  1.0000
  Fe  Fe38      1.0  0.21190  0.52607  0.07741  1.0000
  S   S79       1.0  0.23814  0.53259  0.05410  1.0000
  S   S80       1.0  0.18352  0.54824  0.07828  1.0000
  H   H655      1.0  0.18023  0.51663  0.15732  1.0000
  H   H656      1.0  0.05284  0.51346  0.14031  1.0000
  C   C374      1.0  0.19096  0.51630  0.16614  1.0000
  Fe  Fe39      1.0  0.25443  0.52159  0.07884  1.0000
  S   S81       1.0  0.27837  0.53551  0.08104  1.0000
  Fe  Fe40      1.0  0.24322  0.50097  0.05222  1.0000
  C   C375      1.0  0.20885  0.49970  0.16112  1.0000
  S   S82       1.0  0.22777  0.51747  0.10217  1.0000
  H   H657      1.0  0.21947  0.49699  0.17075  1.0000
  H   H658      1.0  0.25240  0.53517  0.98896  1.0000
  C   C376      1.0  0.22312  0.51159  0.00830  1.0000
  Fe  Fe41      1.0  0.11914  0.51721  0.17936  1.0000
  H   H659      1.0  0.06021  0.52168  0.18447  1.0000
  C   C377      1.0  0.32096  0.63031  0.19339  1.0000
  H   H660      1.0  0.06150  0.54004  0.21084  1.0000
  N   N22       1.0  0.05248  0.53552  0.15609  1.0000
  H   H661      1.0  0.13840  0.55815  0.19218  1.0000
  C   C378      1.0  0.20542  0.57251  0.11229  1.0000
  S   S83       1.0  0.10682  0.52885  0.20693  1.0000
  H   H662      1.0  0.99510  0.54736  0.18651  1.0000
  C   C379      1.0  0.19963  0.54446  0.14113  1.0000
  H   H663      1.0  0.06167  0.59899  0.12015  1.0000
  H   H664      1.0  0.07446  0.53863  0.17004  1.0000
  H   H665      1.0  0.04178  0.56610  0.17734  1.0000
  C   C380      1.0  0.01929  0.52587  0.17397  1.0000
  H   H666      1.0  0.04043  0.57704  0.14199  1.0000
  C   C381      1.0  0.32157  0.61688  0.21353  1.0000
  H   H667      1.0  0.15412  0.53975  0.16541  1.0000
  C   C382      1.0  0.19872  0.58951  0.19687  1.0000
  C   C383      1.0  0.32421  0.49244  0.08933  1.0000
  C   C384      1.0  0.03040  0.54069  0.15837  1.0000
  Fe  Fe42      1.0  0.30593  0.55601  0.16737  1.0000
  S   S84       1.0  0.31152  0.57250  0.18720  1.0000
  C   C385      1.0  0.05649  0.57118  0.13888  1.0000
  C   C386      1.0  0.06147  0.54908  0.13831  1.0000
  H   H668      1.0  0.21363  0.53568  0.13437  1.0000
  H   H669      1.0  0.21440  0.56829  0.13942  1.0000
  H   H670      1.0  0.17369  0.54244  0.18875  1.0000
  S   S85       1.0  0.14760  0.50108  0.18788  1.0000
  S   S86       1.0  0.27627  0.56118  0.15945  1.0000
  H   H671      1.0  0.16437  0.51055  0.05017  1.0000
  H   H672      1.0  0.24646  0.56752  0.19435  1.0000
  H   H673      1.0  0.22622  0.52760  0.16281  1.0000
  Fe  Fe43      1.0  0.09479  0.50111  0.21793  1.0000
  H   H674      1.0  0.07779  0.54502  0.13582  1.0000
  C   C387      1.0  0.16493  0.54486  0.09919  1.0000
  C   C388      1.0  0.14753  0.55914  0.10031  1.0000
  C   C389      1.0  0.13219  0.55709  0.11655  1.0000
  C   C390      1.0  0.05720  0.55422  0.20082  1.0000
  C   C391      1.0  0.15156  0.52638  0.13096  1.0000
  C   C392      1.0  0.16702  0.52842  0.11454  1.0000
  H   H675      1.0  0.14588  0.57183  0.08847  1.0000
  H   H676      1.0  0.11879  0.56824  0.11722  1.0000
  S   S87       1.0  0.21551  0.49533  0.07358  1.0000
  H   H677      1.0  0.18041  0.51725  0.11365  1.0000
  C   C393      1.0  0.27713  0.54337  0.10263  1.0000
  C   C394      1.0  0.29319  0.54975  0.10462  1.0000
  C   C395      1.0  0.29323  0.55492  0.12211  1.0000
  C   C396      1.0  0.27687  0.55442  0.13746  1.0000
  C   C397      1.0  0.26055  0.54868  0.13523  1.0000
  C   C398      1.0  0.26076  0.54287  0.11801  1.0000
  H   H678      1.0  0.30580  0.55041  0.09269  1.0000
  H   H679      1.0  0.30573  0.55971  0.12353  1.0000
  H   H680      1.0  0.24785  0.54858  0.14696  1.0000
  H   H681      1.0  0.24830  0.53810  0.11659  1.0000
  H   H682      1.0  0.17508  0.59398  0.18158  1.0000
  C   C399      1.0  0.21261  0.53561  0.17118  1.0000
  H   H683      1.0  0.05405  0.50420  0.16534  1.0000
  Fe  Fe44      1.0  0.13467  0.51084  0.21641  1.0000
  H   H684      1.0  0.18079  0.56353  0.17280  1.0000
  H   H685      1.0  0.12796  0.56843  0.17064  1.0000
  H   H686      1.0  0.18606  0.61491  0.17649  1.0000
  H   H687      1.0  0.14460  0.58040  0.17585  1.0000
  C   C400      1.0  0.06505  0.58324  0.11928  1.0000
  N   N23       1.0  0.22844  0.58920  0.21116  1.0000
  H   H688      1.0  0.18752  0.59320  0.20985  1.0000
  C   C401      1.0  0.23894  0.56838  0.20970  1.0000
  C   C402      1.0  0.24264  0.60198  0.20930  1.0000
  C   C403      1.0  0.21732  0.59754  0.19471  1.0000
  H   H689      1.0  0.26646  0.56678  0.21874  1.0000
  C   C404      1.0  0.05919  0.53616  0.17412  1.0000
  C   C405      1.0  0.25869  0.60299  0.19030  1.0000
  C   C406      1.0  0.29345  0.49515  0.12757  1.0000
  H   H690      1.0  0.20242  0.57330  0.19839  1.0000
  H   H691      1.0  0.25270  0.52857  0.22487  1.0000
  N   N24       1.0  0.19516  0.53647  0.16287  1.0000
  C   C407      1.0  0.27293  0.61534  0.19048  1.0000
  H   H692      1.0  0.03275  0.54651  0.19513  1.0000
  H   H693      1.0  0.30728  0.62151  0.22315  1.0000
  S   S88       1.0  0.15953  0.51761  0.22576  1.0000
  H   H694      1.0  0.27103  0.53750  0.20451  1.0000
  C   C408      1.0  0.25445  0.55865  0.22272  1.0000
  H   H695      1.0  0.23465  0.61739  0.20973  1.0000
  H   H696      1.0  0.21295  0.61385  0.19245  1.0000
  H   H697      1.0  0.22707  0.59474  0.18056  1.0000
  C   C409      1.0  0.21109  0.51682  0.99441  1.0000
  C   C410      1.0  0.18923  0.59860  0.17903  1.0000
  H   H698      1.0  0.02418  0.55548  0.16182  1.0000
  H   H699      1.0  0.19905  0.59379  0.16576  1.0000
  H   H700      1.0  0.25198  0.60983  0.17726  1.0000
  H   H701      1.0  0.26739  0.58820  0.18846  1.0000
  S   S89       1.0  0.06338  0.50012  0.23418  1.0000
  H   H702      1.0  0.28883  0.50143  0.11336  1.0000
  H   H703      1.0  0.22970  0.51533  0.21473  1.0000
  H   H704      1.0  0.30268  0.49853  0.06087  1.0000
  C   C411      1.0  0.05935  0.51490  0.15220  1.0000
  H   H705      1.0  0.31328  0.50661  0.08782  1.0000
  H   H706      1.0  0.02540  0.52101  0.18745  1.0000
  H   H707      1.0  0.02065  0.51262  0.16812  1.0000
  H   H708      1.0  0.19863  0.52905  0.99526  1.0000
  C   C412      1.0  0.21484  0.58878  0.23091  1.0000
  H   H709      1.0  0.20696  0.58808  0.10784  1.0000
  H   H710      1.0  0.28071  0.60859  0.20282  1.0000
  H   H711      1.0  0.05863  0.58186  0.10738  1.0000
  S   S90       1.0  0.26195  0.49042  0.07494  1.0000
  H   H712      1.0  0.21520  0.55061  0.16925  1.0000
  C   C413      1.0  0.20179  0.56620  0.13459  1.0000
  C   C414      1.0  0.14137  0.56593  0.17664  1.0000
  H   H713      1.0  0.22814  0.55873  0.21361  1.0000
  H   H714      1.0  0.24068  0.50841  0.19148  1.0000
  H   H715      1.0  0.31781  0.64598  0.19447  1.0000
  H   H716      1.0  0.31996  0.51701  0.11345  1.0000
  C   C415      1.0  0.15852  0.55356  0.16474  1.0000
  C   C416      1.0  0.17745  0.54930  0.17297  1.0000
  C   C417      1.0  0.21108  0.52646  0.19334  1.0000
  C   C418      1.0  0.08189  0.50751  0.14650  1.0000
  H   H717      1.0  0.18834  0.57626  0.14052  1.0000
  C   C419      1.0  0.02710  0.49558  0.23224  1.0000
  C   C420      1.0  0.26393  0.53768  0.22007  1.0000
  H   H718      1.0  0.19294  0.57117  0.10663  1.0000
  H   H719      1.0  0.21993  0.51976  0.01980  1.0000
  H   H720      1.0  0.08129  0.57825  0.11567  1.0000
  H   H721      1.0  0.24981  0.59736  0.22217  1.0000
  C   C421      1.0  0.13413  0.54078  0.13191  1.0000
  C   C422      1.0  0.23132  0.52055  0.19867  1.0000
  H   H722      1.0  0.18832  0.54274  0.13402  1.0000
  H   H723      1.0  0.23873  0.53322  0.19392  1.0000
  C   C423      1.0  0.99740  0.53463  0.17957  1.0000
  H   H724      1.0  0.21661  0.50332  0.14571  1.0000
  H   H725      1.0  0.20520  0.57811  0.23360  1.0000
  H   H726      1.0  0.04750  0.56483  0.20976  1.0000
  H   H727      1.0  0.20475  0.51314  0.19795  1.0000
  S   S91       1.0  0.11423  0.53907  0.15179  1.0000
  H   H728      1.0  0.20154  0.53731  0.20211  1.0000
  H   H729      1.0  0.18374  0.51153  0.18161  1.0000
  C   C424      1.0  0.04632  0.55149  0.18645  1.0000
  H   H730      1.0  0.05745  0.54744  0.12497  1.0000
  S   S92       1.0  0.10577  0.49064  0.18976  1.0000
  H   H731      1.0  0.16057  0.56164  0.14929  1.0000
  H   H732      1.0  0.15298  0.51357  0.14266  1.0000
  H   H733      1.0  0.19616  0.61816  0.22178  1.0000
  H   H734      1.0  0.28405  0.61603  0.17659  1.0000
  H   H735      1.0  0.06321  0.57355  0.15008  1.0000
  H   H736      1.0  0.32263  0.60172  0.21209  1.0000
  H   H737      1.0  0.21914  0.56333  0.10544  1.0000
  H   H738      1.0  0.30931  0.62798  0.18725  1.0000
  S   S93       1.0  0.31536  0.52653  0.18588  1.0000
  C   C425      1.0  0.17047  0.50375  0.03712  1.0000
  H   H739      1.0  0.29444  0.50729  0.13389  1.0000
  H   H740      1.0  0.08749  0.51435  0.13110  1.0000
  H   H741      1.0  0.18039  0.51281  0.02655  1.0000
  H   H742      1.0  0.02627  0.54174  0.14421  1.0000
  Fe  Fe45      1.0  0.32349  0.54290  0.20401  1.0000
  H   H743      1.0  0.27649  0.52583  0.99454  1.0000
  H   H744      1.0  0.08958  0.51126  0.15603  1.0000
  H   H745      1.0  0.26502  0.63055  0.19181  1.0000
  H   H746      1.0  0.99865  0.49184  0.23102  1.0000
  H   H747      1.0  0.30401  0.57597  0.22629  1.0000
  H   H748      1.0  0.07056  0.56002  0.19283  1.0000
  C   C426      1.0  0.23923  0.49581  0.00725  1.0000
  H   H749      1.0  0.27533  0.53124  0.22909  1.0000
  C   C427      1.0  0.01408  0.48961  0.22440  1.0000
  C   C428      1.0  0.04713  0.49331  0.22351  1.0000
  H   H750      1.0  0.26327  0.49674  0.14330  1.0000
  H   H751      1.0  0.15815  0.50387  0.03043  1.0000
  C   C429      1.0  0.20206  0.60897  0.23468  1.0000
  Fe  Fe46      1.0  0.22092  0.57606  0.29272  1.0000
  S   S94       1.0  0.19073  0.59176  0.30479  1.0000
  H   H752      1.0  0.30233  0.78049  0.47493  1.0000
  Fe  Fe47      1.0  0.21243  0.53565  0.31335  1.0000
  S   S95       1.0  0.18177  0.54850  0.32729  1.0000
  S   S96       1.0  0.22392  0.50312  0.31438  1.0000
  Fe  Fe48      1.0  0.18045  0.56789  0.29763  1.0000
  S   S97       1.0  0.15453  0.57322  0.28297  1.0000
  Fe  Fe49      1.0  0.19549  0.57082  0.33298  1.0000
  S   S98       1.0  0.18684  0.58099  0.36186  1.0000
  S   S99       1.0  0.21046  0.55397  0.28342  1.0000
  S   S100      1.0  0.22644  0.55634  0.32127  1.0000
  H   H753      1.0  0.28453  0.52821  0.26996  1.0000
  Fe  Fe50      1.0  0.22891  0.63726  0.41216  1.0000
  S   S101      1.0  0.21757  0.66984  0.40424  1.0000
  S   S102      1.0  0.24249  0.62160  0.38688  1.0000
  Fe  Fe51      1.0  0.22010  0.63756  0.45567  1.0000
  S   S103      1.0  0.20856  0.67003  0.45108  1.0000
  H   H754      1.0  0.21106  0.61722  0.23863  1.0000
  Fe  Fe52      1.0  0.19320  0.66503  0.43007  1.0000
  S   S104      1.0  0.16146  0.67963  0.43123  1.0000
  Fe  Fe53      1.0  0.23410  0.67178  0.42593  1.0000
  S   S105      1.0  0.25061  0.69621  0.41855  1.0000
  S   S106      1.0  0.20293  0.63221  0.43628  1.0000
  S   S107      1.0  0.24725  0.63954  0.43221  1.0000
  C   C430      1.0  0.23926  0.79272  0.46967  1.0000
  H   H755      1.0  0.25314  0.83085  0.40578  1.0000
  C   C431      1.0  0.11502  0.51852  0.27618  1.0000
  H   H756      1.0  0.29115  0.49374  0.24042  1.0000
  H   H757      1.0  0.14517  0.67006  0.48369  1.0000
  H   H758      1.0  0.25905  0.49480  0.23514  1.0000
  H   H759      1.0  0.01311  0.86159  0.46179  1.0000
  H   H760      1.0  0.30781  0.63480  0.24924  1.0000
  H   H761      1.0  0.10652  0.50742  0.34733  1.0000
  H   H762      1.0  0.14425  0.63500  0.39018  1.0000
  H   H763      1.0  0.13362  0.64756  0.35530  1.0000
  H   H764      1.0  0.14478  0.71295  0.38440  1.0000
  C   C432      1.0  0.18458  0.60635  0.25153  1.0000
  H   H765      1.0  0.24586  0.82149  0.46103  1.0000
  C   C433      1.0  0.11396  0.50555  0.29703  1.0000
  H   H766      1.0  0.00632  0.81491  0.44795  1.0000
  C   C434      1.0  0.15788  0.70285  0.43665  1.0000
  C   C435      1.0  0.14015  0.71071  0.44812  1.0000
  C   C436      1.0  0.13777  0.72876  0.45345  1.0000
  C   C437      1.0  0.15296  0.73916  0.44691  1.0000
  C   C438      1.0  0.17035  0.73163  0.43478  1.0000
  C   C439      1.0  0.17298  0.71331  0.43000  1.0000
  H   H767      1.0  0.18913  0.65750  0.37853  1.0000
  H   H768      1.0  0.14988  0.65380  0.41038  1.0000
  H   H769      1.0  0.18205  0.73968  0.42955  1.0000
  H   H770      1.0  0.18668  0.70733  0.42108  1.0000
  C   C440      1.0  0.27051  0.69251  0.42990  1.0000
  C   C441      1.0  0.27707  0.67442  0.44167  1.0000
  H   H771      1.0  0.12690  0.57161  0.26098  1.0000
  C   C442      1.0  0.30466  0.68633  0.44464  1.0000
  C   C443      1.0  0.29753  0.70472  0.43370  1.0000
  C   C444      1.0  0.28071  0.70765  0.42602  1.0000
  H   H772      1.0  0.26917  0.66274  0.44489  1.0000
  H   H773      1.0  0.31800  0.66555  0.34926  1.0000
  H   H774      1.0  0.27577  0.72158  0.41677  1.0000
  H   H775      1.0  0.26521  0.80314  0.45218  1.0000
  H   H776      1.0  0.17594  0.64319  0.40684  1.0000
  H   H777      1.0  0.28207  0.85298  0.40871  1.0000
  H   H778      1.0  0.23374  0.74850  0.45821  1.0000
  S   S108      1.0  0.15118  0.76080  0.45484  1.0000
  H   H779      1.0  0.17066  0.88518  0.47818  1.0000
  H   H780      1.0  0.29080  0.64238  0.42023  1.0000
  C   C445      1.0  0.13670  0.52954  0.32600  1.0000
  C   C446      1.0  0.30186  0.83487  0.44867  1.0000
  C   C447      1.0  0.30459  0.82052  0.43774  1.0000
  C   C448      1.0  0.30505  0.80088  0.44715  1.0000
  C   C449      1.0  0.10872  0.49362  0.34217  1.0000
  H   H781      1.0  0.99476  0.81064  0.42031  1.0000
  H   H782      1.0  0.30195  0.84999  0.44136  1.0000
  C   C450      1.0  0.31548  0.97363  0.48379  1.0000
  H   H783      1.0  0.16973  0.64700  0.46473  1.0000
  H   H784      1.0  0.15197  0.52980  0.31779  1.0000
  H   H785      1.0  0.09883  0.51012  0.30535  1.0000
  C   C451      1.0  0.14644  0.62831  0.33485  1.0000
  C   C452      1.0  0.26314  0.57691  0.26243  1.0000
  S   S109      1.0  0.31171  0.73072  0.47023  1.0000
  H   H786      1.0  0.29971  0.65705  0.45740  1.0000
  H   H787      1.0  0.30906  0.63109  0.36792  1.0000
  H   H788      1.0  0.27140  0.82049  0.41998  1.0000
  H   H789      1.0  0.14328  0.62227  0.36583  1.0000
  C   C453      1.0  0.20387  0.59019  0.36904  1.0000
  C   C454      1.0  0.20052  0.59240  0.38845  1.0000
  C   C455      1.0  0.21245  0.60171  0.39416  1.0000
  C   C456      1.0  0.22816  0.60850  0.38057  1.0000
  C   C457      1.0  0.23205  0.60553  0.36134  1.0000
  C   C458      1.0  0.21986  0.59655  0.35554  1.0000
  H   H790      1.0  0.18839  0.58721  0.39903  1.0000
  H   H791      1.0  0.20945  0.60366  0.40906  1.0000
  H   H792      1.0  0.24421  0.61066  0.35075  1.0000
  H   H793      1.0  0.22264  0.59487  0.34055  1.0000
  C   C459      1.0  0.15635  0.55891  0.26575  1.0000
  C   C460      1.0  0.15991  0.63563  0.38824  1.0000
  C   C461      1.0  0.17351  0.54523  0.26067  1.0000
  H   H794      1.0  0.24771  0.55801  0.23842  1.0000
  C   C462      1.0  0.14103  0.54883  0.24440  1.0000
  C   C463      1.0  0.21306  0.83493  0.41901  1.0000
  H   H795      1.0  0.31896  0.49419  0.26195  1.0000
  C   C464      1.0  0.25380  0.84779  0.42666  1.0000
  H   H796      1.0  0.02158  0.50201  0.24509  1.0000
  H   H797      1.0  0.18270  0.71791  0.47160  1.0000
  H   H798      1.0  0.18772  0.67437  0.34117  1.0000
  H   H799      1.0  0.04103  0.83709  0.48113  1.0000
  H   H800      1.0  0.21873  0.83620  0.44662  1.0000
  C   C465      1.0  0.15653  0.64243  0.47480  1.0000
  C   C466      1.0  0.22143  0.82489  0.43777  1.0000
  H   H801      1.0  0.18693  0.50655  0.34273  1.0000
  H   H802      1.0  0.99945  0.88544  0.43420  1.0000
  H   H803      1.0  0.27957  0.61857  0.40722  1.0000
  H   H804      1.0  0.18270  0.82746  0.47076  1.0000
  H   H805      1.0  0.28587  0.68398  0.36357  1.0000
  C   C467      1.0  0.23335  0.73382  0.45641  1.0000
  H   H806      1.0  0.12760  0.56154  0.32006  1.0000
  H   H807      1.0  0.12899  0.51330  0.26640  1.0000
  H   H808      1.0  0.12839  0.55011  0.23831  1.0000
  H   H809      1.0  0.23846  0.85631  0.42855  1.0000
  N   N25       1.0  0.30249  0.64953  0.38908  1.0000
  C   C468      1.0  0.16130  0.64063  0.40737  1.0000
  H   H810      1.0  0.16181  0.67844  0.39073  1.0000
  H   H811      1.0  0.30549  0.71640  0.43041  1.0000
  H   H812      1.0  0.28823  0.60565  0.28332  1.0000
  C   C469      1.0  0.15752  0.62385  0.42482  1.0000
  H   H813      1.0  0.24834  0.72782  0.44875  1.0000
  C   C470      1.0  0.24517  0.49255  0.26526  1.0000
  C   C471      1.0  0.30206  0.79567  0.46758  1.0000
  N   N26       1.0  0.12886  0.50644  0.30801  1.0000
  N   N27       1.0  0.24275  0.81454  0.43472  1.0000
  H   H814      1.0  0.17733  0.62634  0.35230  1.0000
  H   H815      1.0  0.28707  0.66356  0.35265  1.0000
  C   C472      1.0  0.14021  0.56094  0.25726  1.0000
  C   C473      1.0  0.24484  0.79695  0.42605  1.0000
  C   C474      1.0  0.26545  0.78318  0.42377  1.0000
  H   H816      1.0  0.20140  0.65069  0.33653  1.0000
  C   C475      1.0  0.12423  0.52661  0.31271  1.0000
  C   C476      1.0  0.14603  0.63481  0.35352  1.0000
  H   H817      1.0  0.07237  0.75810  0.48118  1.0000
  C   C477      1.0  0.26600  0.76620  0.41447  1.0000
  H   H818      1.0  0.16026  0.62646  0.48115  1.0000
  H   H819      1.0  0.22402  0.74581  0.42854  1.0000
  H   H820      1.0  0.09923  0.52789  0.25241  1.0000
  S   S110      1.0  0.24184  0.59324  0.27088  1.0000
  H   H821      1.0  0.27487  0.59927  0.23975  1.0000
  H   H822      1.0  0.25266  0.50334  0.26730  1.0000
  H   H823      1.0  0.26512  0.87452  0.41559  1.0000
  H   H824      1.0  0.18254  0.83373  0.43280  1.0000
  H   H825      1.0  0.23391  0.78793  0.43476  1.0000
  H   H826      1.0  0.24143  0.80182  0.41116  1.0000
  H   H827      1.0  0.26975  0.77674  0.43813  1.0000
  H   H828      1.0  0.27666  0.79124  0.41406  1.0000
  C   C478      1.0  0.28793  0.61887  0.27127  1.0000
  C   C479      1.0  0.19140  0.84481  0.42424  1.0000
  H   H829      1.0  0.21404  0.82406  0.41019  1.0000
  C   C480      1.0  0.30868  0.66712  0.39151  1.0000
  H   H830      1.0  0.99840  0.84885  0.44226  1.0000
  H   H831      1.0  0.25893  0.84534  0.44051  1.0000
  H   H832      1.0  0.26275  0.77179  0.39955  1.0000
  H   H833      1.0  0.28090  0.75655  0.41330  1.0000
  H   H834      1.0  0.25522  0.75729  0.42354  1.0000
  C   C481      1.0  0.19179  0.90181  0.47686  1.0000
  H   H835      1.0  0.28063  0.61703  0.26027  1.0000
  H   H836      1.0  0.25526  0.55145  0.28337  1.0000
  C   C482      1.0  0.12820  0.54903  0.33280  1.0000
  C   C483      1.0  0.02696  0.82033  0.46963  1.0000
  C   C484      1.0  0.21902  0.73668  0.44301  1.0000
  C   C485      1.0  0.27705  0.58382  0.24646  1.0000
  H   H837      1.0  0.20397  0.88866  0.47745  1.0000
  C   C486      1.0  0.18747  0.65031  0.36738  1.0000
  C   C487      1.0  0.29568  0.60188  0.42921  1.0000
  C   C488      1.0  0.28251  0.54373  0.26343  1.0000
  C   C489      1.0  0.18918  0.49349  0.33703  1.0000
  H   H838      1.0  0.11319  0.54914  0.34186  1.0000
  H   H839      1.0  0.12663  0.53795  0.29908  1.0000
  H   H840      1.0  0.15124  0.51516  0.28310  1.0000
  H   H841      1.0  0.32628  0.93593  0.47613  1.0000
  H   H842      1.0  0.11384  0.53406  0.27652  1.0000
  S   S111      1.0  0.32705  0.68175  0.45219  1.0000
  H   H843      1.0  0.15192  0.67624  0.35231  1.0000
  H   H844      1.0  0.14876  0.64030  0.32183  1.0000
  H   H845      1.0  0.16892  0.61032  0.42298  1.0000
  H   H846      1.0  0.21355  0.67601  0.35802  1.0000
  C   C490      1.0  0.21657  0.66561  0.34808  1.0000
  H   H847      1.0  0.13763  0.55107  0.34181  1.0000
  C   C491      1.0  0.15805  0.53471  0.23996  1.0000
  C   C492      1.0  0.29891  0.81013  0.47855  1.0000
  C   C493      1.0  0.19753  0.66064  0.34706  1.0000
  C   C494      1.0  0.29605  0.55057  0.24704  1.0000
  H   H848      1.0  0.22102  0.84645  0.40978  1.0000
  H   H849      1.0  0.30461  0.60790  0.39793  1.0000
  H   H850      1.0  0.14278  0.62076  0.42650  1.0000
  H   H851      1.0  0.13737  0.66759  0.37504  1.0000
  H   H852      1.0  0.18573  0.85214  0.41065  1.0000
  C   C495      1.0  0.29343  0.57063  0.23871  1.0000
  C   C496      1.0  0.14945  0.50293  0.29600  1.0000
  H   H853      1.0  0.24338  0.77856  0.46475  1.0000
  C   C497      1.0  0.29921  0.82967  0.46906  1.0000
  H   H854      1.0  0.24890  0.64291  0.47399  1.0000
  C   C498      1.0  0.25565  0.82789  0.42095  1.0000
  H   H855      1.0  0.21198  0.81440  0.44653  1.0000
  H   H856      1.0  0.12771  0.69712  0.38939  1.0000
  H   H857      1.0  0.26133  0.86429  0.39686  1.0000
  C   C499      1.0  0.26638  0.86061  0.41093  1.0000
  C   C500      1.0  0.29483  0.61578  0.40933  1.0000
  H   H858      1.0  0.13615  0.70937  0.36444  1.0000
  H   H859      1.0  0.32529  0.69311  0.40094  1.0000
  H   H860      1.0  0.22692  0.65202  0.35346  1.0000
  H   H861      1.0  0.32671  0.49164  0.23658  1.0000
  H   H862      1.0  0.20412  0.74417  0.44954  1.0000
  H   H863      1.0  0.21395  0.71530  0.47692  1.0000
  H   H864      1.0  0.03036  0.80517  0.46689  1.0000
  S   S112      1.0  0.01115  0.75492  0.46467  1.0000
  H   H865      1.0  0.16834  0.62039  0.38777  1.0000
  H   H866      1.0  0.15817  0.62800  0.43837  1.0000
  H   H867      1.0  0.29679  0.67526  0.40149  1.0000
  H   H868      1.0  0.19648  0.63524  0.37042  1.0000
  H   H869      1.0  0.15838  0.61515  0.33299  1.0000
  C   C501      1.0  0.24903  0.80851  0.45418  1.0000
  C   C502      1.0  0.28210  0.65610  0.38461  1.0000
  S   S113      1.0  0.30946  0.78307  0.43311  1.0000
  H   H870      1.0  0.13226  0.62435  0.33582  1.0000
  C   C503      1.0  0.12774  0.49063  0.32634  1.0000
  H   H871      1.0  0.18956  0.85607  0.43296  1.0000
  C   C504      1.0  0.27978  0.67091  0.36516  1.0000
  C   C505      1.0  0.25814  0.67834  0.36391  1.0000
  C   C506      1.0  0.15773  0.68466  0.37633  1.0000
  C   C507      1.0  0.30111  0.63513  0.40853  1.0000
  H   H872      1.0  0.27650  0.64341  0.38378  1.0000
  H   H873      1.0  0.27165  0.66261  0.39675  1.0000
  C   C508      1.0  0.14047  0.70208  0.37871  1.0000
  H   H874      1.0  0.21676  0.49378  0.25883  1.0000
  H   H875      1.0  0.21816  0.72228  0.44067  1.0000
  H   H876      1.0  0.16930  0.65010  0.33839  1.0000
  H   H877      1.0  0.17039  0.69048  0.36639  1.0000
  C   C509      1.0  0.15267  0.66923  0.36784  1.0000
  C   C510      1.0  0.26593  0.55688  0.27101  1.0000
  H   H878      1.0  0.10839  0.53083  0.31936  1.0000
  H   H879      1.0  0.25682  0.68798  0.34939  1.0000
  H   H880      1.0  0.25102  0.66581  0.36584  1.0000
  H   H881      1.0  0.25034  0.68702  0.37536  1.0000
  H   H882      1.0  0.12420  0.73465  0.46256  1.0000
  C   C511      1.0  0.22476  0.50369  0.26166  1.0000
  H   H883      1.0  0.18593  0.54327  0.26716  1.0000
  H   H884      1.0  0.30694  0.82452  0.42195  1.0000
  H   H885      1.0  0.22366  0.67255  0.33328  1.0000
  C   C512      1.0  0.29432  0.67124  0.44877  1.0000
  H   H886      1.0  0.23926  0.70535  0.47497  1.0000
  H   H887      1.0  0.27902  0.63183  0.27740  1.0000
  H   H888      1.0  0.32529  0.59250  0.26888  1.0000
  H   H889      1.0  0.12844  0.70266  0.45325  1.0000
  N   N28       1.0  0.16639  0.64927  0.36924  1.0000
  H   H890      1.0  0.17653  0.49280  0.26205  1.0000
  H   H891      1.0  0.31441  0.62607  0.27286  1.0000
  H   H892      1.0  0.13731  0.51779  0.33932  1.0000
  H   H893      1.0  0.09931  0.50295  0.26516  1.0000
  C   C513      1.0  0.16579  0.64011  0.35279  1.0000
  H   H894      1.0  0.05292  0.75048  0.46109  1.0000
  H   H895      1.0  0.29060  0.58845  0.42962  1.0000
  H   H896      1.0  0.22333  0.58307  0.24281  1.0000
  S   S114      1.0  0.29765  0.84742  0.48237  1.0000
  H   H897      1.0  0.17348  0.68668  0.47754  1.0000
  H   H898      1.0  0.30930  0.97234  0.47161  1.0000
  H   H899      1.0  0.22303  0.79741  0.47267  1.0000
  H   H900      1.0  0.21605  0.50953  0.27478  1.0000
  H   H901      1.0  0.31094  0.59744  0.43178  1.0000
  C   C514      1.0  0.99695  0.86597  0.46302  1.0000
  H   H902      1.0  0.31056  0.67802  0.37757  1.0000
  H   H903      1.0  0.99863  0.89677  0.45401  1.0000
  H   H904      1.0  0.28594  0.60904  0.44117  1.0000
  C   C515      1.0  0.30869  0.62212  0.26179  1.0000
  H   H905      1.0  0.16023  0.50304  0.30461  1.0000
  Fe  Fe54      1.0  0.32509  0.75392  0.44781  1.0000
  H   H906      1.0  0.09568  0.49407  0.33642  1.0000
  H   H907      1.0  0.31556  0.63034  0.41304  1.0000
  H   H908      1.0  0.11506  0.49018  0.29583  1.0000
  C   C516      1.0  0.04233  0.82164  0.48018  1.0000
  H   H909      1.0  0.18778  0.52277  0.24400  1.0000
  H   H910      1.0  0.14494  0.64514  0.46625  1.0000
  H   H911      1.0  0.17418  0.59985  0.24743  1.0000
  H   H912      1.0  0.02854  0.83062  0.45523  1.0000
  C   C517      1.0  0.02482  0.76105  0.47855  1.0000
  H   H913      1.0  0.32411  0.65757  0.41598  1.0000
  H   H914      1.0  0.18963  0.59651  0.26464  1.0000
  C   C518      1.0  0.09826  0.51799  0.26706  1.0000
  S   S115      1.0  0.31573  0.53381  0.23666  1.0000
  H   H915      1.0  0.19188  0.90902  0.46128  1.0000
  H   H916      1.0  0.22587  0.51631  0.24912  1.0000
  C   C519      1.0  0.04544  0.75707  0.47360  1.0000
  H   H917      1.0  0.17669  0.62078  0.25524  1.0000
  H   H918      1.0  0.01052  0.70180  0.47987  1.0000
  C   C520      1.0  0.31677  0.63934  0.37361  1.0000
  C   C521      1.0  0.00584  0.82474  0.48201  1.0000
  C   C522      1.0  0.17447  0.53347  0.24758  1.0000
  H   H919      1.0  0.31401  0.59669  0.24885  1.0000
  H   H920      1.0  0.08378  0.52303  0.27626  1.0000
  C   C523      1.0  0.32244  0.60340  0.25528  1.0000
  C   C524      1.0  0.22812  0.71926  0.47610  1.0000
  H   H921      1.0  0.25282  0.73910  0.48207  1.0000
  H   H922      1.0  0.05730  0.81622  0.47205  1.0000
  H   H923      1.0  0.15756  0.72104  0.48457  1.0000
  H   H924      1.0  0.19428  0.91231  0.48444  1.0000
  H   H925      1.0  0.16017  0.90886  0.48444  1.0000
  S   S116      1.0  0.20936  0.84152  0.48459  1.0000
  H   H926      1.0  0.20252  0.74792  0.48471  1.0000
  Fe  Fe55      1.0  0.25580  0.55296  0.71820  1.0000
  C   C525      1.0  0.17137  0.88574  0.50823  1.0000
  S   S117      1.0  0.25193  0.58567  0.70742  1.0000
  C   C526      1.0  0.15831  0.68539  0.50801  1.0000
  C   C527      1.0  0.03726  0.72158  0.52922  1.0000
  H   H927      1.0  0.17878  0.84998  0.56589  1.0000
  H   H928      1.0  0.24878  0.71932  0.52593  1.0000
  Fe  Fe56      1.0  0.24065  0.84391  0.53996  1.0000
  S   S118      1.0  0.21417  0.86293  0.52886  1.0000
  S   S119      1.0  0.23474  0.82940  0.57168  1.0000
  Fe  Fe57      1.0  0.26758  0.85312  0.50108  1.0000
  H   H929      1.0  0.31186  0.53893  0.62550  1.0000
  Fe  Fe58      1.0  0.23350  0.88473  0.51486  1.0000
  S   S120      1.0  0.21924  0.91608  0.51764  1.0000
  Fe  Fe59      1.0  0.22644  0.84998  0.50220  1.0000
  H   H930      1.0  0.28948  0.54613  0.65330  1.0000
  S   S121      1.0  0.25931  0.86645  0.52775  1.0000
  S   S122      1.0  0.25131  0.82871  0.51453  1.0000
  C   C528      1.0  0.21963  0.71123  0.51171  1.0000
  Fe  Fe60      1.0  0.24155  0.63397  0.60374  1.0000
  S   S123      1.0  0.27309  0.62673  0.58867  1.0000
  S   S124      1.0  0.22693  0.61095  0.62542  1.0000
  Fe  Fe61      1.0  0.23470  0.67577  0.58078  1.0000
  S   S125      1.0  0.26565  0.67203  0.56383  1.0000
  S   S126      1.0  0.21641  0.70639  0.57369  1.0000
  Fe  Fe62      1.0  0.26204  0.64293  0.56135  1.0000
  S   S127      1.0  0.27578  0.63478  0.53208  1.0000
  Fe  Fe63      1.0  0.27417  0.65639  0.59236  1.0000
  S   S128      1.0  0.30202  0.65997  0.59851  1.0000
  S   S129      1.0  0.23026  0.64770  0.57601  1.0000
  S   S130      1.0  0.24345  0.66241  0.60990  1.0000
  C   C529      1.0  0.01538  0.76987  0.49454  1.0000
  S   S131      1.0  0.29976  0.82127  0.61938  1.0000
  Fe  Fe64      1.0  0.12611  0.78432  0.51718  1.0000
  S   S132      1.0  0.10570  0.76576  0.53770  1.0000
  S   S133      1.0  0.13402  0.80697  0.52877  1.0000
  C   C530      1.0  0.05648  0.76134  0.48497  1.0000
  H   H931      1.0  0.29148  0.83182  0.68569  1.0000
  H   H932      1.0  0.17170  0.86797  0.58105  1.0000
  Fe  Fe65      1.0  0.09286  0.76828  0.51163  1.0000
  S   S134      1.0  0.05964  0.77414  0.51695  1.0000
  Fe  Fe66      1.0  0.12764  0.74030  0.52750  1.0000
  S   S135      1.0  0.13659  0.71216  0.54874  1.0000
  H   H933      1.0  0.28920  0.83534  0.66069  1.0000
  S   S136      1.0  0.14898  0.75853  0.50870  1.0000
  C   C531      1.0  0.26092  0.63926  0.49951  1.0000
  C   C532      1.0  0.10544  0.66592  0.54503  1.0000
  C   C533      1.0  0.24135  0.65032  0.71141  1.0000
  H   H934      1.0  0.17529  0.88372  0.54594  1.0000
  H   H935      1.0  0.28688  0.65496  0.69667  1.0000
  C   C534      1.0  0.28394  0.53576  0.62072  1.0000
  S   S137      1.0  0.11332  0.74109  0.50296  1.0000
  C   C535      1.0  0.19357  0.70790  0.56809  1.0000
  C   C536      1.0  0.18600  0.69111  0.57107  1.0000
  C   C537      1.0  0.16818  0.69262  0.56564  1.0000
  C   C538      1.0  0.15806  0.71085  0.55686  1.0000
  C   C539      1.0  0.16535  0.72771  0.55439  1.0000
  C   C540      1.0  0.18297  0.72625  0.56017  1.0000
  H   H936      1.0  0.19376  0.67698  0.57770  1.0000
  H   H937      1.0  0.16227  0.67963  0.56818  1.0000
  H   H938      1.0  0.15729  0.74193  0.54827  1.0000
  H   H939      1.0  0.18844  0.73937  0.55838  1.0000
  C   C541      1.0  0.16673  0.86195  0.57090  1.0000
  H   H940      1.0  0.29915  0.67037  0.49038  1.0000
  H   H941      1.0  0.13893  0.86763  0.54861  1.0000
  C   C542      1.0  0.29991  0.68025  0.60880  1.0000
  H   H942      1.0  0.20776  0.67788  0.53501  1.0000
  C   C543      1.0  0.29719  0.71150  0.62670  1.0000
  C   C544      1.0  0.28016  0.70638  0.62536  1.0000
  C   C545      1.0  0.28149  0.69093  0.61625  1.0000
  H   H943      1.0  0.26592  0.71428  0.63157  1.0000
  H   H944      1.0  0.26829  0.68701  0.61540  1.0000
  H   H945      1.0  0.12121  0.94321  0.51829  1.0000
  H   H946      1.0  0.26697  0.67499  0.70005  1.0000
  H   H947      1.0  0.30612  0.96695  0.49748  1.0000
  C   C546      1.0  0.15585  0.81495  0.51648  1.0000
  C   C547      1.0  0.16689  0.82005  0.52712  1.0000
  C   C548      1.0  0.18382  0.82753  0.51749  1.0000
  H   H948      1.0  0.27034  0.64344  0.65568  1.0000
  H   H949      1.0  0.20204  0.51001  0.71581  1.0000
  H   H950      1.0  0.16234  0.81816  0.54285  1.0000
  H   H951      1.0  0.19230  0.83138  0.52579  1.0000
  C   C549      1.0  0.23319  0.93023  0.52293  1.0000
  C   C550      1.0  0.22367  0.94777  0.52939  1.0000
  H   H952      1.0  0.15366  0.85575  0.57906  1.0000
  C   C551      1.0  0.25481  0.95313  0.53193  1.0000
  C   C552      1.0  0.26436  0.93573  0.52523  1.0000
  C   C553      1.0  0.25360  0.92429  0.52077  1.0000
  H   H953      1.0  0.20790  0.95253  0.53099  1.0000
  H   H954      1.0  0.28015  0.93114  0.52338  1.0000
  H   H955      1.0  0.26111  0.91102  0.51541  1.0000
  C   C554      1.0  0.28198  0.82329  0.60587  1.0000
  C   C555      1.0  0.28705  0.82529  0.58549  1.0000
  C   C556      1.0  0.27253  0.82768  0.57473  1.0000
  C   C557      1.0  0.25310  0.82738  0.58447  1.0000
  C   C558      1.0  0.24818  0.82490  0.60486  1.0000
  C   C559      1.0  0.26254  0.82308  0.61553  1.0000
  H   H956      1.0  0.30215  0.82519  0.57800  1.0000
  H   H957      1.0  0.27647  0.82930  0.55899  1.0000
  H   H958      1.0  0.23320  0.82447  0.61243  1.0000
  H   H959      1.0  0.25863  0.82125  0.63129  1.0000
  C   C560      1.0  0.24472  0.59285  0.68477  1.0000
  C   C561      1.0  0.25424  0.60568  0.66953  1.0000
  C   C562      1.0  0.24848  0.61182  0.65139  1.0000
  C   C563      1.0  0.23327  0.60487  0.64844  1.0000
  C   C564      1.0  0.22378  0.59196  0.66367  1.0000
  C   C565      1.0  0.22959  0.58583  0.68178  1.0000
  H   H960      1.0  0.26650  0.61032  0.67161  1.0000
  H   H961      1.0  0.25610  0.62148  0.63955  1.0000
  H   H962      1.0  0.21203  0.58654  0.66140  1.0000
  H   H963      1.0  0.22218  0.57591  0.69352  1.0000
  H   H964      1.0  0.28351  0.66228  0.64946  1.0000
  H   H965      1.0  0.31332  0.51236  0.59772  1.0000
  H   H966      1.0  0.21945  0.71497  0.52575  1.0000
  H   H967      1.0  0.29255  0.69638  0.48917  1.0000
  H   H968      1.0  0.29694  0.80606  0.49430  1.0000
  C   C566      1.0  0.25203  0.55139  0.63829  1.0000
  C   C567      1.0  0.23064  0.68958  0.51239  1.0000
  H   H969      1.0  0.26754  0.63147  0.69928  1.0000
  H   H970      1.0  0.14469  0.69106  0.50204  1.0000
  C   C568      1.0  0.23443  0.95918  0.53392  1.0000
  H   H971      1.0  0.29992  0.65906  0.53668  1.0000
  C   C569      1.0  0.13747  0.90307  0.52239  1.0000
  H   H972      1.0  0.16739  0.63525  0.51030  1.0000
  H   H973      1.0  0.15646  0.91519  0.53423  1.0000
  C   C570      1.0  0.31805  0.51601  0.60961  1.0000
  C   C571      1.0  0.29780  0.57305  0.65244  1.0000
  H   H974      1.0  0.21049  0.68418  0.64794  1.0000
  C   C572      1.0  0.26917  0.58429  0.56892  1.0000
  H   H975      1.0  0.29402  0.80157  0.53011  1.0000
  C   C573      1.0  0.07354  0.71514  0.51409  1.0000
  H   H976      1.0  0.20224  0.78186  0.50796  1.0000
  H   H977      1.0  0.22693  0.97260  0.53905  1.0000
  C   C574      1.0  0.32297  0.84677  0.71182  1.0000
  C   C575      1.0  0.28334  0.56216  0.64983  1.0000
  H   H978      1.0  0.11262  0.87803  0.52752  1.0000
  H   H979      1.0  0.28261  0.72188  0.50857  1.0000
  H   H980      1.0  0.02787  0.71474  0.49722  1.0000
  H   H981      1.0  0.04048  0.81248  0.49519  1.0000
  H   H982      1.0  0.09120  0.67560  0.54247  1.0000
  H   H983      1.0  0.23085  0.69642  0.63986  1.0000
  C   C576      1.0  0.29534  0.82477  0.67287  1.0000
  H   H984      1.0  0.22760  0.68360  0.50099  1.0000
  H   H985      1.0  0.28010  0.68012  0.50918  1.0000
  H   H986      1.0  0.12964  0.90906  0.50996  1.0000
  H   H987      1.0  0.28263  0.52510  0.63496  1.0000
  H   H988      1.0  0.26880  0.58365  0.62823  1.0000
  C   C577      1.0  0.25079  0.73184  0.51339  1.0000
  H   H989      1.0  0.12563  0.90093  0.53562  1.0000
  H   H990      1.0  0.24249  0.62072  0.72934  1.0000
  H   H991      1.0  0.28771  0.58034  0.58901  1.0000
  H   H992      1.0  0.24405  0.61392  0.54482  1.0000
  H   H993      1.0  0.32743  0.93393  0.50134  1.0000
  C   C578      1.0  0.14677  0.91988  0.52349  1.0000
  S   S138      1.0  0.27103  0.49625  0.73226  1.0000
  C   C579      1.0  0.20085  0.75093  0.51363  1.0000
  H   H994      1.0  0.30211  0.86122  0.54531  1.0000
  H   H995      1.0  0.02633  0.68727  0.52731  1.0000
  C   C580      1.0  0.01405  0.71000  0.50543  1.0000
  C   C581      1.0  0.17217  0.89570  0.48633  1.0000
  H   H996      1.0  0.03601  0.73117  0.51465  1.0000
  N   N29       1.0  0.15123  0.88357  0.52013  1.0000
  H   H997      1.0  0.18282  0.77731  0.49925  1.0000
  H   H998      1.0  0.27189  0.64788  0.49187  1.0000
  C   C582      1.0  0.23990  0.53832  0.63448  1.0000
  H   H999      1.0  0.24043  0.74527  0.51703  1.0000
  H   H1000     1.0  0.27972  0.52893  0.61063  1.0000
  S   S139      1.0  0.31494  0.77166  0.60237  1.0000
  H   H1001     1.0  0.28746  0.80067  0.66555  1.0000
  H   H1002     1.0  0.27252  0.87047  0.64855  1.0000
  H   H1003     1.0  0.31729  0.63780  0.56045  1.0000
  H   H1004     1.0  0.24184  0.56555  0.64053  1.0000
  C   C583      1.0  0.30958  0.62808  0.64784  1.0000
  C   C584      1.0  0.23396  0.62503  0.49915  1.0000
  C   C585      1.0  0.23446  0.67051  0.66332  1.0000
  H   H1005     1.0  0.10704  0.66607  0.55990  1.0000
  H   H1006     1.0  0.29252  0.57178  0.61853  1.0000
  H   H1007     1.0  0.23195  0.54633  0.62250  1.0000
  H   H1008     1.0  0.08750  0.70399  0.51367  1.0000
  H   H1009     1.0  0.25923  0.59782  0.57318  1.0000
  H   H1010     1.0  0.25141  0.57881  0.60640  1.0000
  Fe  Fe67      1.0  0.26532  0.51503  0.70355  1.0000
  H   H1011     1.0  0.24942  0.52448  0.63058  1.0000
  N   N30       1.0  0.25925  0.89082  0.58428  1.0000
  C   C586      1.0  0.25516  0.87994  0.60529  1.0000
  C   C587      1.0  0.24487  0.88853  0.57332  1.0000
  C   C588      1.0  0.27965  0.88136  0.57498  1.0000
  C   C589      1.0  0.25879  0.91226  0.58261  1.0000
  C   C590      1.0  0.23936  0.92450  0.59226  1.0000
  C   C591      1.0  0.26943  0.87975  0.61823  1.0000
  C   C592      1.0  0.28650  0.88946  0.55284  1.0000
  C   C593      1.0  0.22381  0.88695  0.58504  1.0000
  C   C594      1.0  0.21006  0.88862  0.57148  1.0000
  C   C595      1.0  0.24155  0.94520  0.59169  1.0000
  C   C596      1.0  0.23280  0.61673  0.51909  1.0000
  C   C597      1.0  0.30506  0.87593  0.54416  1.0000
  H   H1012     1.0  0.25535  0.86433  0.60564  1.0000
  H   H1013     1.0  0.24018  0.88582  0.61297  1.0000
  H   H1014     1.0  0.24353  0.90078  0.56032  1.0000
  H   H1015     1.0  0.25042  0.87482  0.56736  1.0000
  H   H1016     1.0  0.28083  0.86525  0.57718  1.0000
  H   H1017     1.0  0.29090  0.88311  0.58209  1.0000
  H   H1018     1.0  0.27104  0.91394  0.58839  1.0000
  H   H1019     1.0  0.26151  0.91983  0.56696  1.0000
  H   H1020     1.0  0.23455  0.91770  0.60779  1.0000
  H   H1021     1.0  0.22772  0.92619  0.58405  1.0000
  H   H1022     1.0  0.24231  0.68535  0.68192  1.0000
  H   H1023     1.0  0.27055  0.89488  0.61800  1.0000
  H   H1024     1.0  0.28993  0.90414  0.55062  1.0000
  H   H1025     1.0  0.27520  0.89091  0.54440  1.0000
  H   H1026     1.0  0.22421  0.87239  0.59521  1.0000
  H   H1027     1.0  0.21726  0.89847  0.59378  1.0000
  H   H1028     1.0  0.19522  0.88726  0.58026  1.0000
  H   H1029     1.0  0.20879  0.90311  0.56118  1.0000
  H   H1030     1.0  0.21560  0.87670  0.56307  1.0000
  H   H1031     1.0  0.25311  0.94466  0.59959  1.0000
  H   H1032     1.0  0.24536  0.95316  0.57635  1.0000
  H   H1033     1.0  0.22744  0.95364  0.59875  1.0000
  H   H1034     1.0  0.10523  0.65076  0.54429  1.0000
  C   C598      1.0  0.02633  0.77388  0.50600  1.0000
  H   H1035     1.0  0.12135  0.68873  0.53066  1.0000
  C   C599      1.0  0.21347  0.74605  0.49392  1.0000
  C   C600      1.0  0.28510  0.80743  0.67840  1.0000
  H   H1036     1.0  0.31037  0.85475  0.67761  1.0000
  C   C601      1.0  0.17771  0.65854  0.52788  1.0000
  C   C602      1.0  0.18132  0.63744  0.54067  1.0000
  C   C603      1.0  0.19467  0.63566  0.55471  1.0000
  H   H1037     1.0  0.17581  0.66922  0.53731  1.0000
  S   S140      1.0  0.31946  0.76832  0.64767  1.0000
  H   H1038     1.0  0.31637  0.67325  0.55355  1.0000
  H   H1039     1.0  0.18849  0.62663  0.53111  1.0000
  H   H1040     1.0  0.16765  0.63307  0.54977  1.0000
  H   H1041     1.0  0.20857  0.64016  0.54657  1.0000
  H   H1042     1.0  0.18730  0.64507  0.56561  1.0000
  H   H1043     1.0  0.19821  0.62017  0.56264  1.0000
  N   N31       1.0  0.25481  0.76750  0.57098  1.0000
  C   C604      1.0  0.25885  0.76934  0.58988  1.0000
  C   C605      1.0  0.26746  0.77857  0.55379  1.0000
  C   C606      1.0  0.23346  0.77684  0.57059  1.0000
  C   C607      1.0  0.25778  0.74629  0.56971  1.0000
  C   C608      1.0  0.27892  0.73409  0.56846  1.0000
  C   C609      1.0  0.24611  0.76008  0.60908  1.0000
  C   C610      1.0  0.22726  0.78106  0.55055  1.0000
  C   C611      1.0  0.28840  0.77868  0.55600  1.0000
  C   C612      1.0  0.30098  0.78633  0.53640  1.0000
  C   C613      1.0  0.27977  0.71287  0.56775  1.0000
  C   C614      1.0  0.24995  0.76548  0.62670  1.0000
  C   C615      1.0  0.20507  0.78849  0.55278  1.0000
  H   H1044     1.0  0.25699  0.78520  0.58994  1.0000
  H   H1045     1.0  0.27431  0.76253  0.59116  1.0000
  H   H1046     1.0  0.26878  0.77315  0.54028  1.0000
  H   H1047     1.0  0.26030  0.79447  0.55080  1.0000
  H   H1048     1.0  0.22934  0.79103  0.57559  1.0000
  H   H1049     1.0  0.22377  0.76733  0.58104  1.0000
  H   H1050     1.0  0.24808  0.73850  0.58221  1.0000
  H   H1051     1.0  0.25317  0.74525  0.55656  1.0000
  H   H1052     1.0  0.28494  0.73393  0.58121  1.0000
  H   H1053     1.0  0.28828  0.74014  0.55462  1.0000
  H   H1054     1.0  0.23018  0.76535  0.60930  1.0000
  H   H1055     1.0  0.24975  0.74383  0.61109  1.0000
  H   H1056     1.0  0.23118  0.76776  0.54421  1.0000
  H   H1057     1.0  0.23430  0.79255  0.53981  1.0000
  H   H1058     1.0  0.28730  0.78850  0.56603  1.0000
  H   H1059     1.0  0.29646  0.76403  0.56220  1.0000
  C   C616      1.0  0.01110  0.69498  0.49543  1.0000
  H   H1060     1.0  0.31895  0.61930  0.53291  1.0000
  C   C617      1.0  0.16511  0.65104  0.50294  1.0000
  H   H1061     1.0  0.29487  0.70405  0.56815  1.0000
  H   H1062     1.0  0.26946  0.70620  0.58041  1.0000
  H   H1063     1.0  0.27590  0.71226  0.55402  1.0000
  H   H1064     1.0  0.24235  0.75716  0.64046  1.0000
  H   H1065     1.0  0.26591  0.76187  0.62669  1.0000
  H   H1066     1.0  0.24441  0.78146  0.62635  1.0000
  H   H1067     1.0  0.20107  0.79142  0.53834  1.0000
  H   H1068     1.0  0.19713  0.77729  0.56289  1.0000
  H   H1069     1.0  0.20036  0.80236  0.55836  1.0000
  N   N32       1.0  0.22732  0.72609  0.49444  1.0000
  C   C618      1.0  0.17850  0.82516  0.48651  1.0000
  C   C619      1.0  0.25016  0.67624  0.67081  1.0000
  H   H1070     1.0  0.26194  0.85452  0.64056  1.0000
  H   H1071     1.0  0.27953  0.69572  0.66883  1.0000
  H   H1072     1.0  0.31974  0.72541  0.55958  1.0000
  H   H1073     1.0  0.27288  0.73924  0.52429  1.0000
  H   H1074     1.0  0.16268  0.85594  0.53784  1.0000
  N   N33       1.0  0.01861  0.71412  0.53866  1.0000
  H   H1075     1.0  0.99934  0.73803  0.56783  1.0000
  C   C620      1.0  0.01885  0.70353  0.55966  1.0000
  H   H1076     1.0  0.30881  0.85595  0.64568  1.0000
  H   H1077     1.0  0.06032  0.69923  0.54143  1.0000
  H   H1078     1.0  0.26958  0.56530  0.66078  1.0000
  H   H1079     1.0  0.19176  0.65964  0.51723  1.0000
  S   S141      1.0  0.32478  0.72542  0.51897  1.0000
  C   C621      1.0  0.02751  0.68106  0.56347  1.0000
  C   C622      1.0  0.03023  0.67325  0.58460  1.0000
  H   H1080     1.0  0.30972  0.69905  0.67637  1.0000
  C   C623      1.0  0.26297  0.56542  0.60398  1.0000
  C   C624      1.0  0.04689  0.76947  0.50140  1.0000
  H   H1081     1.0  0.10913  0.87305  0.49587  1.0000
  Fe  Fe68      1.0  0.31910  0.79115  0.61990  1.0000
  H   H1082     1.0  0.02670  0.71063  0.56645  1.0000
  C   C625      1.0  0.00166  0.73169  0.53877  1.0000
  H   H1083     1.0  0.29984  0.67607  0.66288  1.0000
  H   H1084     1.0  0.21658  0.50042  0.69459  1.0000
  H   H1085     1.0  0.31568  0.78642  0.53858  1.0000
  H   H1086     1.0  0.03962  0.73128  0.53776  1.0000
  H   H1087     1.0  0.28067  0.58877  0.55616  1.0000
  H   H1088     1.0  0.20937  0.74731  0.52528  1.0000
  Fe  Fe69      1.0  0.31795  0.74806  0.62924  1.0000
  H   H1089     1.0  0.11963  0.67385  0.51499  1.0000
  H   H1090     1.0  0.00519  0.83591  0.49035  1.0000
  H   H1091     1.0  0.32500  0.83773  0.72644  1.0000
  H   H1092     1.0  0.01724  0.67319  0.56101  1.0000
  H   H1093     1.0  0.04187  0.67711  0.55376  1.0000
  C   C626      1.0  0.05650  0.70589  0.52687  1.0000
  H   H1094     1.0  0.31616  0.50427  0.62296  1.0000
  S   S142      1.0  0.24349  0.87351  0.48693  1.0000
  Fe  Fe70      1.0  0.28661  0.51894  0.73344  1.0000
  C   C627      1.0  0.24529  0.62010  0.52937  1.0000
  C   C628      1.0  0.00069  0.74577  0.55229  1.0000
  C   C629      1.0  0.17484  0.69122  0.49064  1.0000
  H   H1095     1.0  0.13803  0.94937  0.52930  1.0000
  H   H1096     1.0  0.32392  0.83898  0.63154  1.0000
  H   H1097     1.0  0.31248  0.56881  0.64319  1.0000
  C   C630      1.0  0.24794  0.63645  0.48938  1.0000
  H   H1098     1.0  0.12427  0.84854  0.50010  1.0000
  H   H1099     1.0  0.24129  0.66066  0.65281  1.0000
  H   H1100     1.0  0.32680  0.58662  0.55352  1.0000
  C   C631      1.0  0.22173  0.68869  0.65292  1.0000
  C   C632      1.0  0.27863  0.65061  0.66182  1.0000
  H   H1101     1.0  0.25855  0.71378  0.49172  1.0000
  C   C633      1.0  0.30961  0.68020  0.51132  1.0000
  H   H1102     1.0  0.30671  0.64095  0.67224  1.0000
  H   H1103     1.0  0.22760  0.68162  0.54384  1.0000
  C   C634      1.0  0.13096  0.93744  0.52909  1.0000
  C   C635      1.0  0.28933  0.68218  0.67509  1.0000
  C   C636      1.0  0.31694  0.68538  0.61014  1.0000
  H   H1104     1.0  0.15330  0.81344  0.48789  1.0000
  H   H1105     1.0  0.24900  0.65450  0.72077  1.0000
  H   H1106     1.0  0.21564  0.52381  0.64948  1.0000
  H   H1107     1.0  0.12202  0.93318  0.54389  1.0000
  N   N34       1.0  0.26998  0.55519  0.62278  1.0000
  C   C637      1.0  0.19110  0.77270  0.51127  1.0000
  C   C638      1.0  0.27872  0.57161  0.58590  1.0000
  H   H1108     1.0  0.14123  0.64474  0.53581  1.0000
  C   C639      1.0  0.11385  0.86023  0.50726  1.0000
  H   H1109     1.0  0.24109  0.80278  0.49495  1.0000
  S   S143      1.0  0.28372  0.53582  0.70344  1.0000
  H   H1110     1.0  0.27439  0.74760  0.49839  1.0000
  H   H1111     1.0  0.30747  0.85496  0.71308  1.0000
  H   H1112     1.0  0.12655  0.85310  0.53254  1.0000
  H   H1113     1.0  0.22966  0.66300  0.70704  1.0000
  H   H1114     1.0  0.32332  0.68350  0.50119  1.0000
  C   C640      1.0  0.22385  0.67685  0.53208  1.0000
  H   H1115     1.0  0.31713  0.87423  0.55184  1.0000
  H   H1116     1.0  0.21409  0.69894  0.66297  1.0000
  C   C641      1.0  0.12339  0.86625  0.52083  1.0000
  C   C642      1.0  0.12221  0.67340  0.52957  1.0000
  C   C643      1.0  0.14269  0.87313  0.50962  1.0000
  S   S144      1.0  0.23682  0.53351  0.71625  1.0000
  H   H1117     1.0  0.30068  0.62248  0.64083  1.0000
  C   C644      1.0  0.31789  0.81788  0.66667  1.0000
  N   N35       1.0  0.16057  0.66390  0.51766  1.0000
  H   H1118     1.0  0.30392  0.69158  0.52040  1.0000
  H   H1119     1.0  0.15054  0.89027  0.55937  1.0000
  Fe  Fe71      1.0  0.13271  0.76195  0.48499  1.0000
  H   H1120     1.0  0.05537  0.69427  0.51997  1.0000
  H   H1121     1.0  0.99963  0.77384  0.49802  1.0000
  C   C645      1.0  0.14241  0.66038  0.53311  1.0000
  H   H1122     1.0  0.25619  0.54409  0.65264  1.0000
  C   C646      1.0  0.25616  0.64370  0.69338  1.0000
  H   H1123     1.0  0.10077  0.85427  0.51591  1.0000
  C   C647      1.0  0.16183  0.81728  0.49617  1.0000
  C   C648      1.0  0.15338  0.87053  0.53985  1.0000
  H   H1124     1.0  0.15355  0.85989  0.50563  1.0000
  S   S145      1.0  0.11127  0.78942  0.49192  1.0000
  C   C649      1.0  0.16174  0.87824  0.55346  1.0000
  H   H1125     1.0  0.03588  0.65709  0.58707  1.0000
  S   S146      1.0  0.29504  0.72947  0.64002  1.0000
  S   S147      1.0  0.26871  0.96657  0.53829  1.0000
  C   C650      1.0  0.30125  0.68823  0.68642  1.0000
  H   H1126     1.0  0.24745  0.87808  0.64545  1.0000
  H   H1127     1.0  0.29314  0.62189  0.67715  1.0000
  C   C651      1.0  0.32637  0.59987  0.55893  1.0000
  H   H1128     1.0  0.29140  0.69525  0.69842  1.0000
  H   H1129     1.0  0.30986  0.88229  0.52842  1.0000
  H   H1130     1.0  0.01393  0.75223  0.54806  1.0000
  H   H1131     1.0  0.23155  0.52403  0.66501  1.0000
  H   H1132     1.0  0.26905  0.81262  0.68325  1.0000
  H   H1133     1.0  0.01886  0.78052  0.51847  1.0000
  H   H1134     1.0  0.26206  0.78431  0.48703  1.0000
  H   H1135     1.0  0.28838  0.55839  0.58079  1.0000
  H   H1136     1.0  0.23142  0.66137  0.53212  1.0000
  C   C652      1.0  0.31313  0.65954  0.52472  1.0000
  H   H1137     1.0  0.18902  0.74244  0.51872  1.0000
  H   H1138     1.0  0.00162  0.72278  0.50398  1.0000
  C   C653      1.0  0.23140  0.63362  0.72397  1.0000
  H   H1139     1.0  0.32216  0.61610  0.65154  1.0000
  H   H1140     1.0  0.17838  0.89389  0.51467  1.0000
  C   C654      1.0  0.26233  0.87010  0.63949  1.0000
  H   H1141     1.0  0.15676  0.69413  0.51911  1.0000
  H   H1142     1.0  0.22457  0.66286  0.67565  1.0000
  H   H1143     1.0  0.18066  0.77538  0.52506  1.0000
  C   C655      1.0  0.14925  0.65438  0.49083  1.0000
  H   H1144     1.0  0.18138  0.87102  0.50850  1.0000
  H   H1145     1.0  0.22163  0.75801  0.48683  1.0000
  C   C656      1.0  0.25950  0.63118  0.51956  1.0000
  C   C657      1.0  0.01493  0.70100  0.52724  1.0000
  H   H1146     1.0  0.21434  0.54623  0.65703  1.0000
  H   H1147     1.0  0.14364  0.66284  0.54737  1.0000
  H   H1148     1.0  0.30309  0.77663  0.52597  1.0000
  H   H1149     1.0  0.07117  0.72085  0.49887  1.0000
  C   C658      1.0  0.30619  0.53593  0.61389  1.0000
  H   H1150     1.0  0.30928  0.54726  0.60059  1.0000
  H   H1151     1.0  0.29075  0.79612  0.69050  1.0000
  H   H1152     1.0  0.00397  0.81130  0.49348  1.0000
  H   H1153     1.0  0.20401  0.71156  0.51200  1.0000
  H   H1154     1.0  0.13963  0.88273  0.49550  1.0000
  N   N36       1.0  0.26550  0.65943  0.67871  1.0000
  H   H1155     1.0  0.24851  0.63688  0.68619  1.0000
  C   C659      1.0  0.18942  0.83042  0.49715  1.0000
  H   H1156     1.0  0.23896  0.77766  0.49991  1.0000
  H   H1157     1.0  0.25585  0.55588  0.59936  1.0000
  C   C660      1.0  0.27704  0.66724  0.68863  1.0000
  C   C661      1.0  0.22441  0.53280  0.65265  1.0000
  C   C662      1.0  0.24583  0.78913  0.48904  1.0000
  H   H1158     1.0  0.31157  0.60401  0.56801  1.0000
  H   H1159     1.0  0.26062  0.57602  0.56439  1.0000
  H   H1160     1.0  0.31800  0.82277  0.70275  1.0000
  H   H1161     1.0  0.25734  0.68645  0.65840  1.0000
  H   H1162     1.0  0.17668  0.71844  0.49737  1.0000
  H   H1163     1.0  0.29245  0.58918  0.64840  1.0000
  H   H1164     1.0  0.28428  0.87107  0.61330  1.0000
  H   H1165     1.0  0.24668  0.68805  0.51027  1.0000
  C   C663      1.0  0.27140  0.73534  0.51092  1.0000
  H   H1166     1.0  0.22219  0.60768  0.52663  1.0000
  C   C664      1.0  0.27883  0.56892  0.62891  1.0000
  H   H1167     1.0  0.31290  0.64869  0.51639  1.0000
  C   C665      1.0  0.29438  0.68188  0.49930  1.0000
  H   H1168     1.0  0.29925  0.56923  0.66799  1.0000
  C   C666      1.0  0.24785  0.72750  0.49452  1.0000
  H   H1169     1.0  0.31179  0.67528  0.69260  1.0000
  H   H1170     1.0  0.22723  0.49723  0.71552  1.0000
  H   H1171     1.0  0.18975  0.68450  0.49357  1.0000
  H   H1172     1.0  0.32309  0.80627  0.67877  1.0000
  C   C667      1.0  0.29720  0.63499  0.66637  1.0000
  C   C668      1.0  0.31559  0.70118  0.61879  1.0000
  H   H1173     1.0  0.15579  0.92521  0.50908  1.0000
  H   H1174     1.0  0.99707  0.69014  0.50269  1.0000
  H   H1175     1.0  0.17936  0.65263  0.49268  1.0000
  C   C669      1.0  0.32411  0.84744  0.64236  1.0000
  H   H1176     1.0  0.07501  0.72737  0.52002  1.0000
  C   C670      1.0  0.17286  0.71350  0.48575  1.0000
  H   H1177     1.0  0.13601  0.64937  0.50036  1.0000
  S   S148      1.0  0.21775  0.62097  0.48683  1.0000
  H   H1178     1.0  0.27745  0.98475  0.48573  1.0000
  H   H1179     1.0  0.32020  0.81027  0.65441  1.0000
  H   H1180     1.0  0.02348  0.68199  0.49585  1.0000
  H   H1181     1.0  0.00082  0.69618  0.53447  1.0000
  C   C671      1.0  0.32547  0.84545  0.67641  1.0000
  H   H1182     1.0  0.31430  0.88452  0.61853  1.0000
  H   H1183     1.0  0.04098  0.68012  0.58763  1.0000
  H   H1184     1.0  0.01600  0.67634  0.59497  1.0000
  H   H1185     1.0  0.00200  0.74090  0.52385  1.0000
  H   H1186     1.0  0.00356  0.70492  0.56851  1.0000
  S   S149      1.0  0.27239  0.50595  0.67454  1.0000
  C   C672      1.0  0.21357  0.49770  0.71083  1.0000
  H   H1187     1.0  0.22320  0.62900  0.71541  1.0000
  H   H1188     1.0  0.31546  0.64041  0.63721  1.0000
  H   H1189     1.0  0.18094  0.55289  0.82261  1.0000
  C   C673      1.0  0.26745  0.50678  0.93284  1.0000
  H   H1190     1.0  0.16751  0.51460  0.74560  1.0000
  H   H1191     1.0  0.15977  0.51384  0.86063  1.0000
  H   H1192     1.0  0.11895  0.51295  0.82365  1.0000
  C   C674      1.0  0.27491  0.52407  0.96542  1.0000
  C   C675      1.0  0.17514  0.50612  0.75718  1.0000
  H   H1193     1.0  0.28169  0.51838  0.78798  1.0000
  C   C676      1.0  0.14483  0.51748  0.83061  1.0000
  H   H1194     1.0  0.27277  0.50877  0.97117  1.0000
  C   C677      1.0  0.30617  0.54476  0.75631  1.0000
  C   C678      1.0  0.20386  0.53712  0.80324  1.0000
  C   C679      1.0  0.26808  0.50264  0.81665  1.0000
  S   S150      1.0  0.23864  0.51598  0.86920  1.0000
  H   H1195     1.0  0.29074  0.52396  0.95975  1.0000
  C   C680      1.0  0.23414  0.53909  0.92265  1.0000
  H   H1196     1.0  0.29511  0.54994  0.74745  1.0000
  H   H1197     1.0  0.29041  0.52097  0.80830  1.0000
  H   H1198     1.0  0.21759  0.52583  0.80453  1.0000
  H   H1199     1.0  0.14733  0.50254  0.83973  1.0000
  H   H1200     1.0  0.22701  0.54383  0.93669  1.0000
  S   S151      1.0  0.19355  0.51420  0.91196  1.0000
  C   C681      1.0  0.26265  0.53955  0.80400  1.0000
  Fe  Fe72      1.0  0.20352  0.49576  0.93925  1.0000
  H   H1201     1.0  0.13543  0.52748  0.84030  1.0000
  H   H1202     1.0  0.15986  0.54008  0.81295  1.0000
  H   H1203     1.0  0.18075  0.52055  0.86276  1.0000
  H   H1204     1.0  0.14821  0.55178  0.84466  1.0000
  H   H1205     1.0  0.20073  0.53788  0.83369  1.0000
  S   S152      1.0  0.32522  0.50181  0.88084  1.0000
  C   C682      1.0  0.15734  0.54527  0.85593  1.0000
  C   C683      1.0  0.22266  0.55224  0.90725  1.0000
  C   C684      1.0  0.19087  0.53811  0.82390  1.0000
  S   S153      1.0  0.31527  0.50982  0.74345  1.0000
  N   N37       1.0  0.26930  0.52780  0.93033  1.0000
  C   C685      1.0  0.16944  0.52445  0.85354  1.0000
  N   N38       1.0  0.17902  0.52230  0.83278  1.0000
  H   H1206     1.0  0.30076  0.52017  0.92953  1.0000
  C   C686      1.0  0.29437  0.52166  0.86297  1.0000
  C   C687      1.0  0.27502  0.52486  0.86047  1.0000
  C   C688      1.0  0.26331  0.51129  0.87087  1.0000
  H   H1207     1.0  0.29898  0.57129  0.76778  1.0000
  H   H1208     1.0  0.24742  0.53204  0.95656  1.0000
  H   H1209     1.0  0.30326  0.53240  0.85526  1.0000
  H   H1210     1.0  0.26900  0.53806  0.85087  1.0000
  C   C689      1.0  0.31604  0.55056  0.90735  1.0000
  H   H1211     1.0  0.23249  0.52385  0.92421  1.0000
  H   H1212     1.0  0.22089  0.63858  0.73682  1.0000
  H   H1213     1.0  0.19618  0.53329  0.79369  1.0000
  H   H1214     1.0  0.16742  0.55516  0.85442  1.0000
  H   H1215     1.0  0.20697  0.55120  0.91206  1.0000
  C   C690      1.0  0.16433  0.52444  0.82023  1.0000
  C   C691      1.0  0.26252  0.53444  0.94960  1.0000
  H   H1216     1.0  0.17133  0.51654  0.80798  1.0000
  H   H1217     1.0  0.13571  0.55995  0.87749  1.0000
  H   H1218     1.0  0.25456  0.50297  0.81171  1.0000
  C   C692      1.0  0.27731  0.52001  0.80346  1.0000
  C   C693      1.0  0.20976  0.55673  0.79296  1.0000
  C   C694      1.0  0.19353  0.50925  0.75742  1.0000
  H   H1219     1.0  0.15269  0.53895  0.88776  1.0000
  H   H1220     1.0  0.22849  0.54749  0.89303  1.0000
  H   H1221     1.0  0.20179  0.50118  0.81847  1.0000
  H   H1222     1.0  0.25596  0.55649  0.91525  1.0000
  H   H1223     1.0  0.31610  0.75968  0.86996  1.0000
  C   C695      1.0  0.13307  0.51731  0.81581  1.0000
  H   H1224     1.0  0.26180  0.53755  0.90166  1.0000
  H   H1225     1.0  0.22007  0.55508  0.77884  1.0000
  H   H1226     1.0  0.26126  0.55058  0.94722  1.0000
  H   H1227     1.0  0.22353  0.56783  0.90526  1.0000
  C   C696      1.0  0.19324  0.50269  0.83336  1.0000
  H   H1228     1.0  0.12983  0.53210  0.80632  1.0000
  C   C697      1.0  0.16665  0.49200  0.77183  1.0000
  C   C698      1.0  0.29434  0.55082  0.91645  1.0000
  H   H1229     1.0  0.28579  0.56121  0.90585  1.0000
  H   H1230     1.0  0.32551  0.54091  0.91755  1.0000
  Fe  Fe73      1.0  0.24400  0.51618  0.74535  1.0000
  H   H1231     1.0  0.26984  0.55176  0.79503  1.0000
  C   C699      1.0  0.30856  0.55698  0.76757  1.0000
  H   H1232     1.0  0.19663  0.56822  0.78983  1.0000
  S   S154      1.0  0.32553  0.56447  0.79432  1.0000
  H   H1233     1.0  0.26464  0.50451  0.91921  1.0000
  H   H1234     1.0  0.25439  0.50377  0.94428  1.0000
  C   C700      1.0  0.25608  0.54072  0.91667  1.0000
  S   S155      1.0  0.22638  0.50152  0.77321  1.0000
  H   H1235     1.0  0.29426  0.52500  0.90654  1.0000
  C   C701      1.0  0.14390  0.54484  0.87611  1.0000
  H   H1236     1.0  0.32021  0.54518  0.89343  1.0000
  H   H1237     1.0  0.24999  0.53974  0.79781  1.0000
  H   H1238     1.0  0.21714  0.56151  0.80215  1.0000
  H   H1239     1.0  0.25736  0.54197  0.81922  1.0000
  H   H1240     1.0  0.13313  0.53549  0.87831  1.0000
  H   H1241     1.0  0.29082  0.55652  0.93010  1.0000
  C   C702      1.0  0.29009  0.52994  0.92071  1.0000
  Fe  Fe74      1.0  0.22184  0.49893  0.89590  1.0000
  C   C703      1.0  0.31814  0.52593  0.75664  1.0000
  H   H1242     1.0  0.26247  0.50606  0.83151  1.0000
  S   S156      1.0  0.26011  0.53757  0.74853  1.0000
  H   H1243     1.0  0.14131  0.50650  0.80653  1.0000
  H   H1244     1.0  0.20004  0.52017  0.74615  1.0000
  S   S157      1.0  0.19832  0.51179  0.96385  1.0000
  C   C704      1.0  0.30187  0.50501  0.87603  1.0000
  C   C705      1.0  0.21478  0.50601  0.97978  1.0000
  H   H1245     1.0  0.20425  0.50164  0.84223  1.0000
  H   H1246     1.0  0.31879  0.56566  0.90412  1.0000
  S   S158      1.0  0.15268  0.49509  0.90250  1.0000
  C   C706      1.0  0.32319  0.55048  0.77876  1.0000
  H   H1247     1.0  0.27128  0.54940  0.97834  1.0000
  C   C707      1.0  0.20330  0.49838  0.77244  1.0000
  H   H1248     1.0  0.29094  0.49165  0.94977  1.0000
  H   H1249     1.0  0.12725  0.49592  0.87732  1.0000
  C   C708      1.0  0.23103  0.49045  0.97857  1.0000
  H   H1250     1.0  0.29766  0.49049  0.92443  1.0000
  C   C709      1.0  0.27125  0.49415  0.88299  1.0000
  C   C710      1.0  0.26833  0.53431  0.98281  1.0000
  H   H1251     1.0  0.30666  0.49189  0.82116  1.0000
  C   C711      1.0  0.29041  0.49112  0.88580  1.0000
  C   C712      1.0  0.28541  0.49017  0.93741  1.0000
  H   H1252     1.0  0.26447  0.48967  0.78638  1.0000
  S   S159      1.0  0.62745  0.22816  0.20736  1.0000
  Fe  Fe75      1.0  0.62454  0.26042  0.19480  1.0000
  S   S160      1.0  0.58710  0.20837  0.11881  1.0000
  H   H1253     1.0  0.40990  0.47941  0.19015  1.0000
  Fe  Fe76      1.0  0.57526  0.16753  0.07523  1.0000
  S   S161      1.0  0.55894  0.14520  0.09606  1.0000
  S   S162      1.0  0.57637  0.17725  0.04236  1.0000
  Fe  Fe77      1.0  0.58152  0.18296  0.10937  1.0000
  S   S163      1.0  0.56601  0.16151  0.13222  1.0000
  Fe  Fe78      1.0  0.58256  0.13976  0.11339  1.0000
  H   H1254     1.0  0.35837  0.31893  0.15528  1.0000
  Fe  Fe79      1.0  0.54416  0.16924  0.11282  1.0000
  S   S164      1.0  0.51189  0.17900  0.12442  1.0000
  S   S165      1.0  0.60002  0.16077  0.09148  1.0000
  S   S166      1.0  0.55869  0.19185  0.09090  1.0000
  H   H1255     1.0  0.39236  0.23254  0.21576  1.0000
  H   H1256     1.0  0.36456  0.25642  0.20352  1.0000
  Fe  Fe80      1.0  0.56923  0.03297  0.21909  1.0000
  H   H1257     1.0  0.34738  0.28380  0.18726  1.0000
  S   S167      1.0  0.55253  0.05641  0.19821  1.0000
  H   H1258     1.0  0.61774  0.17496  0.13095  1.0000
  H   H1259     1.0  0.42270  0.29414  0.22015  1.0000
  H   H1260     1.0  0.51799  0.30899  0.12391  1.0000
  C   C713      1.0  0.57806  0.04835  0.12844  1.0000
  S   S168      1.0  0.59996  0.01579  0.21194  1.0000
  S   S169      1.0  0.59632  0.28263  0.19275  1.0000
  Fe  Fe81      1.0  0.48798  0.26329  0.17854  1.0000
  S   S170      1.0  0.49755  0.28323  0.19184  1.0000
  S   S171      1.0  0.50166  0.26038  0.14760  1.0000
  H   H1261     1.0  0.62704  0.30694  0.22472  1.0000
  H   H1262     1.0  0.61873  0.31157  0.19142  1.0000
  C   C714      1.0  0.64823  0.35734  0.15968  1.0000
  Fe  Fe82      1.0  0.46562  0.29193  0.20493  1.0000
  S   S172      1.0  0.45039  0.32257  0.20889  1.0000
  H   H1263     1.0  0.64386  0.31442  0.12733  1.0000
  H   H1264     1.0  0.58295  0.20132  0.20761  1.0000
  S   S173      1.0  0.45589  0.27432  0.18906  1.0000
  S   S174      1.0  0.49111  0.23750  0.20348  1.0000
  Fe  Fe83      1.0  0.34931  0.36693  0.18370  1.0000
  S   S175      1.0  0.33578  0.37197  0.21409  1.0000
  S   S176      1.0  0.37469  0.34398  0.17316  1.0000
  C   C715      1.0  0.58278  0.12673  0.18433  1.0000
  Fe  Fe84      1.0  0.33340  0.40404  0.20030  1.0000
  H   H1265     1.0  0.54445  0.99631  0.20720  1.0000
  C   C716      1.0  0.34818  0.46132  0.20604  1.0000
  S   S177      1.0  0.34994  0.39846  0.17079  1.0000
  H   H1266     1.0  0.61368  0.12655  0.18180  1.0000
  C   C717      1.0  0.42983  0.33031  0.19799  1.0000
  C   C718      1.0  0.43025  0.32415  0.18105  1.0000
  C   C719      1.0  0.41329  0.32888  0.17328  1.0000
  C   C720      1.0  0.39594  0.33996  0.18231  1.0000
  C   C721      1.0  0.39560  0.34667  0.19894  1.0000
  C   C722      1.0  0.41257  0.34171  0.20687  1.0000
  H   H1267     1.0  0.44366  0.31572  0.17392  1.0000
  H   H1268     1.0  0.41359  0.32380  0.16033  1.0000
  H   H1269     1.0  0.38210  0.35501  0.20608  1.0000
  H   H1270     1.0  0.38151  0.28500  0.23030  1.0000
  C   C723      1.0  0.57533  0.27353  0.20581  1.0000
  C   C724      1.0  0.55681  0.28430  0.20264  1.0000
  H   H1271     1.0  0.56255  0.33593  0.16504  1.0000
  H   H1272     1.0  0.60480  0.13615  0.15928  1.0000
  H   H1273     1.0  0.58948  0.32859  0.18231  1.0000
  H   H1274     1.0  0.55126  0.16698  0.17647  1.0000
  H   H1275     1.0  0.55546  0.29837  0.19258  1.0000
  H   H1276     1.0  0.56018  0.29370  0.02287  1.0000
  C   C725      1.0  0.40835  0.47013  0.18072  1.0000
  C   C726      1.0  0.51742  0.01762  0.21102  1.0000
  C   C727      1.0  0.58576  0.09563  0.14714  1.0000
  C   C728      1.0  0.59615  0.07915  0.15830  1.0000
  C   C729      1.0  0.58612  0.06717  0.17418  1.0000
  C   C730      1.0  0.56560  0.07139  0.17873  1.0000
  C   C731      1.0  0.55519  0.08779  0.16749  1.0000
  C   C732      1.0  0.56523  0.10003  0.15187  1.0000
  H   H1277     1.0  0.51184  0.15253  0.99399  1.0000
  H   H1278     1.0  0.59428  0.05457  0.18275  1.0000
  H   H1279     1.0  0.53929  0.09111  0.17094  1.0000
  H   H1280     1.0  0.55711  0.11269  0.14330  1.0000
  C   C733      1.0  0.50859  0.20099  0.13240  1.0000
  C   C734      1.0  0.52499  0.20818  0.13190  1.0000
  C   C735      1.0  0.52274  0.22592  0.13756  1.0000
  C   C736      1.0  0.50401  0.23673  0.14375  1.0000
  C   C737      1.0  0.48747  0.22936  0.14492  1.0000
  C   C738      1.0  0.48976  0.21147  0.13921  1.0000
  H   H1281     1.0  0.53957  0.20005  0.12729  1.0000
  H   H1282     1.0  0.53560  0.23130  0.13692  1.0000
  H   H1283     1.0  0.47294  0.23776  0.14962  1.0000
  H   H1284     1.0  0.47699  0.20593  0.13978  1.0000
  N   N39       1.0  0.32973  0.48701  0.10914  1.0000
  C   C739      1.0  0.56121  0.14364  0.00390  1.0000
  C   C740      1.0  0.57057  0.13328  0.01953  1.0000
  C   C741      1.0  0.57479  0.14332  0.03184  1.0000
  C   C742      1.0  0.57003  0.16386  0.02835  1.0000
  C   C743      1.0  0.56057  0.17420  0.01281  1.0000
  C   C744      1.0  0.55608  0.16415  0.00071  1.0000
  H   H1285     1.0  0.57454  0.11739  0.02216  1.0000
  H   H1286     1.0  0.58213  0.13518  0.04373  1.0000
  H   H1287     1.0  0.55660  0.19008  0.01021  1.0000
  H   H1288     1.0  0.58818  0.24091  0.07535  1.0000
  H   H1289     1.0  0.50952  0.12661  0.19516  1.0000
  H   H1290     1.0  0.65436  0.32816  0.19040  1.0000
  C   C745      1.0  0.54530  0.18905  0.23286  1.0000
  H   H1291     1.0  0.53313  0.22247  0.17500  1.0000
  H   H1292     1.0  0.56410  0.24710  0.15056  1.0000
  C   C746      1.0  0.55995  0.13060  0.22549  1.0000
  H   H1293     1.0  0.37440  0.39321  0.21102  1.0000
  C   C747      1.0  0.61399  0.32485  0.15690  1.0000
  H   H1294     1.0  0.54186  0.19053  0.16259  1.0000
  H   H1295     1.0  0.42617  0.40147  0.15404  1.0000
  Fe  Fe85      1.0  0.45970  0.25012  0.21524  1.0000
  H   H1296     1.0  0.43253  0.41192  0.20023  1.0000
  H   H1297     1.0  0.39557  0.45053  0.20559  1.0000
  H   H1298     1.0  0.65215  0.30336  0.19411  1.0000
  H   H1299     1.0  0.63602  0.13690  0.21174  1.0000
  C   C748      1.0  0.50865  0.11722  0.21007  1.0000
  C   C749      1.0  0.35277  0.47837  0.19288  1.0000
  H   H1300     1.0  0.36523  0.42047  0.12105  1.0000
  H   H1301     1.0  0.61488  0.30868  0.15971  1.0000
  H   H1302     1.0  0.61534  0.33011  0.14082  1.0000
  H   H1303     1.0  0.61183  0.23588  0.09706  1.0000
  H   H1304     1.0  0.34105  0.32049  0.17817  1.0000
  C   C750      1.0  0.61854  0.18740  0.13628  1.0000
  H   H1305     1.0  0.59096  0.24764  0.22240  1.0000
  H   H1306     1.0  0.42102  0.46994  0.16816  1.0000
  H   H1307     1.0  0.58966  0.20672  0.18127  1.0000
  C   C751      1.0  0.66028  0.06518  0.19340  1.0000
  C   C752      1.0  0.34700  0.44974  0.11729  1.0000
  N   N40       1.0  0.66074  0.11199  0.21113  1.0000
  C   C753      1.0  0.64923  0.31537  0.15583  1.0000
  C   C754      1.0  0.35859  0.29104  0.17631  1.0000
  N   N41       1.0  0.55923  0.00451  0.16655  1.0000
  H   H1308     1.0  0.57903  0.31338  0.16024  1.0000
  C   C755      1.0  0.36714  0.43586  0.11518  1.0000
  C   C756      1.0  0.65508  0.31787  0.13323  1.0000
  C   C757      1.0  0.39903  0.40530  0.17669  1.0000
  H   H1309     1.0  0.65698  0.33306  0.12620  1.0000
  N   N42       1.0  0.55467  0.26865  0.09152  1.0000
  C   C758      1.0  0.43452  0.38361  0.19488  1.0000
  C   C759      1.0  0.60401  0.12468  0.17295  1.0000
  H   H1310     1.0  0.49370  0.12151  0.21885  1.0000
  H   H1311     1.0  0.37459  0.43722  0.09955  1.0000
  C   C760      1.0  0.38622  0.39320  0.21837  1.0000
  C   C761      1.0  0.40342  0.39447  0.14470  1.0000
  H   H1312     1.0  0.38323  0.41210  0.17665  1.0000
  H   H1313     1.0  0.39935  0.38947  0.18294  1.0000
  H   H1314     1.0  0.52960  0.02226  0.17048  1.0000
  S   S178      1.0  0.59885  0.11025  0.12732  1.0000
  H   H1315     1.0  0.42962  0.37613  0.18593  1.0000
  C   C762      1.0  0.45692  0.37741  0.19153  1.0000
  H   H1316     1.0  0.55076  0.23863  0.10208  1.0000
  H   H1317     1.0  0.56100  0.18199  0.23256  1.0000
  H   H1318     1.0  0.64598  0.07016  0.18858  1.0000
  C   C763      1.0  0.52563  0.25496  0.08931  1.0000
  H   H1319     1.0  0.50518  0.02545  0.20332  1.0000
  H   H1320     1.0  0.54081  0.24269  0.19288  1.0000
  C   C764      1.0  0.52093  0.17181  0.17550  1.0000
  H   H1321     1.0  0.52943  0.23850  0.06660  1.0000
  Fe  Fe86      1.0  0.58807  0.99040  0.23300  1.0000
  H   H1322     1.0  0.55147  0.02164  0.13922  1.0000
  H   H1323     1.0  0.38762  0.39990  0.14424  1.0000
  H   H1324     1.0  0.41188  0.39549  0.12942  1.0000
  H   H1325     1.0  0.40587  0.37876  0.15229  1.0000
  H   H1326     1.0  0.57364  0.12654  0.17413  1.0000
  H   H1327     1.0  0.42171  0.44334  0.19765  1.0000
  C   C765      1.0  0.56936  0.18669  0.19250  1.0000
  H   H1328     1.0  0.54131  0.26318  0.12238  1.0000
  H   H1329     1.0  0.62716  0.19282  0.02110  1.0000
  C   C766      1.0  0.40765  0.44933  0.19256  1.0000
  C   C767      1.0  0.64405  0.12530  0.22215  1.0000
  C   C768      1.0  0.60657  0.22136  0.13932  1.0000
  H   H1330     1.0  0.52454  0.16457  0.16281  1.0000
  H   H1331     1.0  0.55336  0.04827  0.15239  1.0000
  H   H1332     1.0  0.53857  0.29562  0.07607  1.0000
  C   C769      1.0  0.52098  0.23912  0.08169  1.0000
  C   C770      1.0  0.55308  0.25246  0.16289  1.0000
  H   H1333     1.0  0.40221  0.41433  0.22008  1.0000
  H   H1334     1.0  0.41228  0.26529  0.20854  1.0000
  N   N43       1.0  0.40647  0.41454  0.18916  1.0000
  C   C771      1.0  0.39411  0.41240  0.20970  1.0000
  C   C772      1.0  0.40961  0.28956  0.23043  1.0000
  H   H1335     1.0  0.34725  0.45985  0.22150  1.0000
  H   H1336     1.0  0.54537  0.12648  0.19445  1.0000
  H   H1337     1.0  0.54637  0.10086  0.20275  1.0000
  H   H1338     1.0  0.62280  0.24218  0.07164  1.0000
  H   H1339     1.0  0.53348  0.17583  0.20691  1.0000
  N   N44       1.0  0.56171  0.11254  0.21765  1.0000
  H   H1340     1.0  0.64692  0.08677  0.22024  1.0000
  H   H1341     1.0  0.61739  0.18554  0.19507  1.0000
  H   H1342     1.0  0.52533  0.99314  0.19701  1.0000
  C   C773      1.0  0.54814  0.21766  0.17841  1.0000
  H   H1343     1.0  0.48947  0.14467  0.99633  1.0000
  H   H1344     1.0  0.43724  0.41152  0.17518  1.0000
  C   C774      1.0  0.55263  0.23650  0.18148  1.0000
  C   C775      1.0  0.54165  0.25848  0.22513  1.0000
  H   H1345     1.0  0.52771  0.21426  0.21662  1.0000
  N   N45       1.0  0.63056  0.32886  0.16364  1.0000
  C   C776      1.0  0.62621  0.32426  0.18578  1.0000
  H   H1346     1.0  0.61757  0.35978  0.16208  1.0000
  H   H1347     1.0  0.59056  0.35049  0.16356  1.0000
  C   C777      1.0  0.58059  0.10972  0.20253  1.0000
  H   H1348     1.0  0.60943  0.11007  0.16883  1.0000
  H   H1349     1.0  0.40729  0.42229  0.14688  1.0000
  C   C778      1.0  0.53852  0.17958  0.17615  1.0000
  H   H1350     1.0  0.46128  0.36119  0.19597  1.0000
  H   H1351     1.0  0.51710  0.16086  0.18903  1.0000
  C   C779      1.0  0.57688  0.25561  0.21924  1.0000
  C   C780      1.0  0.64957  0.37800  0.14776  1.0000
  C   C781      1.0  0.34633  0.44812  0.17914  1.0000
  H   H1352     1.0  0.51098  0.10160  0.20904  1.0000
  H   H1353     1.0  0.58056  0.27442  0.09724  1.0000
  H   H1354     1.0  0.41431  0.43870  0.16573  1.0000
  H   H1355     1.0  0.46281  0.38417  0.20039  1.0000
  N   N46       1.0  0.38708  0.27367  0.19472  1.0000
  H   H1356     1.0  0.62183  0.23215  0.15518  1.0000
  C   C782      1.0  0.39720  0.26279  0.17821  1.0000
  H   H1357     1.0  0.55647  0.24542  0.07654  1.0000
  H   H1358     1.0  0.59349  0.10719  0.20935  1.0000
  C   C783      1.0  0.34475  0.44627  0.19918  1.0000
  C   C784      1.0  0.41757  0.24897  0.17964  1.0000
  C   C785      1.0  0.42439  0.23668  0.16382  1.0000
  C   C786      1.0  0.52393  0.11972  0.22005  1.0000
  S   S179      1.0  0.64562  0.26451  0.21066  1.0000
  H   H1359     1.0  0.41151  0.28737  0.19092  1.0000
  N   N47       1.0  0.54920  0.19981  0.19509  1.0000
  H   H1360     1.0  0.38747  0.25408  0.17612  1.0000
  H   H1361     1.0  0.39996  0.27341  0.16402  1.0000
  H   H1362     1.0  0.38425  0.30215  0.17518  1.0000
  C   C787      1.0  0.37466  0.29285  0.18620  1.0000
  H   H1363     1.0  0.56684  0.23357  0.18605  1.0000
  C   C788      1.0  0.56273  0.09383  0.23306  1.0000
  H   H1364     1.0  0.58246  0.09613  0.19693  1.0000
  H   H1365     1.0  0.42873  0.25785  0.17745  1.0000
  H   H1366     1.0  0.41757  0.23876  0.19395  1.0000
  H   H1367     1.0  0.42554  0.24634  0.14903  1.0000
  H   H1368     1.0  0.43912  0.22725  0.16510  1.0000
  H   H1369     1.0  0.41405  0.22700  0.16560  1.0000
  C   C789      1.0  0.54493  0.11465  0.20779  1.0000
  H   H1370     1.0  0.34318  0.43693  0.17373  1.0000
  C   C790      1.0  0.62100  0.21965  0.14995  1.0000
  H   H1371     1.0  0.61571  0.33686  0.19151  1.0000
  H   H1372     1.0  0.57840  0.14128  0.18842  1.0000
  N   N48       1.0  0.50870  0.14844  0.05350  1.0000
  C   C791      1.0  0.52253  0.12862  0.05392  1.0000
  C   C792      1.0  0.50519  0.15680  0.03293  1.0000
  C   C793      1.0  0.51888  0.16198  0.05834  1.0000
  C   C794      1.0  0.48952  0.14769  0.06811  1.0000
  C   C795      1.0  0.48162  0.12852  0.07283  1.0000
  C   C796      1.0  0.53147  0.12002  0.07251  1.0000
  C   C797      1.0  0.50844  0.18399  0.05582  1.0000
  C   C798      1.0  0.49623  0.14459  0.02404  1.0000
  C   C799      1.0  0.49648  0.15326  0.00231  1.0000
  C   C800      1.0  0.46079  0.13107  0.08518  1.0000
  C   C801      1.0  0.54113  0.09826  0.07385  1.0000
  C   C802      1.0  0.51796  0.19540  0.06463  1.0000
  H   H1373     1.0  0.53506  0.12947  0.04122  1.0000
  H   H1374     1.0  0.51548  0.11751  0.05191  1.0000
  H   H1375     1.0  0.49498  0.17141  0.03205  1.0000
  H   H1376     1.0  0.51926  0.15935  0.02284  1.0000
  H   H1377     1.0  0.53393  0.16125  0.04923  1.0000
  H   H1378     1.0  0.52088  0.15712  0.07378  1.0000
  H   H1379     1.0  0.49071  0.14982  0.08250  1.0000
  H   H1380     1.0  0.47780  0.16023  0.06323  1.0000
  H   H1381     1.0  0.49103  0.11633  0.08135  1.0000
  H   H1382     1.0  0.48135  0.12387  0.05948  1.0000
  H   H1383     1.0  0.54309  0.12782  0.07194  1.0000
  H   H1384     1.0  0.52015  0.12173  0.08599  1.0000
  H   H1385     1.0  0.49270  0.18571  0.06305  1.0000
  H   H1386     1.0  0.50961  0.19092  0.04005  1.0000
  H   H1387     1.0  0.50448  0.12917  0.02511  1.0000
  H   H1388     1.0  0.48066  0.14490  0.03145  1.0000
  H   H1389     1.0  0.38068  0.42433  0.21034  1.0000
  C   C803      1.0  0.34795  0.31127  0.16701  1.0000
  H   H1390     1.0  0.33796  0.44521  0.10967  1.0000
  H   H1391     1.0  0.46045  0.13517  0.09911  1.0000
  H   H1392     1.0  0.45052  0.14261  0.07702  1.0000
  H   H1393     1.0  0.45569  0.11703  0.08875  1.0000
  H   H1394     1.0  0.53004  0.08949  0.07529  1.0000
  H   H1395     1.0  0.55276  0.09615  0.06063  1.0000
  H   H1396     1.0  0.54802  0.09281  0.08690  1.0000
  H   H1397     1.0  0.51674  0.18957  0.08061  1.0000
  H   H1398     1.0  0.53371  0.19438  0.05753  1.0000
  H   H1399     1.0  0.51041  0.21111  0.06233  1.0000
  H   H1400     1.0  0.55686  0.26549  0.16543  1.0000
  H   H1401     1.0  0.42887  0.37817  0.21060  1.0000
  H   H1402     1.0  0.61354  0.18732  0.22935  1.0000
  H   H1403     1.0  0.51940  0.19803  0.19602  1.0000
  S   S180      1.0  0.33869  0.42512  0.21567  1.0000
  H   H1404     1.0  0.61098  0.17731  0.00508  1.0000
  H   H1405     1.0  0.52689  0.29057  0.14369  1.0000
  C   C804      1.0  0.54169  0.01572  0.17876  1.0000
  H   H1406     1.0  0.57594  0.25061  0.10871  1.0000
  H   H1407     1.0  0.63552  0.38858  0.15129  1.0000
  S   S181      1.0  0.64687  0.25654  0.16732  1.0000
  C   C805      1.0  0.37368  0.26203  0.21030  1.0000
  C   C806      1.0  0.53281  0.00403  0.19884  1.0000
  Fe  Fe87      1.0  0.65068  0.23183  0.22090  1.0000
  H   H1408     1.0  0.55147  0.30386  0.10287  1.0000
  C   C807      1.0  0.59140  0.25394  0.07843  1.0000
  H   H1409     1.0  0.54597  0.31018  0.03882  1.0000
  C   C808      1.0  0.35480  0.47993  0.17277  1.0000
  C   C809      1.0  0.55322  0.28545  0.07399  1.0000
  H   H1410     1.0  0.54568  0.02828  0.18197  1.0000
  H   H1411     1.0  0.59291  0.03938  0.12399  1.0000
  H   H1412     1.0  0.33624  0.30966  0.16044  1.0000
  C   C810      1.0  0.57758  0.32954  0.15774  1.0000
  H   H1413     1.0  0.57563  0.00835  0.18629  1.0000
  H   H1414     1.0  0.64367  0.17205  0.14926  1.0000
  H   H1415     1.0  0.56484  0.08114  0.22606  1.0000
  H   H1416     1.0  0.39773  0.38001  0.21636  1.0000
  H   H1417     1.0  0.52407  0.02862  0.21392  1.0000
  C   C811      1.0  0.54783  0.25120  0.08968  1.0000
  C   C812      1.0  0.39375  0.29059  0.21941  1.0000
  H   H1418     1.0  0.59268  0.26554  0.06499  1.0000
  H   H1419     1.0  0.57237  0.30260  0.03667  1.0000
  C   C813      1.0  0.34869  0.47153  0.10904  1.0000
  C   C814      1.0  0.61166  0.24779  0.08382  1.0000
  C   C815      1.0  0.57616  0.99776  0.17721  1.0000
  C   C816      1.0  0.53112  0.30170  0.13046  1.0000
  H   H1420     1.0  0.64066  0.10326  0.19897  1.0000
  H   H1421     1.0  0.52450  0.22455  0.09141  1.0000
  H   H1422     1.0  0.52631  0.28131  0.10761  1.0000
  C   C817      1.0  0.61648  0.19067  0.99638  1.0000
  Fe  Fe88      1.0  0.49784  0.25838  0.21798  1.0000
  Fe  Fe89      1.0  0.65144  0.22438  0.18111  1.0000
  H   H1423     1.0  0.54296  0.27528  0.05277  1.0000
  H   H1424     1.0  0.60281  0.20708  0.01965  1.0000
  C   C818      1.0  0.60525  0.20527  0.13247  1.0000
  C   C819      1.0  0.35176  0.46471  0.16597  1.0000
  H   H1425     1.0  0.60290  0.16762  0.20875  1.0000
  H   H1426     1.0  0.53841  0.25699  0.15897  1.0000
  H   H1427     1.0  0.57981  0.06284  0.12970  1.0000
  C   C820      1.0  0.42797  0.40625  0.18953  1.0000
  C   C821      1.0  0.63450  0.20191  0.15351  1.0000
  H   H1428     1.0  0.61204  0.07568  0.15468  1.0000
  C   C822      1.0  0.63705  0.31739  0.21815  1.0000
  H   H1429     1.0  0.63177  0.35411  0.13971  1.0000
  H   H1430     1.0  0.39464  0.47696  0.17510  1.0000
  C   C823      1.0  0.60499  0.17901  0.19518  1.0000
  H   H1431     1.0  0.60890  0.17198  0.18232  1.0000
  C   C824      1.0  0.63325  0.18580  0.14661  1.0000
  H   H1432     1.0  0.37646  0.43910  0.12358  1.0000
  H   H1433     1.0  0.38907  0.44248  0.17715  1.0000
  C   C825      1.0  0.38364  0.24399  0.22404  1.0000
  C   C826      1.0  0.40415  0.43626  0.18018  1.0000
  C   C827      1.0  0.41012  0.40684  0.15507  1.0000
  H   H1434     1.0  0.64993  0.13340  0.22979  1.0000
  H   H1435     1.0  0.59658  0.23529  0.13620  1.0000
  C   C828      1.0  0.40204  0.27871  0.20286  1.0000
  C   C829      1.0  0.56383  0.01819  0.14705  1.0000
  H   H1436     1.0  0.56921  0.17237  0.20297  1.0000
  C   C830      1.0  0.63132  0.35026  0.15574  1.0000
  H   H1437     1.0  0.55803  0.21392  0.16464  1.0000
  H   H1438     1.0  0.55193  0.21611  0.21551  1.0000
  C   C831      1.0  0.53444  0.18849  0.19450  1.0000
  H   H1439     1.0  0.55448  0.14394  0.21500  1.0000
  H   H1440     1.0  0.35789  0.47246  0.09402  1.0000
  C   C832      1.0  0.54320  0.20588  0.21466  1.0000
  H   H1441     1.0  0.50797  0.18406  0.17389  1.0000
  C   C833      1.0  0.58635  0.19508  0.19432  1.0000
  H   H1442     1.0  0.57370  0.18304  0.17769  1.0000
  H   H1443     1.0  0.36498  0.28243  0.16462  1.0000
  H   H1444     1.0  0.41219  0.34602  0.22025  1.0000
  H   H1445     1.0  0.36688  0.30159  0.19763  1.0000
  H   H1446     1.0  0.57650  0.03632  0.15917  1.0000
  H   H1447     1.0  0.51670  0.25493  0.10429  1.0000
  H   H1448     1.0  0.62398  0.21537  0.00306  1.0000
  C   C834      1.0  0.59278  0.33427  0.16627  1.0000
  H   H1449     1.0  0.52053  0.26946  0.08020  1.0000
  C   C835      1.0  0.56007  0.24805  0.22876  1.0000
  C   C836      1.0  0.57545  0.26203  0.09498  1.0000
  C   C837      1.0  0.55880  0.29778  0.03706  1.0000
  H   H1450     1.0  0.64993  0.31229  0.22532  1.0000
  H   H1451     1.0  0.50505  0.24243  0.08157  1.0000
  H   H1452     1.0  0.51137  0.00883  0.22531  1.0000
  H   H1453     1.0  0.56939  0.05083  0.11699  1.0000
  H   H1454     1.0  0.64805  0.29976  0.16210  1.0000
  H   H1455     1.0  0.35323  0.46591  0.15054  1.0000
  C   C838      1.0  0.54178  0.27568  0.10955  1.0000
  H   H1456     1.0  0.38829  0.30628  0.21312  1.0000
  H   H1457     1.0  0.56879  0.26795  0.05099  1.0000
  H   H1458     1.0  0.61592  0.26045  0.08654  1.0000
  C   C839      1.0  0.56758  0.03818  0.14813  1.0000
  C   C840      1.0  0.53997  0.27681  0.21238  1.0000
  H   H1459     1.0  0.56062  0.28587  0.12277  1.0000
  C   C841      1.0  0.65316  0.09632  0.20663  1.0000
  H   H1460     1.0  0.53601  0.31293  0.13503  1.0000
  S   S182      1.0  0.65292  0.19944  0.16664  1.0000
  H   H1461     1.0  0.34023  0.44742  0.13314  1.0000
  H   H1462     1.0  0.57943  0.33581  0.14179  1.0000
  H   H1463     1.0  0.52573  0.28539  0.21022  1.0000
  C   C842      1.0  0.55605  0.28007  0.05375  1.0000
  H   H1464     1.0  0.56394  0.29466  0.07268  1.0000
  C   C843      1.0  0.54771  0.29214  0.11567  1.0000
  H   H1465     1.0  0.46357  0.38174  0.17581  1.0000
  H   H1466     1.0  0.39320  0.24808  0.23150  1.0000
  H   H1467     1.0  0.57475  0.13234  0.22592  1.0000
  H   H1468     1.0  0.64534  0.35818  0.17532  1.0000
  H   H1469     1.0  0.53708  0.17773  0.23393  1.0000
  H   H1470     1.0  0.61888  0.11095  0.22956  1.0000
  H   H1471     1.0  0.52043  0.13526  0.22160  1.0000
  H   H1472     1.0  0.35804  0.47431  0.11774  1.0000
  C   C844      1.0  0.64391  0.31823  0.19616  1.0000
  H   H1473     1.0  0.57659  0.01115  0.13711  1.0000
  H   H1474     1.0  0.36283  0.27174  0.21962  1.0000
  C   C845      1.0  0.61764  0.20229  0.01088  1.0000
  S   S183      1.0  0.46663  0.26856  0.23217  1.0000
  S   S184      1.0  0.43638  0.23261  0.22874  1.0000
  H   H1475     1.0  0.65829  0.05551  0.20816  1.0000
  H   H1476     1.0  0.65314  0.37809  0.13184  1.0000
  H   H1477     1.0  0.48831  0.16879  0.00004  1.0000
  S   S185      1.0  0.55559  0.13048  0.98913  1.0000
  H   H1478     1.0  0.53980  0.99219  0.15699  1.0000
  C   C846      1.0  0.59727  0.99485  0.16434  1.0000
  H   H1479     1.0  0.65760  0.12929  0.18224  1.0000
  H   H1480     1.0  0.54858  0.17226  0.98897  1.0000
  H   H1481     1.0  0.58761  0.20535  0.99233  1.0000
  H   H1482     1.0  0.63157  0.18591  0.98826  1.0000
  H   H1483     1.0  0.62937  0.33219  0.22104  1.0000
  H   H1484     1.0  0.60186  0.00919  0.15888  1.0000
  H   H1485     1.0  0.35849  0.22979  0.23355  1.0000
  C   C847      1.0  0.37759  0.39123  0.24026  1.0000
  H   H1486     1.0  0.35328  0.02619  0.43993  1.0000
  Fe  Fe90      1.0  0.63637  0.10145  0.33734  1.0000
  S   S186      1.0  0.60720  0.11099  0.35610  1.0000
  C   C848      1.0  0.64195  0.16604  0.34669  1.0000
  Fe  Fe91      1.0  0.49684  0.12995  0.34173  1.0000
  S   S187      1.0  0.49758  0.16205  0.33347  1.0000
  S   S188      1.0  0.49107  0.11691  0.37396  1.0000
  Fe  Fe92      1.0  0.50257  0.12632  0.29959  1.0000
  S   S189      1.0  0.50339  0.15819  0.28785  1.0000
  S   S190      1.0  0.50469  0.10900  0.27709  1.0000
  Fe  Fe93      1.0  0.52261  0.15342  0.30938  1.0000
  S   S191      1.0  0.55081  0.16435  0.30024  1.0000
  Fe  Fe94      1.0  0.47835  0.16358  0.31295  1.0000
  S   S192      1.0  0.44978  0.18543  0.31219  1.0000
  S   S193      1.0  0.52375  0.12103  0.31933  1.0000
  S   S194      1.0  0.47578  0.13216  0.32283  1.0000
  Fe  Fe95      1.0  0.38656  0.10999  0.42801  1.0000
  S   S195      1.0  0.35674  0.10268  0.43672  1.0000
  S   S196      1.0  0.40482  0.10185  0.39984  1.0000
  H   H1487     1.0  0.64786  0.18913  0.28810  1.0000
  S   S197      1.0  0.54654  0.01923  0.29202  1.0000
  H   H1488     1.0  0.52646  0.08639  0.37693  1.0000
  H   H1489     1.0  0.60673  0.06755  0.31932  1.0000
  H   H1490     1.0  0.40879  0.18640  0.33091  1.0000
  S   S198      1.0  0.37555  0.14085  0.43288  1.0000
  H   H1491     1.0  0.62226  0.13535  0.25743  1.0000
  H   H1492     1.0  0.59488  0.08145  0.33756  1.0000
  C   C849      1.0  0.42952  0.10380  0.39419  1.0000
  C   C850      1.0  0.43747  0.11020  0.40660  1.0000
  C   C851      1.0  0.45676  0.11343  0.40069  1.0000
  C   C852      1.0  0.46787  0.11071  0.38221  1.0000
  C   C853      1.0  0.46013  0.10357  0.37020  1.0000
  C   C854      1.0  0.44109  0.09991  0.37629  1.0000
  H   H1493     1.0  0.42863  0.11312  0.42051  1.0000
  H   H1494     1.0  0.46277  0.11879  0.41010  1.0000
  H   H1495     1.0  0.46889  0.10069  0.35629  1.0000
  H   H1496     1.0  0.43513  0.09447  0.36690  1.0000
  C   C855      1.0  0.44682  0.19622  0.28819  1.0000
  C   C856      1.0  0.46276  0.20137  0.27368  1.0000
  S   S199      1.0  0.63676  0.09377  0.30920  1.0000
  H   H1497     1.0  0.53389  0.04732  0.31750  1.0000
  H   H1498     1.0  0.37110  0.37794  0.24570  1.0000
  C   C857      1.0  0.42796  0.20155  0.28405  1.0000
  H   H1499     1.0  0.47729  0.19761  0.27692  1.0000
  H   H1500     1.0  0.56538  0.06840  0.26870  1.0000
  H   H1501     1.0  0.41038  0.21618  0.26232  1.0000
  H   H1502     1.0  0.41563  0.19767  0.29522  1.0000
  C   C858      1.0  0.59153  0.12666  0.34101  1.0000
  C   C859      1.0  0.57117  0.12893  0.34732  1.0000
  C   C860      1.0  0.55862  0.14052  0.33478  1.0000
  C   C861      1.0  0.56644  0.15000  0.31600  1.0000
  C   C862      1.0  0.58680  0.14785  0.30975  1.0000
  C   C863      1.0  0.59934  0.13630  0.32229  1.0000
  H   H1503     1.0  0.56509  0.12147  0.36178  1.0000
  H   H1504     1.0  0.54289  0.14214  0.33973  1.0000
  H   H1505     1.0  0.59297  0.15456  0.29506  1.0000
  H   H1506     1.0  0.61507  0.13453  0.31732  1.0000
  H   H1507     1.0  0.65185  0.15296  0.29339  1.0000
  H   H1508     1.0  0.60572  0.01118  0.30736  1.0000
  H   H1509     1.0  0.63394  0.10282  0.24753  1.0000
  H   H1510     1.0  0.64182  0.03691  0.37174  1.0000
  H   H1511     1.0  0.56231  0.09218  0.27385  1.0000
  C   C864      1.0  0.53371  0.04381  0.28881  1.0000
  C   C865      1.0  0.52812  0.05308  0.27094  1.0000
  C   C866      1.0  0.51880  0.07295  0.26775  1.0000
  C   C867      1.0  0.51542  0.08384  0.28222  1.0000
  C   C868      1.0  0.52084  0.07461  0.30021  1.0000
  C   C869      1.0  0.52978  0.05450  0.30359  1.0000
  H   H1512     1.0  0.53083  0.04485  0.25958  1.0000
  H   H1513     1.0  0.35135  0.15002  0.40069  1.0000
  H   H1514     1.0  0.51801  0.08288  0.31155  1.0000
  C   C870      1.0  0.61397  0.13016  0.24942  1.0000
  H   H1515     1.0  0.59097  0.06114  0.36770  1.0000
  C   C871      1.0  0.55610  0.13730  0.25970  1.0000
  H   H1516     1.0  0.41176  0.27226  0.27640  1.0000
  Fe  Fe96      1.0  0.36289  0.09267  0.46687  1.0000
  C   C872      1.0  0.43272  0.12041  0.31227  1.0000
  H   H1517     1.0  0.58969  0.03602  0.37106  1.0000
  H   H1518     1.0  0.43388  0.25807  0.26421  1.0000
  H   H1519     1.0  0.43198  0.15085  0.39368  1.0000
  H   H1520     1.0  0.38619  0.15212  0.38830  1.0000
  C   C873      1.0  0.63568  0.02230  0.27487  1.0000
  C   C874      1.0  0.57781  0.08533  0.31604  1.0000
  H   H1521     1.0  0.63261  0.00904  0.27299  1.0000
  H   H1522     1.0  0.59919  0.09278  0.28940  1.0000
  H   H1523     1.0  0.63208  0.17347  0.35839  1.0000
  C   C875      1.0  0.53251  0.07667  0.36617  1.0000
  C   C876      1.0  0.58775  0.10023  0.30022  1.0000
  H   H1524     1.0  0.43560  0.15396  0.34683  1.0000
  H   H1525     1.0  0.54582  0.20714  0.25253  1.0000
  C   C877      1.0  0.64456  0.05630  0.27947  1.0000
  C   C878      1.0  0.42119  0.15438  0.35731  1.0000
  H   H1526     1.0  0.56889  0.12549  0.26276  1.0000
  H   H1527     1.0  0.58917  0.02285  0.34282  1.0000
  H   H1528     1.0  0.61933  0.03079  0.38708  1.0000
  H   H1529     1.0  0.58983  0.21185  0.24709  1.0000
  H   H1530     1.0  0.39539  0.13116  0.36471  1.0000
  S   S200      1.0  0.39375  0.09738  0.45771  1.0000
  C   C879      1.0  0.58569  0.03856  0.31341  1.0000
  H   H1531     1.0  0.59473  0.10819  0.30680  1.0000
  C   C880      1.0  0.33181  0.00211  0.46972  1.0000
  H   H1532     1.0  0.60930  0.03316  0.32782  1.0000
  H   H1533     1.0  0.63521  0.17076  0.33356  1.0000
  S   S201      1.0  0.34982  0.12187  0.47542  1.0000
  H   H1534     1.0  0.41346  0.11732  0.34037  1.0000
  H   H1535     1.0  0.56965  0.04414  0.31503  1.0000
  H   H1536     1.0  0.62355  0.02843  0.35223  1.0000
  H   H1537     1.0  0.55606  0.06112  0.33741  1.0000
  N   N49       1.0  0.46176  0.24060  0.31279  1.0000
  C   C881      1.0  0.47928  0.22364  0.31153  1.0000
  C   C882      1.0  0.44603  0.23540  0.33061  1.0000
  C   C883      1.0  0.45317  0.24401  0.29488  1.0000
  C   C884      1.0  0.46737  0.25933  0.31285  1.0000
  C   C885      1.0  0.47845  0.25831  0.32894  1.0000
  C   C886      1.0  0.49684  0.22694  0.29428  1.0000
  C   C887      1.0  0.43476  0.26091  0.29333  1.0000
  C   C888      1.0  0.45285  0.22122  0.34896  1.0000
  C   C889      1.0  0.43590  0.22057  0.36671  1.0000
  C   C890      1.0  0.48530  0.27744  0.32602  1.0000
  C   C891      1.0  0.51438  0.20978  0.29647  1.0000
  H   H1538     1.0  0.47466  0.21037  0.31063  1.0000
  H   H1539     1.0  0.48537  0.21929  0.32500  1.0000
  H   H1540     1.0  0.43651  0.24897  0.33528  1.0000
  H   H1541     1.0  0.43592  0.22805  0.32698  1.0000
  H   H1542     1.0  0.44921  0.23032  0.29430  1.0000
  H   H1543     1.0  0.46408  0.24745  0.28118  1.0000
  H   H1544     1.0  0.47621  0.26488  0.29832  1.0000
  H   H1545     1.0  0.45403  0.27124  0.31475  1.0000
  H   H1546     1.0  0.49166  0.24624  0.32886  1.0000
  H   H1547     1.0  0.46854  0.25623  0.34350  1.0000
  H   H1548     1.0  0.49300  0.22803  0.28004  1.0000
  H   H1549     1.0  0.50176  0.24044  0.29378  1.0000
  H   H1550     1.0  0.43932  0.27530  0.28838  1.0000
  H   H1551     1.0  0.42418  0.26103  0.30747  1.0000
  H   H1552     1.0  0.45836  0.20605  0.34613  1.0000
  H   H1553     1.0  0.46474  0.22554  0.35294  1.0000
  H   H1554     1.0  0.42359  0.21603  0.36361  1.0000
  H   H1555     1.0  0.44104  0.20981  0.37938  1.0000
  H   H1556     1.0  0.43048  0.23521  0.37075  1.0000
  H   H1557     1.0  0.49571  0.28008  0.31178  1.0000
  H   H1558     1.0  0.47256  0.29009  0.32645  1.0000
  H   H1559     1.0  0.49294  0.27648  0.33790  1.0000
  H   H1560     1.0  0.51864  0.20738  0.31078  1.0000
  H   H1561     1.0  0.51086  0.19608  0.29520  1.0000
  H   H1562     1.0  0.52716  0.21299  0.28479  1.0000
  H   H1563     1.0  0.59334  0.04874  0.30139  1.0000
  C   C892      1.0  0.59024  0.01885  0.30718  1.0000
  H   H1564     1.0  0.52602  0.06339  0.37172  1.0000
  C   C893      1.0  0.61799  0.04301  0.35635  1.0000
  H   H1565     1.0  0.56074  0.08473  0.35823  1.0000
  C   C894      1.0  0.33103  0.18318  0.42291  1.0000
  C   C895      1.0  0.62556  0.04168  0.37469  1.0000
  C   C896      1.0  0.42380  0.25915  0.27853  1.0000
  H   H1566     1.0  0.33935  0.47499  0.25487  1.0000
  H   H1567     1.0  0.58042  0.00925  0.31712  1.0000
  H   H1568     1.0  0.41729  0.24587  0.28391  1.0000
  H   H1569     1.0  0.38563  0.18032  0.31386  1.0000
  H   H1570     1.0  0.36582  0.40424  0.24311  1.0000
  C   C897      1.0  0.42377  0.12696  0.33175  1.0000
  H   H1571     1.0  0.53392  0.24837  0.27185  1.0000
  H   H1572     1.0  0.55818  0.06424  0.37837  1.0000
  H   H1573     1.0  0.56115  0.15128  0.25348  1.0000
  H   H1574     1.0  0.63610  0.06952  0.25170  1.0000
  H   H1575     1.0  0.37854  0.14619  0.35033  1.0000
  C   C898      1.0  0.65200  0.18205  0.27572  1.0000
  H   H1576     1.0  0.34958  0.14660  0.37746  1.0000
  C   C899      1.0  0.37672  0.15479  0.37755  1.0000
  Fe  Fe97      1.0  0.56529  0.01493  0.26279  1.0000
  H   H1577     1.0  0.62441  0.05419  0.34452  1.0000
  H   H1578     1.0  0.33099  0.02723  0.48221  1.0000
  Fe  Fe98      1.0  0.34619  0.13242  0.44425  1.0000
  H   H1579     1.0  0.58776  0.02134  0.29209  1.0000
  H   H1580     1.0  0.62161  0.05628  0.37882  1.0000
  H   H1581     1.0  0.63003  0.23279  0.30134  1.0000
  C   C900      1.0  0.44075  0.21784  0.25119  1.0000
  H   H1582     1.0  0.54035  0.11915  0.25358  1.0000
  C   C901      1.0  0.55483  0.07110  0.36362  1.0000
  C   C902      1.0  0.60736  0.18317  0.24519  1.0000
  H   H1583     1.0  0.59437  0.17676  0.24712  1.0000
  C   C903      1.0  0.64718  0.03913  0.29379  1.0000
  H   H1584     1.0  0.34531  0.17445  0.42482  1.0000
  H   H1585     1.0  0.57659  0.11112  0.29276  1.0000
  C   C904      1.0  0.65471  0.19332  0.25666  1.0000
  H   H1586     1.0  0.57192  0.07708  0.30874  1.0000
  H   H1587     1.0  0.43587  0.17542  0.38845  1.0000
  H   H1588     1.0  0.38379  0.21480  0.31601  1.0000
  C   C905      1.0  0.64259  0.02216  0.29151  1.0000
  H   H1589     1.0  0.61884  0.17200  0.25208  1.0000
  H   H1590     1.0  0.32821  0.08180  0.46121  1.0000
  C   C906      1.0  0.36835  0.23468  0.24005  1.0000
  C   C907      1.0  0.65449  0.16158  0.27875  1.0000
  C   C908      1.0  0.61948  0.24531  0.29454  1.0000
  H   H1591     1.0  0.39084  0.18659  0.35265  1.0000
  H   H1592     1.0  0.56514  0.09371  0.32505  1.0000
  C   C909      1.0  0.63357  0.03938  0.26034  1.0000
  H   H1593     1.0  0.42316  0.18382  0.35858  1.0000
  H   H1594     1.0  0.40567  0.17351  0.37866  1.0000
  H   H1595     1.0  0.37591  0.22165  0.24950  1.0000
  H   H1596     1.0  0.52153  0.20419  0.25268  1.0000
  S   S202      1.0  0.65650  0.03847  0.31438  1.0000
  C   C910      1.0  0.59225  0.07180  0.32904  1.0000
  C   C911      1.0  0.54613  0.13236  0.24580  1.0000
  H   H1597     1.0  0.42270  0.13979  0.36746  1.0000
  H   H1598     1.0  0.45053  0.15865  0.37290  1.0000
  C   C912      1.0  0.38005  0.18463  0.32828  1.0000
  N   N50       1.0  0.58719  0.21266  0.28737  1.0000
  C   C913      1.0  0.57987  0.20404  0.30862  1.0000
  C   C914      1.0  0.57060  0.22670  0.27841  1.0000
  C   C915      1.0  0.59453  0.19581  0.27670  1.0000
  C   C916      1.0  0.60403  0.22255  0.28463  1.0000
  C   C917      1.0  0.60030  0.23918  0.29588  1.0000
  C   C918      1.0  0.59564  0.19028  0.31999  1.0000
  C   C919      1.0  0.60147  0.20138  0.25419  1.0000
  C   C920      1.0  0.55444  0.23920  0.29168  1.0000
  H   H1599     1.0  0.36525  0.21193  0.33827  1.0000
  H   H1600     1.0  0.42698  0.07291  0.47571  1.0000
  C   C921      1.0  0.58619  0.18193  0.34097  1.0000
  S   S203      1.0  0.59571  0.99620  0.25919  1.0000
  H   H1601     1.0  0.56835  0.19575  0.30978  1.0000
  H   H1602     1.0  0.57251  0.21567  0.31713  1.0000
  H   H1603     1.0  0.57662  0.23693  0.26512  1.0000
  H   H1604     1.0  0.56243  0.21848  0.27324  1.0000
  H   H1605     1.0  0.58281  0.18732  0.27953  1.0000
  H   H1606     1.0  0.60729  0.18535  0.28210  1.0000
  H   H1607     1.0  0.61720  0.21146  0.28837  1.0000
  H   H1608     1.0  0.60858  0.22937  0.26897  1.0000
  H   H1609     1.0  0.59388  0.23469  0.31159  1.0000
  H   H1610     1.0  0.59035  0.25233  0.28919  1.0000
  H   H1611     1.0  0.60372  0.17762  0.31313  1.0000
  H   H1612     1.0  0.60647  0.19842  0.32074  1.0000
  H   H1613     1.0  0.61452  0.20804  0.25043  1.0000
  S   S204      1.0  0.65097  0.21890  0.25274  1.0000
  H   H1614     1.0  0.54517  0.22963  0.30263  1.0000
  H   H1615     1.0  0.56063  0.24651  0.29969  1.0000
  H   H1616     1.0  0.44024  0.08863  0.48043  1.0000
  H   H1617     1.0  0.42358  0.15757  0.31803  1.0000
  H   H1618     1.0  0.53832  0.18428  0.26441  1.0000
  H   H1619     1.0  0.64329  0.14992  0.35202  1.0000
  H   H1620     1.0  0.43584  0.12439  0.33959  1.0000
  C   C922      1.0  0.63784  0.05636  0.26282  1.0000
  H   H1621     1.0  0.57916  0.19388  0.34921  1.0000
  H   H1622     1.0  0.57496  0.17383  0.34106  1.0000
  H   H1623     1.0  0.59754  0.17143  0.34857  1.0000
  H   H1624     1.0  0.34573  0.99339  0.47405  1.0000
  H   H1625     1.0  0.58579  0.07511  0.27335  1.0000
  C   C923      1.0  0.41304  0.14890  0.32846  1.0000
  H   H1626     1.0  0.61649  0.25755  0.30233  1.0000
  H   H1627     1.0  0.52812  0.08470  0.35210  1.0000
  C   C924      1.0  0.35978  0.14421  0.38747  1.0000
  C   C925      1.0  0.59523  0.04848  0.36020  1.0000
  C   C926      1.0  0.54098  0.25510  0.27970  1.0000
  C   C927      1.0  0.42020  0.17008  0.36897  1.0000
  N   N51       1.0  0.40466  0.15748  0.34663  1.0000
  H   H1628     1.0  0.56001  0.04210  0.35772  1.0000
  N   N52       1.0  0.58596  0.05364  0.34245  1.0000
  C   C928      1.0  0.56399  0.05642  0.34968  1.0000
  C   C929      1.0  0.59302  0.03634  0.33240  1.0000
  H   H1629     1.0  0.44334  0.12950  0.30301  1.0000
  C   C930      1.0  0.38886  0.14681  0.35919  1.0000
  H   H1630     1.0  0.60298  0.12268  0.26042  1.0000
  C   C931      1.0  0.42499  0.21202  0.26545  1.0000
  C   C932      1.0  0.37194  0.20682  0.32431  1.0000
  C   C933      1.0  0.45965  0.21255  0.25529  1.0000
  H   H1631     1.0  0.54944  0.26546  0.26881  1.0000
  C   C934      1.0  0.39664  0.17916  0.34006  1.0000
  H   H1632     1.0  0.62633  0.25041  0.27900  1.0000
  C   C935      1.0  0.57278  0.08074  0.26643  1.0000
  C   C936      1.0  0.35133  0.02902  0.45479  1.0000
  H   H1633     1.0  0.54566  0.13859  0.27380  1.0000
  H   H1634     1.0  0.44073  0.10484  0.31503  1.0000
  H   H1635     1.0  0.36764  0.17741  0.33641  1.0000
  H   H1636     1.0  0.37016  0.17068  0.37400  1.0000
  Fe  Fe99      1.0  0.38016  0.12769  0.46358  1.0000
  H   H1637     1.0  0.52928  0.26354  0.28952  1.0000
  H   H1638     1.0  0.40130  0.14985  0.32063  1.0000
  H   H1639     1.0  0.42107  0.12161  0.30424  1.0000
  C   C937      1.0  0.43566  0.16330  0.38170  1.0000
  H   H1640     1.0  0.51431  0.07987  0.25397  1.0000
  H   H1641     1.0  0.34108  0.21051  0.41251  1.0000
  C   C938      1.0  0.53725  0.19674  0.25171  1.0000
  S   S205      1.0  0.39593  0.14194  0.47748  1.0000
  H   H1642     1.0  0.36408  0.02030  0.46142  1.0000
  H   H1643     1.0  0.38922  0.38973  0.24843  1.0000
  H   H1644     1.0  0.36040  0.21041  0.31550  1.0000
  H   H1645     1.0  0.35945  0.24530  0.24934  1.0000
  Fe  Fe100     1.0  0.65973  0.06767  0.31805  1.0000
  H   H1646     1.0  0.36545  0.12818  0.39207  1.0000
  H   H1647     1.0  0.60615  0.14290  0.23996  1.0000
  H   H1648     1.0  0.41414  0.27430  0.23848  1.0000
  H   H1649     1.0  0.47185  0.21709  0.24431  1.0000
  H   H1650     1.0  0.40389  0.29946  0.24105  1.0000
  C   C939      1.0  0.33217  0.02399  0.46774  1.0000
  H   H1651     1.0  0.64826  0.06936  0.28093  1.0000
  H   H1652     1.0  0.64466  0.00878  0.30249  1.0000
  S   S206      1.0  0.65774  0.07418  0.34748  1.0000
  H   H1653     1.0  0.33282  0.99978  0.45479  1.0000
  H   H1654     1.0  0.56136  0.23396  0.23864  1.0000
  C   C940      1.0  0.66036  0.15236  0.26275  1.0000
  C   C941      1.0  0.57944  0.08917  0.24469  1.0000
  C   C942      1.0  0.66006  0.18412  0.24070  1.0000
  S   S207      1.0  0.65879  0.12007  0.32420  1.0000
  H   H1655     1.0  0.58536  0.10218  0.24360  1.0000
  H   H1656     1.0  0.35100  0.04484  0.45335  1.0000
  H   H1657     1.0  0.53298  0.14425  0.24377  1.0000
  S   S208      1.0  0.52107  0.24799  0.23617  1.0000
  S   S209      1.0  0.57482  0.04190  0.24407  1.0000
  H   H1658     1.0  0.54858  0.09294  0.24337  1.0000
  H   H1659     1.0  0.59194  0.07825  0.23843  1.0000
  S   S210      1.0  0.55684  0.00720  0.23832  1.0000
  Fe  Fe101     1.0  0.60468  0.02306  0.23867  1.0000
  C   C943      1.0  0.62783  0.11572  0.23723  1.0000
  S   S211      1.0  0.62755  0.03963  0.23807  1.0000
  H   H1660     1.0  0.65991  0.18756  0.33830  1.0000
  C   C944      1.0  0.32865  0.20358  0.41589  1.0000
  H   H1661     1.0  0.52208  0.11029  0.23480  1.0000
  H   H1662     1.0  0.58866  0.09964  0.69481  1.0000
  H   H1663     1.0  0.40092  0.46833  0.70498  1.0000
  C   C945      1.0  0.59624  0.22596  0.71594  1.0000
  H   H1664     1.0  0.44237  0.06349  0.49370  1.0000
  S   S212      1.0  0.59152  0.13735  0.70599  1.0000
  S   S213      1.0  0.36337  0.09889  0.60001  1.0000
  Fe  Fe102     1.0  0.61154  0.15692  0.70539  1.0000
  S   S214      1.0  0.62711  0.17286  0.67675  1.0000
  C   C946      1.0  0.41479  0.08326  0.50316  1.0000
  Fe  Fe103     1.0  0.34390  0.10719  0.62762  1.0000
  H   H1665     1.0  0.34312  0.99493  0.50448  1.0000
  H   H1666     1.0  0.54723  0.23442  0.71105  1.0000
  S   S215      1.0  0.47903  0.15686  0.68478  1.0000
  S   S216      1.0  0.35525  0.10080  0.65567  1.0000
  S   S217      1.0  0.36919  0.14928  0.56609  1.0000
  H   H1667     1.0  0.35502  0.19592  0.55720  1.0000
  C   C947      1.0  0.40814  0.42734  0.71517  1.0000
  C   C948      1.0  0.38740  0.03455  0.54237  1.0000
  H   H1668     1.0  0.37672  0.10414  0.55147  1.0000
  C   C949      1.0  0.37550  0.14812  0.54125  1.0000
  C   C950      1.0  0.39362  0.15203  0.53042  1.0000
  C   C951      1.0  0.39949  0.15034  0.51080  1.0000
  C   C952      1.0  0.38719  0.14502  0.50177  1.0000
  C   C953      1.0  0.36862  0.14202  0.51232  1.0000
  C   C954      1.0  0.36285  0.14336  0.53217  1.0000
  H   H1669     1.0  0.40334  0.15594  0.53731  1.0000
  C   C955      1.0  0.35020  0.20007  0.54299  1.0000
  H   H1670     1.0  0.35889  0.13839  0.50526  1.0000
  H   H1671     1.0  0.34871  0.14070  0.54048  1.0000
  H   H1672     1.0  0.39735  0.06427  0.49992  1.0000
  H   H1673     1.0  0.39808  0.02873  0.53005  1.0000
  C   C956      1.0  0.33085  0.06463  0.48998  1.0000
  Fe  Fe104     1.0  0.34984  0.12903  0.58536  1.0000
  C   C957      1.0  0.45608  0.20790  0.70810  1.0000
  C   C958      1.0  0.40493  0.09628  0.55940  1.0000
  C   C959      1.0  0.37533  0.14806  0.67365  1.0000
  C   C960      1.0  0.36270  0.15349  0.66035  1.0000
  C   C961      1.0  0.35668  0.13913  0.65456  1.0000
  C   C962      1.0  0.36277  0.11921  0.66247  1.0000
  C   C963      1.0  0.37499  0.11380  0.67618  1.0000
  H   H1674     1.0  0.44576  0.28292  0.72907  1.0000
  H   H1675     1.0  0.53305  0.30427  0.73168  1.0000
  H   H1676     1.0  0.55763  0.21216  0.70169  1.0000
  C   C964      1.0  0.52774  0.21374  0.71824  1.0000
  H   H1677     1.0  0.47890  0.26290  0.71929  1.0000
  H   H1678     1.0  0.35795  0.16888  0.65418  1.0000
  H   H1679     1.0  0.37971  0.09841  0.68247  1.0000
  Fe  Fe105     1.0  0.44775  0.15659  0.70187  1.0000
  H   H1680     1.0  0.39604  0.42409  0.71039  1.0000
  C   C965      1.0  0.38144  0.12814  0.68161  1.0000
  H   H1681     1.0  0.53969  0.23105  0.69029  1.0000
  H   H1682     1.0  0.57135  0.09334  0.68459  1.0000
  H   H1683     1.0  0.53988  0.28834  0.71438  1.0000
  C   C966      1.0  0.52233  0.15989  0.72016  1.0000
  C   C967      1.0  0.52921  0.15771  0.70072  1.0000
  C   C968      1.0  0.51593  0.15676  0.68974  1.0000
  C   C969      1.0  0.49584  0.15827  0.69816  1.0000
  C   C970      1.0  0.48929  0.16077  0.71742  1.0000
  H   H1684     1.0  0.56567  0.25796  0.71930  1.0000
  H   H1685     1.0  0.54463  0.15681  0.69416  1.0000
  H   H1686     1.0  0.52119  0.15495  0.67475  1.0000
  H   H1687     1.0  0.32860  0.04237  0.56028  1.0000
  H   H1688     1.0  0.34642  0.11172  0.53164  1.0000
  Fe  Fe106     1.0  0.57030  0.15341  0.72809  1.0000
  C   C971      1.0  0.43212  0.07659  0.48730  1.0000
  H   H1689     1.0  0.53744  0.09360  0.70333  1.0000
  H   H1690     1.0  0.47402  0.16278  0.72386  1.0000
  C   C972      1.0  0.61575  0.21363  0.70737  1.0000
  H   H1691     1.0  0.33594  0.07300  0.53164  1.0000
  S   S218      1.0  0.44055  0.15218  0.73452  1.0000
  H   H1692     1.0  0.33401  0.17718  0.55128  1.0000
  H   H1693     1.0  0.40576  0.06534  0.54682  1.0000
  H   H1694     1.0  0.49415  0.20304  0.71345  1.0000
  H   H1695     1.0  0.65233  0.18193  0.63923  1.0000
  H   H1696     1.0  0.58515  0.21669  0.72054  1.0000
  H   H1697     1.0  0.61404  0.20857  0.69473  1.0000
  S   S219      1.0  0.34015  0.06322  0.58329  1.0000
  S   S220      1.0  0.42236  0.18208  0.69776  1.0000
  C   C973      1.0  0.40222  0.06741  0.51209  1.0000
  H   H1698     1.0  0.39715  0.10481  0.53132  1.0000
  C   C974      1.0  0.37456  0.01946  0.55253  1.0000
  H   H1699     1.0  0.45955  0.25139  0.71916  1.0000
  S   S221      1.0  0.38347  0.16668  0.67933  1.0000
  H   H1700     1.0  0.39110  0.12379  0.69195  1.0000
  H   H1701     1.0  0.38115  0.06978  0.55946  1.0000
  H   H1702     1.0  0.60887  0.24370  0.72682  1.0000
  C   C975      1.0  0.37028  0.08955  0.51975  1.0000
  C   C976      1.0  0.50242  0.16113  0.72848  1.0000
  Fe  Fe107     1.0  0.40474  0.15966  0.69995  1.0000
  H   H1703     1.0  0.34735  0.14349  0.64400  1.0000
  H   H1704     1.0  0.42113  0.08586  0.51449  1.0000
  H   H1705     1.0  0.56634  0.08203  0.72070  1.0000
  H   H1706     1.0  0.40581  0.48700  0.72580  1.0000
  H   H1707     1.0  0.65446  0.16212  0.51087  1.0000
  H   H1708     1.0  0.59180  0.23834  0.70405  1.0000
  S   S222      1.0  0.43099  0.13463  0.70085  1.0000
  C   C977      1.0  0.37474  0.05474  0.53462  1.0000
  Fe  Fe108     1.0  0.33749  0.08979  0.59559  1.0000
  H   H1709     1.0  0.36896  0.05291  0.52246  1.0000
  C   C978      1.0  0.46338  0.20955  0.72557  1.0000
  H   H1710     1.0  0.36724  0.08724  0.50628  1.0000
  N   N53       1.0  0.52491  0.09635  0.73346  1.0000
  C   C979      1.0  0.47677  0.10197  0.71496  1.0000
  H   H1711     1.0  0.35484  0.48306  0.70126  1.0000
  C   C980      1.0  0.50909  0.22918  0.72445  1.0000
  H   H1712     1.0  0.47337  0.09714  0.70301  1.0000
  S   S223      1.0  0.58880  0.17493  0.72527  1.0000
  H   H1713     1.0  0.40104  0.08680  0.57398  1.0000
  H   H1714     1.0  0.50278  0.07944  0.71743  1.0000
  H   H1715     1.0  0.36203  0.19286  0.53225  1.0000
  C   C981      1.0  0.48355  0.21570  0.71889  1.0000
  C   C982      1.0  0.54404  0.22354  0.70451  1.0000
  H   H1716     1.0  0.33979  0.47333  0.73038  1.0000
  H   H1717     1.0  0.42057  0.09090  0.55292  1.0000
  H   H1718     1.0  0.52470  0.20373  0.71055  1.0000
  H   H1719     1.0  0.32871  0.38994  0.67113  1.0000
  H   H1720     1.0  0.50656  0.24059  0.71112  1.0000
  C   C983      1.0  0.49878  0.09571  0.71474  1.0000
  S   S224      1.0  0.62597  0.13681  0.72958  1.0000
  H   H1721     1.0  0.36177  0.05744  0.54650  1.0000
  H   H1722     1.0  0.33383  0.46926  0.69029  1.0000
  C   C984      1.0  0.33325  0.08912  0.52998  1.0000
  H   H1723     1.0  0.37954  0.45862  0.70986  1.0000
  C   C985      1.0  0.56066  0.09770  0.71461  1.0000
  H   H1724     1.0  0.44215  0.20263  0.71347  1.0000
  H   H1725     1.0  0.36426  0.02401  0.56571  1.0000
  H   H1726     1.0  0.41260  0.05389  0.51752  1.0000
  H   H1727     1.0  0.56827  0.11835  0.68732  1.0000
  C   C986      1.0  0.32988  0.98973  0.51372  1.0000
  H   H1728     1.0  0.45323  0.22246  0.69814  1.0000
  H   H1729     1.0  0.47201  0.11821  0.71275  1.0000
  H   H1730     1.0  0.33669  0.19208  0.51515  1.0000
  H   H1731     1.0  0.62041  0.20046  0.71847  1.0000
  H   H1732     1.0  0.48300  0.22778  0.70572  1.0000
  H   H1733     1.0  0.32776  0.43668  0.69340  1.0000
  H   H1734     1.0  0.32890  0.40314  0.69810  1.0000
  H   H1735     1.0  0.53393  0.11758  0.70758  1.0000
  C   C987      1.0  0.57290  0.10259  0.69403  1.0000
  H   H1736     1.0  0.35148  0.09004  0.54930  1.0000
  C   C988      1.0  0.53849  0.10173  0.71407  1.0000
  H   H1737     1.0  0.40309  0.11150  0.56134  1.0000
  C   C989      1.0  0.33113  0.19326  0.54552  1.0000
  N   N54       1.0  0.40940  0.14592  0.60567  1.0000
  C   C990      1.0  0.41057  0.12624  0.61964  1.0000
  C   C991      1.0  0.42162  0.15735  0.61073  1.0000
  C   C992      1.0  0.38819  0.15647  0.60764  1.0000
  C   C993      1.0  0.41722  0.14366  0.58472  1.0000
  C   C994      1.0  0.43765  0.12990  0.58052  1.0000
  C   C995      1.0  0.40014  0.11171  0.61578  1.0000
  C   C996      1.0  0.38422  0.17767  0.59532  1.0000
  C   C997      1.0  0.41382  0.16390  0.63070  1.0000
  C   C998      1.0  0.42772  0.17469  0.63449  1.0000
  C   C999      1.0  0.44441  0.12983  0.55866  1.0000
  C   C1000     1.0  0.40512  0.09133  0.62863  1.0000
  C   C1001     1.0  0.36243  0.18728  0.59978  1.0000
  H   H1738     1.0  0.40370  0.12816  0.63487  1.0000
  H   H1739     1.0  0.42615  0.11888  0.62012  1.0000
  H   H1740     1.0  0.43673  0.14844  0.61111  1.0000
  H   H1741     1.0  0.42363  0.17066  0.59913  1.0000
  H   H1742     1.0  0.38148  0.15693  0.62314  1.0000
  H   H1743     1.0  0.37952  0.14817  0.60328  1.0000
  H   H1744     1.0  0.40669  0.13843  0.57935  1.0000
  H   H1745     1.0  0.41839  0.15823  0.57497  1.0000
  H   H1746     1.0  0.43722  0.11454  0.58833  1.0000
  H   H1747     1.0  0.44887  0.13475  0.58511  1.0000
  H   H1748     1.0  0.38399  0.11700  0.61938  1.0000
  H   H1749     1.0  0.40433  0.10998  0.60037  1.0000
  H   H1750     1.0  0.38836  0.17752  0.57945  1.0000
  H   H1751     1.0  0.39252  0.18711  0.59844  1.0000
  H   H1752     1.0  0.39924  0.17403  0.63117  1.0000
  H   H1753     1.0  0.41250  0.15110  0.64299  1.0000
  H   H1754     1.0  0.42926  0.18808  0.62292  1.0000
  H   H1755     1.0  0.42171  0.17921  0.64883  1.0000
  H   H1756     1.0  0.44242  0.16493  0.63508  1.0000
  H   H1757     1.0  0.44595  0.14478  0.55015  1.0000
  H   H1758     1.0  0.45889  0.11965  0.55601  1.0000
  H   H1759     1.0  0.43373  0.12486  0.55332  1.0000
  H   H1760     1.0  0.42102  0.08481  0.62478  1.0000
  H   H1761     1.0  0.40116  0.09219  0.64434  1.0000
  H   H1762     1.0  0.39661  0.08151  0.62642  1.0000
  H   H1763     1.0  0.35775  0.18856  0.61537  1.0000
  H   H1764     1.0  0.35982  0.20225  0.59049  1.0000
  H   H1765     1.0  0.35343  0.17850  0.59662  1.0000
  C   C1002     1.0  0.50409  0.10367  0.73029  1.0000
  H   H1766     1.0  0.34630  0.40452  0.71706  1.0000
  H   H1767     1.0  0.46691  0.19732  0.69983  1.0000
  H   H1768     1.0  0.41376  0.15293  0.50262  1.0000
  Fe  Fe109     1.0  0.41431  0.17643  0.73065  1.0000
  C   C1003     1.0  0.33890  0.41461  0.72721  1.0000
  H   H1769     1.0  0.50099  0.11999  0.72577  1.0000
  C   C1004     1.0  0.39173  0.09620  0.54588  1.0000
  H   H1770     1.0  0.37676  0.10271  0.51427  1.0000
  H   H1771     1.0  0.38396  0.00493  0.55722  1.0000
  H   H1772     1.0  0.32875  0.04732  0.51931  1.0000
  N   N55       1.0  0.38470  0.07205  0.52816  1.0000
  H   H1773     1.0  0.39553  0.03566  0.55304  1.0000
  H   H1774     1.0  0.50643  0.10178  0.69985  1.0000
  H   H1775     1.0  0.62737  0.22240  0.70220  1.0000
  H   H1776     1.0  0.41886  0.43281  0.70213  1.0000
  C   C1005     1.0  0.39107  0.07491  0.54547  1.0000
  C   C1006     1.0  0.35040  0.09549  0.53378  1.0000
  H   H1777     1.0  0.36596  0.01796  0.54241  1.0000
  S   S225      1.0  0.33197  0.13784  0.61317  1.0000
  H   H1778     1.0  0.32849  0.20086  0.48639  1.0000
  H   H1779     1.0  0.46828  0.09523  0.72909  1.0000
  Fe  Fe110     1.0  0.42207  0.13220  0.73339  1.0000
  H   H1780     1.0  0.34800  0.21627  0.53796  1.0000
  H   H1781     1.0  0.58257  0.27064  0.72163  1.0000
  C   C1007     1.0  0.57100  0.26241  0.73035  1.0000
  H   H1782     1.0  0.33068  0.09617  0.51500  1.0000
  H   H1783     1.0  0.55698  0.30222  0.71584  1.0000
  H   H1784     1.0  0.53184  0.06700  0.72764  1.0000
  H   H1785     1.0  0.34273  0.42915  0.72036  1.0000
  C   C1008     1.0  0.38960  0.46230  0.71707  1.0000
  H   H1786     1.0  0.65531  0.13986  0.69323  1.0000
  S   S226      1.0  0.35560  0.06508  0.48726  1.0000
  H   H1787     1.0  0.40607  0.09730  0.49636  1.0000
  H   H1788     1.0  0.53348  0.20472  0.73133  1.0000
  C   C1009     1.0  0.66054  0.16968  0.64813  1.0000
  C   C1010     1.0  0.65142  0.16182  0.66716  1.0000
  Fe  Fe111     1.0  0.60414  0.11855  0.73171  1.0000
  H   H1789     1.0  0.33962  0.99018  0.53967  1.0000
  H   H1790     1.0  0.56334  0.10677  0.72360  1.0000
  C   C1011     1.0  0.46709  0.25542  0.72870  1.0000
  H   H1791     1.0  0.41574  0.41343  0.72350  1.0000
  C   C1012     1.0  0.54542  0.29398  0.72442  1.0000
  S   S227      1.0  0.39462  0.15590  0.73268  1.0000
  C   C1013     1.0  0.40000  0.44243  0.72829  1.0000
  H   H1792     1.0  0.45191  0.22028  0.73302  1.0000
  N   N56       1.0  0.37875  0.47760  0.72912  1.0000
  N   N57       1.0  0.49066  0.22137  0.73419  1.0000
  C   C1014     1.0  0.59828  0.23381  0.73323  1.0000
  H   H1793     1.0  0.51286  0.23692  0.73406  1.0000
  H   H1794     1.0  0.65807  0.19356  0.70999  1.0000
  H   H1795     1.0  0.32806  0.17867  0.63972  1.0000
  H   H1796     1.0  0.32836  0.15001  0.70763  1.0000
  S   S228      1.0  0.53748  0.16209  0.73471  1.0000
  H   H1797     1.0  0.41258  0.44433  0.73334  1.0000
  H   H1798     1.0  0.35858  0.25923  0.73314  1.0000
  H   H1799     1.0  0.35519  0.44889  0.73387  1.0000
  Fe  Fe112     1.0  0.64506  0.23092  0.84467  1.0000
  S   S229      1.0  0.63445  0.26308  0.84527  1.0000
  S   S230      1.0  0.64795  0.20680  0.87138  1.0000
  Fe  Fe113     1.0  0.64570  0.23722  0.80116  1.0000
  S   S231      1.0  0.63565  0.26990  0.79830  1.0000
  H   H1800     1.0  0.34133  0.31726  0.77921  1.0000
  C   C1015     1.0  0.33641  0.30362  0.77998  1.0000
  H   H1801     1.0  0.47528  0.10240  0.87889  1.0000
  Fe  Fe114     1.0  0.61416  0.26258  0.82633  1.0000
  S   S232      1.0  0.58185  0.27739  0.83108  1.0000
  H   H1802     1.0  0.53657  0.03730  0.76494  1.0000
  S   S233      1.0  0.62303  0.23012  0.82808  1.0000
  H   H1803     1.0  0.51942  0.14224  0.84451  1.0000
  C   C1016     1.0  0.46967  0.01875  0.78713  1.0000
  H   H1804     1.0  0.62510  0.12231  0.79719  1.0000
  C   C1017     1.0  0.62353  0.13761  0.81995  1.0000
  H   H1805     1.0  0.38043  0.43232  0.83733  1.0000
  H   H1806     1.0  0.61269  0.18476  0.82792  1.0000
  C   C1018     1.0  0.37923  0.29677  0.77164  1.0000
  H   H1807     1.0  0.42384  0.30942  0.74551  1.0000
  H   H1808     1.0  0.49347  0.08889  0.86241  1.0000
  C   C1019     1.0  0.33674  0.42845  0.90487  1.0000
  H   H1809     1.0  0.63241  0.12654  0.85819  1.0000
  Fe  Fe115     1.0  0.46044  0.22878  0.81333  1.0000
  S   S234      1.0  0.43753  0.25019  0.82919  1.0000
  S   S235      1.0  0.45641  0.20104  0.80727  1.0000
  Fe  Fe116     1.0  0.49337  0.24944  0.81002  1.0000
  S   S236      1.0  0.47341  0.27302  0.82513  1.0000
  S   S237      1.0  0.52607  0.24415  0.79847  1.0000
  Fe  Fe117     1.0  0.46043  0.24848  0.84601  1.0000
  S   S238      1.0  0.45114  0.25018  0.87788  1.0000
  Fe  Fe118     1.0  0.45207  0.27310  0.80720  1.0000
  S   S239      1.0  0.43624  0.30183  0.79157  1.0000
  S   S240      1.0  0.48205  0.22486  0.83230  1.0000
  S   S241      1.0  0.47328  0.25178  0.79001  1.0000
  Fe  Fe119     1.0  0.53298  0.04154  0.81840  1.0000
  S   S242      1.0  0.52562  0.06993  0.82868  1.0000
  S   S243      1.0  0.56075  0.03057  0.79811  1.0000
  S   S244      1.0  0.48523  0.05523  0.85508  1.0000
  Fe  Fe120     1.0  0.49528  0.07142  0.82467  1.0000
  S   S245      1.0  0.47697  0.10079  0.81361  1.0000
  Fe  Fe121     1.0  0.51621  0.05180  0.85835  1.0000
  S   S246      1.0  0.52181  0.05553  0.88660  1.0000
  S   S247      1.0  0.50348  0.04456  0.81165  1.0000
  S   S248      1.0  0.52606  0.02289  0.84850  1.0000
  Fe  Fe122     1.0  0.55019  0.17987  0.92642  1.0000
  S   S249      1.0  0.56019  0.20822  0.91461  1.0000
  Fe  Fe123     1.0  0.54557  0.14178  0.91892  1.0000
  S   S250      1.0  0.55438  0.12742  0.89250  1.0000
  Fe  Fe124     1.0  0.51110  0.16769  0.94086  1.0000
  Fe  Fe125     1.0  0.49592  0.02803  0.84240  1.0000
  S   S251      1.0  0.53010  0.17325  0.91123  1.0000
  S   S252      1.0  0.56767  0.14907  0.93172  1.0000
  C   C1020     1.0  0.39082  0.06253  0.77365  1.0000
  H   H1810     1.0  0.34148  0.27344  0.79596  1.0000
  H   H1811     1.0  0.48871  0.23969  0.95985  1.0000
  C   C1021     1.0  0.40225  0.45067  0.78781  1.0000
  C   C1022     1.0  0.38803  0.46348  0.79844  1.0000
  H   H1812     1.0  0.41724  0.45272  0.78328  1.0000
  C   C1023     1.0  0.52995  0.07618  0.88808  1.0000
  C   C1024     1.0  0.53740  0.08891  0.87128  1.0000
  C   C1025     1.0  0.54428  0.10489  0.87292  1.0000
  C   C1026     1.0  0.54397  0.10817  0.89133  1.0000
  C   C1027     1.0  0.53621  0.09566  0.90817  1.0000
  C   C1028     1.0  0.52931  0.07967  0.90652  1.0000
  H   H1813     1.0  0.53779  0.08643  0.85706  1.0000
  H   H1814     1.0  0.54994  0.11475  0.85990  1.0000
  H   H1815     1.0  0.53593  0.09801  0.92245  1.0000
  H   H1816     1.0  0.52359  0.06986  0.91961  1.0000
  C   C1029     1.0  0.41145  0.30927  0.80229  1.0000
  C   C1030     1.0  0.44287  0.04385  0.81261  1.0000
  H   H1817     1.0  0.41060  0.33999  0.78972  1.0000
  H   H1818     1.0  0.40745  0.28006  0.81634  1.0000
  C   C1031     1.0  0.45815  0.22980  0.89612  1.0000
  C   C1032     1.0  0.47286  0.21359  0.89173  1.0000
  C   C1033     1.0  0.47946  0.19862  0.90692  1.0000
  C   C1034     1.0  0.47071  0.19935  0.92649  1.0000
  H   H1819     1.0  0.47958  0.21289  0.87668  1.0000
  H   H1820     1.0  0.49118  0.18647  0.90349  1.0000
  C   C1035     1.0  0.57358  0.22412  0.95650  1.0000
  H   H1821     1.0  0.49930  0.12408  0.75831  1.0000
  H   H1822     1.0  0.40439  0.28341  0.75095  1.0000
  C   C1036     1.0  0.44108  0.10241  0.76924  1.0000
  C   C1037     1.0  0.45659  0.08651  0.77288  1.0000
  C   C1038     1.0  0.46777  0.08602  0.78636  1.0000
  C   C1039     1.0  0.46360  0.10149  0.79614  1.0000
  C   C1040     1.0  0.44855  0.11776  0.79194  1.0000
  C   C1041     1.0  0.43723  0.11819  0.77857  1.0000
  H   H1823     1.0  0.46005  0.07469  0.76513  1.0000
  H   H1824     1.0  0.47960  0.07368  0.78918  1.0000
  H   H1825     1.0  0.44539  0.12992  0.79928  1.0000
  H   H1826     1.0  0.42530  0.13058  0.77576  1.0000
  C   C1042     1.0  0.42092  0.20213  0.76236  1.0000
  C   C1043     1.0  0.42092  0.21973  0.76741  1.0000
  C   C1044     1.0  0.43199  0.21969  0.78094  1.0000
  C   C1045     1.0  0.44290  0.20197  0.78970  1.0000
  C   C1046     1.0  0.44294  0.18444  0.78460  1.0000
  C   C1047     1.0  0.43205  0.18452  0.77096  1.0000
  H   H1827     1.0  0.41248  0.23340  0.76070  1.0000
  H   H1828     1.0  0.43200  0.23328  0.78470  1.0000
  H   H1829     1.0  0.45130  0.17066  0.79134  1.0000
  H   H1830     1.0  0.43195  0.17083  0.76747  1.0000
  C   C1048     1.0  0.48259  0.01102  0.76922  1.0000
  C   C1049     1.0  0.37033  0.43861  0.87513  1.0000
  H   H1831     1.0  0.48998  0.21564  0.77611  1.0000
  C   C1050     1.0  0.64285  0.06972  0.77420  1.0000
  C   C1051     1.0  0.61538  0.18024  0.77494  1.0000
  H   H1832     1.0  0.36275  0.33098  0.89971  1.0000
  H   H1833     1.0  0.61323  0.25719  0.74922  1.0000
  C   C1052     1.0  0.40769  0.31226  0.75089  1.0000
  H   H1834     1.0  0.34996  0.47813  0.91456  1.0000
  C   C1053     1.0  0.62388  0.20679  0.88431  1.0000
  C   C1054     1.0  0.61878  0.18979  0.89707  1.0000
  C   C1055     1.0  0.59901  0.18974  0.90603  1.0000
  C   C1056     1.0  0.58467  0.20692  0.90279  1.0000
  C   C1057     1.0  0.58988  0.22383  0.89027  1.0000
  C   C1058     1.0  0.60937  0.22370  0.88091  1.0000
  H   H1835     1.0  0.63000  0.17664  0.89960  1.0000
  H   H1836     1.0  0.59491  0.17659  0.91555  1.0000
  H   H1837     1.0  0.57879  0.23700  0.88746  1.0000
  H   H1838     1.0  0.61309  0.23681  0.87106  1.0000
  C   C1059     1.0  0.56595  0.26741  0.82326  1.0000
  C   C1060     1.0  0.57262  0.24987  0.81644  1.0000
  C   C1061     1.0  0.56002  0.24252  0.80957  1.0000
  C   C1062     1.0  0.54066  0.25277  0.80925  1.0000
  C   C1063     1.0  0.53365  0.27000  0.81667  1.0000
  C   C1064     1.0  0.54633  0.27733  0.82360  1.0000
  H   H1839     1.0  0.58762  0.24214  0.81603  1.0000
  H   H1840     1.0  0.56543  0.22902  0.80419  1.0000
  H   H1841     1.0  0.51872  0.27801  0.81645  1.0000
  H   H1842     1.0  0.54111  0.29098  0.82875  1.0000
  C   C1065     1.0  0.38646  0.23281  0.81864  1.0000
  C   C1066     1.0  0.56669  0.06710  0.77622  1.0000
  C   C1067     1.0  0.57360  0.04668  0.77987  1.0000
  C   C1068     1.0  0.59167  0.03860  0.76914  1.0000
  H   H1843     1.0  0.34652  0.41454  0.91030  1.0000
  H   H1844     1.0  0.50437  0.12570  0.78963  1.0000
  H   H1845     1.0  0.33566  0.45954  0.89515  1.0000
  H   H1846     1.0  0.64603  0.21862  0.92266  1.0000
  C   C1069     1.0  0.60988  0.19153  0.78934  1.0000
  C   C1070     1.0  0.62065  0.20533  0.78890  1.0000
  C   C1071     1.0  0.63739  0.20754  0.77436  1.0000
  H   H1847     1.0  0.35066  0.28948  0.80437  1.0000
  H   H1848     1.0  0.59703  0.18975  0.80077  1.0000
  H   H1849     1.0  0.61603  0.21418  0.79987  1.0000
  H   H1850     1.0  0.57996  0.19615  0.94879  1.0000
  S   S253      1.0  0.52992  0.17711  0.95560  1.0000
  C   C1072     1.0  0.36340  0.47004  0.74581  1.0000
  H   H1851     1.0  0.52091  0.17743  0.77304  1.0000
  N   N58       1.0  0.59562  0.07780  0.81514  1.0000
  C   C1073     1.0  0.58171  0.06392  0.82426  1.0000
  C   C1074     1.0  0.58470  0.09692  0.80473  1.0000
  C   C1075     1.0  0.61132  0.06860  0.79982  1.0000
  C   C1076     1.0  0.60534  0.08142  0.82980  1.0000
  C   C1077     1.0  0.59331  0.08058  0.85108  1.0000
  C   C1078     1.0  0.59149  0.04240  0.83229  1.0000
  C   C1079     1.0  0.62556  0.08168  0.78638  1.0000
  C   C1080     1.0  0.56676  0.10831  0.81725  1.0000
  C   C1081     1.0  0.55632  0.12642  0.80451  1.0000
  C   C1082     1.0  0.60176  0.08986  0.86299  1.0000
  C   C1083     1.0  0.57650  0.03122  0.84651  1.0000
  H   H1852     1.0  0.57347  0.06332  0.81338  1.0000
  H   H1853     1.0  0.57007  0.06927  0.83619  1.0000
  H   H1854     1.0  0.59458  0.10748  0.79783  1.0000
  H   H1855     1.0  0.57958  0.09424  0.79256  1.0000
  H   H1856     1.0  0.60448  0.06381  0.79013  1.0000
  H   H1857     1.0  0.62060  0.05498  0.80682  1.0000
  H   H1858     1.0  0.61936  0.07050  0.83105  1.0000
  H   H1859     1.0  0.60974  0.09591  0.82450  1.0000
  H   H1860     1.0  0.59323  0.06511  0.85875  1.0000
  H   H1861     1.0  0.57792  0.08827  0.85144  1.0000
  H   H1862     1.0  0.59812  0.03457  0.81998  1.0000
  H   H1863     1.0  0.60330  0.04175  0.83988  1.0000
  H   H1864     1.0  0.63153  0.08845  0.79512  1.0000
  H   H1865     1.0  0.61788  0.09347  0.77591  1.0000
  H   H1866     1.0  0.55580  0.09914  0.82490  1.0000
  H   H1867     1.0  0.57159  0.11364  0.82797  1.0000
  H   H1868     1.0  0.55238  0.12229  0.79245  1.0000
  H   H1869     1.0  0.54255  0.13331  0.81348  1.0000
  H   H1870     1.0  0.56585  0.13735  0.79818  1.0000
  H   H1871     1.0  0.59355  0.08766  0.87841  1.0000
  H   H1872     1.0  0.61752  0.08303  0.86279  1.0000
  H   H1873     1.0  0.59999  0.10593  0.85717  1.0000
  H   H1874     1.0  0.58384  0.01582  0.85176  1.0000
  H   H1875     1.0  0.56953  0.03820  0.85936  1.0000
  H   H1876     1.0  0.56498  0.03097  0.83897  1.0000
  H   H1877     1.0  0.43983  0.26326  0.74932  1.0000
  C   C1084     1.0  0.60586  0.17234  0.97099  1.0000
  H   H1878     1.0  0.51460  0.21376  0.76195  1.0000
  H   H1879     1.0  0.42177  0.06429  0.78664  1.0000
  C   C1085     1.0  0.53003  0.07427  0.74004  1.0000
  H   H1880     1.0  0.51501  0.25073  0.93403  1.0000
  C   C1086     1.0  0.34962  0.28553  0.79075  1.0000
  H   H1881     1.0  0.64250  0.17947  0.95177  1.0000
  C   C1087     1.0  0.51568  0.06473  0.75745  1.0000
  C   C1088     1.0  0.36983  0.27077  0.76189  1.0000
  H   H1882     1.0  0.46888  0.28995  0.86725  1.0000
  C   C1089     1.0  0.51740  0.12001  0.77899  1.0000
  C   C1090     1.0  0.60307  0.05077  0.75518  1.0000
  H   H1883     1.0  0.49329  0.10051  0.74412  1.0000
  C   C1091     1.0  0.40625  0.04492  0.78095  1.0000
  C   C1092     1.0  0.48300  0.10309  0.86339  1.0000
  S   S254      1.0  0.35107  0.38272  0.83136  1.0000
  S   S255      1.0  0.58149  0.13311  0.75381  1.0000
  H   H1884     1.0  0.48310  0.30678  0.86868  1.0000
  H   H1885     1.0  0.58384  0.20224  0.75512  1.0000
  H   H1886     1.0  0.34650  0.39065  0.75112  1.0000
  H   H1887     1.0  0.55811  0.28363  0.74991  1.0000
  C   C1093     1.0  0.38714  0.25863  0.87290  1.0000
  C   C1094     1.0  0.62210  0.14067  0.86051  1.0000
  H   H1888     1.0  0.51207  0.18952  0.79361  1.0000
  H   H1889     1.0  0.37566  0.41665  0.91076  1.0000
  C   C1095     1.0  0.52189  0.04230  0.76089  1.0000
  H   H1890     1.0  0.49738  0.00351  0.77229  1.0000
  H   H1891     1.0  0.37693  0.28984  0.88962  1.0000
  H   H1892     1.0  0.40043  0.31912  0.73821  1.0000
  H   H1893     1.0  0.64760  0.11682  0.80614  1.0000
  H   H1894     1.0  0.45010  0.05568  0.80288  1.0000
  H   H1895     1.0  0.52507  0.13225  0.77134  1.0000
  H   H1896     1.0  0.60981  0.14739  0.81605  1.0000
  H   H1897     1.0  0.61330  0.19782  0.93441  1.0000
  H   H1898     1.0  0.48210  0.24272  0.75253  1.0000
  H   H1899     1.0  0.61952  0.12543  0.83204  1.0000
  H   H1900     1.0  0.57983  0.22995  0.94095  1.0000
  C   C1096     1.0  0.63777  0.19565  0.94775  1.0000
  H   H1901     1.0  0.50758  0.13168  0.91442  1.0000
  H   H1902     1.0  0.50414  0.15851  0.82869  1.0000
  H   H1903     1.0  0.37979  0.06768  0.78614  1.0000
  C   C1097     1.0  0.60239  0.20302  0.98249  1.0000
  H   H1904     1.0  0.47612  0.00021  0.76575  1.0000
  N   N59       1.0  0.36649  0.44580  0.89396  1.0000
  C   C1098     1.0  0.37024  0.46631  0.88968  1.0000
  H   H1905     1.0  0.55823  0.22986  0.74033  1.0000
  N   N60       1.0  0.60174  0.19455  0.96552  1.0000
  C   C1099     1.0  0.37842  0.43167  0.90814  1.0000
  C   C1100     1.0  0.40098  0.42933  0.90208  1.0000
  C   C1101     1.0  0.36578  0.47611  0.90759  1.0000
  H   H1906     1.0  0.40039  0.46933  0.74759  1.0000
  C   C1102     1.0  0.38750  0.44479  0.85857  1.0000
  H   H1907     1.0  0.49696  0.16248  0.74359  1.0000
  C   C1103     1.0  0.41096  0.41702  0.91891  1.0000
  H   H1908     1.0  0.63752  0.06235  0.76543  1.0000
  C   C1104     1.0  0.38211  0.26409  0.79273  1.0000
  C   C1105     1.0  0.34806  0.46191  0.74049  1.0000
  H   H1909     1.0  0.38562  0.46689  0.88225  1.0000
  H   H1910     1.0  0.59094  0.17212  0.87011  1.0000
  H   H1911     1.0  0.35283  0.31864  0.88690  1.0000
  H   H1912     1.0  0.44881  0.04464  0.84957  1.0000
  H   H1913     1.0  0.64042  0.14003  0.78993  1.0000
  H   H1914     1.0  0.37358  0.43569  0.92277  1.0000
  S   S256      1.0  0.60204  0.16235  0.77690  1.0000
  H   H1915     1.0  0.40548  0.44368  0.89782  1.0000
  H   H1916     1.0  0.40668  0.42146  0.88977  1.0000
  H   H1917     1.0  0.65307  0.19340  0.83679  1.0000
  H   H1918     1.0  0.37456  0.46713  0.91861  1.0000
  H   H1919     1.0  0.64835  0.19510  0.91671  1.0000
  H   H1920     1.0  0.51107  0.18724  0.83503  1.0000
  H   H1921     1.0  0.38280  0.46027  0.85101  1.0000
  H   H1922     1.0  0.63866  0.16127  0.81253  1.0000
  H   H1923     1.0  0.40481  0.43730  0.83114  1.0000
  H   H1924     1.0  0.65052  0.13932  0.82674  1.0000
  C   C1106     1.0  0.59658  0.07117  0.75181  1.0000
  H   H1925     1.0  0.40730  0.40223  0.92363  1.0000
  H   H1926     1.0  0.42715  0.41517  0.91404  1.0000
  H   H1927     1.0  0.40630  0.42446  0.93156  1.0000
  H   H1928     1.0  0.33481  0.42786  0.89027  1.0000
  C   C1107     1.0  0.47560  0.23714  0.74320  1.0000
  H   H1929     1.0  0.38426  0.26089  0.75769  1.0000
  C   C1108     1.0  0.45199  0.27017  0.73972  1.0000
  H   H1930     1.0  0.50738  0.99564  0.81717  1.0000
  C   C1109     1.0  0.34763  0.40628  0.74556  1.0000
  H   H1931     1.0  0.58944  0.16468  0.95311  1.0000
  S   S257      1.0  0.47684  0.00539  0.85068  1.0000
  H   H1932     1.0  0.58614  0.21104  0.84021  1.0000
  H   H1933     1.0  0.56653  0.29159  0.87193  1.0000
  H   H1934     1.0  0.54934  0.15587  0.83360  1.0000
  H   H1935     1.0  0.45472  0.03271  0.81908  1.0000
  C   C1110     1.0  0.34507  0.34999  0.87975  1.0000
  H   H1936     1.0  0.35760  0.47076  0.81224  1.0000
  H   H1937     1.0  0.50508  0.19143  0.74387  1.0000
  H   H1938     1.0  0.40256  0.23005  0.81295  1.0000
  C   C1111     1.0  0.42849  0.05274  0.82966  1.0000
  S   S258      1.0  0.34768  0.32882  0.83192  1.0000
  H   H1939     1.0  0.35200  0.24838  0.77805  1.0000
  H   H1940     1.0  0.57046  0.19342  0.84663  1.0000
  H   H1941     1.0  0.47215  0.10529  0.85412  1.0000
  H   H1942     1.0  0.61399  0.12796  0.91174  1.0000
  Fe  Fe126     1.0  0.65691  0.26725  0.81739  1.0000
  C   C1112     1.0  0.59751  0.18289  0.85788  1.0000
  H   H1943     1.0  0.62041  0.11173  0.89474  1.0000
  H   H1944     1.0  0.44430  0.02274  0.77466  1.0000
  C   C1113     1.0  0.42734  0.01681  0.81411  1.0000
  C   C1114     1.0  0.45718  0.17727  0.87222  1.0000
  H   H1945     1.0  0.40520  0.05382  0.80712  1.0000
  C   C1115     1.0  0.65021  0.20243  0.92770  1.0000
  H   H1946     1.0  0.54457  0.06961  0.74441  1.0000
  H   H1947     1.0  0.60049  0.13422  0.97650  1.0000
  H   H1948     1.0  0.38181  0.25453  0.88895  1.0000
  Fe  Fe127     1.0  0.34730  0.40042  0.80171  1.0000
  H   H1949     1.0  0.34886  0.44270  0.80429  1.0000
  H   H1950     1.0  0.39705  0.24547  0.86780  1.0000
  H   H1951     1.0  0.50051  0.06871  0.75480  1.0000
  C   C1116     1.0  0.39725  0.43526  0.78295  1.0000
  H   H1952     1.0  0.54432  0.22529  0.97496  1.0000
  H   H1953     1.0  0.40833  0.42559  0.77455  1.0000
  H   H1954     1.0  0.60585  0.22148  0.74343  1.0000
  C   C1117     1.0  0.61564  0.20201  0.94726  1.0000
  H   H1955     1.0  0.37855  0.23525  0.79132  1.0000
  H   H1956     1.0  0.41227  0.02098  0.82279  1.0000
  H   H1957     1.0  0.41940  0.04224  0.83915  1.0000
  H   H1958     1.0  0.65545  0.19843  0.74813  1.0000
  H   H1959     1.0  0.35497  0.48182  0.75366  1.0000
  H   H1960     1.0  0.61234  0.21837  0.94374  1.0000
  H   H1961     1.0  0.54678  0.18215  0.82612  1.0000
  H   H1962     1.0  0.63584  0.17444  0.74853  1.0000
  S   S259      1.0  0.52499  0.13554  0.94804  1.0000
  H   H1963     1.0  0.58469  0.27874  0.78034  1.0000
  C   C1118     1.0  0.40067  0.29546  0.81413  1.0000
  C   C1119     1.0  0.50191  0.20647  0.76723  1.0000
  H   H1964     1.0  0.39749  0.25965  0.78492  1.0000
  C   C1120     1.0  0.58051  0.19930  0.85192  1.0000
  C   C1121     1.0  0.44928  0.23039  0.91566  1.0000
  C   C1122     1.0  0.40235  0.32922  0.79897  1.0000
  C   C1123     1.0  0.36866  0.46076  0.80426  1.0000
  H   H1965     1.0  0.43885  0.28172  0.91596  1.0000
  C   C1124     1.0  0.42761  0.99994  0.80422  1.0000
  N   N61       1.0  0.36994  0.27896  0.77915  1.0000
  C   C1125     1.0  0.58119  0.20148  0.96146  1.0000
  C   C1126     1.0  0.48520  0.13866  0.89683  1.0000
  H   H1966     1.0  0.49574  0.17891  0.78627  1.0000
  C   C1127     1.0  0.39840  0.27513  0.86807  1.0000
  H   H1967     1.0  0.33710  0.30232  0.76483  1.0000
  H   H1968     1.0  0.57310  0.09509  0.75948  1.0000
  C   C1128     1.0  0.55118  0.22943  0.95927  1.0000
  H   H1969     1.0  0.44296  0.99259  0.79885  1.0000
  H   H1970     1.0  0.63707  0.17294  0.86045  1.0000
  H   H1971     1.0  0.37033  0.45860  0.75697  1.0000
  C   C1129     1.0  0.64261  0.19664  0.75955  1.0000
  C   C1130     1.0  0.53968  0.16972  0.82760  1.0000
  C   C1131     1.0  0.50805  0.18684  0.78082  1.0000
  C   C1132     1.0  0.50258  0.24800  0.92936  1.0000
  H   H1972     1.0  0.59723  0.12934  0.89648  1.0000
  H   H1973     1.0  0.51969  0.23372  0.84221  1.0000
  H   H1974     1.0  0.53946  0.21568  0.85182  1.0000
  C   C1133     1.0  0.38501  0.29412  0.87435  1.0000
  C   C1134     1.0  0.45523  0.21502  0.93074  1.0000
  H   H1975     1.0  0.43775  0.24276  0.91918  1.0000
  H   H1976     1.0  0.51627  0.20934  0.85407  1.0000
  H   H1977     1.0  0.60697  0.18958  0.86293  1.0000
  H   H1978     1.0  0.50259  0.11912  0.84123  1.0000
  H   H1979     1.0  0.49671  0.28106  0.89428  1.0000
  C   C1135     1.0  0.38267  0.33536  0.80789  1.0000
  C   C1136     1.0  0.38098  0.30155  0.82296  1.0000
  S   S260      1.0  0.47875  0.18108  0.94596  1.0000
  C   C1137     1.0  0.52335  0.22120  0.85424  1.0000
  C   C1138     1.0  0.60909  0.17295  0.84057  1.0000
  H   H1980     1.0  0.48358  0.12834  0.92811  1.0000
  H   H1981     1.0  0.65199  0.05845  0.78377  1.0000
  C   C1139     1.0  0.37201  0.32151  0.81998  1.0000
  H   H1982     1.0  0.37583  0.35083  0.80549  1.0000
  H   H1983     1.0  0.37271  0.29080  0.83220  1.0000
  H   H1984     1.0  0.45892  0.27561  0.74882  1.0000
  H   H1985     1.0  0.44824  0.21557  0.94581  1.0000
  H   H1986     1.0  0.41052  0.28586  0.77280  1.0000
  H   H1987     1.0  0.42967  0.19834  0.87757  1.0000
  H   H1988     1.0  0.50412  0.09963  0.77258  1.0000
  H   H1989     1.0  0.60529  0.25838  0.78418  1.0000
  N   N62       1.0  0.57945  0.24445  0.74419  1.0000
  H   H1990     1.0  0.47753  0.02817  0.79097  1.0000
  H   H1991     1.0  0.41653  0.04038  0.76783  1.0000
  H   H1992     1.0  0.45033  0.20941  0.86508  1.0000
  C   C1140     1.0  0.49297  0.23367  0.94633  1.0000
  C   C1141     1.0  0.51554  0.22772  0.87373  1.0000
  H   H1993     1.0  0.51622  0.21434  0.88557  1.0000
  H   H1994     1.0  0.49999  0.23533  0.87424  1.0000
  N   N63       1.0  0.62726  0.15741  0.84386  1.0000
  H   H1995     1.0  0.59835  0.16668  0.83676  1.0000
  H   H1996     1.0  0.37536  0.33255  0.85507  1.0000
  H   H1997     1.0  0.38524  0.34280  0.86933  1.0000
  C   C1142     1.0  0.37935  0.32990  0.86962  1.0000
  H   H1998     1.0  0.53200  0.25087  0.86216  1.0000
  H   H1999     1.0  0.49951  0.26673  0.85660  1.0000
  H   H2000     1.0  0.41869  0.06656  0.82385  1.0000
  H   H2001     1.0  0.37446  0.26323  0.86545  1.0000
  H   H2002     1.0  0.54223  0.20729  0.78049  1.0000
  H   H2003     1.0  0.60723  0.13849  0.86082  1.0000
  S   S261      1.0  0.42658  0.10234  0.75308  1.0000
  C   C1143     1.0  0.57823  0.07936  0.76213  1.0000
  C   C1144     1.0  0.52753  0.24137  0.87657  1.0000
  H   H2004     1.0  0.54159  0.23185  0.88025  1.0000
  C   C1145     1.0  0.41687  0.05027  0.79436  1.0000
  H   H2005     1.0  0.49801  0.23342  0.90882  1.0000
  C   C1146     1.0  0.55508  0.19935  0.77125  1.0000
  H   H2006     1.0  0.56043  0.18480  0.78022  1.0000
  H   H2007     1.0  0.55059  0.19682  0.75866  1.0000
  H   H2008     1.0  0.39788  0.07484  0.76467  1.0000
  C   C1147     1.0  0.44343  0.19695  0.86630  1.0000
  H   H2009     1.0  0.35129  0.36314  0.87772  1.0000
  C   C1148     1.0  0.52834  0.10661  0.74777  1.0000
  H   H2010     1.0  0.48084  0.19770  0.75691  1.0000
  H   H2011     1.0  0.51589  0.06911  0.77099  1.0000
  C   C1149     1.0  0.63595  0.14925  0.82548  1.0000
  H   H2012     1.0  0.55268  0.07341  0.78443  1.0000
  H   H2013     1.0  0.35951  0.24676  0.80914  1.0000
  H   H2014     1.0  0.55160  0.23891  0.76205  1.0000
  H   H2015     1.0  0.41286  0.34343  0.84848  1.0000
  C   C1150     1.0  0.55352  0.27707  0.73992  1.0000
  N   N64       1.0  0.39464  0.31104  0.87264  1.0000
  H   H2016     1.0  0.52196  0.22625  0.91364  1.0000
  H   H2017     1.0  0.40526  0.31408  0.84154  1.0000
  C   C1151     1.0  0.56440  0.23167  0.75220  1.0000
  C   C1152     1.0  0.57147  0.21091  0.76409  1.0000
  H   H2018     1.0  0.36137  0.47605  0.87898  1.0000
  N   N65       1.0  0.43400  0.03496  0.80097  1.0000
  C   C1153     1.0  0.39332  0.43188  0.84335  1.0000
  H   H2019     1.0  0.60937  0.28166  0.76896  1.0000
  H   H2020     1.0  0.33377  0.44754  0.85023  1.0000
  C   C1154     1.0  0.60464  0.16143  0.95556  1.0000
  H   H2021     1.0  0.38926  0.30777  0.90407  1.0000
  H   H2022     1.0  0.44961  0.31318  0.83514  1.0000
  H   H2023     1.0  0.37766  0.30443  0.78372  1.0000
  H   H2024     1.0  0.57611  0.21198  0.77716  1.0000
  H   H2025     1.0  0.35726  0.44437  0.86819  1.0000
  H   H2026     1.0  0.39842  0.03299  0.78926  1.0000
  C   C1155     1.0  0.40147  0.30951  0.89117  1.0000
  H   H2027     1.0  0.40548  0.32348  0.89101  1.0000
  N   N66       1.0  0.51725  0.25335  0.89202  1.0000
  C   C1156     1.0  0.51014  0.23937  0.91057  1.0000
  C   C1157     1.0  0.50032  0.27782  0.86440  1.0000
  H   H2028     1.0  0.51393  0.28320  0.85718  1.0000
  H   H2029     1.0  0.55162  0.26685  0.86716  1.0000
  C   C1158     1.0  0.41114  0.31213  0.85487  1.0000
  C   C1159     1.0  0.42256  0.32868  0.85126  1.0000
  Fe  Fe128     1.0  0.54578  0.14565  0.96033  1.0000
  H   H2030     1.0  0.60605  0.21785  0.97706  1.0000
  C   C1160     1.0  0.43922  0.32762  0.83330  1.0000
  H   H2031     1.0  0.43327  0.32980  0.81996  1.0000
  S   S262      1.0  0.33589  0.37778  0.79401  1.0000
  H   H2032     1.0  0.53273  0.12079  0.73997  1.0000
  C   C1161     1.0  0.64279  0.16583  0.84763  1.0000
  S   S263      1.0  0.39555  0.48230  0.80427  1.0000
  H   H2033     1.0  0.57022  0.25626  0.77052  1.0000
  C   C1162     1.0  0.62278  0.14212  0.88142  1.0000
  H   H2034     1.0  0.37234  0.42229  0.87826  1.0000
  C   C1163     1.0  0.61033  0.13916  0.96247  1.0000
  C   C1164     1.0  0.37806  0.43216  0.78910  1.0000
  H   H2035     1.0  0.37367  0.29879  0.86510  1.0000
  H   H2036     1.0  0.40405  0.27798  0.85206  1.0000
  H   H2037     1.0  0.42921  0.32734  0.86393  1.0000
  H   H2038     1.0  0.54310  0.25076  0.90321  1.0000
  H   H2039     1.0  0.48601  0.26273  0.89157  1.0000
  H   H2040     1.0  0.40081  0.44397  0.86392  1.0000
  H   H2041     1.0  0.39933  0.41642  0.84994  1.0000
  Fe  Fe129     1.0  0.60173  0.15338  0.74939  1.0000
  H   H2042     1.0  0.52241  0.03697  0.74760  1.0000
  S   S264      1.0  0.40679  0.20263  0.74542  1.0000
  H   H2043     1.0  0.34540  0.24111  0.74918  1.0000
  C   C1165     1.0  0.59937  0.27118  0.77339  1.0000
  C   C1166     1.0  0.36374  0.44489  0.79982  1.0000
  C   C1167     1.0  0.34499  0.44683  0.90338  1.0000
  H   H2044     1.0  0.42230  0.29818  0.85528  1.0000
  H   H2045     1.0  0.63828  0.13945  0.88297  1.0000
  H   H2046     1.0  0.62063  0.16629  0.97455  1.0000
  H   H2047     1.0  0.33903  0.26978  0.76412  1.0000
  C   C1168     1.0  0.49159  0.13785  0.91568  1.0000
  H   H2048     1.0  0.51115  0.03558  0.77299  1.0000
  C   C1169     1.0  0.53197  0.26252  0.89623  1.0000
  H   H2049     1.0  0.55095  0.29217  0.89578  1.0000
  H   H2050     1.0  0.59703  0.02283  0.77184  1.0000
  C   C1170     1.0  0.44934  0.03064  0.78311  1.0000
  H   H2051     1.0  0.37142  0.23745  0.74747  1.0000
  C   C1171     1.0  0.58401  0.24998  0.76106  1.0000
  H   H2052     1.0  0.43667  0.00989  0.82528  1.0000
  H   H2053     1.0  0.44743  0.33935  0.83116  1.0000
  C   C1172     1.0  0.49964  0.26879  0.88649  1.0000
  C   C1173     1.0  0.54338  0.27530  0.87862  1.0000
  H   H2054     1.0  0.44913  0.16565  0.87367  1.0000
  H   H2055     1.0  0.54088  0.09775  0.75458  1.0000
  H   H2056     1.0  0.53815  0.16923  0.81283  1.0000
  C   C1174     1.0  0.43957  0.05806  0.84232  1.0000
  H   H2057     1.0  0.43960  0.19790  0.85207  1.0000
  H   H2058     1.0  0.49828  0.16405  0.88276  1.0000
  C   C1175     1.0  0.55838  0.28274  0.88492  1.0000
  C   C1176     1.0  0.41874  0.29227  0.89593  1.0000
  H   H2059     1.0  0.56922  0.27029  0.89133  1.0000
  H   H2060     1.0  0.48399  0.30130  0.84548  1.0000
  C   C1177     1.0  0.40129  0.29298  0.76166  1.0000
  H   H2061     1.0  0.43114  0.29123  0.88325  1.0000
  H   H2062     1.0  0.41118  0.26964  0.87515  1.0000
  H   H2063     1.0  0.46322  0.23098  0.75337  1.0000
  H   H2064     1.0  0.53325  0.28848  0.87236  1.0000
  C   C1178     1.0  0.49745  0.15037  0.87884  1.0000
  H   H2065     1.0  0.41514  0.29522  0.92604  1.0000
  H   H2066     1.0  0.57066  0.19514  0.97412  1.0000
  H   H2067     1.0  0.54603  0.22172  0.95069  1.0000
  H   H2068     1.0  0.59095  0.23669  0.77073  1.0000
  C   C1179     1.0  0.42683  0.29457  0.91264  1.0000
  S   S265      1.0  0.37216  0.41344  0.78149  1.0000
  H   H2069     1.0  0.47956  0.23141  0.94311  1.0000
  C   C1180     1.0  0.59813  0.26445  0.75547  1.0000
  H   H2070     1.0  0.50330  0.21926  0.94898  1.0000
  H   H2071     1.0  0.60884  0.13170  0.95140  1.0000
  H   H2072     1.0  0.64108  0.20254  0.95828  1.0000
  H   H2073     1.0  0.64240  0.18854  0.81967  1.0000
  H   H2074     1.0  0.41357  0.27823  0.90082  1.0000
  H   H2075     1.0  0.36340  0.40701  0.74209  1.0000
  H   H2076     1.0  0.44902  0.06846  0.83330  1.0000
  H   H2077     1.0  0.42896  0.06522  0.85385  1.0000
  H   H2078     1.0  0.42024  0.00524  0.79159  1.0000
  C   C1181     1.0  0.35994  0.33106  0.88528  1.0000
  H   H2079     1.0  0.61474  0.16553  0.94150  1.0000
  H   H2080     1.0  0.38294  0.27086  0.80460  1.0000
  H   H2081     1.0  0.49165  0.26200  0.92685  1.0000
  H   H2082     1.0  0.52467  0.27220  0.90691  1.0000
  H   H2083     1.0  0.45180  0.04459  0.77275  1.0000
  H   H2084     1.0  0.57213  0.20586  0.86473  1.0000
  H   H2085     1.0  0.52727  0.10799  0.78716  1.0000
  C   C1182     1.0  0.48296  0.29502  0.86137  1.0000
  H   H2086     1.0  0.38213  0.21837  0.82465  1.0000
  H   H2087     1.0  0.50536  0.11628  0.86585  1.0000
  H   H2088     1.0  0.57772  0.23189  0.96573  1.0000
  H   H2089     1.0  0.43290  0.30809  0.90843  1.0000
  C   C1183     1.0  0.61302  0.12681  0.89699  1.0000
  H   H2090     1.0  0.37140  0.30774  0.76070  1.0000
  H   H2091     1.0  0.46005  0.17697  0.88669  1.0000
  H   H2092     1.0  0.46801  0.13805  0.86941  1.0000
  N   N67       1.0  0.49071  0.15524  0.85959  1.0000
  H   H2093     1.0  0.61536  0.15669  0.88476  1.0000
  H   H2094     1.0  0.48823  0.15274  0.91893  1.0000
  H   H2095     1.0  0.47477  0.14499  0.84382  1.0000
  C   C1184     1.0  0.49447  0.11950  0.85651  1.0000
  C   C1185     1.0  0.50844  0.15638  0.84302  1.0000
  H   H2096     1.0  0.46929  0.14509  0.89870  1.0000
  H   H2097     1.0  0.52189  0.17327  0.85571  1.0000
  C   C1186     1.0  0.37535  0.24448  0.80240  1.0000
  C   C1187     1.0  0.47679  0.17501  0.85707  1.0000
  H   H2098     1.0  0.47329  0.17902  0.84216  1.0000
  H   H2099     1.0  0.51278  0.14153  0.87750  1.0000
  C   C1188     1.0  0.51956  0.17276  0.84126  1.0000
  H   H2100     1.0  0.48429  0.02331  0.75637  1.0000
  H   H2101     1.0  0.48384  0.18661  0.85805  1.0000
  H   H2102     1.0  0.40167  0.99041  0.82361  1.0000
  H   H2103     1.0  0.48740  0.12326  0.89529  1.0000
  C   C1189     1.0  0.48091  0.13999  0.85742  1.0000
  H   H2104     1.0  0.38310  0.05828  0.76439  1.0000
  C   C1190     1.0  0.49447  0.20348  0.75011  1.0000
  Fe  Fe130     1.0  0.33684  0.36162  0.82481  1.0000
  C   C1191     1.0  0.51085  0.11225  0.76442  1.0000
  C   C1192     1.0  0.63155  0.18308  0.75976  1.0000
  H   H2105     1.0  0.62579  0.13469  0.96446  1.0000
  H   H2106     1.0  0.38294  0.24089  0.83072  1.0000
  H   H2107     1.0  0.33989  0.41462  0.75725  1.0000
  C   C1193     1.0  0.63495  0.12862  0.80226  1.0000
  C   C1194     1.0  0.39356  0.48245  0.73770  1.0000
  C   C1195     1.0  0.35346  0.25943  0.76424  1.0000
  H   H2108     1.0  0.65507  0.15372  0.85204  1.0000
  H   H2109     1.0  0.54628  0.24551  0.95423  1.0000
  S   S266      1.0  0.65216  0.22348  0.77460  1.0000
  H   H2110     1.0  0.34005  0.44402  0.76954  1.0000
  H   H2111     1.0  0.33168  0.35089  0.89152  1.0000
  H   H2112     1.0  0.59329  0.27781  0.74474  1.0000
  H   H2113     1.0  0.36837  0.28272  0.74869  1.0000
  H   H2114     1.0  0.65216  0.07966  0.76393  1.0000
  H   H2115     1.0  0.46456  0.19503  0.73577  1.0000
  H   H2116     1.0  0.61718  0.04433  0.74721  1.0000
  H   H2117     1.0  0.59544  0.16752  0.98465  1.0000
  H   H2118     1.0  0.38975  0.43599  0.74113  1.0000
  C   C1196     1.0  0.33294  0.45575  0.75869  1.0000
  C   C1197     1.0  0.35751  0.24871  0.74744  1.0000
  H   H2119     1.0  0.46793  0.00613  0.79947  1.0000
  H   H2120     1.0  0.40395  0.32272  0.76087  1.0000
  C   C1198     1.0  0.65172  0.18137  0.83059  1.0000
  H   H2121     1.0  0.33245  0.47340  0.84051  1.0000
  H   H2122     1.0  0.54130  0.26973  0.74843  1.0000
  H   H2123     1.0  0.34201  0.44956  0.91845  1.0000
  H   H2124     1.0  0.34064  0.35014  0.86606  1.0000
  S   S267      1.0  0.61239  0.08570  0.73536  1.0000
  H   H2125     1.0  0.50604  0.77097  0.99023  1.0000
  H   H2126     1.0  0.62605  0.49298  0.22334  1.0000
  S   S268      1.0  0.56035  0.86184  0.19390  1.0000
  H   H2127     1.0  0.34589  0.52005  0.08376  1.0000
  C   C1199     1.0  0.51020  0.85716  0.12912  1.0000
  S   S269      1.0  0.51782  0.87377  0.22318  1.0000
  H   H2128     1.0  0.55901  0.82774  0.05899  1.0000
  Fe  Fe131     1.0  0.53413  0.84812  0.20896  1.0000
  S   S270      1.0  0.51751  0.83219  0.19733  1.0000
  Fe  Fe132     1.0  0.54513  0.88614  0.21051  1.0000
  S   S271      1.0  0.54211  0.91914  0.20024  1.0000
  S   S272      1.0  0.44761  0.63482  0.21885  1.0000
  C   C1200     1.0  0.59959  0.74222  0.20762  1.0000
  H   H2129     1.0  0.60909  0.72032  0.18960  1.0000
  Fe  Fe133     1.0  0.61332  0.67118  0.20088  1.0000
  S   S273      1.0  0.60615  0.64110  0.21162  1.0000
  S   S274      1.0  0.62431  0.68618  0.17019  1.0000
  H   H2130     1.0  0.40092  0.57392  0.20597  1.0000
  H   H2131     1.0  0.62152  0.75598  0.21162  1.0000
  H   H2132     1.0  0.65296  0.64505  0.18244  1.0000
  S   S275      1.0  0.58504  0.68635  0.21674  1.0000
  C   C1201     1.0  0.33333  0.50517  0.11329  1.0000
  N   N68       1.0  0.50962  0.85330  0.10965  1.0000
  S   S276      1.0  0.45831  0.67511  0.18880  1.0000
  H   H2133     1.0  0.50311  0.88639  0.15148  1.0000
  Fe  Fe134     1.0  0.42925  0.63378  0.19829  1.0000
  S   S277      1.0  0.41412  0.66566  0.19565  1.0000
  H   H2134     1.0  0.60096  0.81400  0.16912  1.0000
  Fe  Fe135     1.0  0.43943  0.67100  0.17050  1.0000
  S   S278      1.0  0.43941  0.69066  0.14068  1.0000
  C   C1202     1.0  0.46204  0.80747  0.20500  1.0000
  H   H2135     1.0  0.37335  0.62514  0.22406  1.0000
  S   S279      1.0  0.45286  0.63901  0.17168  1.0000
  H   H2136     1.0  0.55711  0.85249  0.06153  1.0000
  C   C1203     1.0  0.56124  0.95620  0.22171  1.0000
  H   H2137     1.0  0.53364  0.63530  0.15433  1.0000
  Fe  Fe136     1.0  0.54158  0.77824  0.11159  1.0000
  S   S280      1.0  0.55811  0.76105  0.08823  1.0000
  S   S281      1.0  0.55529  0.79918  0.11974  1.0000
  Fe  Fe137     1.0  0.50548  0.76097  0.11914  1.0000
  S   S282      1.0  0.51876  0.74214  0.09684  1.0000
  S   S283      1.0  0.47551  0.76237  0.13852  1.0000
  Fe  Fe138     1.0  0.54599  0.73599  0.10914  1.0000
  S   S284      1.0  0.56197  0.70461  0.11664  1.0000
  Fe  Fe139     1.0  0.52958  0.76869  0.07779  1.0000
  S   S285      1.0  0.52553  0.78148  0.04656  1.0000
  S   S286      1.0  0.53169  0.75251  0.13319  1.0000
  S   S287      1.0  0.51414  0.78814  0.09939  1.0000
  Fe  Fe140     1.0  0.34219  0.57001  0.16914  1.0000
  S   S288      1.0  0.35457  0.54125  0.18741  1.0000
  S   S289      1.0  0.35544  0.59710  0.16021  1.0000
  H   H2138     1.0  0.33934  0.54335  0.10595  1.0000
  Fe  Fe141     1.0  0.34526  0.52770  0.16746  1.0000
  S   S290      1.0  0.36155  0.50055  0.15595  1.0000
  H   H2139     1.0  0.50735  0.60335  0.22524  1.0000
  S   S291      1.0  0.50236  0.62930  0.18779  1.0000
  H   H2140     1.0  0.50287  0.88437  0.09695  1.0000
  H   H2141     1.0  0.62738  0.63519  0.17067  1.0000
  H   H2142     1.0  0.48876  0.85660  0.07997  1.0000
  H   H2143     1.0  0.46972  0.84751  0.12031  1.0000
  H   H2144     1.0  0.47536  0.79569  0.20518  1.0000
  H   H2145     1.0  0.48451  0.80370  0.13706  1.0000
  C   C1204     1.0  0.45143  0.78222  0.00694  1.0000
  H   H2146     1.0  0.53866  0.86523  0.12508  1.0000
  C   C1205     1.0  0.45980  0.82076  0.21963  1.0000
  C   C1206     1.0  0.51530  0.74350  0.00931  1.0000
  H   H2147     1.0  0.51171  0.82219  0.12079  1.0000
  H   H2148     1.0  0.60896  0.96594  0.18061  1.0000
  C   C1207     1.0  0.52193  0.76660  0.03229  1.0000
  C   C1208     1.0  0.52571  0.74612  0.03805  1.0000
  C   C1209     1.0  0.52256  0.73465  0.02651  1.0000
  H   H2149     1.0  0.51208  0.79132  0.01033  1.0000
  C   C1210     1.0  0.55584  0.83738  0.06969  1.0000
  H   H2150     1.0  0.53132  0.73915  0.05126  1.0000
  H   H2151     1.0  0.52578  0.71882  0.03088  1.0000
  C   C1211     1.0  0.39976  0.60443  0.19231  1.0000
  C   C1212     1.0  0.39170  0.62015  0.17873  1.0000
  C   C1213     1.0  0.37835  0.61764  0.16877  1.0000
  C   C1214     1.0  0.37286  0.59948  0.17240  1.0000
  C   C1215     1.0  0.38111  0.58374  0.18583  1.0000
  C   C1216     1.0  0.39456  0.58619  0.19565  1.0000
  H   H2152     1.0  0.39564  0.63427  0.17602  1.0000
  H   H2153     1.0  0.37213  0.62987  0.15831  1.0000
  H   H2154     1.0  0.37723  0.56963  0.18854  1.0000
  C   C1217     1.0  0.63871  0.63003  0.15841  1.0000
  C   C1218     1.0  0.46405  0.74370  0.13823  1.0000
  C   C1219     1.0  0.46855  0.73513  0.12186  1.0000
  C   C1220     1.0  0.46029  0.71931  0.12240  1.0000
  C   C1221     1.0  0.44786  0.71177  0.13945  1.0000
  C   C1222     1.0  0.44302  0.72060  0.15566  1.0000
  C   C1223     1.0  0.45080  0.73680  0.15491  1.0000
  H   H2155     1.0  0.47857  0.74047  0.10890  1.0000
  H   H2156     1.0  0.46413  0.71240  0.10993  1.0000
  H   H2157     1.0  0.43333  0.71488  0.16884  1.0000
  H   H2158     1.0  0.44720  0.74341  0.16758  1.0000
  C   C1224     1.0  0.56463  0.62874  0.14234  1.0000
  C   C1225     1.0  0.61542  0.72655  0.19854  1.0000
  H   H2159     1.0  0.57644  0.79667  0.22045  1.0000
  S   S292      1.0  0.41536  0.60717  0.20631  1.0000
  H   H2160     1.0  0.52474  0.84207  0.07207  1.0000
  C   C1226     1.0  0.60650  0.69166  0.15580  1.0000
  C   C1227     1.0  0.59737  0.67701  0.15514  1.0000
  C   C1228     1.0  0.58414  0.68104  0.14265  1.0000
  C   C1229     1.0  0.57911  0.70003  0.13162  1.0000
  C   C1230     1.0  0.58774  0.71490  0.13274  1.0000
  C   C1231     1.0  0.60178  0.71059  0.14451  1.0000
  H   H2161     1.0  0.60080  0.66244  0.16394  1.0000
  H   H2162     1.0  0.57743  0.66954  0.14190  1.0000
  H   H2163     1.0  0.58396  0.72957  0.12418  1.0000
  H   H2164     1.0  0.60887  0.72195  0.14494  1.0000
  H   H2165     1.0  0.61249  0.98625  0.18875  1.0000
  C   C1232     1.0  0.50149  0.83499  0.11378  1.0000
  C   C1233     1.0  0.47709  0.88748  0.07298  1.0000
  H   H2166     1.0  0.36405  0.50364  0.09684  1.0000
  H   H2167     1.0  0.53472  0.86431  0.09060  1.0000
  C   C1234     1.0  0.35308  0.53191  0.10457  1.0000
  C   C1235     1.0  0.52903  0.82184  0.17657  1.0000
  C   C1236     1.0  0.52037  0.80885  0.17171  1.0000
  C   C1237     1.0  0.52852  0.80142  0.15452  1.0000
  C   C1238     1.0  0.54540  0.80699  0.14209  1.0000
  C   C1239     1.0  0.55423  0.81971  0.14711  1.0000
  C   C1240     1.0  0.54610  0.82709  0.16431  1.0000
  H   H2168     1.0  0.50722  0.80468  0.18113  1.0000
  H   H2169     1.0  0.52155  0.79173  0.15067  1.0000
  H   H2170     1.0  0.56729  0.82407  0.13753  1.0000
  H   H2171     1.0  0.55280  0.83721  0.16783  1.0000
  H   H2172     1.0  0.65698  0.52128  0.20919  1.0000
  H   H2173     1.0  0.51995  0.88554  0.11712  1.0000
  H   H2174     1.0  0.52102  0.86522  0.16002  1.0000
  H   H2175     1.0  0.52846  0.88796  0.14747  1.0000
  H   H2176     1.0  0.49537  0.61991  0.11889  1.0000
  H   H2177     1.0  0.49509  0.86259  0.13706  1.0000
  C   C1241     1.0  0.65601  0.64022  0.15371  1.0000
  C   C1242     1.0  0.51159  0.76399  0.00348  1.0000
  H   H2178     1.0  0.47902  0.64311  0.12193  1.0000
  H   H2179     1.0  0.51600  0.84324  0.13882  1.0000
  S   S293      1.0  0.51017  0.72844  0.99621  1.0000
  H   H2180     1.0  0.56822  0.61901  0.15619  1.0000
  H   H2181     1.0  0.46712  0.78324  0.00177  1.0000
  H   H2182     1.0  0.48209  0.87452  0.10943  1.0000
  C   C1243     1.0  0.58518  0.78388  0.21388  1.0000
  S   S294      1.0  0.60239  0.82990  0.22336  1.0000
  H   H2183     1.0  0.57465  0.98147  0.13667  1.0000
  H   H2184     1.0  0.43127  0.77329  0.03335  1.0000
  C   C1244     1.0  0.58966  0.93228  0.21060  1.0000
  C   C1245     1.0  0.57757  0.92263  0.20555  1.0000
  C   C1246     1.0  0.55731  0.93006  0.20805  1.0000
  C   C1247     1.0  0.60029  0.79201  0.19609  1.0000
  C   C1248     1.0  0.49325  0.87030  0.07959  1.0000
  H   H2185     1.0  0.60535  0.92655  0.20838  1.0000
  H   H2186     1.0  0.58399  0.90968  0.19932  1.0000
  H   H2187     1.0  0.58048  0.82007  0.18846  1.0000
  H   H2188     1.0  0.47366  0.81342  0.11560  1.0000
  C   C1249     1.0  0.54544  0.64353  0.14692  1.0000
  C   C1250     1.0  0.51646  0.65950  0.22038  1.0000
  N   N69       1.0  0.45688  0.74289  0.05527  1.0000
  C   C1251     1.0  0.46010  0.75309  0.03399  1.0000
  C   C1252     1.0  0.47318  0.72495  0.05779  1.0000
  C   C1253     1.0  0.43705  0.73737  0.06092  1.0000
  C   C1254     1.0  0.45715  0.75609  0.06834  1.0000
  C   C1255     1.0  0.47584  0.76468  0.06373  1.0000
  C   C1256     1.0  0.44707  0.77383  0.02895  1.0000
  C   C1257     1.0  0.43229  0.72435  0.08165  1.0000
  C   C1258     1.0  0.47346  0.70859  0.04720  1.0000
  C   C1259     1.0  0.49022  0.69098  0.05099  1.0000
  C   C1260     1.0  0.47302  0.78014  0.07585  1.0000
  C   C1261     1.0  0.51853  0.87823  0.14805  1.0000
  C   C1262     1.0  0.41233  0.71891  0.08534  1.0000
  H   H2189     1.0  0.45756  0.74406  0.02483  1.0000
  H   H2190     1.0  0.47571  0.75435  0.02836  1.0000
  H   H2191     1.0  0.48769  0.72918  0.05214  1.0000
  H   H2192     1.0  0.47294  0.71839  0.07356  1.0000
  H   H2193     1.0  0.43520  0.72987  0.05002  1.0000
  H   H2194     1.0  0.42515  0.75082  0.06046  1.0000
  H   H2195     1.0  0.44406  0.76843  0.06838  1.0000
  H   H2196     1.0  0.45582  0.74800  0.08380  1.0000
  H   H2197     1.0  0.47955  0.77185  0.04813  1.0000
  H   H2198     1.0  0.48857  0.75286  0.06733  1.0000
  H   H2199     1.0  0.58089  0.96569  0.15920  1.0000
  H   H2200     1.0  0.44982  0.78427  0.03635  1.0000
  H   H2201     1.0  0.43171  0.73221  0.09320  1.0000
  H   H2202     1.0  0.44336  0.71040  0.08357  1.0000
  H   H2203     1.0  0.45963  0.70309  0.05229  1.0000
  H   H2204     1.0  0.47560  0.71411  0.03113  1.0000
  H   H2205     1.0  0.50457  0.69533  0.04463  1.0000
  H   H2206     1.0  0.48903  0.68491  0.06692  1.0000
  H   H2207     1.0  0.48956  0.67930  0.04383  1.0000
  H   H2208     1.0  0.46105  0.79280  0.07199  1.0000
  H   H2209     1.0  0.46947  0.77383  0.09175  1.0000
  H   H2210     1.0  0.48674  0.78566  0.07275  1.0000
  H   H2211     1.0  0.52265  0.80134  0.23347  1.0000
  C   C1263     1.0  0.51556  0.63834  0.19961  1.0000
  H   H2212     1.0  0.57156  0.94745  0.13988  1.0000
  H   H2213     1.0  0.41225  0.71030  0.07463  1.0000
  H   H2214     1.0  0.40931  0.70976  0.10030  1.0000
  H   H2215     1.0  0.40046  0.73233  0.08431  1.0000
  N   N70       1.0  0.52910  0.73634  0.19913  1.0000
  C   C1264     1.0  0.53759  0.72996  0.21742  1.0000
  C   C1265     1.0  0.54020  0.75087  0.18456  1.0000
  C   C1266     1.0  0.50803  0.74703  0.20438  1.0000
  C   C1267     1.0  0.52927  0.71932  0.19038  1.0000
  C   C1268     1.0  0.54606  0.70096  0.19299  1.0000
  H   H2216     1.0  0.62786  0.73297  0.18889  1.0000
  C   C1269     1.0  0.49718  0.75656  0.18704  1.0000
  C   C1270     1.0  0.56208  0.74273  0.17637  1.0000
  C   C1271     1.0  0.57218  0.75912  0.16340  1.0000
  C   C1272     1.0  0.54596  0.68663  0.18073  1.0000
  H   H2217     1.0  0.48056  0.83763  0.14170  1.0000
  C   C1273     1.0  0.47498  0.75800  0.19357  1.0000
  H   H2218     1.0  0.47099  0.83010  0.21348  1.0000
  H   H2219     1.0  0.55269  0.72104  0.21472  1.0000
  H   H2220     1.0  0.53339  0.75722  0.17154  1.0000
  H   H2221     1.0  0.53927  0.76362  0.19110  1.0000
  H   H2222     1.0  0.50712  0.75880  0.21216  1.0000
  H   H2223     1.0  0.49919  0.73683  0.21493  1.0000
  H   H2224     1.0  0.51545  0.71371  0.19668  1.0000
  H   H2225     1.0  0.52965  0.72441  0.17440  1.0000
  H   H2226     1.0  0.54424  0.69310  0.20848  1.0000
  H   H2227     1.0  0.56067  0.70477  0.18850  1.0000
  Fe  Fe142     1.0  0.57165  0.84646  0.22148  1.0000
  H   H2228     1.0  0.63282  0.86136  0.23388  1.0000
  H   H2229     1.0  0.50229  0.74821  0.17511  1.0000
  H   H2230     1.0  0.49990  0.77163  0.18074  1.0000
  H   H2231     1.0  0.57032  0.73531  0.18819  1.0000
  H   H2232     1.0  0.56326  0.73224  0.16704  1.0000
  H   H2233     1.0  0.58809  0.75306  0.15872  1.0000
  H   H2234     1.0  0.56585  0.76538  0.15008  1.0000
  H   H2235     1.0  0.57051  0.77098  0.17131  1.0000
  H   H2236     1.0  0.53183  0.68172  0.18501  1.0000
  H   H2237     1.0  0.54816  0.69379  0.16503  1.0000
  H   H2238     1.0  0.55800  0.67352  0.18293  1.0000
  H   H2239     1.0  0.53353  0.95278  0.21803  1.0000
  S   S295      1.0  0.62970  0.66904  0.22417  1.0000
  C   C1274     1.0  0.34988  0.51443  0.09836  1.0000
  H   H2240     1.0  0.46745  0.76772  0.18182  1.0000
  H   H2241     1.0  0.47153  0.74324  0.19633  1.0000
  H   H2242     1.0  0.46914  0.76392  0.20715  1.0000
  C   C1275     1.0  0.50619  0.65343  0.20974  1.0000
  H   H2243     1.0  0.46539  0.80931  0.17397  1.0000
  H   H2244     1.0  0.35267  0.61493  0.21042  1.0000
  H   H2245     1.0  0.48094  0.90174  0.07194  1.0000
  H   H2246     1.0  0.55478  0.96855  0.22879  1.0000
  H   H2247     1.0  0.44542  0.83122  0.21893  1.0000
  H   H2248     1.0  0.56694  0.83163  0.07914  1.0000
  H   H2249     1.0  0.59414  0.75350  0.19548  1.0000
  H   H2250     1.0  0.36462  0.53853  0.09343  1.0000
  H   H2251     1.0  0.54790  0.96398  0.14021  1.0000
  H   H2252     1.0  0.53923  0.74300  0.22199  1.0000
  H   H2253     1.0  0.57448  0.77907  0.20835  1.0000
  N   N71       1.0  0.51965  0.67059  0.13036  1.0000
  C   C1276     1.0  0.54023  0.65816  0.12814  1.0000
  C   C1277     1.0  0.51816  0.68684  0.11242  1.0000
  C   C1278     1.0  0.51642  0.68022  0.14754  1.0000
  C   C1279     1.0  0.50398  0.65882  0.13415  1.0000
  C   C1280     1.0  0.50928  0.64090  0.12417  1.0000
  C   C1281     1.0  0.49722  0.69587  0.15085  1.0000
  C   C1282     1.0  0.52384  0.68080  0.09231  1.0000
  C   C1283     1.0  0.52586  0.69867  0.07566  1.0000
  C   C1284     1.0  0.49147  0.63190  0.12715  1.0000
  C   C1285     1.0  0.49477  0.70316  0.16958  1.0000
  H   H2254     1.0  0.55119  0.66775  0.12304  1.0000
  H   H2255     1.0  0.54326  0.64957  0.11661  1.0000
  H   H2256     1.0  0.50288  0.69565  0.11326  1.0000
  H   H2257     1.0  0.52738  0.69727  0.11186  1.0000
  H   H2258     1.0  0.52884  0.68743  0.14598  1.0000
  H   H2259     1.0  0.51617  0.66899  0.16143  1.0000
  H   H2260     1.0  0.49958  0.65288  0.15008  1.0000
  H   H2261     1.0  0.49023  0.66856  0.12999  1.0000
  H   H2262     1.0  0.52068  0.62919  0.13059  1.0000
  H   H2263     1.0  0.51499  0.64486  0.10829  1.0000
  H   H2264     1.0  0.54739  0.65158  0.15729  1.0000
  H   H2265     1.0  0.48428  0.68980  0.15182  1.0000
  H   H2266     1.0  0.49759  0.70893  0.13875  1.0000
  H   H2267     1.0  0.53807  0.67023  0.09037  1.0000
  H   H2268     1.0  0.51214  0.67441  0.09047  1.0000
  H   H2269     1.0  0.53760  0.70558  0.07665  1.0000
  H   H2270     1.0  0.53005  0.69399  0.06142  1.0000
  H   H2271     1.0  0.51180  0.70971  0.07612  1.0000
  H   H2272     1.0  0.62095  0.71444  0.21015  1.0000
  H   H2273     1.0  0.53473  0.82173  0.08920  1.0000
  H   H2274     1.0  0.48682  0.62549  0.14288  1.0000
  H   H2275     1.0  0.48012  0.71286  0.17272  1.0000
  H   H2276     1.0  0.49607  0.69074  0.18231  1.0000
  H   H2277     1.0  0.50602  0.71180  0.16759  1.0000
  H   H2278     1.0  0.60766  0.86740  0.23100  1.0000
  H   H2279     1.0  0.60950  0.78036  0.18824  1.0000
  C   C1286     1.0  0.49697  0.79083  0.23336  1.0000
  H   H2280     1.0  0.44920  0.83037  0.18275  1.0000
  H   H2281     1.0  0.54091  0.84212  0.10765  1.0000
  H   H2282     1.0  0.66018  0.49635  0.20808  1.0000
  H   H2283     1.0  0.56076  0.62856  0.21113  1.0000
  C   C1287     1.0  0.61234  0.98085  0.17577  1.0000
  C   C1288     1.0  0.56000  0.95737  0.14837  1.0000
  H   H2284     1.0  0.37643  0.55311  0.22626  1.0000
  C   C1289     1.0  0.49667  0.87110  0.09964  1.0000
  H   H2285     1.0  0.62226  0.88600  0.22264  1.0000
  H   H2286     1.0  0.61013  0.79865  0.20079  1.0000
  H   H2287     1.0  0.47532  0.88687  0.05832  1.0000
  C   C1290     1.0  0.53040  0.84998  0.09779  1.0000
  C   C1291     1.0  0.48074  0.83553  0.12698  1.0000
  C   C1292     1.0  0.52277  0.87203  0.12841  1.0000
  H   H2288     1.0  0.55427  0.94840  0.16270  1.0000
  H   H2289     1.0  0.58741  0.73503  0.21655  1.0000
  H   H2290     1.0  0.35607  0.54178  0.22923  1.0000
  C   C1293     1.0  0.53518  0.83725  0.08206  1.0000
  C   C1294     1.0  0.53596  0.65026  0.22129  1.0000
  H   H2291     1.0  0.64373  0.61383  0.16247  1.0000
  C   C1295     1.0  0.54921  0.94702  0.21594  1.0000
  C   C1296     1.0  0.33905  0.61850  0.22152  1.0000
  C   C1297     1.0  0.60781  0.75123  0.22040  1.0000
  H   H2292     1.0  0.54272  0.61807  0.19177  1.0000
  H   H2293     1.0  0.50683  0.87167  0.06832  1.0000
  C   C1298     1.0  0.58155  0.94902  0.21880  1.0000
  H   H2294     1.0  0.46285  0.88665  0.08337  1.0000
  H   H2295     1.0  0.44805  0.77283  0.99873  1.0000
  C   C1299     1.0  0.47424  0.81621  0.12985  1.0000
  H   H2296     1.0  0.45924  0.69376  0.21833  1.0000
  H   H2297     1.0  0.57686  0.63647  0.13491  1.0000
  H   H2298     1.0  0.49923  0.79584  0.21730  1.0000
  H   H2299     1.0  0.44929  0.80034  0.20858  1.0000
  H   H2300     1.0  0.35794  0.52715  0.11875  1.0000
  H   H2301     1.0  0.45933  0.81690  0.13925  1.0000
  H   H2302     1.0  0.44223  0.79719  0.00363  1.0000
  C   C1300     1.0  0.54568  0.63575  0.21046  1.0000
  H   H2303     1.0  0.50082  0.83119  0.10008  1.0000
  H   H2304     1.0  0.64132  0.60671  0.21331  1.0000
  H   H2305     1.0  0.63193  0.63353  0.14539  1.0000
  Fe  Fe143     1.0  0.46996  0.64273  0.19189  1.0000
  C   C1301     1.0  0.51498  0.77548  0.01491  1.0000
  C   C1302     1.0  0.58992  0.80789  0.18139  1.0000
  H   H2306     1.0  0.56317  0.61947  0.13286  1.0000
  H   H2307     1.0  0.49091  0.66016  0.20974  1.0000
  C   C1303     1.0  0.53544  0.62979  0.19960  1.0000
  S   S296      1.0  0.33547  0.55626  0.14746  1.0000
  H   H2308     1.0  0.47554  0.82709  0.17966  1.0000
  S   S297      1.0  0.59722  0.95983  0.22609  1.0000
  H   H2309     1.0  0.57463  0.98382  0.18801  1.0000
  H   H2310     1.0  0.65034  0.65611  0.14853  1.0000
  H   H2311     1.0  0.66040  0.70119  0.14416  1.0000
  H   H2312     1.0  0.58079  0.80158  0.17535  1.0000
  H   H2313     1.0  0.33713  0.49529  0.07756  1.0000
  Fe  Fe144     1.0  0.43438  0.66713  0.21421  1.0000
  C   C1304     1.0  0.65514  0.59888  0.21740  1.0000
  C   C1305     1.0  0.46310  0.81938  0.18408  1.0000
  C   C1306     1.0  0.61921  0.87301  0.23423  1.0000
  H   H2314     1.0  0.50920  0.67123  0.22817  1.0000
  Fe  Fe145     1.0  0.57889  0.65638  0.22982  1.0000
  H   H2315     1.0  0.35519  0.49012  0.19820  1.0000
  H   H2316     1.0  0.62072  0.51946  0.22069  1.0000
  C   C1307     1.0  0.62500  0.50516  0.23062  1.0000
  N   N72       1.0  0.59374  0.76774  0.22924  1.0000
  H   H2317     1.0  0.61808  0.78050  0.22863  1.0000
  C   C1308     1.0  0.34747  0.57201  0.23301  1.0000
  H   H2318     1.0  0.33667  0.50194  0.12819  1.0000
  H   H2319     1.0  0.33719  0.63445  0.22113  1.0000
  H   H2320     1.0  0.34675  0.57731  0.21734  1.0000
  H   H2321     1.0  0.51973  0.70733  0.23145  1.0000
  H   H2322     1.0  0.36917  0.58835  0.23007  1.0000
  H   H2323     1.0  0.52753  0.77595  0.23163  1.0000
  H   H2324     1.0  0.59840  0.98881  0.15142  1.0000
  C   C1309     1.0  0.56873  0.97335  0.15134  1.0000
  H   H2325     1.0  0.61272  0.73882  0.23211  1.0000
  H   H2326     1.0  0.54894  0.97723  0.17793  1.0000
  C   C1310     1.0  0.45416  0.70029  0.23105  1.0000
  H   H2327     1.0  0.33515  0.62705  0.18309  1.0000
  H   H2328     1.0  0.62724  0.97972  0.16632  1.0000
  H   H2329     1.0  0.47808  0.71520  0.22386  1.0000
  C   C1311     1.0  0.46482  0.71257  0.23420  1.0000
  C   C1312     1.0  0.55312  0.98709  0.16363  1.0000
  C   C1313     1.0  0.61196  0.76260  0.25739  1.0000
  S   S298      1.0  0.51771  0.85680  0.27939  1.0000
  Fe  Fe146     1.0  0.61936  0.78751  0.32512  1.0000
  S   S299      1.0  0.61053  0.78050  0.35788  1.0000
  S   S300      1.0  0.61595  0.81902  0.30898  1.0000
  Fe  Fe147     1.0  0.63184  0.74446  0.32211  1.0000
  S   S301      1.0  0.62377  0.73390  0.35454  1.0000
  H   H2330     1.0  0.65198  0.81443  0.47770  1.0000
  Fe  Fe148     1.0  0.59686  0.75800  0.35274  1.0000
  S   S302      1.0  0.56586  0.75536  0.36800  1.0000
  Fe  Fe149     1.0  0.63831  0.75724  0.35659  1.0000
  S   S303      1.0  0.60372  0.76678  0.32000  1.0000
  C   C1314     1.0  0.50537  0.82266  0.28375  1.0000
  Fe  Fe150     1.0  0.46426  0.77192  0.30774  1.0000
  S   S304      1.0  0.48996  0.75876  0.28678  1.0000
  Fe  Fe151     1.0  0.45387  0.73283  0.32857  1.0000
  S   S305      1.0  0.47868  0.71629  0.30909  1.0000
  S   S306      1.0  0.43465  0.71495  0.35227  1.0000
  Fe  Fe152     1.0  0.49652  0.73571  0.31311  1.0000
  S   S307      1.0  0.52759  0.72226  0.31699  1.0000
  Fe  Fe153     1.0  0.46988  0.74063  0.28451  1.0000
  S   S308      1.0  0.47198  0.73692  0.25386  1.0000
  S   S309      1.0  0.47245  0.75045  0.33440  1.0000
  S   S310      1.0  0.44343  0.75566  0.30352  1.0000
  H   H2331     1.0  0.49564  0.79555  0.28917  1.0000
  H   H2332     1.0  0.36891  0.63627  0.47320  1.0000
  H   H2333     1.0  0.36226  0.54539  0.25044  1.0000
  Fe  Fe154     1.0  0.36665  0.73195  0.44869  1.0000
  S   S311      1.0  0.39667  0.73861  0.43431  1.0000
  H   H2334     1.0  0.33894  0.65755  0.36043  1.0000
  C   C1315     1.0  0.36502  0.79412  0.42472  1.0000
  H   H2335     1.0  0.50390  0.58272  0.24515  1.0000
  H   H2336     1.0  0.39383  0.81519  0.40441  1.0000
  H   H2337     1.0  0.62440  0.88477  0.25621  1.0000
  H   H2338     1.0  0.33292  0.56962  0.24168  1.0000
  H   H2339     1.0  0.53322  0.68534  0.41545  1.0000
  H   H2340     1.0  0.42583  0.79317  0.39638  1.0000
  C   C1316     1.0  0.47230  0.81829  0.29975  1.0000
  C   C1317     1.0  0.42229  0.72338  0.37394  1.0000
  C   C1318     1.0  0.40975  0.71234  0.38795  1.0000
  C   C1319     1.0  0.40108  0.71754  0.40616  1.0000
  C   C1320     1.0  0.40548  0.73342  0.41071  1.0000
  C   C1321     1.0  0.41774  0.74473  0.39660  1.0000
  C   C1322     1.0  0.42572  0.74002  0.37805  1.0000
  H   H2341     1.0  0.40689  0.69956  0.38480  1.0000
  H   H2342     1.0  0.39159  0.70880  0.41695  1.0000
  H   H2343     1.0  0.42104  0.75712  0.40000  1.0000
  H   H2344     1.0  0.43493  0.74893  0.36712  1.0000
  H   H2345     1.0  0.58465  0.87430  0.33199  1.0000
  C   C1323     1.0  0.59344  0.82906  0.28124  1.0000
  C   C1324     1.0  0.44159  0.71711  0.26428  1.0000
  C   C1325     1.0  0.45855  0.72108  0.25076  1.0000
  C   C1326     1.0  0.37124  0.80394  0.45250  1.0000
  H   H2346     1.0  0.43666  0.72357  0.27713  1.0000
  C   C1327     1.0  0.55501  0.74567  0.35443  1.0000
  C   C1328     1.0  0.56673  0.73365  0.34163  1.0000
  C   C1329     1.0  0.55806  0.72621  0.33056  1.0000
  C   C1330     1.0  0.53775  0.73153  0.33150  1.0000
  C   C1331     1.0  0.52599  0.74369  0.34421  1.0000
  C   C1332     1.0  0.53456  0.75029  0.35609  1.0000
  H   H2347     1.0  0.58248  0.72989  0.34046  1.0000
  H   H2348     1.0  0.56714  0.71650  0.32108  1.0000
  H   H2349     1.0  0.51035  0.74787  0.34492  1.0000
  H   H2350     1.0  0.52544  0.75932  0.36623  1.0000
  H   H2351     1.0  0.60658  0.95205  0.29212  1.0000
  C   C1333     1.0  0.65087  0.76319  0.44352  1.0000
  H   H2352     1.0  0.55397  0.80447  0.35628  1.0000
  H   H2353     1.0  0.40408  0.77951  0.42706  1.0000
  C   C1334     1.0  0.60694  0.70977  0.26981  1.0000
  C   C1335     1.0  0.62730  0.70373  0.26437  1.0000
  C   C1336     1.0  0.63963  0.70761  0.27457  1.0000
  C   C1337     1.0  0.63159  0.71771  0.28996  1.0000
  C   C1338     1.0  0.61125  0.72370  0.29528  1.0000
  C   C1339     1.0  0.59899  0.71977  0.28517  1.0000
  H   H2354     1.0  0.63352  0.69614  0.25236  1.0000
  H   H2355     1.0  0.57648  0.87797  0.29097  1.0000
  H   H2356     1.0  0.60492  0.73154  0.30705  1.0000
  H   H2357     1.0  0.58326  0.72471  0.28911  1.0000
  C   C1340     1.0  0.61233  0.82188  0.28520  1.0000
  H   H2358     1.0  0.58119  0.83286  0.29277  1.0000
  H   H2359     1.0  0.42307  0.79917  0.26240  1.0000
  H   H2360     1.0  0.54579  0.70255  0.39694  1.0000
  H   H2361     1.0  0.58317  0.74628  0.25396  1.0000
  H   H2362     1.0  0.62006  0.77488  0.44176  1.0000
  H   H2363     1.0  0.61508  0.90677  0.27347  1.0000
  C   C1341     1.0  0.39228  0.81165  0.42053  1.0000
  C   C1342     1.0  0.62826  0.81763  0.27003  1.0000
  H   H2364     1.0  0.56039  0.92536  0.28249  1.0000
  H   H2365     1.0  0.51274  0.72880  0.24206  1.0000
  H   H2366     1.0  0.60374  0.68745  0.35761  1.0000
  H   H2367     1.0  0.34891  0.67741  0.40307  1.0000
  S   S312      1.0  0.34642  0.75442  0.46521  1.0000
  H   H2368     1.0  0.36921  0.77574  0.38295  1.0000
  N   N73       1.0  0.37161  0.80964  0.43073  1.0000
  C   C1343     1.0  0.45574  0.84347  0.25185  1.0000
  H   H2369     1.0  0.34198  0.86536  0.38807  1.0000
  H   H2370     1.0  0.64293  0.81232  0.27299  1.0000
  N   N74       1.0  0.59730  0.65565  0.31977  1.0000
  C   C1344     1.0  0.61687  0.64474  0.31023  1.0000
  C   C1345     1.0  0.58786  0.64150  0.33662  1.0000
  C   C1346     1.0  0.58428  0.66250  0.30482  1.0000
  C   C1347     1.0  0.59882  0.67337  0.32647  1.0000
  Fe  Fe155     1.0  0.60054  0.68148  0.24108  1.0000
  H   H2371     1.0  0.44622  0.87075  0.26237  1.0000
  C   C1348     1.0  0.56237  0.67149  0.31230  1.0000
  C   C1349     1.0  0.59897  0.63197  0.35360  1.0000
  C   C1350     1.0  0.58898  0.61629  0.36834  1.0000
  C   C1351     1.0  0.62520  0.82022  0.25099  1.0000
  C   C1352     1.0  0.62689  0.65623  0.29060  1.0000
  C   C1353     1.0  0.55180  0.68122  0.29529  1.0000
  H   H2372     1.0  0.61518  0.63090  0.30719  1.0000
  C   C1354     1.0  0.64839  0.64639  0.28447  1.0000
  H   H2373     1.0  0.57319  0.64901  0.34366  1.0000
  H   H2374     1.0  0.58529  0.62949  0.33104  1.0000
  H   H2375     1.0  0.58453  0.65009  0.29811  1.0000
  H   H2376     1.0  0.58997  0.67389  0.29256  1.0000
  H   H2377     1.0  0.59773  0.68665  0.31449  1.0000
  H   H2378     1.0  0.58599  0.67713  0.33828  1.0000
  C   C1355     1.0  0.34357  0.85936  0.40350  1.0000
  H   H2379     1.0  0.34266  0.82846  0.43486  1.0000
  H   H2380     1.0  0.61935  0.65703  0.27871  1.0000
  H   H2381     1.0  0.34193  0.79682  0.46108  1.0000
  H   H2382     1.0  0.56089  0.68271  0.32091  1.0000
  H   H2383     1.0  0.55459  0.65981  0.32157  1.0000
  H   H2384     1.0  0.44747  0.81657  0.26949  1.0000
  H   H2385     1.0  0.63031  0.67367  0.32085  1.0000
  H   H2386     1.0  0.59586  0.79025  0.24323  1.0000
  H   H2387     1.0  0.59698  0.60996  0.38057  1.0000
  H   H2388     1.0  0.57354  0.62279  0.37449  1.0000
  C   C1356     1.0  0.61267  0.87853  0.25434  1.0000
  H   H2389     1.0  0.53660  0.77316  0.27973  1.0000
  H   H2390     1.0  0.61435  0.62472  0.34841  1.0000
  H   H2391     1.0  0.53095  0.93741  0.25928  1.0000
  H   H2392     1.0  0.37006  0.64887  0.24489  1.0000
  C   C1357     1.0  0.33641  0.68076  0.39552  1.0000
  H   H2393     1.0  0.55729  0.69462  0.28686  1.0000
  H   H2394     1.0  0.55398  0.67098  0.28538  1.0000
  H   H2395     1.0  0.53580  0.68570  0.30098  1.0000
  C   C1358     1.0  0.53796  0.80577  0.35731  1.0000
  C   C1359     1.0  0.35501  0.58661  0.24023  1.0000
  S   S313      1.0  0.64201  0.61476  0.25043  1.0000
  C   C1360     1.0  0.44022  0.85780  0.26305  1.0000
  H   H2396     1.0  0.45918  0.85100  0.23629  1.0000
  H   H2397     1.0  0.51096  0.81123  0.37971  1.0000
  C   C1361     1.0  0.49147  0.81065  0.29075  1.0000
  H   H2398     1.0  0.64703  0.75320  0.45778  1.0000
  C   C1362     1.0  0.53532  0.87615  0.32592  1.0000
  H   H2399     1.0  0.53328  0.88793  0.31278  1.0000
  C   C1363     1.0  0.48007  0.80761  0.34811  1.0000
  H   H2400     1.0  0.47273  0.66109  0.29086  1.0000
  C   C1364     1.0  0.37941  0.63391  0.24776  1.0000
  N   N75       1.0  0.53133  0.82067  0.34004  1.0000
  C   C1365     1.0  0.53126  0.70031  0.40606  1.0000
  H   H2401     1.0  0.52990  0.82323  0.38025  1.0000
  H   H2402     1.0  0.55046  0.87402  0.32820  1.0000
  H   H2403     1.0  0.52485  0.84572  0.35384  1.0000
  C   C1366     1.0  0.40857  0.79343  0.42594  1.0000
  C   C1367     1.0  0.46722  0.83776  0.30216  1.0000
  H   H2404     1.0  0.43913  0.78088  0.41567  1.0000
  H   H2405     1.0  0.53050  0.77895  0.39293  1.0000
  H   H2406     1.0  0.52641  0.79616  0.40852  1.0000
  H   H2407     1.0  0.55006  0.79049  0.39273  1.0000
  C   C1368     1.0  0.56044  0.79000  0.29995  1.0000
  H   H2408     1.0  0.48297  0.65688  0.24795  1.0000
  H   H2409     1.0  0.50635  0.80088  0.32684  1.0000
  H   H2410     1.0  0.41748  0.70221  0.27131  1.0000
  C   C1369     1.0  0.37321  0.79122  0.40329  1.0000
  C   C1370     1.0  0.59534  0.86643  0.32103  1.0000
  S   S314      1.0  0.59085  0.70605  0.25725  1.0000
  C   C1371     1.0  0.59031  0.83116  0.26236  1.0000
  C   C1372     1.0  0.52540  0.71836  0.23548  1.0000
  Fe  Fe156     1.0  0.53278  0.85762  0.24806  1.0000
  N   N76       1.0  0.34162  0.60643  0.24160  1.0000
  N   N77       1.0  0.48017  0.70447  0.39381  1.0000
  C   C1373     1.0  0.47742  0.72549  0.38262  1.0000
  C   C1374     1.0  0.48354  0.69057  0.38011  1.0000
  C   C1375     1.0  0.46125  0.70233  0.40844  1.0000
  C   C1376     1.0  0.49658  0.69927  0.40490  1.0000
  C   C1377     1.0  0.51696  0.70269  0.39279  1.0000
  C   C1378     1.0  0.47331  0.74157  0.39478  1.0000
  C   C1379     1.0  0.46003  0.68128  0.42044  1.0000
  C   C1380     1.0  0.49534  0.69627  0.35899  1.0000
  C   C1381     1.0  0.50088  0.67929  0.34823  1.0000
  C   C1382     1.0  0.47238  0.76199  0.38157  1.0000
  C   C1383     1.0  0.43955  0.68088  0.43319  1.0000
  H   H2411     1.0  0.46513  0.72859  0.37485  1.0000
  H   H2412     1.0  0.49034  0.72795  0.37086  1.0000
  H   H2413     1.0  0.49081  0.67552  0.38670  1.0000
  H   H2414     1.0  0.46919  0.68908  0.37799  1.0000
  H   H2415     1.0  0.44859  0.70768  0.40087  1.0000
  H   H2416     1.0  0.45839  0.71161  0.41943  1.0000
  H   H2417     1.0  0.49241  0.70729  0.41712  1.0000
  H   H2418     1.0  0.49892  0.68346  0.41214  1.0000
  H   H2419     1.0  0.51616  0.71764  0.38354  1.0000
  H   H2420     1.0  0.52345  0.69164  0.38343  1.0000
  H   H2421     1.0  0.45899  0.74192  0.40520  1.0000
  H   H2422     1.0  0.48509  0.73909  0.40302  1.0000
  H   H2423     1.0  0.47071  0.67617  0.43031  1.0000
  H   H2424     1.0  0.46301  0.67061  0.41083  1.0000
  H   H2425     1.0  0.48614  0.70874  0.35056  1.0000
  H   H2426     1.0  0.50897  0.70081  0.35860  1.0000
  H   H2427     1.0  0.48746  0.67495  0.34731  1.0000
  H   H2428     1.0  0.50897  0.68401  0.33311  1.0000
  H   H2429     1.0  0.51053  0.66644  0.35577  1.0000
  H   H2430     1.0  0.48637  0.76272  0.37077  1.0000
  H   H2431     1.0  0.46007  0.76570  0.37370  1.0000
  H   H2432     1.0  0.46994  0.77314  0.39054  1.0000
  H   H2433     1.0  0.55360  0.78551  0.24646  1.0000
  C   C1384     1.0  0.62281  0.77258  0.26624  1.0000
  H   H2434     1.0  0.42841  0.68464  0.42389  1.0000
  H   H2435     1.0  0.57557  0.83600  0.25967  1.0000
  N   N78       1.0  0.58602  0.90397  0.27238  1.0000
  H   H2436     1.0  0.32867  0.85959  0.41286  1.0000
  H   H2437     1.0  0.62626  0.67137  0.29178  1.0000
  H   H2438     1.0  0.59210  0.90342  0.24178  1.0000
  H   H2439     1.0  0.59876  0.64327  0.36164  1.0000
  C   C1385     1.0  0.42614  0.77439  0.24976  1.0000
  C   C1386     1.0  0.55003  0.79301  0.32049  1.0000
  C   C1387     1.0  0.55051  0.90912  0.26691  1.0000
  H   H2440     1.0  0.52568  0.92546  0.28484  1.0000
  H   H2441     1.0  0.47491  0.79531  0.34573  1.0000
  C   C1388     1.0  0.56674  0.91807  0.26976  1.0000
  H   H2442     1.0  0.55010  0.83840  0.34304  1.0000
  C   C1389     1.0  0.36330  0.77729  0.39839  1.0000
  H   H2443     1.0  0.61304  0.87284  0.29236  1.0000
  H   H2444     1.0  0.57144  0.89789  0.30289  1.0000
  C   C1390     1.0  0.43696  0.69665  0.24429  1.0000
  H   H2445     1.0  0.62894  0.76198  0.27845  1.0000
  H   H2446     1.0  0.64146  0.79244  0.44987  1.0000
  C   C1391     1.0  0.53191  0.85714  0.32292  1.0000
  H   H2447     1.0  0.49517  0.68652  0.25548  1.0000
  H   H2448     1.0  0.48187  0.80176  0.25954  1.0000
  S   S315      1.0  0.42326  0.68129  0.24069  1.0000
  H   H2449     1.0  0.48794  0.82006  0.23841  1.0000
  C   C1392     1.0  0.56226  0.77366  0.25595  1.0000
  C   C1393     1.0  0.50027  0.84204  0.28651  1.0000
  H   H2450     1.0  0.52587  0.71144  0.41544  1.0000
  C   C1394     1.0  0.33888  0.64086  0.33984  1.0000
  H   H2451     1.0  0.41005  0.77641  0.25120  1.0000
  H   H2452     1.0  0.58834  0.92532  0.29873  1.0000
  C   C1395     1.0  0.49145  0.67989  0.27127  1.0000
  S   S316      1.0  0.35756  0.70641  0.47180  1.0000
  H   H2453     1.0  0.50859  0.79156  0.35200  1.0000
  H   H2454     1.0  0.47277  0.82150  0.33959  1.0000
  H   H2455     1.0  0.56853  0.75425  0.23613  1.0000
  H   H2456     1.0  0.64961  0.63109  0.28306  1.0000
  N   N79       1.0  0.46102  0.81066  0.24057  1.0000
  S   S317      1.0  0.45429  0.80403  0.30829  1.0000
  H   H2457     1.0  0.58916  0.60421  0.36128  1.0000
  C   C1396     1.0  0.48181  0.80649  0.24360  1.0000
  C   C1397     1.0  0.61174  0.94050  0.28322  1.0000
  S   S318      1.0  0.64707  0.72312  0.30218  1.0000
  H   H2458     1.0  0.46915  0.84008  0.25806  1.0000
  H   H2459     1.0  0.37905  0.62888  0.26371  1.0000
  H   H2460     1.0  0.54937  0.89494  0.27731  1.0000
  C   C1398     1.0  0.35069  0.80437  0.46611  1.0000
  H   H2461     1.0  0.38002  0.78876  0.45632  1.0000
  H   H2462     1.0  0.61159  0.86475  0.26544  1.0000
  H   H2463     1.0  0.46323  0.67606  0.27024  1.0000
  H   H2464     1.0  0.50073  0.83018  0.35299  1.0000
  C   C1399     1.0  0.54365  0.81517  0.32112  1.0000
  H   H2465     1.0  0.54935  0.69609  0.24630  1.0000
  H   H2466     1.0  0.50552  0.83357  0.32735  1.0000
  C   C1400     1.0  0.52702  0.80972  0.37785  1.0000
  C   C1401     1.0  0.51691  0.78760  0.23865  1.0000
  H   H2467     1.0  0.56062  0.78549  0.33023  1.0000
  H   H2468     1.0  0.43918  0.66593  0.44229  1.0000
  C   C1402     1.0  0.50241  0.80443  0.34161  1.0000
  H   H2469     1.0  0.47560  0.80818  0.36388  1.0000
  H   H2470     1.0  0.38915  0.78461  0.40110  1.0000
  H   H2471     1.0  0.56498  0.77400  0.30006  1.0000
  H   H2472     1.0  0.56917  0.93021  0.25687  1.0000
  C   C1403     1.0  0.50972  0.82314  0.34064  1.0000
  H   H2473     1.0  0.55774  0.82024  0.31754  1.0000
  H   H2474     1.0  0.53750  0.78558  0.32510  1.0000
  H   H2475     1.0  0.57380  0.79634  0.29502  1.0000
  H   H2476     1.0  0.52014  0.81680  0.27668  1.0000
  H   H2477     1.0  0.45245  0.84369  0.30921  1.0000
  H   H2478     1.0  0.53606  0.82287  0.30872  1.0000
  H   H2479     1.0  0.43306  0.80740  0.40971  1.0000
  N   N80       1.0  0.47535  0.63252  0.27062  1.0000
  C   C1404     1.0  0.48495  0.65002  0.26318  1.0000
  C   C1405     1.0  0.48338  0.61880  0.25639  1.0000
  C   C1406     1.0  0.45369  0.64007  0.27050  1.0000
  C   C1407     1.0  0.47789  0.62191  0.29109  1.0000
  C   C1408     1.0  0.49723  0.62193  0.29704  1.0000
  H   H2480     1.0  0.55045  0.79707  0.28953  1.0000
  C   C1409     1.0  0.44089  0.62432  0.27642  1.0000
  C   C1410     1.0  0.50546  0.60894  0.25408  1.0000
  C   C1411     1.0  0.54811  0.76264  0.27191  1.0000
  C   C1412     1.0  0.50031  0.60656  0.31562  1.0000
  H   H2481     1.0  0.51557  0.78309  0.25472  1.0000
  C   C1413     1.0  0.41901  0.63383  0.27889  1.0000
  S   S319      1.0  0.64824  0.76614  0.32415  1.0000
  H   H2482     1.0  0.50107  0.64557  0.26218  1.0000
  H   H2483     1.0  0.47568  0.60638  0.26078  1.0000
  H   H2484     1.0  0.63753  0.81696  0.23926  1.0000
  H   H2485     1.0  0.64236  0.51574  0.24402  1.0000
  H   H2486     1.0  0.44700  0.65052  0.28055  1.0000
  H   H2487     1.0  0.46573  0.62832  0.30218  1.0000
  H   H2488     1.0  0.47653  0.60636  0.29347  1.0000
  H   H2489     1.0  0.49668  0.63641  0.30007  1.0000
  H   H2490     1.0  0.51045  0.61908  0.28552  1.0000
  H   H2491     1.0  0.37023  0.83897  0.39544  1.0000
  H   H2492     1.0  0.52461  0.88098  0.33875  1.0000
  H   H2493     1.0  0.44340  0.61416  0.29039  1.0000
  H   H2494     1.0  0.44416  0.61563  0.26488  1.0000
  H   H2495     1.0  0.65645  0.84738  0.45973  1.0000
  H   H2496     1.0  0.50864  0.59950  0.26813  1.0000
  H   H2497     1.0  0.43607  0.85065  0.27866  1.0000
  H   H2498     1.0  0.58890  0.85507  0.31851  1.0000
  C   C1414     1.0  0.53395  0.79278  0.39395  1.0000
  H   H2499     1.0  0.51382  0.60736  0.31987  1.0000
  H   H2500     1.0  0.48764  0.60929  0.32785  1.0000
  H   H2501     1.0  0.50209  0.59155  0.31311  1.0000
  C   C1415     1.0  0.43073  0.70506  0.26094  1.0000
  H   H2502     1.0  0.52752  0.70115  0.26451  1.0000
  H   H2503     1.0  0.65541  0.70299  0.27039  1.0000
  H   H2504     1.0  0.41023  0.62224  0.28342  1.0000
  H   H2505     1.0  0.41455  0.64295  0.29021  1.0000
  H   H2506     1.0  0.41567  0.64321  0.26482  1.0000
  C   C1416     1.0  0.42781  0.79385  0.41094  1.0000
  H   H2507     1.0  0.53667  0.79086  0.35712  1.0000
  H   H2508     1.0  0.41154  0.79316  0.44039  1.0000
  H   H2509     1.0  0.63713  0.77843  0.41856  1.0000
  H   H2510     1.0  0.54237  0.85351  0.30948  1.0000
  C   C1417     1.0  0.53482  0.84021  0.34098  1.0000
  H   H2511     1.0  0.51676  0.86028  0.32035  1.0000
  H   H2512     1.0  0.54086  0.75462  0.26556  1.0000
  C   C1418     1.0  0.53726  0.70794  0.25136  1.0000
  C   C1419     1.0  0.48126  0.84949  0.29590  1.0000
  H   H2513     1.0  0.36931  0.77940  0.43405  1.0000
  H   H2514     1.0  0.39584  0.82441  0.42397  1.0000
  H   H2515     1.0  0.47733  0.86445  0.29810  1.0000
  C   C1420     1.0  0.61546  0.68864  0.34421  1.0000
  H   H2516     1.0  0.61798  0.94738  0.26802  1.0000
  H   H2517     1.0  0.56963  0.78061  0.26318  1.0000
  C   C1421     1.0  0.47677  0.66673  0.27491  1.0000
  H   H2518     1.0  0.45163  0.64869  0.25568  1.0000
  H   H2519     1.0  0.64675  0.79077  0.37187  1.0000
  H   H2520     1.0  0.43555  0.69150  0.44305  1.0000
  C   C1422     1.0  0.43127  0.79399  0.24875  1.0000
  C   C1423     1.0  0.35581  0.83837  0.40544  1.0000
  C   C1424     1.0  0.60619  0.82683  0.24716  1.0000
  H   H2521     1.0  0.62750  0.63991  0.32011  1.0000
  H   H2522     1.0  0.43056  0.76339  0.26265  1.0000
  H   H2523     1.0  0.54347  0.71850  0.25557  1.0000
  H   H2524     1.0  0.62947  0.68777  0.34851  1.0000
  C   C1425     1.0  0.35786  0.82939  0.42690  1.0000
  H   H2525     1.0  0.63187  0.75449  0.42977  1.0000
  C   C1426     1.0  0.53043  0.92305  0.26961  1.0000
  Fe  Fe157     1.0  0.33468  0.70933  0.45451  1.0000
  H   H2526     1.0  0.62339  0.92899  0.28950  1.0000
  H   H2527     1.0  0.37831  0.81374  0.45691  1.0000
  S   S320      1.0  0.54676  0.65560  0.23793  1.0000
  H   H2528     1.0  0.59938  0.75867  0.26895  1.0000
  H   H2529     1.0  0.55393  0.90662  0.25175  1.0000
  H   H2530     1.0  0.42691  0.86297  0.25652  1.0000
  C   C1427     1.0  0.57722  0.75949  0.24369  1.0000
  H   H2531     1.0  0.35084  0.86900  0.40780  1.0000
  C   C1428     1.0  0.60074  0.88087  0.30190  1.0000
  S   S321      1.0  0.59281  0.65235  0.25532  1.0000
  C   C1429     1.0  0.59237  0.89282  0.25597  1.0000
  C   C1430     1.0  0.65826  0.77215  0.48181  1.0000
  S   S322      1.0  0.34572  0.73272  0.43009  1.0000
  H   H2532     1.0  0.60874  0.85887  0.32704  1.0000
  C   C1431     1.0  0.37251  0.61955  0.24001  1.0000
  H   H2533     1.0  0.35876  0.57913  0.25478  1.0000
  H   H2534     1.0  0.35202  0.60950  0.26614  1.0000
  H   H2535     1.0  0.51941  0.91652  0.26657  1.0000
  H   H2536     1.0  0.34422  0.96352  0.46595  1.0000
  C   C1432     1.0  0.65555  0.78204  0.44628  1.0000
  C   C1433     1.0  0.63392  0.76812  0.43277  1.0000
  C   C1434     1.0  0.58271  0.89020  0.29207  1.0000
  C   C1435     1.0  0.35137  0.61711  0.25070  1.0000
  H   H2537     1.0  0.52748  0.58965  0.23690  1.0000
  C   C1436     1.0  0.60089  0.91612  0.27041  1.0000
  H   H2538     1.0  0.60611  0.89230  0.30560  1.0000
  H   H2539     1.0  0.50513  0.67140  0.27636  1.0000
  H   H2540     1.0  0.58312  0.94412  0.27769  1.0000
  H   H2541     1.0  0.45697  0.78382  0.26165  1.0000
  H   H2542     1.0  0.61245  0.78501  0.27222  1.0000
  H   H2543     1.0  0.37129  0.80514  0.39242  1.0000
  H   H2544     1.0  0.48485  0.69203  0.27931  1.0000
  H   H2545     1.0  0.65698  0.64626  0.29529  1.0000
  H   H2546     1.0  0.55609  0.75185  0.28278  1.0000
  H   H2547     1.0  0.34791  0.82971  0.40062  1.0000
  H   H2548     1.0  0.62215  0.74902  0.25369  1.0000
  C   C1437     1.0  0.51135  0.59536  0.23946  1.0000
  C   C1438     1.0  0.61788  0.67214  0.33352  1.0000
  C   C1439     1.0  0.65915  0.81615  0.46199  1.0000
  C   C1440     1.0  0.59450  0.93175  0.28339  1.0000
  H   H2549     1.0  0.39476  0.63478  0.24015  1.0000
  H   H2550     1.0  0.58180  0.88357  0.25713  1.0000
  H   H2551     1.0  0.62232  0.65805  0.34346  1.0000
  C   C1441     1.0  0.44858  0.82434  0.25390  1.0000
  H   H2552     1.0  0.48062  0.62672  0.24156  1.0000
  H   H2553     1.0  0.34261  0.81976  0.46634  1.0000
  H   H2554     1.0  0.34868  0.79701  0.42743  1.0000
  H   H2555     1.0  0.63516  0.77789  0.25517  1.0000
  H   H2556     1.0  0.61175  0.70319  0.33453  1.0000
  C   C1442     1.0  0.45364  0.79173  0.24703  1.0000
  H   H2557     1.0  0.43324  0.82892  0.25146  1.0000
  H   H2558     1.0  0.36216  0.84024  0.43271  1.0000
  H   H2559     1.0  0.33899  0.65077  0.39372  1.0000
  H   H2560     1.0  0.51484  0.61999  0.24879  1.0000
  H   H2561     1.0  0.34185  0.68537  0.37956  1.0000
  H   H2562     1.0  0.34953  0.62776  0.34560  1.0000
  H   H2563     1.0  0.60451  0.92411  0.25496  1.0000
  H   H2564     1.0  0.34716  0.78291  0.40040  1.0000
  H   H2565     1.0  0.65477  0.65472  0.27004  1.0000
  H   H2566     1.0  0.34255  0.63222  0.25133  1.0000
  H   H2567     1.0  0.36646  0.76255  0.40789  1.0000
  C   C1443     1.0  0.64455  0.50381  0.23606  1.0000
  Fe  Fe158     1.0  0.62072  0.63990  0.23621  1.0000
  H   H2568     1.0  0.34709  0.65036  0.32756  1.0000
  H   H2569     1.0  0.64796  0.81916  0.45296  1.0000
  H   H2570     1.0  0.38305  0.60524  0.24234  1.0000
  H   H2571     1.0  0.49252  0.77645  0.23788  1.0000
  H   H2572     1.0  0.64959  0.81494  0.33015  1.0000
  H   H2573     1.0  0.64782  0.48970  0.24642  1.0000
  C   C1444     1.0  0.65902  0.60006  0.23503  1.0000
  C   C1445     1.0  0.33619  0.95998  0.48133  1.0000
  C   C1446     1.0  0.60481  0.77627  0.23904  1.0000
  S   S323      1.0  0.66094  0.74851  0.37577  1.0000
  H   H2574     1.0  0.61332  0.50405  0.24406  1.0000
  H   H2575     1.0  0.62809  0.77228  0.48032  1.0000
  H   H2576     1.0  0.63108  0.79557  0.48212  1.0000
  H   H2577     1.0  0.46153  0.78136  0.23719  1.0000
  C   C1447     1.0  0.65925  0.78633  0.37892  1.0000
  H   H2578     1.0  0.65825  0.81561  0.38199  1.0000
  H   H2579     1.0  0.42598  0.80483  0.23623  1.0000
  H   H2580     1.0  0.43370  0.76860  0.23630  1.0000
  H   H2581     1.0  0.65784  0.83745  0.31815  1.0000
  H   H2582     1.0  0.66079  0.52666  0.26964  1.0000
  H   H2583     1.0  0.34970  0.92898  0.48345  1.0000
  H   H2584     1.0  0.32845  0.62796  0.38011  1.0000
  H   H2585     1.0  0.37553  0.65482  0.48137  1.0000
  S   S324      1.0  0.54679  0.83097  0.23525  1.0000
  S   S325      1.0  0.55871  0.87177  0.23655  1.0000
  C   C1448     1.0  0.32790  0.65239  0.35585  1.0000
  C   C1449     1.0  0.32763  0.66256  0.39982  1.0000
  H   H2586     1.0  0.32838  0.63606  0.33407  1.0000
  C   C1450     1.0  0.36149  0.55190  0.23488  1.0000
  C   C1451     1.0  0.34870  0.68435  0.56075  1.0000
  H   H2587     1.0  0.59438  0.70218  0.72117  1.0000
  C   C1452     1.0  0.34702  0.66567  0.55562  1.0000
  C   C1453     1.0  0.36987  0.64102  0.48634  1.0000
  H   H2588     1.0  0.38809  0.81836  0.63149  1.0000
  H   H2589     1.0  0.36042  0.83527  0.65454  1.0000
  S   S326      1.0  0.45070  0.82402  0.70371  1.0000
  H   H2590     1.0  0.49155  0.84674  0.71853  1.0000
  C   C1454     1.0  0.35062  0.51393  0.68939  1.0000
  C   C1455     1.0  0.35998  0.75457  0.53115  1.0000
  Fe  Fe159     1.0  0.56518  0.82033  0.70625  1.0000
  S   S327      1.0  0.56223  0.81099  0.68005  1.0000
  S   S328      1.0  0.55120  0.85095  0.71096  1.0000
  C   C1456     1.0  0.33062  0.73388  0.55151  1.0000
  S   S329      1.0  0.58833  0.76779  0.69703  1.0000
  H   H2591     1.0  0.35663  0.50464  0.72541  1.0000
  Fe  Fe160     1.0  0.59395  0.79647  0.67822  1.0000
  S   S330      1.0  0.61221  0.79837  0.64796  1.0000
  Fe  Fe161     1.0  0.55672  0.78316  0.70094  1.0000
  S   S331      1.0  0.53393  0.76697  0.70136  1.0000
  S   S332      1.0  0.59767  0.80830  0.70263  1.0000
  H   H2592     1.0  0.45750  0.85650  0.71601  1.0000
  Fe  Fe162     1.0  0.35208  0.76091  0.63674  1.0000
  H   H2593     1.0  0.33731  0.87213  0.64163  1.0000
  S   S333      1.0  0.37596  0.75465  0.65429  1.0000
  Fe  Fe163     1.0  0.34783  0.76391  0.59500  1.0000
  H   H2594     1.0  0.66077  0.75580  0.48580  1.0000
  S   S334      1.0  0.36445  0.76394  0.56403  1.0000
  H   H2595     1.0  0.33425  0.69144  0.56852  1.0000
  H   H2596     1.0  0.35384  0.69479  0.54728  1.0000
  S   S335      1.0  0.35182  0.78558  0.61027  1.0000
  S   S336      1.0  0.35071  0.73849  0.62052  1.0000
  C   C1457     1.0  0.35380  0.75295  0.55146  1.0000
  H   H2597     1.0  0.63462  0.78228  0.51682  1.0000
  H   H2598     1.0  0.46743  0.90107  0.71841  1.0000
  H   H2599     1.0  0.38559  0.79632  0.65023  1.0000
  C   C1458     1.0  0.38083  0.80560  0.63672  1.0000
  H   H2600     1.0  0.33760  0.59619  0.56811  1.0000
  S   S337      1.0  0.55652  0.79373  0.72751  1.0000
  C   C1459     1.0  0.63503  0.78204  0.64598  1.0000
  C   C1460     1.0  0.62740  0.84750  0.64880  1.0000
  H   H2601     1.0  0.35468  0.66618  0.51193  1.0000
  H   H2602     1.0  0.63427  0.77346  0.67696  1.0000
  H   H2603     1.0  0.64015  0.78805  0.61450  1.0000
  H   H2604     1.0  0.35861  0.52612  0.68548  1.0000
  H   H2605     1.0  0.51562  0.85037  0.68605  1.0000
  H   H2606     1.0  0.33674  0.51769  0.70003  1.0000
  H   H2607     1.0  0.34328  0.65526  0.56965  1.0000
  C   C1461     1.0  0.51102  0.86665  0.68356  1.0000
  H   H2608     1.0  0.34338  0.63098  0.55572  1.0000
  H   H2609     1.0  0.58748  0.70536  0.68844  1.0000
  H   H2610     1.0  0.64250  0.81915  0.62852  1.0000
  C   C1462     1.0  0.36915  0.77705  0.71025  1.0000
  C   C1463     1.0  0.35269  0.77988  0.70198  1.0000
  C   C1464     1.0  0.35435  0.77253  0.68516  1.0000
  C   C1465     1.0  0.37251  0.76240  0.67648  1.0000
  C   C1466     1.0  0.38868  0.75873  0.68532  1.0000
  C   C1467     1.0  0.38697  0.76586  0.70219  1.0000
  H   H2611     1.0  0.35611  0.74712  0.50542  1.0000
  H   H2612     1.0  0.63184  0.75856  0.51500  1.0000
  H   H2613     1.0  0.40258  0.75025  0.67910  1.0000
  H   H2614     1.0  0.39939  0.76245  0.70909  1.0000
  C   C1468     1.0  0.47401  0.80836  0.70142  1.0000
  C   C1469     1.0  0.49097  0.81609  0.69528  1.0000
  C   C1470     1.0  0.50950  0.80345  0.69516  1.0000
  C   C1471     1.0  0.51108  0.78304  0.70054  1.0000
  C   C1472     1.0  0.49414  0.77534  0.70600  1.0000
  C   C1473     1.0  0.47569  0.78796  0.70655  1.0000
  H   H2615     1.0  0.48976  0.83180  0.69110  1.0000
  H   H2616     1.0  0.52248  0.80954  0.69098  1.0000
  H   H2617     1.0  0.49521  0.75959  0.71021  1.0000
  Fe  Fe164     1.0  0.58877  0.78081  0.72190  1.0000
  H   H2618     1.0  0.53733  0.71816  0.72822  1.0000
  H   H2619     1.0  0.47982  0.86914  0.68961  1.0000
  C   C1474     1.0  0.33638  0.73587  0.53119  1.0000
  C   C1475     1.0  0.33039  0.61668  0.54156  1.0000
  C   C1476     1.0  0.33051  0.63523  0.54857  1.0000
  H   H2620     1.0  0.38546  0.79655  0.62533  1.0000
  H   H2621     1.0  0.50258  0.86464  0.72193  1.0000
  H   H2622     1.0  0.61189  0.77965  0.51267  1.0000
  C   C1477     1.0  0.62811  0.77466  0.50927  1.0000
  C   C1478     1.0  0.59995  0.86107  0.67492  1.0000
  H   H2623     1.0  0.59495  0.87469  0.66448  1.0000
  H   H2624     1.0  0.62452  0.71699  0.68542  1.0000
  C   C1479     1.0  0.35005  0.65180  0.51778  1.0000
  C   C1480     1.0  0.34950  0.64450  0.49948  1.0000
  H   H2625     1.0  0.33281  0.97347  0.51693  1.0000
  H   H2626     1.0  0.37146  0.76248  0.52330  1.0000
  H   H2627     1.0  0.33466  0.74077  0.57734  1.0000
  H   H2628     1.0  0.51091  0.87246  0.66777  1.0000
  C   C1481     1.0  0.63566  0.77953  0.48716  1.0000
  H   H2629     1.0  0.36233  0.64181  0.52445  1.0000
  H   H2630     1.0  0.33288  0.85736  0.70731  1.0000
  C   C1482     1.0  0.33086  0.66992  0.54348  1.0000
  C   C1483     1.0  0.35126  0.74601  0.52102  1.0000
  H   H2631     1.0  0.59634  0.86447  0.68976  1.0000
  S   S338      1.0  0.42347  0.78117  0.71872  1.0000
  H   H2632     1.0  0.65171  0.85647  0.59873  1.0000
  N   N81       1.0  0.44598  0.78133  0.65739  1.0000
  C   C1484     1.0  0.46715  0.78070  0.64708  1.0000
  C   C1485     1.0  0.43380  0.78065  0.64340  1.0000
  C   C1486     1.0  0.43824  0.80066  0.66424  1.0000
  C   C1487     1.0  0.44410  0.76502  0.67526  1.0000
  C   C1488     1.0  0.45098  0.74373  0.67193  1.0000
  C   C1489     1.0  0.48121  0.78229  0.65944  1.0000
  C   C1490     1.0  0.41550  0.80701  0.67025  1.0000
  C   C1491     1.0  0.44359  0.76776  0.62783  1.0000
  C   C1492     1.0  0.42836  0.76527  0.61777  1.0000
  C   C1493     1.0  0.45148  0.72897  0.69136  1.0000
  C   C1494     1.0  0.50213  0.78162  0.64750  1.0000
  C   C1495     1.0  0.40951  0.82489  0.67980  1.0000
  H   H2633     1.0  0.46791  0.79284  0.63389  1.0000
  H   H2634     1.0  0.47369  0.76698  0.64146  1.0000
  H   H2635     1.0  0.41986  0.77602  0.65177  1.0000
  H   H2636     1.0  0.42938  0.79563  0.63455  1.0000
  H   H2637     1.0  0.44324  0.81293  0.65264  1.0000
  H   H2638     1.0  0.44438  0.80031  0.67705  1.0000
  H   H2639     1.0  0.45186  0.76649  0.68613  1.0000
  H   H2640     1.0  0.42855  0.76627  0.68297  1.0000
  H   H2641     1.0  0.46592  0.74119  0.66276  1.0000
  H   H2642     1.0  0.44044  0.74044  0.66498  1.0000
  H   H2643     1.0  0.47645  0.79635  0.66460  1.0000
  H   H2644     1.0  0.48193  0.76988  0.67223  1.0000
  H   H2645     1.0  0.40891  0.79507  0.68060  1.0000
  H   H2646     1.0  0.40874  0.81127  0.65721  1.0000
  H   H2647     1.0  0.45455  0.77497  0.61636  1.0000
  H   H2648     1.0  0.45132  0.75295  0.63401  1.0000
  H   H2649     1.0  0.42071  0.77977  0.61052  1.0000
  H   H2650     1.0  0.43572  0.75631  0.60647  1.0000
  H   H2651     1.0  0.41732  0.75759  0.62856  1.0000
  H   H2652     1.0  0.46291  0.73060  0.69831  1.0000
  H   H2653     1.0  0.43700  0.73118  0.70155  1.0000
  H   H2654     1.0  0.45511  0.71376  0.68878  1.0000
  H   H2655     1.0  0.50805  0.76752  0.64241  1.0000
  H   H2656     1.0  0.50251  0.79408  0.63470  1.0000
  H   H2657     1.0  0.51175  0.78277  0.65682  1.0000
  H   H2658     1.0  0.41462  0.82125  0.69380  1.0000
  H   H2659     1.0  0.41578  0.83735  0.66995  1.0000
  H   H2660     1.0  0.39324  0.82951  0.68306  1.0000
  H   H2661     1.0  0.34676  0.51240  0.67599  1.0000
  C   C1496     1.0  0.64288  0.77206  0.66255  1.0000
  H   H2662     1.0  0.46283  0.78171  0.71096  1.0000
  H   H2663     1.0  0.59173  0.84983  0.67533  1.0000
  H   H2664     1.0  0.34499  0.61154  0.53264  1.0000
  H   H2665     1.0  0.64626  0.81591  0.66555  1.0000
  H   H2666     1.0  0.35216  0.79917  0.64484  1.0000
  C   C1497     1.0  0.62210  0.85344  0.66905  1.0000
  H   H2667     1.0  0.65105  0.86970  0.62470  1.0000
  H   H2668     1.0  0.34168  0.77464  0.67886  1.0000
  C   C1498     1.0  0.49063  0.87301  0.69574  1.0000
  C   C1499     1.0  0.59965  0.71384  0.70903  1.0000
  C   C1500     1.0  0.45351  0.86903  0.72366  1.0000
  H   H2669     1.0  0.65733  0.82475  0.58654  1.0000
  C   C1501     1.0  0.62156  0.70688  0.69988  1.0000
  H   H2670     1.0  0.62704  0.85331  0.61011  1.0000
  C   C1502     1.0  0.58653  0.71862  0.69407  1.0000
  H   H2671     1.0  0.36161  0.65927  0.54755  1.0000
  H   H2672     1.0  0.34322  0.82509  0.69717  1.0000
  C   C1503     1.0  0.64240  0.84548  0.60586  1.0000
  H   H2673     1.0  0.61901  0.83601  0.65019  1.0000
  H   H2674     1.0  0.62307  0.69217  0.69663  1.0000
  H   H2675     1.0  0.62103  0.86058  0.63853  1.0000
  H   H2676     1.0  0.35942  0.68074  0.57046  1.0000
  H   H2677     1.0  0.35245  0.85528  0.62645  1.0000
  C   C1504     1.0  0.48944  0.86281  0.71766  1.0000
  H   H2678     1.0  0.48765  0.88922  0.69374  1.0000
  C   C1505     1.0  0.35226  0.79440  0.48722  1.0000
  H   H2679     1.0  0.52197  0.87260  0.68741  1.0000
  H   H2680     1.0  0.59770  0.72714  0.71482  1.0000
  H   H2681     1.0  0.38027  0.62937  0.49424  1.0000
  H   H2682     1.0  0.44979  0.88242  0.71234  1.0000
  H   H2683     1.0  0.63843  0.84431  0.57735  1.0000
  H   H2684     1.0  0.35497  0.81352  0.67057  1.0000
  Fe  Fe165     1.0  0.33508  0.72920  0.48630  1.0000
  H   H2685     1.0  0.65749  0.86398  0.64781  1.0000
  H   H2686     1.0  0.59085  0.73048  0.68163  1.0000
  H   H2687     1.0  0.35446  0.82131  0.62665  1.0000
  C   C1506     1.0  0.35125  0.82421  0.65723  1.0000
  H   H2688     1.0  0.33227  0.68385  0.53267  1.0000
  H   H2689     1.0  0.62428  0.73102  0.72602  1.0000
  H   H2690     1.0  0.62633  0.84068  0.68071  1.0000
  H   H2691     1.0  0.35978  0.80244  0.49327  1.0000
  C   C1507     1.0  0.64255  0.83398  0.59070  1.0000
  H   H2692     1.0  0.57102  0.72383  0.70111  1.0000
  C   C1508     1.0  0.35853  0.81249  0.64059  1.0000
  C   C1509     1.0  0.64624  0.78046  0.62732  1.0000
  H   H2693     1.0  0.33733  0.79427  0.49641  1.0000
  H   H2694     1.0  0.42108  0.85802  0.71849  1.0000
  N   N82       1.0  0.64900  0.84029  0.64084  1.0000
  H   H2695     1.0  0.63178  0.82425  0.59670  1.0000
  H   H2696     1.0  0.33865  0.78780  0.70858  1.0000
  C   C1510     1.0  0.65038  0.83144  0.62361  1.0000
  C   C1511     1.0  0.63034  0.69356  0.73190  1.0000
  H   H2697     1.0  0.32880  0.70494  0.61996  1.0000
  H   H2698     1.0  0.62950  0.86521  0.66884  1.0000
  N   N83       1.0  0.33136  0.65391  0.53321  1.0000
  H   H2699     1.0  0.41382  0.88368  0.72026  1.0000
  H   H2700     1.0  0.37996  0.50667  0.71069  1.0000
  C   C1512     1.0  0.63595  0.72669  0.71352  1.0000
  H   H2701     1.0  0.34406  0.63071  0.50342  1.0000
  H   H2702     1.0  0.63171  0.73761  0.70044  1.0000
  H   H2703     1.0  0.36055  0.77899  0.48799  1.0000
  C   C1513     1.0  0.33919  0.74248  0.56163  1.0000
  N   N84       1.0  0.63627  0.70602  0.71194  1.0000
  H   H2704     1.0  0.33389  0.51646  0.60490  1.0000
  H   H2705     1.0  0.33973  0.65560  0.49047  1.0000
  H   H2706     1.0  0.62922  0.67890  0.73034  1.0000
  H   H2707     1.0  0.33122  0.67703  0.60461  1.0000
  H   H2708     1.0  0.33908  0.88658  0.60638  1.0000
  C   C1514     1.0  0.65744  0.82471  0.65682  1.0000
  Fe  Fe166     1.0  0.43117  0.80596  0.72619  1.0000
  H   H2709     1.0  0.64458  0.76257  0.70955  1.0000
  C   C1515     1.0  0.65254  0.75105  0.71998  1.0000
  C   C1516     1.0  0.33713  0.86267  0.63178  1.0000
  H   H2710     1.0  0.51135  0.72310  0.72824  1.0000
  H   H2711     1.0  0.48536  0.89225  0.73303  1.0000
  H   H2712     1.0  0.33541  0.85599  0.67239  1.0000
  C   C1517     1.0  0.36332  0.49464  0.69806  1.0000
  C   C1518     1.0  0.36961  0.49641  0.71646  1.0000
  S   S339      1.0  0.36715  0.78792  0.73032  1.0000
  C   C1519     1.0  0.41735  0.86836  0.72859  1.0000
  C   C1520     1.0  0.32937  0.87603  0.61398  1.0000
  N   N85       1.0  0.32969  0.83373  0.66068  1.0000
  C   C1521     1.0  0.65606  0.69599  0.70192  1.0000
  N   N86       1.0  0.47078  0.86999  0.73152  1.0000
  C   C1522     1.0  0.47054  0.89088  0.73222  1.0000
  H   H2713     1.0  0.34518  0.96158  0.49091  1.0000
  C   C1523     1.0  0.65883  0.85764  0.63492  1.0000
  C   C1524     1.0  0.32789  0.83336  0.69716  1.0000
  H   H2714     1.0  0.32912  0.86720  0.60350  1.0000
  H   H2715     1.0  0.52884  0.88068  0.73280  1.0000
  H   H2716     1.0  0.37657  0.49101  0.68667  1.0000
  C   C1525     1.0  0.33475  0.93840  0.48584  1.0000
  H   H2717     1.0  0.65618  0.68028  0.70277  1.0000
  C   C1526     1.0  0.65546  0.73070  0.71564  1.0000
  H   H2718     1.0  0.65530  0.69996  0.67092  1.0000
  H   H2719     1.0  0.65799  0.72151  0.67708  1.0000
  H   H2720     1.0  0.66088  0.83174  0.66724  1.0000
  H   H2721     1.0  0.45570  0.93038  0.73473  1.0000
  Fe  Fe167     1.0  0.45819  0.88273  0.81318  1.0000
  S   S340      1.0  0.47634  0.85834  0.83158  1.0000
  S   S341      1.0  0.43292  0.87970  0.80164  1.0000
  Fe  Fe168     1.0  0.48208  0.91313  0.81156  1.0000
  S   S342      1.0  0.50217  0.89094  0.82966  1.0000
  S   S343      1.0  0.48894  0.94336  0.79785  1.0000
  Fe  Fe169     1.0  0.50192  0.87023  0.81141  1.0000
  S   S344      1.0  0.52958  0.84905  0.80163  1.0000
  Fe  Fe170     1.0  0.47485  0.88132  0.84804  1.0000
  S   S345      1.0  0.46974  0.87813  0.88060  1.0000
  S   S346      1.0  0.48394  0.89293  0.79172  1.0000
  S   S347      1.0  0.45451  0.90513  0.83134  1.0000
  H   H2722     1.0  0.41550  0.86937  0.87473  1.0000
  H   H2723     1.0  0.52549  0.97707  0.88725  1.0000
  S   S348      1.0  0.41719  0.79793  0.79875  1.0000
  H   H2724     1.0  0.61381  0.60226  0.91464  1.0000
  Fe  Fe171     1.0  0.44831  0.65231  0.82615  1.0000
  S   S349      1.0  0.42067  0.67043  0.83992  1.0000
  S   S350      1.0  0.45783  0.65285  0.79415  1.0000
  Fe  Fe172     1.0  0.45815  0.62952  0.86527  1.0000
  S   S351      1.0  0.43093  0.64576  0.88249  1.0000
  S   S352      1.0  0.47869  0.60382  0.87959  1.0000
  Fe  Fe173     1.0  0.41581  0.64201  0.86037  1.0000
  S   S353      1.0  0.38642  0.63375  0.86556  1.0000
  Fe  Fe174     1.0  0.43860  0.67240  0.86039  1.0000
  S   S354      1.0  0.43915  0.70208  0.86493  1.0000
  S   S355      1.0  0.44248  0.62383  0.84492  1.0000
  S   S356      1.0  0.46689  0.65638  0.84469  1.0000
  Fe  Fe175     1.0  0.57815  0.62598  0.83440  1.0000
  S   S357      1.0  0.59934  0.62542  0.85232  1.0000
  S   S358      1.0  0.56797  0.59792  0.83895  1.0000
  Fe  Fe176     1.0  0.58004  0.66743  0.81236  1.0000
  S   S359      1.0  0.60147  0.67079  0.82860  1.0000
  S   S360      1.0  0.56726  0.68805  0.78742  1.0000
  Fe  Fe177     1.0  0.61651  0.64015  0.82465  1.0000
  H   H2725     1.0  0.48141  0.91336  0.86742  1.0000
  Fe  Fe178     1.0  0.58258  0.65575  0.85505  1.0000
  S   S361      1.0  0.57567  0.66104  0.88556  1.0000
  S   S362      1.0  0.59676  0.63801  0.80623  1.0000
  S   S363      1.0  0.55970  0.65525  0.83936  1.0000
  Fe  Fe179     1.0  0.47571  0.72989  0.94355  1.0000
  S   S364      1.0  0.47988  0.75574  0.91916  1.0000
  S   S365      1.0  0.45933  0.70694  0.94376  1.0000
  Fe  Fe180     1.0  0.49982  0.74061  0.96739  1.0000
  S   S366      1.0  0.50634  0.76722  0.94442  1.0000
  Fe  Fe181     1.0  0.47462  0.77260  0.94262  1.0000
  S   S367      1.0  0.45331  0.80156  0.94265  1.0000
  Fe  Fe182     1.0  0.51107  0.74791  0.92282  1.0000
  S   S368      1.0  0.53274  0.74766  0.89420  1.0000
  S   S369      1.0  0.46765  0.74737  0.96711  1.0000
  S   S370      1.0  0.50737  0.72083  0.94576  1.0000
  Fe  Fe183     1.0  0.37610  0.53961  0.83706  1.0000
  H   H2726     1.0  0.35981  0.72267  0.81762  1.0000
  S   S371      1.0  0.39927  0.55114  0.84398  1.0000
  C   C1527     1.0  0.63736  0.67520  0.76524  1.0000
  H   H2727     1.0  0.40168  0.73183  0.85833  1.0000
  H   H2728     1.0  0.48197  0.76793  0.84585  1.0000
  H   H2729     1.0  0.42522  0.75281  0.93702  1.0000
  C   C1528     1.0  0.59190  0.71282  0.78382  1.0000
  C   C1529     1.0  0.36263  0.59467  0.79308  1.0000
  C   C1530     1.0  0.63600  0.53586  0.84917  1.0000
  H   H2730     1.0  0.63959  0.66056  0.76167  1.0000
  H   H2731     1.0  0.58505  0.84907  0.80121  1.0000
  H   H2732     1.0  0.63762  0.61317  0.85550  1.0000
  C   C1531     1.0  0.56414  0.68523  0.88762  1.0000
  C   C1532     1.0  0.55981  0.69950  0.87119  1.0000
  C   C1533     1.0  0.55007  0.71867  0.87331  1.0000
  C   C1534     1.0  0.54485  0.72362  0.89176  1.0000
  C   C1535     1.0  0.54944  0.70936  0.90809  1.0000
  C   C1536     1.0  0.55901  0.69016  0.90604  1.0000
  H   H2733     1.0  0.56364  0.69569  0.85695  1.0000
  H   H2734     1.0  0.54617  0.72955  0.86076  1.0000
  H   H2735     1.0  0.54594  0.71319  0.92228  1.0000
  H   H2736     1.0  0.56244  0.67916  0.91875  1.0000
  C   C1537     1.0  0.57854  0.70800  0.77571  1.0000
  H   H2737     1.0  0.59607  0.70376  0.79713  1.0000
  C   C1538     1.0  0.38856  0.60962  0.86272  1.0000
  C   C1539     1.0  0.37306  0.60441  0.85808  1.0000
  C   C1540     1.0  0.37566  0.58594  0.85339  1.0000
  C   C1541     1.0  0.39391  0.57287  0.85297  1.0000
  C   C1542     1.0  0.40896  0.57772  0.85862  1.0000
  C   C1543     1.0  0.40619  0.59587  0.86377  1.0000
  H   H2738     1.0  0.35926  0.61486  0.85753  1.0000
  H   H2739     1.0  0.36390  0.58221  0.84921  1.0000
  H   H2740     1.0  0.42295  0.56750  0.85876  1.0000
  H   H2741     1.0  0.41781  0.59926  0.86841  1.0000
  C   C1544     1.0  0.44527  0.70282  0.88675  1.0000
  C   C1545     1.0  0.45379  0.71812  0.88709  1.0000
  C   C1546     1.0  0.45857  0.71925  0.90439  1.0000
  C   C1547     1.0  0.45423  0.70550  0.92162  1.0000
  C   C1548     1.0  0.44564  0.69023  0.92127  1.0000
  C   C1549     1.0  0.44132  0.68878  0.90384  1.0000
  H   H2742     1.0  0.45688  0.72897  0.87388  1.0000
  H   H2743     1.0  0.46551  0.73080  0.90441  1.0000
  H   H2744     1.0  0.44221  0.67955  0.93456  1.0000
  H   H2745     1.0  0.43455  0.67706  0.90375  1.0000
  C   C1550     1.0  0.50354  0.60248  0.86871  1.0000
  C   C1551     1.0  0.51657  0.58420  0.87018  1.0000
  C   C1552     1.0  0.53635  0.58280  0.86081  1.0000
  C   C1553     1.0  0.54321  0.59976  0.85039  1.0000
  C   C1554     1.0  0.53026  0.61804  0.84920  1.0000
  C   C1555     1.0  0.51045  0.61941  0.85835  1.0000
  H   H2746     1.0  0.51124  0.57107  0.87827  1.0000
  H   H2747     1.0  0.54633  0.56861  0.86183  1.0000
  H   H2748     1.0  0.53534  0.63112  0.84094  1.0000
  H   H2749     1.0  0.50063  0.63360  0.85762  1.0000
  C   C1556     1.0  0.45727  0.71331  0.75436  1.0000
  C   C1557     1.0  0.44377  0.71143  0.77220  1.0000
  C   C1558     1.0  0.44403  0.69292  0.78484  1.0000
  C   C1559     1.0  0.45733  0.67630  0.77925  1.0000
  C   C1560     1.0  0.47045  0.67822  0.76124  1.0000
  C   C1561     1.0  0.47061  0.69670  0.74897  1.0000
  H   H2750     1.0  0.43329  0.72422  0.77628  1.0000
  H   H2751     1.0  0.43375  0.69145  0.79868  1.0000
  H   H2752     1.0  0.48067  0.66545  0.75683  1.0000
  Fe  Fe184     1.0  0.39514  0.78768  0.73965  1.0000
  C   C1562     1.0  0.46511  0.85621  0.89663  1.0000
  C   C1563     1.0  0.47392  0.83765  0.89214  1.0000
  C   C1564     1.0  0.47082  0.82051  0.90628  1.0000
  C   C1565     1.0  0.45842  0.82212  0.92453  1.0000
  C   C1566     1.0  0.44927  0.84069  0.92858  1.0000
  C   C1567     1.0  0.45288  0.85763  0.91485  1.0000
  H   H2753     1.0  0.48344  0.83656  0.87806  1.0000
  H   H2754     1.0  0.47792  0.80614  0.90312  1.0000
  H   H2755     1.0  0.43963  0.84199  0.94260  1.0000
  H   H2756     1.0  0.44607  0.87191  0.91838  1.0000
  C   C1568     1.0  0.48547  0.96070  0.81244  1.0000
  C   C1569     1.0  0.46919  0.96281  0.82773  1.0000
  H   H2757     1.0  0.53305  0.60746  0.76710  1.0000
  H   H2758     1.0  0.36132  0.50659  0.89170  1.0000
  C   C1570     1.0  0.50194  0.62341  0.74862  1.0000
  H   H2759     1.0  0.58658  0.56943  0.90042  1.0000
  H   H2760     1.0  0.45855  0.95370  0.83066  1.0000
  H   H2761     1.0  0.51246  0.61149  0.74189  1.0000
  C   C1571     1.0  0.48907  0.85419  0.76012  1.0000
  H   H2762     1.0  0.53155  0.74506  0.74654  1.0000
  S   S372      1.0  0.37697  0.53755  0.80636  1.0000
  C   C1572     1.0  0.42974  0.85665  0.80020  1.0000
  C   C1573     1.0  0.41605  0.85613  0.78969  1.0000
  C   C1574     1.0  0.41287  0.83812  0.78835  1.0000
  C   C1575     1.0  0.42311  0.82046  0.79788  1.0000
  C   C1576     1.0  0.43708  0.82092  0.80814  1.0000
  C   C1577     1.0  0.44035  0.83896  0.80937  1.0000
  H   H2763     1.0  0.40767  0.86975  0.78272  1.0000
  H   H2764     1.0  0.42600  0.86041  0.85238  1.0000
  H   H2765     1.0  0.44524  0.80730  0.81530  1.0000
  H   H2766     1.0  0.45086  0.83920  0.81758  1.0000
  C   C1578     1.0  0.48578  0.84395  0.78163  1.0000
  C   C1579     1.0  0.63967  0.56502  0.82314  1.0000
  H   H2767     1.0  0.61728  0.58466  0.80665  1.0000
  C   C1580     1.0  0.51528  0.92058  0.86518  1.0000
  Fe  Fe185     1.0  0.34390  0.51657  0.85418  1.0000
  H   H2768     1.0  0.48637  0.80846  0.76304  1.0000
  C   C1581     1.0  0.44234  0.93317  0.87747  1.0000
  H   H2769     1.0  0.32960  0.77549  0.85070  1.0000
  C   C1582     1.0  0.36714  0.74018  0.78917  1.0000
  H   H2770     1.0  0.50158  0.98430  0.88109  1.0000
  H   H2771     1.0  0.56302  0.71615  0.75202  1.0000
  H   H2772     1.0  0.47789  0.93906  0.86008  1.0000
  H   H2773     1.0  0.65945  0.59145  0.79553  1.0000
  H   H2774     1.0  0.64943  0.50896  0.88128  1.0000
  C   C1583     1.0  0.61737  0.68792  0.87243  1.0000
  H   H2775     1.0  0.51163  0.97133  0.79658  1.0000
  H   H2776     1.0  0.48685  0.94791  0.89910  1.0000
  H   H2777     1.0  0.60133  0.53204  0.79652  1.0000
  H   H2778     1.0  0.52286  0.95614  0.86660  1.0000
  H   H2779     1.0  0.45755  0.94210  0.89468  1.0000
  C   C1584     1.0  0.55485  0.83515  0.74886  1.0000
  H   H2780     1.0  0.54625  0.93413  0.83601  1.0000
  H   H2781     1.0  0.48690  0.62341  0.74730  1.0000
  H   H2782     1.0  0.62030  0.64527  0.87260  1.0000
  H   H2783     1.0  0.44044  0.90126  0.74752  1.0000
  H   H2784     1.0  0.41882  0.97187  0.81155  1.0000
  C   C1585     1.0  0.43261  0.64487  0.74656  1.0000
  C   C1586     1.0  0.54681  0.85143  0.73585  1.0000
  H   H2785     1.0  0.38029  0.72962  0.78338  1.0000
  H   H2786     1.0  0.59973  0.54325  0.84441  1.0000
  H   H2787     1.0  0.62539  0.71644  0.86604  1.0000
  C   C1587     1.0  0.59673  0.53881  0.80961  1.0000
  H   H2788     1.0  0.52493  0.77437  0.76944  1.0000
  C   C1588     1.0  0.41750  0.98422  0.81871  1.0000
  H   H2789     1.0  0.52819  0.63328  0.76262  1.0000
  H   H2790     1.0  0.59020  0.55788  0.87007  1.0000
  H   H2791     1.0  0.48100  0.69814  0.73517  1.0000
  H   H2792     1.0  0.60005  0.62705  0.91495  1.0000
  H   H2793     1.0  0.66091  0.64016  0.89980  1.0000
  H   H2794     1.0  0.39577  0.51589  0.76438  1.0000
  H   H2795     1.0  0.60445  0.61694  0.89341  1.0000
  H   H2796     1.0  0.54465  0.74128  0.82629  1.0000
  N   N87       1.0  0.50568  0.65612  0.91391  1.0000
  C   C1589     1.0  0.50125  0.66995  0.89520  1.0000
  C   C1590     1.0  0.48911  0.64532  0.92363  1.0000
  C   C1591     1.0  0.50679  0.66834  0.92763  1.0000
  C   C1592     1.0  0.52519  0.64196  0.91064  1.0000
  C   C1593     1.0  0.52839  0.62918  0.89546  1.0000
  C   C1594     1.0  0.51656  0.68263  0.88382  1.0000
  C   C1595     1.0  0.50855  0.65701  0.94884  1.0000
  C   C1596     1.0  0.47834  0.63999  0.91023  1.0000
  C   C1597     1.0  0.46403  0.62689  0.92226  1.0000
  C   C1598     1.0  0.54945  0.61715  0.89243  1.0000
  C   C1599     1.0  0.51088  0.69509  0.86469  1.0000
  C   C1600     1.0  0.50886  0.67078  0.96160  1.0000
  H   H2797     1.0  0.48682  0.68019  0.89840  1.0000
  H   H2798     1.0  0.49956  0.66188  0.88477  1.0000
  H   H2799     1.0  0.49436  0.63155  0.93386  1.0000
  H   H2800     1.0  0.47718  0.65441  0.93284  1.0000
  H   H2801     1.0  0.49363  0.68056  0.92869  1.0000
  H   H2802     1.0  0.51965  0.67551  0.92188  1.0000
  H   H2803     1.0  0.53746  0.64993  0.90652  1.0000
  H   H2804     1.0  0.52750  0.63138  0.92448  1.0000
  H   H2805     1.0  0.52587  0.63827  0.88106  1.0000
  H   H2806     1.0  0.51859  0.61851  0.90080  1.0000
  H   H2807     1.0  0.51752  0.69290  0.89248  1.0000
  H   H2808     1.0  0.53126  0.67319  0.88004  1.0000
  H   H2809     1.0  0.52234  0.64569  0.94886  1.0000
  H   H2810     1.0  0.49599  0.64974  0.95609  1.0000
  H   H2811     1.0  0.46965  0.65351  0.90249  1.0000
  H   H2812     1.0  0.48857  0.63232  0.89899  1.0000
  H   H2813     1.0  0.45600  0.62381  0.91253  1.0000
  H   H2814     1.0  0.47208  0.61263  0.92954  1.0000
  H   H2815     1.0  0.45308  0.63428  0.93345  1.0000
  H   H2816     1.0  0.55111  0.60692  0.88273  1.0000
  H   H2817     1.0  0.55999  0.62697  0.88549  1.0000
  H   H2818     1.0  0.55312  0.60830  0.90657  1.0000
  H   H2819     1.0  0.49632  0.70509  0.86770  1.0000
  H   H2820     1.0  0.52197  0.70414  0.85687  1.0000
  H   H2821     1.0  0.51032  0.68554  0.85504  1.0000
  H   H2822     1.0  0.36851  0.67700  0.80874  1.0000
  C   C1601     1.0  0.57322  0.71988  0.75845  1.0000
  H   H2823     1.0  0.36823  0.50274  0.91481  1.0000
  S   S373      1.0  0.34325  0.54893  0.84490  1.0000
  N   N88       1.0  0.40175  0.62201  0.79665  1.0000
  C   C1602     1.0  0.41808  0.61351  0.80794  1.0000
  C   C1603     1.0  0.38814  0.63900  0.80511  1.0000
  C   C1604     1.0  0.39017  0.60625  0.79997  1.0000
  C   C1605     1.0  0.40919  0.62824  0.77489  1.0000
  C   C1606     1.0  0.42866  0.63587  0.76842  1.0000
  C   C1607     1.0  0.43101  0.59343  0.80403  1.0000
  N   N89       1.0  0.38167  0.73388  0.83965  1.0000
  C   C1608     1.0  0.39698  0.65689  0.80361  1.0000
  H   H2824     1.0  0.61749  0.71125  0.84630  1.0000
  C   C1609     1.0  0.44990  0.58859  0.81179  1.0000
  C   C1610     1.0  0.60870  0.55240  0.83249  1.0000
  H   H2825     1.0  0.41188  0.61130  0.82393  1.0000
  H   H2826     1.0  0.42786  0.62391  0.80542  1.0000
  H   H2827     1.0  0.38182  0.63372  0.82086  1.0000
  H   H2828     1.0  0.38628  0.59996  0.81583  1.0000
  H   H2829     1.0  0.39930  0.59371  0.79320  1.0000
  H   H2830     1.0  0.41180  0.61580  0.76739  1.0000
  H   H2831     1.0  0.64044  0.61416  0.88952  1.0000
  H   H2832     1.0  0.44132  0.62366  0.77129  1.0000
  H   H2833     1.0  0.42855  0.64716  0.77629  1.0000
  H   H2834     1.0  0.42292  0.58148  0.81165  1.0000
  H   H2835     1.0  0.43492  0.59327  0.78818  1.0000
  H   H2836     1.0  0.41146  0.77767  0.93707  1.0000
  H   H2837     1.0  0.41037  0.65255  0.80991  1.0000
  N   N90       1.0  0.64413  0.65538  0.87735  1.0000
  H   H2838     1.0  0.64595  0.54512  0.87141  1.0000
  C   C1611     1.0  0.63082  0.58504  0.81096  1.0000
  H   H2839     1.0  0.51582  0.87575  0.92051  1.0000
  H   H2840     1.0  0.45874  0.59995  0.80444  1.0000
  H   H2841     1.0  0.44638  0.58778  0.82784  1.0000
  H   H2842     1.0  0.45871  0.57410  0.80892  1.0000
  H   H2843     1.0  0.51045  0.94880  0.84414  1.0000
  H   H2844     1.0  0.62710  0.65949  0.91664  1.0000
  N   N91       1.0  0.52529  0.61945  0.79333  1.0000
  C   C1612     1.0  0.51340  0.63767  0.80076  1.0000
  C   C1613     1.0  0.51943  0.60132  0.80737  1.0000
  C   C1614     1.0  0.54671  0.61845  0.79260  1.0000
  C   C1615     1.0  0.52322  0.62025  0.77284  1.0000
  C   C1616     1.0  0.50264  0.62019  0.77022  1.0000
  C   C1617     1.0  0.51895  0.65752  0.78938  1.0000
  C   C1618     1.0  0.56103  0.59845  0.79011  1.0000
  C   C1619     1.0  0.49757  0.60314  0.81822  1.0000
  C   C1620     1.0  0.49328  0.58309  0.82934  1.0000
  C   C1621     1.0  0.34538  0.74508  0.85760  1.0000
  C   C1622     1.0  0.50592  0.67434  0.79904  1.0000
  H   H2845     1.0  0.62203  0.55171  0.80151  1.0000
  H   H2846     1.0  0.51451  0.63605  0.81619  1.0000
  H   H2847     1.0  0.49754  0.63947  0.80122  1.0000
  H   H2848     1.0  0.52356  0.58872  0.79982  1.0000
  H   H2849     1.0  0.52771  0.59669  0.81945  1.0000
  H   H2850     1.0  0.54850  0.62183  0.80619  1.0000
  H   H2851     1.0  0.55230  0.62994  0.78038  1.0000
  H   H2852     1.0  0.64639  0.67369  0.77615  1.0000
  C   C1623     1.0  0.51494  0.88922  0.92579  1.0000
  H   H2853     1.0  0.49157  0.63204  0.77617  1.0000
  H   H2854     1.0  0.49863  0.60581  0.77760  1.0000
  H   H2855     1.0  0.53437  0.65753  0.78935  1.0000
  H   H2856     1.0  0.51691  0.66080  0.77407  1.0000
  H   H2857     1.0  0.48755  0.95843  0.87407  1.0000
  H   H2858     1.0  0.55901  0.58727  0.80389  1.0000
  H   H2859     1.0  0.49425  0.61257  0.82913  1.0000
  H   H2860     1.0  0.48716  0.60983  0.80825  1.0000
  H   H2861     1.0  0.49436  0.57364  0.81899  1.0000
  H   H2862     1.0  0.50371  0.57562  0.83927  1.0000
  H   H2863     1.0  0.47821  0.58504  0.83845  1.0000
  H   H2864     1.0  0.38590  0.81526  0.83575  1.0000
  H   H2865     1.0  0.44381  0.92082  0.87026  1.0000
  C   C1624     1.0  0.38143  0.70474  0.86953  1.0000
  H   H2866     1.0  0.49032  0.67606  0.79827  1.0000
  H   H2867     1.0  0.50710  0.67159  0.81460  1.0000
  H   H2868     1.0  0.51070  0.68827  0.79141  1.0000
  H   H2869     1.0  0.65919  0.68475  0.74084  1.0000
  H   H2870     1.0  0.36890  0.75544  0.78216  1.0000
  C   C1625     1.0  0.65193  0.53626  0.85992  1.0000
  N   N92       1.0  0.51233  0.74859  0.77440  1.0000
  C   C1626     1.0  0.51727  0.74153  0.75534  1.0000
  H   H2871     1.0  0.34765  0.52743  0.78588  1.0000
  C   C1627     1.0  0.49397  0.74279  0.78754  1.0000
  C   C1628     1.0  0.47518  0.75073  0.77904  1.0000
  C   C1629     1.0  0.51819  0.71943  0.75688  1.0000
  H   H2872     1.0  0.43765  0.77179  0.93594  1.0000
  C   C1630     1.0  0.45788  0.74283  0.79302  1.0000
  H   H2873     1.0  0.52173  0.67786  0.95553  1.0000
  C   C1631     1.0  0.36391  0.73715  0.81141  1.0000
  H   H2874     1.0  0.50635  0.74935  0.74604  1.0000
  H   H2875     1.0  0.53164  0.72272  0.78775  1.0000
  H   H2876     1.0  0.49614  0.72651  0.79227  1.0000
  H   H2877     1.0  0.49057  0.74832  0.80131  1.0000
  H   H2878     1.0  0.47705  0.74657  0.76484  1.0000
  H   H2879     1.0  0.47125  0.76695  0.77714  1.0000
  H   H2880     1.0  0.58710  0.58939  0.87948  1.0000
  H   H2881     1.0  0.50378  0.71558  0.76434  1.0000
  H   H2882     1.0  0.51607  0.73714  0.81616  1.0000
  H   H2883     1.0  0.38874  0.68496  0.81254  1.0000
  H   H2884     1.0  0.49033  0.77941  0.74958  1.0000
  H   H2885     1.0  0.46086  0.72653  0.79552  1.0000
  H   H2886     1.0  0.45508  0.74736  0.80719  1.0000
  H   H2887     1.0  0.44450  0.74896  0.78667  1.0000
  C   C1632     1.0  0.53476  0.86787  0.74289  1.0000
  H   H2888     1.0  0.51683  0.90496  0.86437  1.0000
  H   H2889     1.0  0.59230  0.58596  0.78372  1.0000
  H   H2890     1.0  0.37576  0.51168  0.74304  1.0000
  H   H2891     1.0  0.52561  0.94208  0.89038  1.0000
  H   H2892     1.0  0.41023  0.51314  0.74047  1.0000
  H   H2893     1.0  0.50487  0.92875  0.83762  1.0000
  H   H2894     1.0  0.42836  0.93422  0.88845  1.0000
  C   C1633     1.0  0.64535  0.59111  0.79219  1.0000
  H   H2895     1.0  0.61446  0.65467  0.89412  1.0000
  C   C1634     1.0  0.64068  0.66531  0.91033  1.0000
  C   C1635     1.0  0.63004  0.62480  0.89791  1.0000
  H   H2896     1.0  0.39715  0.76690  0.83437  1.0000
  H   H2897     1.0  0.50458  0.97029  0.90524  1.0000
  C   C1636     1.0  0.51549  0.90696  0.90875  1.0000
  H   H2898     1.0  0.61118  0.54714  0.88144  1.0000
  C   C1637     1.0  0.65876  0.64346  0.86346  1.0000
  C   C1638     1.0  0.38227  0.67199  0.81452  1.0000
  C   C1639     1.0  0.61680  0.56909  0.85403  1.0000
  S   S374      1.0  0.45830  0.73603  0.73839  1.0000
  C   C1640     1.0  0.47103  0.85633  0.75121  1.0000
  H   H2899     1.0  0.37548  0.64515  0.79766  1.0000
  H   H2900     1.0  0.47329  0.91958  0.75059  1.0000
  H   H2901     1.0  0.51498  0.91975  0.91489  1.0000
  H   H2902     1.0  0.52380  0.69869  0.73796  1.0000
  S   S375      1.0  0.60286  0.76334  0.74717  1.0000
  H   H2903     1.0  0.35942  0.62204  0.80109  1.0000
  H   H2904     1.0  0.47475  0.85391  0.79042  1.0000
  H   H2905     1.0  0.42976  0.87586  0.74895  1.0000
  H   H2906     1.0  0.39739  0.70009  0.86960  1.0000
  C   C1641     1.0  0.58028  0.73716  0.74996  1.0000
  H   H2907     1.0  0.55874  0.59255  0.77836  1.0000
  C   C1642     1.0  0.51529  0.95329  0.88217  1.0000
  C   C1643     1.0  0.40901  0.75373  0.83264  1.0000
  S   S376      1.0  0.40647  0.76695  0.76562  1.0000
  C   C1644     1.0  0.42571  0.75516  0.84139  1.0000
  H   H2908     1.0  0.47792  0.75277  0.87021  1.0000
  H   H2909     1.0  0.39523  0.72807  0.81076  1.0000
  H   H2910     1.0  0.41303  0.72217  0.83690  1.0000
  H   H2911     1.0  0.41469  0.75417  0.81674  1.0000
  H   H2912     1.0  0.49739  0.76610  0.86272  1.0000
  H   H2913     1.0  0.60660  0.68197  0.86830  1.0000
  H   H2914     1.0  0.44166  0.94710  0.86639  1.0000
  H   H2915     1.0  0.43779  0.74199  0.84048  1.0000
  H   H2916     1.0  0.43167  0.76834  0.83316  1.0000
  H   H2917     1.0  0.42029  0.75635  0.85697  1.0000
  N   N93       1.0  0.55192  0.80164  0.84782  1.0000
  C   C1645     1.0  0.56926  0.78598  0.84159  1.0000
  C   C1646     1.0  0.55733  0.82170  0.84086  1.0000
  C   C1647     1.0  0.54712  0.79764  0.86991  1.0000
  C   C1648     1.0  0.53381  0.80143  0.84089  1.0000
  C   C1649     1.0  0.53696  0.79709  0.82028  1.0000
  C   C1650     1.0  0.56666  0.76444  0.84953  1.0000
  C   C1651     1.0  0.53025  0.81307  0.87912  1.0000
  C   C1652     1.0  0.57192  0.82551  0.82101  1.0000
  C   C1653     1.0  0.57511  0.84659  0.81576  1.0000
  C   C1654     1.0  0.51734  0.79959  0.81443  1.0000
  C   C1655     1.0  0.58155  0.75062  0.83722  1.0000
  C   C1656     1.0  0.52562  0.80688  0.90140  1.0000
  H   H2918     1.0  0.58241  0.78713  0.84636  1.0000
  H   H2919     1.0  0.57333  0.78834  0.82537  1.0000
  H   H2920     1.0  0.54392  0.83364  0.84020  1.0000
  H   H2921     1.0  0.56442  0.82452  0.85162  1.0000
  H   H2922     1.0  0.56040  0.79637  0.87577  1.0000
  H   H2923     1.0  0.54270  0.78328  0.87587  1.0000
  H   H2924     1.0  0.52578  0.79029  0.85115  1.0000
  H   H2925     1.0  0.52312  0.81573  0.84118  1.0000
  H   H2926     1.0  0.54514  0.78183  0.81966  1.0000
  H   H2927     1.0  0.54529  0.80715  0.80931  1.0000
  H   H2928     1.0  0.56899  0.75946  0.86482  1.0000
  H   H2929     1.0  0.55172  0.76294  0.84959  1.0000
  H   H2930     1.0  0.51657  0.81469  0.87395  1.0000
  H   H2931     1.0  0.53424  0.82767  0.87534  1.0000
  H   H2932     1.0  0.58654  0.81566  0.82173  1.0000
  H   H2933     1.0  0.56663  0.82312  0.80895  1.0000
  H   H2934     1.0  0.56099  0.85736  0.81498  1.0000
  H   H2935     1.0  0.58189  0.84925  0.82677  1.0000
  H   H2936     1.0  0.50902  0.78858  0.82428  1.0000
  H   H2937     1.0  0.50833  0.81458  0.81513  1.0000
  H   H2938     1.0  0.52004  0.79758  0.79915  1.0000
  H   H2939     1.0  0.57953  0.73530  0.84320  1.0000
  H   H2940     1.0  0.57946  0.75473  0.82185  1.0000
  H   H2941     1.0  0.59677  0.75117  0.83740  1.0000
  H   H2942     1.0  0.51371  0.81823  0.90767  1.0000
  H   H2943     1.0  0.52056  0.79277  0.90582  1.0000
  H   H2944     1.0  0.53878  0.80514  0.90754  1.0000
  N   N94       1.0  0.43135  0.80047  0.87771  1.0000
  C   C1657     1.0  0.43050  0.79441  0.89952  1.0000
  C   C1658     1.0  0.43629  0.82056  0.87054  1.0000
  C   C1659     1.0  0.41162  0.80047  0.87401  1.0000
  C   C1660     1.0  0.44693  0.78628  0.86688  1.0000
  C   C1661     1.0  0.46827  0.78426  0.86922  1.0000
  C   C1662     1.0  0.42927  0.77262  0.90872  1.0000
  C   C1663     1.0  0.40832  0.80931  0.85284  1.0000
  C   C1664     1.0  0.42086  0.83761  0.87860  1.0000
  C   C1665     1.0  0.42624  0.85743  0.86822  1.0000
  C   C1666     1.0  0.48217  0.76669  0.86146  1.0000
  C   C1667     1.0  0.42565  0.76858  0.93103  1.0000
  H   H2945     1.0  0.41758  0.80372  0.90741  1.0000
  H   H2946     1.0  0.44331  0.79729  0.90347  1.0000
  H   H2947     1.0  0.45018  0.82055  0.87464  1.0000
  H   H2948     1.0  0.43934  0.82447  0.85425  1.0000
  H   H2949     1.0  0.39946  0.80822  0.88412  1.0000
  H   H2950     1.0  0.40926  0.78520  0.87737  1.0000
  H   H2951     1.0  0.44328  0.77146  0.87099  1.0000
  H   H2952     1.0  0.44735  0.79090  0.85089  1.0000
  H   H2953     1.0  0.46913  0.78235  0.88468  1.0000
  H   H2954     1.0  0.47386  0.79765  0.86086  1.0000
  H   H2955     1.0  0.41719  0.76851  0.90483  1.0000
  H   H2956     1.0  0.44321  0.76270  0.90359  1.0000
  H   H2957     1.0  0.41861  0.80039  0.84263  1.0000
  H   H2958     1.0  0.41029  0.82471  0.84789  1.0000
  H   H2959     1.0  0.40599  0.83829  0.87645  1.0000
  H   H2960     1.0  0.42025  0.83580  0.89448  1.0000
  H   H2961     1.0  0.44107  0.85771  0.86985  1.0000
  S   S377      1.0  0.44510  0.78708  0.75071  1.0000
  H   H2962     1.0  0.45411  0.97818  0.85114  1.0000
  H   H2963     1.0  0.34173  0.50523  0.76864  1.0000
  H   H2964     1.0  0.55133  0.72103  0.81385  1.0000
  C   C1668     1.0  0.40162  0.73439  0.84246  1.0000
  H   H2965     1.0  0.38508  0.75334  0.81105  1.0000
  C   C1669     1.0  0.61089  0.61736  0.90567  1.0000
  Fe  Fe186     1.0  0.41537  0.79334  0.76953  1.0000
  H   H2966     1.0  0.38492  0.79409  0.85550  1.0000
  H   H2967     1.0  0.40198  0.83792  0.78053  1.0000
  H   H2968     1.0  0.62865  0.57374  0.85787  1.0000
  C   C1670     1.0  0.52299  0.71460  0.73655  1.0000
  H   H2969     1.0  0.60857  0.57919  0.89041  1.0000
  H   H2970     1.0  0.47036  0.84137  0.75016  1.0000
  H   H2971     1.0  0.37495  0.71578  0.87891  1.0000
  H   H2972     1.0  0.40047  0.66448  0.78810  1.0000
  H   H2973     1.0  0.39769  0.63976  0.76827  1.0000
  C   C1671     1.0  0.38247  0.73826  0.81786  1.0000
  H   H2974     1.0  0.38837  0.70297  0.83909  1.0000
  C   C1672     1.0  0.37832  0.71327  0.84823  1.0000
  H   H2975     1.0  0.37330  0.62065  0.77662  1.0000
  H   H2976     1.0  0.49205  0.86874  0.75923  1.0000
  H   H2977     1.0  0.63917  0.60608  0.78451  1.0000
  C   C1673     1.0  0.45956  0.92954  0.88761  1.0000
  C   C1674     1.0  0.49768  0.91101  0.89894  1.0000
  C   C1675     1.0  0.51050  0.77068  0.77055  1.0000
  N   N95       1.0  0.49743  0.92659  0.88039  1.0000
  H   H2978     1.0  0.62167  0.67989  0.77204  1.0000
  N   N96       1.0  0.62531  0.55560  0.83971  1.0000
  Fe  Fe187     1.0  0.34412  0.54413  0.81508  1.0000
  H   H2979     1.0  0.55634  0.82209  0.77876  1.0000
  C   C1676     1.0  0.38759  0.80928  0.85118  1.0000
  H   H2980     1.0  0.37647  0.81867  0.86057  1.0000
  C   C1677     1.0  0.37087  0.61255  0.79205  1.0000
  H   H2981     1.0  0.50053  0.77684  0.78310  1.0000
  H   H2982     1.0  0.49968  0.84036  0.78690  1.0000
  H   H2983     1.0  0.59826  0.56649  0.82872  1.0000
  C   C1678     1.0  0.58245  0.60043  0.78518  1.0000
  H   H2984     1.0  0.36343  0.71208  0.84773  1.0000
  C   C1679     1.0  0.60331  0.56088  0.87323  1.0000
  C   C1680     1.0  0.61474  0.54235  0.81464  1.0000
  H   H2985     1.0  0.35986  0.58619  0.80838  1.0000
  H   H2986     1.0  0.65136  0.56799  0.82883  1.0000
  H   H2987     1.0  0.53451  0.93772  0.81573  1.0000
  H   H2988     1.0  0.35146  0.74898  0.81586  1.0000
  H   H2989     1.0  0.62718  0.59669  0.81960  1.0000
  H   H2990     1.0  0.48465  0.91497  0.91044  1.0000
  C   C1681     1.0  0.37247  0.68662  0.87875  1.0000
  H   H2991     1.0  0.52899  0.92102  0.86920  1.0000
  H   H2992     1.0  0.37108  0.75170  0.86187  1.0000
  C   C1682     1.0  0.36637  0.74925  0.84929  1.0000
  H   H2993     1.0  0.36505  0.76376  0.83891  1.0000
  H   H2994     1.0  0.65317  0.58350  0.87670  1.0000
  C   C1683     1.0  0.51521  0.93288  0.84414  1.0000
  C   C1684     1.0  0.62653  0.64582  0.88504  1.0000
  C   C1685     1.0  0.51142  0.97238  0.88942  1.0000
  C   C1686     1.0  0.49915  0.80492  0.75123  1.0000
  H   H2995     1.0  0.45785  0.89060  0.76352  1.0000
  C   C1687     1.0  0.61498  0.70959  0.86242  1.0000
  Fe  Fe188     1.0  0.43540  0.76264  0.74469  1.0000
  H   H2996     1.0  0.60990  0.73348  0.78117  1.0000
  C   C1688     1.0  0.49581  0.94672  0.88424  1.0000
  H   H2997     1.0  0.50120  0.89175  0.93694  1.0000
  C   C1689     1.0  0.52918  0.73900  0.78484  1.0000
  H   H2998     1.0  0.33970  0.74054  0.84697  1.0000
  C   C1690     1.0  0.54654  0.73727  0.81198  1.0000
  H   H2999     1.0  0.52966  0.70985  0.76481  1.0000
  H   H3000     1.0  0.35415  0.73790  0.78510  1.0000
  H   H3001     1.0  0.64767  0.55473  0.81317  1.0000
  H   H3002     1.0  0.37876  0.66559  0.83042  1.0000
  C   C1691     1.0  0.52713  0.74435  0.80489  1.0000
  H   H3003     1.0  0.55816  0.74428  0.80138  1.0000
  H   H3004     1.0  0.50231  0.84535  0.75221  1.0000
  C   C1692     1.0  0.53719  0.85082  0.77619  1.0000
  H   H3005     1.0  0.52260  0.76042  0.80406  1.0000
  H   H3006     1.0  0.58609  0.55290  0.80635  1.0000
  C   C1693     1.0  0.59960  0.72972  0.77487  1.0000
  C   C1694     1.0  0.63839  0.67609  0.86579  1.0000
  C   C1695     1.0  0.47952  0.92694  0.87292  1.0000
  H   H3007     1.0  0.62546  0.52731  0.85967  1.0000
  H   H3008     1.0  0.37866  0.67527  0.86967  1.0000
  H   H3009     1.0  0.54291  0.74301  0.77530  1.0000
  H   H3010     1.0  0.52069  0.88025  0.76841  1.0000
  H   H3011     1.0  0.50550  0.63783  0.74052  1.0000
  H   H3012     1.0  0.64361  0.52676  0.83801  1.0000
  H   H3013     1.0  0.63588  0.62457  0.91078  1.0000
  H   H3014     1.0  0.62490  0.52793  0.81763  1.0000
  C   C1696     1.0  0.48049  0.98847  0.83561  1.0000
  H   H3015     1.0  0.37298  0.58487  0.78363  1.0000
  H   H3016     1.0  0.52966  0.90373  0.89845  1.0000
  S   S378      1.0  0.40177  0.81462  0.74530  1.0000
  C   C1697     1.0  0.65150  0.66192  0.92697  1.0000
  C   C1698     1.0  0.59600  0.57568  0.88668  1.0000
  C   C1699     1.0  0.50367  0.78301  0.75152  1.0000
  C   C1700     1.0  0.49670  0.98655  0.82015  1.0000
  H   H3017     1.0  0.34849  0.59954  0.78797  1.0000
  C   C1701     1.0  0.59357  0.74204  0.75808  1.0000
  S   S379      1.0  0.37668  0.50748  0.84880  1.0000
  H   H3018     1.0  0.34535  0.73309  0.87082  1.0000
  S   S380      1.0  0.64914  0.63082  0.81470  1.0000
  C   C1702     1.0  0.55011  0.83486  0.76896  1.0000
  C   C1703     1.0  0.65115  0.60426  0.84944  1.0000
  H   H3019     1.0  0.45871  0.91597  0.89909  1.0000
  S   S381      1.0  0.34177  0.51242  0.82526  1.0000
  C   C1704     1.0  0.52999  0.86757  0.76307  1.0000
  H   H3020     1.0  0.45769  0.86081  0.76214  1.0000
  H   H3021     1.0  0.52763  0.88675  0.93286  1.0000
  C   C1705     1.0  0.38537  0.49856  0.75021  1.0000
  H   H3022     1.0  0.61335  0.68711  0.88842  1.0000
  C   C1706     1.0  0.43436  0.86571  0.73872  1.0000
  H   H3023     1.0  0.56478  0.82273  0.74346  1.0000
  H   H3024     1.0  0.48065  0.83014  0.78388  1.0000
  H   H3025     1.0  0.51561  0.78027  0.73874  1.0000
  H   H3026     1.0  0.65164  0.64250  0.85181  1.0000
  H   H3027     1.0  0.58937  0.52868  0.82196  1.0000
  H   H3028     1.0  0.59979  0.71741  0.86769  1.0000
  H   H3029     1.0  0.51208  0.80943  0.75308  1.0000
  H   H3030     1.0  0.61551  0.70035  0.73935  1.0000
  H   H3031     1.0  0.63671  0.68143  0.90496  1.0000
  Fe  Fe189     1.0  0.37462  0.50610  0.81885  1.0000
  H   H3032     1.0  0.35626  0.69057  0.88026  1.0000
  H   H3033     1.0  0.60785  0.58299  0.84712  1.0000
  H   H3034     1.0  0.49657  0.89683  0.89611  1.0000
  H   H3035     1.0  0.58551  0.61108  0.77118  1.0000
  H   H3036     1.0  0.58580  0.60546  0.79700  1.0000
  C   C1707     1.0  0.46672  0.97665  0.83927  1.0000
  C   C1708     1.0  0.49906  0.97281  0.80849  1.0000
  H   H3037     1.0  0.49509  0.68222  0.96261  1.0000
  H   H3038     1.0  0.44755  0.92608  0.76097  1.0000
  H   H3039     1.0  0.43663  0.85042  0.74746  1.0000
  C   C1709     1.0  0.53543  0.92923  0.83080  1.0000
  H   H3040     1.0  0.54052  0.91339  0.83026  1.0000
  H   H3041     1.0  0.42076  0.65780  0.74302  1.0000
  H   H3042     1.0  0.38647  0.49563  0.89419  1.0000
  H   H3043     1.0  0.49539  0.81318  0.73696  1.0000
  H   H3044     1.0  0.51002  0.66233  0.97661  1.0000
  H   H3045     1.0  0.42451  0.97832  0.83166  1.0000
  H   H3046     1.0  0.37593  0.68021  0.89351  1.0000
  H   H3047     1.0  0.44674  0.64988  0.74244  1.0000
  C   C1710     1.0  0.33278  0.51974  0.76770  1.0000
  H   H3048     1.0  0.63923  0.67592  0.85018  1.0000
  C   C1711     1.0  0.45570  0.89968  0.74902  1.0000
  C   C1712     1.0  0.45828  0.92019  0.74870  1.0000
  C   C1713     1.0  0.33568  0.53215  0.77819  1.0000
  C   C1714     1.0  0.40200  0.50549  0.75425  1.0000
  H   H3049     1.0  0.65538  0.64598  0.93338  1.0000
  H   H3050     1.0  0.43362  0.63386  0.73784  1.0000
  H   H3051     1.0  0.64907  0.68503  0.86533  1.0000
  H   H3052     1.0  0.40413  0.86523  0.73976  1.0000
  C   C1715     1.0  0.65389  0.65542  0.89348  1.0000
  C   C1716     1.0  0.66081  0.51553  0.86986  1.0000
  H   H3053     1.0  0.37669  0.49251  0.76456  1.0000
  H   H3054     1.0  0.64187  0.66951  0.93868  1.0000
  C   C1717     1.0  0.66011  0.58760  0.86152  1.0000
  C   C1718     1.0  0.37081  0.49647  0.90162  1.0000
  H   H3055     1.0  0.64821  0.58071  0.78230  1.0000
  C   C1719     1.0  0.66012  0.60970  0.82985  1.0000
  C   C1720     1.0  0.33084  0.76322  0.86361  1.0000
  H   H3056     1.0  0.64182  0.70424  0.75157  1.0000
  C   C1721     1.0  0.64351  0.69027  0.74686  1.0000
  H   H3057     1.0  0.33560  0.76800  0.87480  1.0000
  H   H3058     1.0  0.41227  0.49285  0.76128  1.0000
  H   H3059     1.0  0.57532  0.74675  0.73719  1.0000
  H   H3060     1.0  0.64418  0.75139  0.73513  1.0000
  C   C1722     1.0  0.88130  0.38179  0.05549  1.0000
  H   H3061     1.0  0.81775  0.29459  0.21977  1.0000
  C   C1723     1.0  0.74012  0.43655  0.19030  1.0000
  H   H3062     1.0  0.83207  0.31495  0.23259  1.0000
  C   C1724     1.0  0.80474  0.30691  0.21918  1.0000
  C   C1725     1.0  0.75151  0.27319  0.16463  1.0000
  S   S382      1.0  0.69101  0.27704  0.16963  1.0000
  H   H3063     1.0  0.94836  0.41034  0.21529  1.0000
  H   H3064     1.0  0.73504  0.27702  0.20212  1.0000
  C   C1726     1.0  0.85469  0.43259  0.02395  1.0000
  C   C1727     1.0  0.72246  0.45890  0.11594  1.0000
  N   N97       1.0  0.90331  0.38897  0.20638  1.0000
  C   C1728     1.0  0.88786  0.40517  0.21448  1.0000
  H   H3065     1.0  0.81960  0.41351  0.19210  1.0000
  H   H3066     1.0  0.74506  0.41181  0.21394  1.0000
  Fe  Fe190     1.0  0.72618  0.35310  0.20621  1.0000
  S   S383      1.0  0.75444  0.33639  0.21524  1.0000
  C   C1729     1.0  0.85171  0.42072  0.22360  1.0000
  H   H3067     1.0  0.89448  0.41194  0.02555  1.0000
  S   S384      1.0  0.77155  0.37675  0.19762  1.0000
  H   H3068     1.0  0.92697  0.36947  0.14498  1.0000
  Fe  Fe191     1.0  0.76915  0.35155  0.18618  1.0000
  S   S385      1.0  0.79410  0.33197  0.16967  1.0000
  H   H3069     1.0  0.89505  0.48515  0.13320  1.0000
  S   S386      1.0  0.74080  0.36650  0.17611  1.0000
  H   H3070     1.0  0.75947  0.30295  0.13353  1.0000
  S   S387      1.0  0.83351  0.39233  0.00929  1.0000
  Fe  Fe192     1.0  0.86038  0.42946  0.08897  1.0000
  S   S388      1.0  0.88828  0.40915  0.09623  1.0000
  S   S389      1.0  0.85642  0.44205  0.05778  1.0000
  Fe  Fe193     1.0  0.84302  0.43173  0.13140  1.0000
  S   S390      1.0  0.86913  0.41163  0.14234  1.0000
  S   S391      1.0  0.81719  0.44160  0.15405  1.0000
  Fe  Fe194     1.0  0.88669  0.42877  0.11653  1.0000
  S   S392      1.0  0.91392  0.43767  0.11845  1.0000
  Fe  Fe195     1.0  0.86837  0.39391  0.12144  1.0000
  S   S393      1.0  0.87342  0.36105  0.13038  1.0000
  S   S394      1.0  0.86044  0.45050  0.10723  1.0000
  S   S395      1.0  0.84057  0.41248  0.11251  1.0000
  C   C1730     1.0  0.83809  0.40790  0.02222  1.0000
  C   C1731     1.0  0.83104  0.40536  0.04252  1.0000
  C   C1732     1.0  0.83640  0.41583  0.05364  1.0000
  C   C1733     1.0  0.84857  0.42923  0.04439  1.0000
  S   S396      1.0  0.70050  0.33778  0.21477  1.0000
  H   H3071     1.0  0.82160  0.39504  0.04965  1.0000
  H   H3072     1.0  0.83111  0.41358  0.06929  1.0000
  C   C1734     1.0  0.81599  0.34047  0.15925  1.0000
  C   C1735     1.0  0.83264  0.32754  0.15154  1.0000
  C   C1736     1.0  0.85032  0.33387  0.14304  1.0000
  C   C1737     1.0  0.85133  0.35328  0.14187  1.0000
  C   C1738     1.0  0.83472  0.36624  0.14967  1.0000
  C   C1739     1.0  0.81713  0.35973  0.15859  1.0000
  H   H3073     1.0  0.83188  0.31258  0.15213  1.0000
  H   H3074     1.0  0.86313  0.32381  0.13707  1.0000
  H   H3075     1.0  0.83550  0.38118  0.14910  1.0000
  H   H3076     1.0  0.80444  0.36961  0.16484  1.0000
  C   C1740     1.0  0.81284  0.46583  0.15714  1.0000
  H   H3077     1.0  0.79351  0.45978  0.18511  1.0000
  H   H3078     1.0  0.81804  0.36098  0.19926  1.0000
  H   H3079     1.0  0.94392  0.45090  0.16647  1.0000
  H   H3080     1.0  0.93330  0.38192  0.17077  1.0000
  C   C1741     1.0  0.88963  0.35037  0.07900  1.0000
  H   H3081     1.0  0.84180  0.38130  0.19938  1.0000
  H   H3082     1.0  0.76550  0.30350  0.18566  1.0000
  Fe  Fe196     1.0  0.75442  0.36291  0.22601  1.0000
  H   H3083     1.0  0.85532  0.43543  0.22061  1.0000
  H   H3084     1.0  0.83006  0.47671  0.12922  1.0000
  H   H3085     1.0  0.79849  0.40265  0.20268  1.0000
  C   C1742     1.0  0.89651  0.44672  0.17376  1.0000
  C   C1743     1.0  0.89653  0.44345  0.15547  1.0000
  C   C1744     1.0  0.91372  0.44248  0.14117  1.0000
  C   C1745     1.0  0.93078  0.44537  0.14509  1.0000
  H   H3086     1.0  0.88313  0.44719  0.18476  1.0000
  H   H3087     1.0  0.88323  0.44163  0.15248  1.0000
  H   H3088     1.0  0.94411  0.44476  0.13396  1.0000
  C   C1746     1.0  0.90241  0.38528  0.04700  1.0000
  N   N98       1.0  0.76089  0.28992  0.16397  1.0000
  S   S397      1.0  0.91228  0.45330  0.20126  1.0000
  Fe  Fe197     1.0  0.74188  0.39063  0.19014  1.0000
  H   H3089     1.0  0.77632  0.32484  0.13997  1.0000
  C   C1747     1.0  0.90028  0.36860  0.21706  1.0000
  C   C1748     1.0  0.69882  0.32066  0.20198  1.0000
  C   C1749     1.0  0.70290  0.32431  0.18153  1.0000
  C   C1750     1.0  0.70031  0.31087  0.17178  1.0000
  C   C1751     1.0  0.69377  0.29369  0.18237  1.0000
  C   C1752     1.0  0.68969  0.29006  0.20280  1.0000
  C   C1753     1.0  0.69207  0.30359  0.21255  1.0000
  H   H3090     1.0  0.70773  0.33763  0.17328  1.0000
  H   H3091     1.0  0.70312  0.31391  0.15597  1.0000
  C   C1754     1.0  0.81534  0.26238  0.16499  1.0000
  H   H3092     1.0  0.93507  0.37972  0.20138  1.0000
  H   H3093     1.0  0.86636  0.41476  0.19533  1.0000
  H   H3094     1.0  0.67326  0.28842  0.13338  1.0000
  C   C1755     1.0  0.74899  0.28096  0.20208  1.0000
  C   C1756     1.0  0.74202  0.46791  0.19582  1.0000
  H   H3095     1.0  0.74140  0.27748  0.23367  1.0000
  H   H3096     1.0  0.68875  0.16654  0.17418  1.0000
  H   H3097     1.0  0.68868  0.30082  0.22838  1.0000
  Fe  Fe198     1.0  0.97450  0.47099  0.21317  1.0000
  H   H3098     1.0  0.88220  0.33857  0.08882  1.0000
  H   H3099     1.0  0.90163  0.34704  0.00618  1.0000
  C   C1757     1.0  0.91896  0.37763  0.17336  1.0000
  H   H3100     1.0  0.80436  0.47111  0.10002  1.0000
  H   H3101     1.0  0.69856  0.14305  0.16722  1.0000
  H   H3102     1.0  0.89232  0.41952  0.20822  1.0000
  C   C1758     1.0  0.92330  0.39161  0.20690  1.0000
  C   C1759     1.0  0.74555  0.45876  0.21457  1.0000
  H   H3103     1.0  0.78804  0.46874  0.13414  1.0000
  H   H3104     1.0  0.68065  0.11501  0.22772  1.0000
  H   H3105     1.0  0.86278  0.39323  0.21399  1.0000
  C   C1760     1.0  0.88657  0.34968  0.04561  1.0000
  C   C1761     1.0  0.82650  0.38341  0.20787  1.0000
  H   H3106     1.0  0.92040  0.34906  0.06227  1.0000
  S   S398      1.0  0.96415  0.44252  0.21973  1.0000
  N   N99       1.0  0.87921  0.36064  0.06221  1.0000
  H   H3107     1.0  0.81516  0.39580  0.18097  1.0000
  H   H3108     1.0  0.88743  0.32545  0.19430  1.0000
  H   H3109     1.0  0.82157  0.27532  0.16386  1.0000
  H   H3110     1.0  0.85292  0.32320  0.19554  1.0000
  H   H3111     1.0  0.74084  0.30847  0.18331  1.0000
  H   H3112     1.0  0.82234  0.24980  0.17530  1.0000
  H   H3113     1.0  0.85512  0.42398  0.99727  1.0000
  C   C1762     1.0  0.68487  0.15300  0.17297  1.0000
  H   H3114     1.0  0.77195  0.26095  0.14007  1.0000
  H   H3115     1.0  0.87320  0.47947  0.18975  1.0000
  Fe  Fe199     1.0  0.66851  0.25807  0.18429  1.0000
  C   C1763     1.0  0.81099  0.32668  0.21380  1.0000
  H   H3116     1.0  0.73564  0.46398  0.16959  1.0000
  C   C1764     1.0  0.85619  0.33764  0.19475  1.0000
  H   H3117     1.0  0.88159  0.35130  0.18288  1.0000
  H   H3118     1.0  0.91261  0.32401  0.10390  1.0000
  C   C1765     1.0  0.74435  0.42739  0.20873  1.0000
  H   H3119     1.0  0.69261  0.47620  0.20734  1.0000
  H   H3120     1.0  0.84757  0.34916  0.18501  1.0000
  C   C1766     1.0  0.79311  0.26685  0.17254  1.0000
  C   C1767     1.0  0.73905  0.45684  0.18378  1.0000
  C   C1768     1.0  0.90232  0.40695  0.03793  1.0000
  C   C1769     1.0  0.87659  0.35831  0.02762  1.0000
  S   S399      1.0  0.72478  0.37861  0.21952  1.0000
  H   H3121     1.0  0.91461  0.35787  0.21579  1.0000
  H   H3122     1.0  0.75532  0.47467  0.09484  1.0000
  H   H3123     1.0  0.79752  0.33836  0.21280  1.0000
  H   H3124     1.0  0.88075  0.33282  0.17063  1.0000
  H   H3125     1.0  0.85986  0.32891  0.22448  1.0000
  H   H3126     1.0  0.87813  0.37371  0.02113  1.0000
  H   H3127     1.0  0.82861  0.48664  0.19374  1.0000
  H   H3128     1.0  0.79058  0.27028  0.18721  1.0000
  H   H3129     1.0  0.90020  0.48799  0.16315  1.0000
  H   H3130     1.0  0.78798  0.28194  0.14350  1.0000
  H   H3131     1.0  0.75326  0.23530  0.15973  1.0000
  C   C1770     1.0  0.67735  0.10343  0.22216  1.0000
  H   H3132     1.0  0.74942  0.27679  0.13390  1.0000
  C   C1771     1.0  0.69170  0.48049  0.22131  1.0000
  C   C1772     1.0  0.85174  0.34195  0.21552  1.0000
  C   C1773     1.0  0.75592  0.26546  0.14547  1.0000
  C   C1774     1.0  0.80790  0.47271  0.05957  1.0000
  H   H3133     1.0  0.73070  0.25142  0.15386  1.0000
  H   H3134     1.0  0.78387  0.48547  0.08970  1.0000
  C   C1775     1.0  0.84967  0.42182  0.01292  1.0000
  H   H3135     1.0  0.89512  0.41616  0.04902  1.0000
  H   H3136     1.0  0.76052  0.26735  0.20302  1.0000
  H   H3137     1.0  0.68538  0.13954  0.20292  1.0000
  H   H3138     1.0  0.69120  0.09813  0.21213  1.0000
  H   H3139     1.0  0.73353  0.34589  0.13832  1.0000
  Fe  Fe200     1.0  0.93564  0.46111  0.21213  1.0000
  S   S400      1.0  0.73545  0.42273  0.17582  1.0000
  H   H3140     1.0  0.90254  0.34864  0.03991  1.0000
  H   H3141     1.0  0.75257  0.33964  0.11763  1.0000
  H   H3142     1.0  0.86385  0.44317  0.01666  1.0000
  H   H3143     1.0  0.91602  0.40327  0.23392  1.0000
  H   H3144     1.0  0.92089  0.34695  0.09717  1.0000
  H   H3145     1.0  0.75484  0.35676  0.13087  1.0000
  N   N100      1.0  0.77726  0.46067  0.11275  1.0000
  H   H3146     1.0  0.72608  0.44385  0.11292  1.0000
  C   C1776     1.0  0.78754  0.43963  0.11904  1.0000
  H   H3147     1.0  0.82586  0.38879  0.22113  1.0000
  C   C1777     1.0  0.75838  0.46156  0.10667  1.0000
  C   C1778     1.0  0.73933  0.46253  0.12282  1.0000
  H   H3148     1.0  0.84334  0.47244  0.21134  1.0000
  C   C1779     1.0  0.79833  0.45960  0.07779  1.0000
  C   C1780     1.0  0.77652  0.42713  0.13717  1.0000
  C   C1781     1.0  0.78920  0.40682  0.14285  1.0000
  N   N101      1.0  0.83036  0.34651  0.22523  1.0000
  H   H3149     1.0  0.91021  0.37689  0.03541  1.0000
  H   H3150     1.0  0.73460  0.47727  0.12663  1.0000
  C   C1782     1.0  0.82087  0.48034  0.14268  1.0000
  H   H3151     1.0  0.76385  0.46554  0.14219  1.0000
  H   H3152     1.0  0.79056  0.43138  0.10717  1.0000
  H   H3153     1.0  0.80211  0.43929  0.12192  1.0000
  H   H3154     1.0  0.78772  0.25339  0.17386  1.0000
  H   H3155     1.0  0.77197  0.39453  0.23149  1.0000
  C   C1783     1.0  0.78299  0.28455  0.15869  1.0000
  H   H3156     1.0  0.75999  0.44873  0.10002  1.0000
  H   H3157     1.0  0.81890  0.25843  0.15041  1.0000
  H   H3158     1.0  0.74129  0.45169  0.13649  1.0000
  H   H3159     1.0  0.80330  0.36716  0.22121  1.0000
  H   H3160     1.0  0.89113  0.36332  0.21002  1.0000
  H   H3161     1.0  0.67083  0.05639  0.18310  1.0000
  H   H3162     1.0  0.80964  0.44609  0.08120  1.0000
  H   H3163     1.0  0.77249  0.43401  0.15011  1.0000
  H   H3164     1.0  0.76321  0.42476  0.13387  1.0000
  H   H3165     1.0  0.80225  0.40804  0.14762  1.0000
  H   H3166     1.0  0.78040  0.39802  0.15523  1.0000
  H   H3167     1.0  0.79407  0.39905  0.13045  1.0000
  H   H3168     1.0  0.70899  0.46018  0.12759  1.0000
  H   H3169     1.0  0.84525  0.46379  0.18949  1.0000
  H   H3170     1.0  0.78935  0.29712  0.15852  1.0000
  C   C1784     1.0  0.88584  0.34651  0.01152  1.0000
  C   C1785     1.0  0.67485  0.14311  0.19306  1.0000
  H   H3171     1.0  0.79709  0.48615  0.05478  1.0000
  C   C1786     1.0  0.94718  0.39582  0.22505  1.0000
  H   H3172     1.0  0.73419  0.30222  0.22064  1.0000
  C   C1787     1.0  0.87785  0.33674  0.18517  1.0000
  H   H3173     1.0  0.68217  0.07684  0.19934  1.0000
  H   H3174     1.0  0.68464  0.27687  0.21111  1.0000
  C   C1788     1.0  0.86696  0.40765  0.21084  1.0000
  C   C1789     1.0  0.85760  0.36039  0.06951  1.0000
  H   H3175     1.0  0.73523  0.27774  0.16889  1.0000
  H   H3176     1.0  0.83691  0.42262  0.22047  1.0000
  H   H3177     1.0  0.92034  0.36207  0.18123  1.0000
  C   C1790     1.0  0.84763  0.36791  0.08876  1.0000
  C   C1791     1.0  0.76034  0.32634  0.14615  1.0000
  H   H3178     1.0  0.78611  0.45547  0.07412  1.0000
  H   H3179     1.0  0.91370  0.39444  0.14471  1.0000
  H   H3180     1.0  0.73768  0.30997  0.15060  1.0000
  C   C1792     1.0  0.82588  0.36706  0.09465  1.0000
  C   C1793     1.0  0.81414  0.39974  0.19514  1.0000
  H   H3181     1.0  0.86200  0.48542  0.12789  1.0000
  C   C1794     1.0  0.77412  0.47142  0.12905  1.0000
  H   H3182     1.0  0.85888  0.35411  0.21492  1.0000
  H   H3183     1.0  0.85522  0.34518  0.07193  1.0000
  H   H3184     1.0  0.84904  0.36943  0.05834  1.0000
  C   C1795     1.0  0.92691  0.39168  0.22710  1.0000
  C   C1796     1.0  0.81884  0.36406  0.21327  1.0000
  H   H3185     1.0  0.86075  0.35790  0.03164  1.0000
  H   H3186     1.0  0.88833  0.38897  0.18381  1.0000
  H   H3187     1.0  0.88475  0.33417  0.05112  1.0000
  C   C1797     1.0  0.74961  0.34313  0.13236  1.0000
  H   H3188     1.0  0.84869  0.38329  0.08727  1.0000
  H   H3189     1.0  0.85451  0.35873  0.10103  1.0000
  H   H3190     1.0  0.79718  0.30590  0.20797  1.0000
  H   H3191     1.0  0.91763  0.40908  0.03229  1.0000
  C   C1798     1.0  0.91147  0.33982  0.07390  1.0000
  C   C1799     1.0  0.90255  0.39140  0.18513  1.0000
  C   C1800     1.0  0.91480  0.37908  0.15325  1.0000
  H   H3192     1.0  0.90324  0.40671  0.17722  1.0000
  H   H3193     1.0  0.81357  0.46454  0.04745  1.0000
  H   H3194     1.0  0.90094  0.37428  0.15469  1.0000
  C   C1801     1.0  0.74594  0.28870  0.22066  1.0000
  H   H3195     1.0  0.88857  0.36092  0.08833  1.0000
  H   H3196     1.0  0.91078  0.38116  0.05892  1.0000
  H   H3197     1.0  0.81780  0.37662  0.08327  1.0000
  H   H3198     1.0  0.82403  0.35173  0.09697  1.0000
  H   H3199     1.0  0.81938  0.37228  0.10859  1.0000
  H   H3200     1.0  0.71944  0.46986  0.10251  1.0000
  H   H3201     1.0  0.68183  0.11562  0.18367  1.0000
  H   H3202     1.0  0.67487  0.15724  0.16245  1.0000
  C   C1802     1.0  0.74689  0.24757  0.14874  1.0000
  H   H3203     1.0  0.82074  0.32782  0.19919  1.0000
  H   H3204     1.0  0.92620  0.40569  0.19689  1.0000
  C   C1803     1.0  0.66866  0.12441  0.19181  1.0000
  C   C1804     1.0  0.74698  0.43846  0.22084  1.0000
  H   H3205     1.0  0.93625  0.32571  0.08810  1.0000
  H   H3206     1.0  0.87550  0.38972  0.06776  1.0000
  C   C1805     1.0  0.79103  0.47008  0.09543  1.0000
  H   H3207     1.0  0.75718  0.33076  0.16040  1.0000
  C   C1806     1.0  0.66833  0.08269  0.19379  1.0000
  C   C1807     1.0  0.93072  0.44881  0.16346  1.0000
  H   H3208     1.0  0.74991  0.24248  0.13478  1.0000
  C   C1808     1.0  0.92084  0.33375  0.09190  1.0000
  C   C1809     1.0  0.91356  0.44930  0.17789  1.0000
  H   H3209     1.0  0.88429  0.33098  0.01695  1.0000
  C   C1810     1.0  0.75430  0.29661  0.18336  1.0000
  H   H3210     1.0  0.95893  0.38424  0.21900  1.0000
  H   H3211     1.0  0.91241  0.32626  0.06874  1.0000
  H   H3212     1.0  0.75576  0.26029  0.17610  1.0000
  C   C1811     1.0  0.75396  0.30681  0.14820  1.0000
  H   H3213     1.0  0.70711  0.47813  0.22301  1.0000
  H   H3214     1.0  0.66783  0.15662  0.23134  1.0000
  S   S401      1.0  0.67536  0.22536  0.19566  1.0000
  H   H3215     1.0  0.86709  0.47756  0.15897  1.0000
  H   H3216     1.0  0.75978  0.29195  0.22190  1.0000
  H   H3217     1.0  0.87209  0.38977  0.04454  1.0000
  C   C1812     1.0  0.80019  0.47083  0.17410  1.0000
  H   H3218     1.0  0.69895  0.44051  0.22364  1.0000
  H   H3219     1.0  0.87823  0.35297  0.99900  1.0000
  H   H3220     1.0  0.67815  0.30591  0.11084  1.0000
  H   H3221     1.0  0.88672  0.40343  0.23041  1.0000
  H   H3222     1.0  0.82048  0.47697  0.06250  1.0000
  H   H3223     1.0  0.79436  0.30547  0.23354  1.0000
  H   H3224     1.0  0.66205  0.19271  0.22595  1.0000
  C   C1813     1.0  0.84315  0.47711  0.19549  1.0000
  H   H3225     1.0  0.66185  0.15403  0.19849  1.0000
  H   H3226     1.0  0.74089  0.48357  0.19089  1.0000
  H   H3227     1.0  0.68657  0.30709  0.13186  1.0000
  C   C1814     1.0  0.82106  0.32882  0.22951  1.0000
  S   S402      1.0  0.74566  0.47244  0.23147  1.0000
  H   H3228     1.0  0.66273  0.34763  0.15584  1.0000
  H   H3229     1.0  0.67175  0.09084  0.17845  1.0000
  H   H3230     1.0  0.89120  0.47832  0.10169  1.0000
  C   C1815     1.0  0.67445  0.30396  0.12702  1.0000
  H   H3231     1.0  0.66200  0.31696  0.16073  1.0000
  H   H3232     1.0  0.66785  0.46457  0.23394  1.0000
  H   H3233     1.0  0.66142  0.38292  0.15133  1.0000
  S   S403      1.0  0.94715  0.48901  0.20242  1.0000
  C   C1816     1.0  0.85943  0.48843  0.18524  1.0000
  H   H3234     1.0  0.86724  0.13247  0.44326  1.0000
  H   H3235     1.0  0.83441  0.18990  0.44807  1.0000
  C   C1817     1.0  0.69304  0.07823  0.24854  1.0000
  H   H3236     1.0  0.82744  0.10814  0.43897  1.0000
  S   S404      1.0  0.70713  0.09288  0.34337  1.0000
  H   H3237     1.0  0.83091  0.48031  0.29461  1.0000
  C   C1818     1.0  0.79904  0.47541  0.26613  1.0000
  S   S405      1.0  0.68489  0.08284  0.30357  1.0000
  H   H3238     1.0  0.93805  0.11668  0.43823  1.0000
  H   H3239     1.0  0.92602  0.46595  0.33312  1.0000
  H   H3240     1.0  0.95336  0.47742  0.30756  1.0000
  H   H3241     1.0  0.88433  0.34292  0.26440  1.0000
  Fe  Fe201     1.0  0.83461  0.36263  0.32246  1.0000
  S   S406      1.0  0.81636  0.39326  0.32137  1.0000
  S   S407      1.0  0.82521  0.33406  0.33748  1.0000
  Fe  Fe202     1.0  0.87094  0.37641  0.29627  1.0000
  S   S408      1.0  0.85593  0.40823  0.29210  1.0000
  H   H3242     1.0  0.80509  0.47035  0.27968  1.0000
  Fe  Fe203     1.0  0.84356  0.40132  0.32427  1.0000
  S   S409      1.0  0.84828  0.41839  0.34416  1.0000
  Fe  Fe204     1.0  0.83021  0.39759  0.28937  1.0000
  S   S410      1.0  0.81304  0.41263  0.26573  1.0000
  S   S411      1.0  0.86030  0.37016  0.32858  1.0000
  S   S412      1.0  0.84659  0.36643  0.29021  1.0000
  Fe  Fe205     1.0  0.72099  0.15104  0.41634  1.0000
  S   S413      1.0  0.75202  0.13361  0.41481  1.0000
  S   S414      1.0  0.69885  0.15165  0.39861  1.0000
  Fe  Fe206     1.0  0.72264  0.16871  0.45029  1.0000
  S   S415      1.0  0.75335  0.15224  0.45194  1.0000
  Fe  Fe207     1.0  0.75880  0.16083  0.41917  1.0000
  S   S416      1.0  0.78542  0.17351  0.40361  1.0000
  Fe  Fe208     1.0  0.74363  0.12677  0.44764  1.0000
  S   S417      1.0  0.75069  0.09682  0.46675  1.0000
  S   S418      1.0  0.72863  0.17892  0.41767  1.0000
  S   S419      1.0  0.71215  0.14241  0.44906  1.0000
  Fe  Fe209     1.0  0.84039  0.27613  0.43906  1.0000
  S   S420      1.0  0.84391  0.24996  0.42597  1.0000
  S   S421      1.0  0.84236  0.30698  0.42292  1.0000
  H   H3243     1.0  0.81067  0.32668  0.27740  1.0000
  C   C1819     1.0  0.89119  0.30970  0.35407  1.0000
  Fe  Fe210     1.0  0.86117  0.23397  0.44950  1.0000
  S   S422      1.0  0.89039  0.21313  0.44389  1.0000
  Fe  Fe211     1.0  0.81773  0.24362  0.44937  1.0000
  S   S423      1.0  0.78972  0.23612  0.44859  1.0000
  S   S424      1.0  0.85962  0.26067  0.46084  1.0000
  S   S425      1.0  0.81274  0.27117  0.46043  1.0000
  H   H3244     1.0  0.87470  0.45022  0.32908  1.0000
  C   C1820     1.0  0.94746  0.38790  0.28581  1.0000
  H   H3245     1.0  0.66795  0.16421  0.31328  1.0000
  S   S426      1.0  0.92892  0.04139  0.48185  1.0000
  H   H3246     1.0  0.87063  0.47867  0.34695  1.0000
  H   H3247     1.0  0.79602  0.47532  0.32681  1.0000
  C   C1821     1.0  0.77617  0.08764  0.46311  1.0000
  C   C1822     1.0  0.80755  0.07979  0.44132  1.0000
  C   C1823     1.0  0.78728  0.08765  0.44418  1.0000
  H   H3248     1.0  0.81607  0.07948  0.42668  1.0000
  H   H3249     1.0  0.78022  0.09354  0.43176  1.0000
  C   C1824     1.0  0.78734  0.19041  0.41636  1.0000
  C   C1825     1.0  0.77131  0.19719  0.43030  1.0000
  C   C1826     1.0  0.77256  0.21074  0.44048  1.0000
  C   C1827     1.0  0.78985  0.21764  0.43684  1.0000
  C   C1828     1.0  0.80608  0.21079  0.42305  1.0000
  C   C1829     1.0  0.80479  0.19719  0.41273  1.0000
  H   H3250     1.0  0.75769  0.19236  0.43298  1.0000
  H   H3251     1.0  0.75993  0.21610  0.45104  1.0000
  H   H3252     1.0  0.81940  0.21623  0.42012  1.0000
  H   H3253     1.0  0.81720  0.19202  0.40189  1.0000
  C   C1830     1.0  0.82954  0.32649  0.36135  1.0000
  C   C1831     1.0  0.83359  0.30642  0.36983  1.0000
  C   C1832     1.0  0.83736  0.30024  0.38885  1.0000
  C   C1833     1.0  0.83686  0.31416  0.39947  1.0000
  C   C1834     1.0  0.83270  0.33420  0.39099  1.0000
  C   C1835     1.0  0.82918  0.34037  0.37191  1.0000
  H   H3254     1.0  0.83416  0.29568  0.36153  1.0000
  H   H3255     1.0  0.84085  0.28477  0.39517  1.0000
  H   H3256     1.0  0.83235  0.34501  0.39915  1.0000
  H   H3257     1.0  0.82606  0.35589  0.36543  1.0000
  C   C1836     1.0  0.77424  0.37466  0.25909  1.0000
  C   C1837     1.0  0.78138  0.37075  0.27634  1.0000
  C   C1838     1.0  0.79301  0.38260  0.27859  1.0000
  C   C1839     1.0  0.79725  0.39863  0.26375  1.0000
  H   H3258     1.0  0.86916  0.34339  0.36472  1.0000
  H   H3259     1.0  0.70737  0.07063  0.42520  1.0000
  H   H3260     1.0  0.77857  0.35805  0.28765  1.0000
  H   H3261     1.0  0.79894  0.37914  0.29170  1.0000
  H   H3262     1.0  0.71697  0.09254  0.44408  1.0000
  H   H3263     1.0  0.88366  0.46738  0.38662  1.0000
  H   H3264     1.0  0.81840  0.01127  0.45879  1.0000
  H   H3265     1.0  0.92656  0.37712  0.23698  1.0000
  C   C1840     1.0  0.83838  0.45370  0.35509  1.0000
  C   C1841     1.0  0.83430  0.44236  0.34410  1.0000
  C   C1842     1.0  0.81927  0.45025  0.33352  1.0000
  C   C1843     1.0  0.80797  0.46925  0.33454  1.0000
  H   H3266     1.0  0.81377  0.35748  0.25095  1.0000
  H   H3267     1.0  0.84970  0.44740  0.36355  1.0000
  H   H3268     1.0  0.81619  0.44161  0.32489  1.0000
  C   C1844     1.0  0.80583  0.07274  0.47622  1.0000
  H   H3269     1.0  0.89306  0.18189  0.42320  1.0000
  H   H3270     1.0  0.80754  0.11191  0.47702  1.0000
  S   S427      1.0  0.83514  0.22518  0.47156  1.0000
  C   C1845     1.0  0.81223  0.48062  0.34541  1.0000
  H   H3271     1.0  0.95043  0.48444  0.28253  1.0000
  H   H3272     1.0  0.85101  0.33840  0.26326  1.0000
  H   H3273     1.0  0.88560  0.30305  0.31970  1.0000
  C   C1846     1.0  0.70467  0.10906  0.35893  1.0000
  C   C1847     1.0  0.72158  0.11233  0.36281  1.0000
  C   C1848     1.0  0.72005  0.12503  0.37531  1.0000
  C   C1849     1.0  0.70156  0.13463  0.38388  1.0000
  C   C1850     1.0  0.68468  0.13148  0.37985  1.0000
  C   C1851     1.0  0.68620  0.11870  0.36749  1.0000
  H   H3274     1.0  0.73592  0.10515  0.35596  1.0000
  H   H3275     1.0  0.73313  0.12774  0.37798  1.0000
  H   H3276     1.0  0.93843  0.45398  0.30014  1.0000
  C   C1852     1.0  0.94078  0.40780  0.27812  1.0000
  H   H3277     1.0  0.96161  0.38306  0.29003  1.0000
  H   H3278     1.0  0.84291  0.10125  0.46525  1.0000
  H   H3279     1.0  0.89213  0.41686  0.33884  1.0000
  H   H3280     1.0  0.78882  0.45036  0.26493  1.0000
  S   S428      1.0  0.84274  0.06530  0.45275  1.0000
  H   H3281     1.0  0.96016  0.12980  0.47603  1.0000
  H   H3282     1.0  0.86733  0.32418  0.32621  1.0000
  C   C1853     1.0  0.91715  0.43198  0.33013  1.0000
  C   C1854     1.0  0.67610  0.16161  0.32519  1.0000
  H   H3283     1.0  0.89423  0.29409  0.35275  1.0000
  C   C1855     1.0  0.78542  0.07994  0.47915  1.0000
  H   H3284     1.0  0.94161  0.10546  0.46214  1.0000
  H   H3285     1.0  0.89154  0.48410  0.35228  1.0000
  C   C1856     1.0  0.75845  0.48550  0.28907  1.0000
  H   H3286     1.0  0.91748  0.39637  0.31898  1.0000
  C   C1857     1.0  0.94557  0.14388  0.45087  1.0000
  N   N102      1.0  0.69586  0.16725  0.31695  1.0000
  C   C1858     1.0  0.70365  0.17052  0.33313  1.0000
  H   H3287     1.0  0.69361  0.18247  0.34010  1.0000
  C   C1859     1.0  0.70992  0.15009  0.30904  1.0000
  C   C1860     1.0  0.69469  0.18482  0.30022  1.0000
  H   H3288     1.0  0.88205  0.47198  0.31516  1.0000
  C   C1861     1.0  0.72430  0.17552  0.32745  1.0000
  C   C1862     1.0  0.70367  0.14309  0.29330  1.0000
  H   H3289     1.0  0.76912  0.26693  0.47060  1.0000
  H   H3290     1.0  0.77487  0.47311  0.25468  1.0000
  C   C1863     1.0  0.72971  0.17952  0.34501  1.0000
  C   C1864     1.0  0.71760  0.12425  0.28829  1.0000
  H   H3291     1.0  0.70417  0.15714  0.34504  1.0000
  C   C1865     1.0  0.89018  0.36601  0.23903  1.0000
  S   S429      1.0  0.90281  0.36347  0.28618  1.0000
  H   H3292     1.0  0.98912  0.06147  0.47857  1.0000
  H   H3293     1.0  0.71243  0.13720  0.32129  1.0000
  H   H3294     1.0  0.72455  0.15369  0.30207  1.0000
  H   H3295     1.0  0.70967  0.18722  0.29271  1.0000
  H   H3296     1.0  0.68853  0.18199  0.28880  1.0000
  C   C1866     1.0  0.88556  0.20410  0.48377  1.0000
  C   C1867     1.0  0.74223  0.48843  0.30745  1.0000
  H   H3297     1.0  0.73574  0.16308  0.32265  1.0000
  H   H3298     1.0  0.72481  0.18883  0.31561  1.0000
  H   H3299     1.0  0.70393  0.15435  0.27952  1.0000
  C   C1868     1.0  0.81736  0.01774  0.47151  1.0000
  H   H3300     1.0  0.92682  0.14639  0.48461  1.0000
  C   C1869     1.0  0.92480  0.18507  0.48362  1.0000
  H   H3301     1.0  0.68647  0.11838  0.44099  1.0000
  H   H3302     1.0  0.94944  0.39610  0.23961  1.0000
  H   H3303     1.0  0.74466  0.18278  0.34079  1.0000
  H   H3304     1.0  0.71916  0.19233  0.35019  1.0000
  H   H3305     1.0  0.72965  0.16648  0.35726  1.0000
  H   H3306     1.0  0.73283  0.12661  0.28249  1.0000
  H   H3307     1.0  0.92879  0.19356  0.45210  1.0000
  H   H3308     1.0  0.80991  0.03344  0.46837  1.0000
  C   C1870     1.0  0.83763  0.15904  0.46257  1.0000
  H   H3309     1.0  0.92976  0.31394  0.34740  1.0000
  C   C1871     1.0  0.93080  0.11612  0.45389  1.0000
  N   N103      1.0  0.90389  0.45198  0.33063  1.0000
  H   H3310     1.0  0.91137  0.31686  0.32586  1.0000
  C   C1872     1.0  0.66315  0.16366  0.24375  1.0000
  H   H3311     1.0  0.69994  0.22370  0.28433  1.0000
  H   H3312     1.0  0.88223  0.11843  0.40031  1.0000
  H   H3313     1.0  0.80837  0.12788  0.44501  1.0000
  C   C1873     1.0  0.75862  0.27137  0.48368  1.0000
  H   H3314     1.0  0.86138  0.99229  0.48071  1.0000
  H   H3315     1.0  0.87506  0.31337  0.35980  1.0000
  H   H3316     1.0  0.90878  0.16524  0.45312  1.0000
  H   H3317     1.0  0.74854  0.48218  0.32081  1.0000
  H   H3318     1.0  0.87426  0.37271  0.24071  1.0000
  H   H3319     1.0  0.68421  0.11022  0.42034  1.0000
  H   H3320     1.0  0.85867  0.10180  0.42535  1.0000
  C   C1874     1.0  0.95899  0.29358  0.36663  1.0000
  H   H3321     1.0  0.85799  0.14025  0.42156  1.0000
  H   H3322     1.0  0.87047  0.21151  0.48409  1.0000
  H   H3323     1.0  0.71277  0.11971  0.27700  1.0000
  H   H3324     1.0  0.67825  0.14557  0.33160  1.0000
  C   C1875     1.0  0.69491  0.44461  0.23821  1.0000
  C   C1876     1.0  0.82363  0.33088  0.27958  1.0000
  C   C1877     1.0  0.92255  0.41395  0.27253  1.0000
  N   N104      1.0  0.77569  0.27824  0.39866  1.0000
  C   C1878     1.0  0.79692  0.26768  0.39453  1.0000
  C   C1879     1.0  0.77226  0.28938  0.41483  1.0000
  C   C1880     1.0  0.76329  0.26280  0.40584  1.0000
  C   C1881     1.0  0.76925  0.29169  0.38059  1.0000
  C   C1882     1.0  0.78160  0.30723  0.36913  1.0000
  C   C1883     1.0  0.80254  0.25439  0.37929  1.0000
  C   C1884     1.0  0.74095  0.27027  0.41303  1.0000
  C   C1885     1.0  0.78931  0.29839  0.41582  1.0000
  C   C1886     1.0  0.78267  0.31179  0.43064  1.0000
  C   C1887     1.0  0.77471  0.31819  0.35012  1.0000
  C   C1888     1.0  0.82475  0.24671  0.37461  1.0000
  C   C1889     1.0  0.73054  0.25303  0.42175  1.0000
  H   H3325     1.0  0.80104  0.25823  0.40836  1.0000
  H   H3326     1.0  0.80688  0.27819  0.38950  1.0000
  H   H3327     1.0  0.75890  0.30137  0.41423  1.0000
  H   H3328     1.0  0.76925  0.27946  0.42945  1.0000
  H   H3329     1.0  0.76877  0.25154  0.41803  1.0000
  H   H3330     1.0  0.76451  0.25477  0.39418  1.0000
  H   H3331     1.0  0.76856  0.28295  0.37021  1.0000
  H   H3332     1.0  0.75397  0.30009  0.38445  1.0000
  H   H3333     1.0  0.79734  0.30045  0.36505  1.0000
  H   H3334     1.0  0.77982  0.31841  0.37784  1.0000
  H   H3335     1.0  0.79568  0.24136  0.38507  1.0000
  H   H3336     1.0  0.79790  0.26255  0.36539  1.0000
  H   H3337     1.0  0.73410  0.27958  0.40069  1.0000
  H   H3338     1.0  0.73805  0.27891  0.42453  1.0000
  H   H3339     1.0  0.80155  0.28649  0.42052  1.0000
  H   H3340     1.0  0.79525  0.30709  0.40158  1.0000
  H   H3341     1.0  0.79539  0.31733  0.43152  1.0000
  H   H3342     1.0  0.77114  0.32460  0.42606  1.0000
  H   H3343     1.0  0.77691  0.30359  0.44539  1.0000
  H   H3344     1.0  0.78341  0.32963  0.34245  1.0000
  H   H3345     1.0  0.77688  0.30793  0.34023  1.0000
  H   H3346     1.0  0.75896  0.32557  0.35318  1.0000
  H   H3347     1.0  0.83017  0.23841  0.38812  1.0000
  H   H3348     1.0  0.82835  0.23668  0.36422  1.0000
  H   H3349     1.0  0.83245  0.25907  0.36778  1.0000
  H   H3350     1.0  0.73290  0.24373  0.41090  1.0000
  H   H3351     1.0  0.73607  0.24382  0.43493  1.0000
  H   H3352     1.0  0.71450  0.25865  0.42620  1.0000
  C   C1890     1.0  0.89242  0.44683  0.30110  1.0000
  H   H3353     1.0  0.89623  0.11746  0.41817  1.0000
  C   C1891     1.0  0.91071  0.40041  0.27526  1.0000
  H   H3354     1.0  0.77200  0.04796  0.45930  1.0000
  H   H3355     1.0  0.91946  0.47367  0.29107  1.0000
  H   H3356     1.0  0.83075  0.31884  0.29025  1.0000
  H   H3357     1.0  0.93007  0.43049  0.33663  1.0000
  H   H3358     1.0  0.83246  0.01683  0.47326  1.0000
  C   C1892     1.0  0.97345  0.06406  0.48439  1.0000
  C   C1893     1.0  0.89873  0.20316  0.46596  1.0000
  H   H3359     1.0  0.89905  0.16958  0.40303  1.0000
  H   H3360     1.0  0.83055  0.16149  0.43459  1.0000
  C   C1894     1.0  0.91743  0.38053  0.28284  1.0000
  H   H3361     1.0  0.88494  0.44213  0.35815  1.0000
  H   H3362     1.0  0.92678  0.16142  0.41964  1.0000
  H   H3363     1.0  0.69701  0.08995  0.25330  1.0000
  H   H3364     1.0  0.85377  0.15728  0.45771  1.0000
  H   H3365     1.0  0.67896  0.46851  0.25209  1.0000
  Fe  Fe212     1.0  0.83214  0.25319  0.48105  1.0000
  N   N105      1.0  0.83701  0.13037  0.44729  1.0000
  C   C1895     1.0  0.89967  0.33309  0.36919  1.0000
  H   H3366     1.0  0.89371  0.43066  0.30546  1.0000
  H   H3367     1.0  0.90134  0.27034  0.42095  1.0000
  H   H3368     1.0  0.90679  0.34154  0.35517  1.0000
  H   H3369     1.0  0.91393  0.27125  0.38534  1.0000
  H   H3370     1.0  0.91311  0.38261  0.34365  1.0000
  H   H3371     1.0  0.87505  0.47100  0.28363  1.0000
  H   H3372     1.0  0.81084  0.13278  0.48402  1.0000
  C   C1896     1.0  0.93760  0.30158  0.37549  1.0000
  H   H3373     1.0  0.87658  0.27384  0.41743  1.0000
  H   H3374     1.0  0.66814  0.16609  0.35547  1.0000
  C   C1897     1.0  0.89833  0.27793  0.39041  1.0000
  H   H3375     1.0  0.86268  0.46103  0.38223  1.0000
  H   H3376     1.0  0.93185  0.07817  0.45314  1.0000
  C   C1898     1.0  0.91852  0.08839  0.44877  1.0000
  S   S430      1.0  0.92260  0.46578  0.24279  1.0000
  N   N106      1.0  0.90244  0.31182  0.36815  1.0000
  H   H3377     1.0  0.87874  0.30565  0.39253  1.0000
  H   H3378     1.0  0.90638  0.44829  0.36072  1.0000
  C   C1899     1.0  0.92401  0.30400  0.36107  1.0000
  C   C1900     1.0  0.89229  0.26795  0.41175  1.0000
  N   N107      1.0  0.92687  0.13613  0.45877  1.0000
  H   H3379     1.0  0.90101  0.30367  0.39950  1.0000
  C   C1901     1.0  0.67446  0.08635  0.24002  1.0000
  H   H3380     1.0  0.90027  0.11627  0.45267  1.0000
  C   C1902     1.0  0.85765  0.12893  0.43539  1.0000
  C   C1903     1.0  0.89624  0.16731  0.41922  1.0000
  H   H3381     1.0  0.93692  0.31589  0.37900  1.0000
  N   N108      1.0  0.73859  0.06964  0.41571  1.0000
  C   C1904     1.0  0.74018  0.05352  0.40513  1.0000
  C   C1905     1.0  0.74318  0.06104  0.43594  1.0000
  C   C1906     1.0  0.71752  0.08095  0.41813  1.0000
  C   C1907     1.0  0.75160  0.08381  0.40425  1.0000
  C   C1908     1.0  0.77379  0.07498  0.39878  1.0000
  C   C1909     1.0  0.73539  0.06025  0.38432  1.0000
  C   C1910     1.0  0.71214  0.09757  0.42988  1.0000
  C   C1911     1.0  0.75846  0.04133  0.43861  1.0000
  H   H3382     1.0  0.68704  0.43364  0.24883  1.0000
  C   C1912     1.0  0.78488  0.09064  0.38570  1.0000
  C   C1913     1.0  0.73879  0.04272  0.37472  1.0000
  H   H3383     1.0  0.73023  0.04350  0.41405  1.0000
  H   H3384     1.0  0.75514  0.04410  0.40347  1.0000
  H   H3385     1.0  0.74812  0.07192  0.44110  1.0000
  H   H3386     1.0  0.72966  0.05807  0.44685  1.0000
  H   H3387     1.0  0.71361  0.08833  0.40369  1.0000
  H   H3388     1.0  0.74645  0.09217  0.39064  1.0000
  H   H3389     1.0  0.75043  0.09508  0.41269  1.0000
  H   H3390     1.0  0.77661  0.06300  0.39074  1.0000
  H   H3391     1.0  0.78010  0.06935  0.41215  1.0000
  H   H3392     1.0  0.71977  0.06776  0.38480  1.0000
  H   H3393     1.0  0.74484  0.07028  0.37462  1.0000
  H   H3394     1.0  0.71908  0.11005  0.42126  1.0000
  H   H3395     1.0  0.75194  0.02913  0.43807  1.0000
  H   H3396     1.0  0.77195  0.04141  0.42712  1.0000
  Fe  Fe213     1.0  0.85748  0.05228  0.47861  1.0000
  H   H3397     1.0  0.80079  0.08400  0.38210  1.0000
  H   H3398     1.0  0.77943  0.09675  0.37182  1.0000
  H   H3399     1.0  0.78313  0.10278  0.39330  1.0000
  H   H3400     1.0  0.75445  0.03496  0.37290  1.0000
  H   H3401     1.0  0.72936  0.03228  0.38363  1.0000
  H   H3402     1.0  0.73493  0.04801  0.36002  1.0000
  H   H3403     1.0  0.89305  0.33759  0.33258  1.0000
  C   C1914     1.0  0.91427  0.15403  0.42673  1.0000
  C   C1915     1.0  0.81581  0.47080  0.24899  1.0000
  C   C1916     1.0  0.88309  0.31880  0.32027  1.0000
  H   H3404     1.0  0.67307  0.11624  0.36468  1.0000
  C   C1917     1.0  0.92889  0.46839  0.30211  1.0000
  C   C1918     1.0  0.89476  0.45282  0.35182  1.0000
  H   H3405     1.0  0.67447  0.23523  0.29121  1.0000
  H   H3406     1.0  0.68964  0.10236  0.47603  1.0000
  C   C1919     1.0  0.68463  0.22149  0.28773  1.0000
  H   H3407     1.0  0.68874  0.13998  0.29830  1.0000
  C   C1920     1.0  0.91303  0.10628  0.45829  1.0000
  H   H3408     1.0  0.92635  0.28961  0.35685  1.0000
  H   H3409     1.0  0.81857  0.34425  0.28595  1.0000
  H   H3410     1.0  0.88932  0.27436  0.38194  1.0000
  H   H3411     1.0  0.90677  0.41180  0.35700  1.0000
  H   H3412     1.0  0.96849  0.11701  0.45615  1.0000
  H   H3413     1.0  0.88676  0.32730  0.30513  1.0000
  H   H3414     1.0  0.87267  0.09819  0.44371  1.0000
  H   H3415     1.0  0.96416  0.30378  0.35296  1.0000
  H   H3416     1.0  0.71742  0.11215  0.30143  1.0000
  H   H3417     1.0  0.77495  0.02216  0.45998  1.0000
  H   H3418     1.0  0.84411  0.32036  0.25538  1.0000
  H   H3419     1.0  0.70852  0.44398  0.24311  1.0000
  C   C1921     1.0  0.91610  0.46755  0.32295  1.0000
  H   H3420     1.0  0.90721  0.33426  0.38037  1.0000
  H   H3421     1.0  0.79604  0.12902  0.41610  1.0000
  C   C1922     1.0  0.82928  0.35155  0.24459  1.0000
  H   H3422     1.0  0.91737  0.42918  0.26641  1.0000
  H   H3423     1.0  0.68232  0.09399  0.44416  1.0000
  C   C1923     1.0  0.88645  0.11002  0.41437  1.0000
  H   H3424     1.0  0.89661  0.40531  0.27101  1.0000
  C   C1924     1.0  0.83773  0.11681  0.46696  1.0000
  H   H3425     1.0  0.89650  0.14643  0.45525  1.0000
  H   H3426     1.0  0.90795  0.33725  0.24880  1.0000
  N   N109      1.0  0.76667  0.46462  0.28626  1.0000
  C   C1925     1.0  0.75050  0.45638  0.28356  1.0000
  C   C1926     1.0  0.82906  0.18080  0.46245  1.0000
  C   C1927     1.0  0.78192  0.46543  0.26745  1.0000
  C   C1928     1.0  0.77639  0.45222  0.30294  1.0000
  C   C1929     1.0  0.76320  0.44152  0.32095  1.0000
  C   C1930     1.0  0.75726  0.43635  0.27697  1.0000
  H   H3427     1.0  0.87964  0.44765  0.27669  1.0000
  H   H3428     1.0  0.96843  0.29200  0.37718  1.0000
  H   H3429     1.0  0.83995  0.12962  0.40667  1.0000
  C   C1931     1.0  0.77256  0.43525  0.33895  1.0000
  C   C1932     1.0  0.73996  0.42676  0.27944  1.0000
  S   S431      1.0  0.66438  0.12681  0.26591  1.0000
  H   H3430     1.0  0.74262  0.46694  0.27243  1.0000
  H   H3431     1.0  0.73901  0.45475  0.29700  1.0000
  H   H3432     1.0  0.83685  0.36377  0.24260  1.0000
  H   H3433     1.0  0.74348  0.27157  0.48248  1.0000
  H   H3434     1.0  0.68522  0.20803  0.31773  1.0000
  H   H3435     1.0  0.90633  0.08035  0.45336  1.0000
  H   H3436     1.0  0.78875  0.44045  0.29782  1.0000
  H   H3437     1.0  0.78344  0.46137  0.30817  1.0000
  H   H3438     1.0  0.76100  0.42809  0.31767  1.0000
  H   H3439     1.0  0.74850  0.45067  0.32507  1.0000
  H   H3440     1.0  0.76437  0.43858  0.26121  1.0000
  H   H3441     1.0  0.76803  0.42598  0.28533  1.0000
  H   H3442     1.0  0.82093  0.14988  0.41328  1.0000
  C   C1933     1.0  0.94242  0.48284  0.29795  1.0000
  C   C1934     1.0  0.68993  0.10544  0.43409  1.0000
  C   C1935     1.0  0.96358  0.13177  0.45989  1.0000
  C   C1936     1.0  0.82501  0.13366  0.41546  1.0000
  H   H3443     1.0  0.86186  0.45215  0.29856  1.0000
  C   C1937     1.0  0.86813  0.10848  0.43049  1.0000
  H   H3444     1.0  0.76331  0.42678  0.35122  1.0000
  H   H3445     1.0  0.78736  0.42580  0.33582  1.0000
  H   H3446     1.0  0.77381  0.44834  0.34363  1.0000
  H   H3447     1.0  0.73276  0.42334  0.29510  1.0000
  H   H3448     1.0  0.72910  0.43664  0.27083  1.0000
  H   H3449     1.0  0.74534  0.41281  0.27401  1.0000
  H   H3450     1.0  0.96063  0.27890  0.36337  1.0000
  C   C1938     1.0  0.91093  0.15067  0.44933  1.0000
  C   C1939     1.0  0.88763  0.45592  0.31950  1.0000
  C   C1940     1.0  0.90738  0.41425  0.34104  1.0000
  H   H3451     1.0  0.95041  0.14455  0.43486  1.0000
  C   C1941     1.0  0.76455  0.03661  0.45836  1.0000
  H   H3452     1.0  0.81646  0.11083  0.40669  1.0000
  H   H3453     1.0  0.92160  0.09292  0.43259  1.0000
  C   C1942     1.0  0.81794  0.11764  0.48194  1.0000
  C   C1943     1.0  0.77772  0.39123  0.24466  1.0000
  H   H3454     1.0  0.89436  0.25188  0.41295  1.0000
  C   C1944     1.0  0.89489  0.30054  0.38821  1.0000
  C   C1945     1.0  0.82866  0.15148  0.44923  1.0000
  H   H3455     1.0  0.94295  0.15923  0.45290  1.0000
  C   C1946     1.0  0.78915  0.40325  0.24701  1.0000
  H   H3456     1.0  0.91720  0.13996  0.42187  1.0000
  H   H3457     1.0  0.89463  0.09505  0.41237  1.0000
  H   H3458     1.0  0.81245  0.15402  0.45471  1.0000
  C   C1947     1.0  0.93595  0.37422  0.28781  1.0000
  S   S432      1.0  0.88216  0.02571  0.47824  1.0000
  S   S433      1.0  0.76274  0.35760  0.25529  1.0000
  C   C1948     1.0  0.87814  0.34418  0.37471  1.0000
  H   H3459     1.0  0.89644  0.37309  0.24716  1.0000
  C   C1949     1.0  0.83829  0.33452  0.26022  1.0000
  H   H3460     1.0  0.69037  0.06629  0.26154  1.0000
  H   H3461     1.0  0.88317  0.16061  0.42543  1.0000
  C   C1950     1.0  0.89582  0.32167  0.33288  1.0000
  H   H3462     1.0  0.94002  0.17797  0.48358  1.0000
  C   C1951     1.0  0.92185  0.13473  0.48072  1.0000
  C   C1952     1.0  0.91845  0.19383  0.46587  1.0000
  C   C1953     1.0  0.68176  0.20443  0.30514  1.0000
  H   H3463     1.0  0.93478  0.39296  0.33451  1.0000
  C   C1954     1.0  0.87617  0.45497  0.28931  1.0000
  C   C1955     1.0  0.87692  0.36593  0.37366  1.0000
  H   H3464     1.0  0.87146  0.33788  0.38992  1.0000
  H   H3465     1.0  0.88556  0.36775  0.38355  1.0000
  H   H3466     1.0  0.88235  0.37334  0.35845  1.0000
  H   H3467     1.0  0.86134  0.37327  0.37818  1.0000
  C   C1956     1.0  0.91898  0.39540  0.33412  1.0000
  C   C1957     1.0  0.82404  0.12431  0.43748  1.0000
  H   H3468     1.0  0.94122  0.35883  0.29361  1.0000
  H   H3469     1.0  0.92363  0.43008  0.31487  1.0000
  H   H3470     1.0  0.84886  0.11943  0.47371  1.0000
  S   S434      1.0  0.70524  0.19193  0.46737  1.0000
  C   C1958     1.0  0.81697  0.07276  0.45727  1.0000
  H   H3471     1.0  0.81067  0.13502  0.39198  1.0000
  Fe  Fe214     1.0  0.68057  0.09223  0.33213  1.0000
  Fe  Fe215     1.0  0.66150  0.10954  0.29682  1.0000
  H   H3472     1.0  0.93350  0.29117  0.38936  1.0000
  C   C1959     1.0  0.81116  0.12664  0.40715  1.0000
  H   H3473     1.0  0.90862  0.10104  0.47430  1.0000
  H   H3474     1.0  0.90635  0.44964  0.29129  1.0000
  C   C1960     1.0  0.82769  0.47295  0.35540  1.0000
  H   H3475     1.0  0.83382  0.18502  0.47396  1.0000
  H   H3476     1.0  0.96916  0.04178  0.47199  1.0000
  S   S435      1.0  0.95514  0.42483  0.27595  1.0000
  H   H3477     1.0  0.83448  0.15103  0.47796  1.0000
  H   H3478     1.0  0.67032  0.13891  0.38642  1.0000
  H   H3479     1.0  0.98563  0.14355  0.43601  1.0000
  H   H3480     1.0  0.86001  0.29577  0.48210  1.0000
  S   S436      1.0  0.96391  0.47622  0.24368  1.0000
  H   H3481     1.0  0.88595  0.33647  0.24139  1.0000
  H   H3482     1.0  0.82236  0.45480  0.25136  1.0000
  H   H3483     1.0  0.68139  0.21864  0.27459  1.0000
  H   H3484     1.0  0.90656  0.48246  0.32254  1.0000
  H   H3485     1.0  0.75155  0.03585  0.47052  1.0000
  H   H3486     1.0  0.83083  0.48159  0.36403  1.0000
  C   C1961     1.0  0.87241  0.47178  0.37739  1.0000
  C   C1962     1.0  0.88223  0.47308  0.35579  1.0000
  H   H3487     1.0  0.86330  0.48638  0.37961  1.0000
  H   H3488     1.0  0.81277  0.18388  0.46550  1.0000
  H   H3489     1.0  0.72984  0.48161  0.30834  1.0000
  Fe  Fe216     1.0  0.95168  0.44916  0.24961  1.0000
  H   H3490     1.0  0.97709  0.15675  0.45587  1.0000
  C   C1963     1.0  0.98098  0.14199  0.45213  1.0000
  H   H3491     1.0  0.85124  0.41394  0.23933  1.0000
  C   C1964     1.0  0.89224  0.34429  0.24890  1.0000
  H   H3492     1.0  0.78194  0.16982  0.48375  1.0000
  H   H3493     1.0  0.66603  0.20368  0.30828  1.0000
  C   C1965     1.0  0.66209  0.17138  0.34191  1.0000
  C   C1966     1.0  0.96214  0.05287  0.48067  1.0000
  H   H3494     1.0  0.66278  0.09159  0.25189  1.0000
  C   C1967     1.0  0.68184  0.46518  0.23736  1.0000
  H   H3495     1.0  0.82747  0.47881  0.24765  1.0000
  H   H3496     1.0  0.75953  0.28646  0.48394  1.0000
  H   H3497     1.0  0.80926  0.32892  0.24298  1.0000
  H   H3498     1.0  0.74967  0.43130  0.23531  1.0000
  H   H3499     1.0  0.67101  0.07390  0.23610  1.0000
  H   H3500     1.0  0.70549  0.07209  0.23762  1.0000
  H   H3501     1.0  0.99356  0.13308  0.45894  1.0000
  H   H3502     1.0  0.79206  0.41589  0.23565  1.0000
  H   H3503     1.0  0.81033  0.47534  0.23511  1.0000
  Fe  Fe217     1.0  0.89000  0.34018  0.71717  1.0000
  H   H3504     1.0  0.82203  0.00555  0.51110  1.0000
  S   S437      1.0  0.90133  0.36564  0.69637  1.0000
  C   C1968     1.0  0.94080  0.45768  0.73125  1.0000
  S   S438      1.0  0.89582  0.26850  0.71555  1.0000
  H   H3505     1.0  0.69021  0.12633  0.68022  1.0000
  S   S439      1.0  0.86852  0.32477  0.71298  1.0000
  H   H3506     1.0  0.93179  0.22318  0.55676  1.0000
  H   H3507     1.0  0.79418  0.26556  0.70501  1.0000
  H   H3508     1.0  0.85044  0.32208  0.53770  1.0000
  H   H3509     1.0  0.83002  0.30655  0.57668  1.0000
  C   C1969     1.0  0.88276  0.09135  0.55729  1.0000
  H   H3510     1.0  0.95603  0.02236  0.58405  1.0000
  C   C1970     1.0  0.82649  0.28634  0.70906  1.0000
  H   H3511     1.0  0.76385  0.16754  0.50611  1.0000
  H   H3512     1.0  0.67622  0.08411  0.49130  1.0000
  H   H3513     1.0  0.78292  0.01343  0.55584  1.0000
  Fe  Fe218     1.0  0.76638  0.15801  0.58457  1.0000
  S   S440      1.0  0.76053  0.12891  0.60242  1.0000
  S   S441      1.0  0.79492  0.16808  0.57779  1.0000
  Fe  Fe219     1.0  0.72779  0.16957  0.57109  1.0000
  S   S442      1.0  0.71804  0.14163  0.58769  1.0000
  S   S443      1.0  0.71042  0.19489  0.55281  1.0000
  Fe  Fe220     1.0  0.72983  0.14552  0.61205  1.0000
  S   S444      1.0  0.71621  0.13708  0.64403  1.0000
  Fe  Fe221     1.0  0.74919  0.12712  0.57695  1.0000
  S   S445      1.0  0.75690  0.09960  0.56511  1.0000
  S   S446      1.0  0.73678  0.17497  0.59657  1.0000
  S   S447      1.0  0.75778  0.15467  0.55809  1.0000
  Fe  Fe222     1.0  0.87053  0.23799  0.63064  1.0000
  S   S448      1.0  0.85993  0.21183  0.65096  1.0000
  S   S449      1.0  0.87079  0.26647  0.63813  1.0000
  Fe  Fe223     1.0  0.87627  0.22124  0.59469  1.0000
  S   S450      1.0  0.86625  0.19378  0.61164  1.0000
  S   S451      1.0  0.88741  0.22526  0.56239  1.0000
  Fe  Fe224     1.0  0.84256  0.21366  0.62856  1.0000
  S   S452      1.0  0.81146  0.20914  0.63767  1.0000
  Fe  Fe225     1.0  0.88444  0.19411  0.63229  1.0000
  S   S453      1.0  0.90258  0.16580  0.64563  1.0000
  S   S454      1.0  0.85099  0.24134  0.60968  1.0000
  S   S455      1.0  0.89667  0.22010  0.61393  1.0000
  H   H3514     1.0  0.75933  0.13004  0.52216  1.0000
  H   H3515     1.0  0.76046  0.01461  0.53761  1.0000
  H   H3516     1.0  0.78759  0.20024  0.48973  1.0000
  Fe  Fe226     1.0  0.94728  0.15403  0.52537  1.0000
  S   S456      1.0  0.94515  0.12266  0.53854  1.0000
  S   S457      1.0  0.91818  0.17463  0.52400  1.0000
  H   H3517     1.0  0.77183  0.04803  0.52374  1.0000
  Fe  Fe227     1.0  0.97288  0.11547  0.51687  1.0000
  H   H3518     1.0  0.68740  0.21745  0.61327  1.0000
  Fe  Fe228     1.0  0.96481  0.12452  0.55720  1.0000
  S   S458      1.0  0.95925  0.11116  0.58925  1.0000
  S   S459      1.0  0.96500  0.15643  0.54573  1.0000
  H   H3519     1.0  0.89055  0.06045  0.55746  1.0000
  H   H3520     1.0  0.68051  0.20787  0.67987  1.0000
  C   C1971     1.0  0.80699  0.01272  0.50850  1.0000
  C   C1972     1.0  0.94958  0.32980  0.68954  1.0000
  H   H3521     1.0  0.74394  0.22690  0.68494  1.0000
  H   H3522     1.0  0.86341  0.24119  0.50174  1.0000
  H   H3523     1.0  0.67430  0.13033  0.52824  1.0000
  H   H3524     1.0  0.93775  0.09274  0.51169  1.0000
  C   C1973     1.0  0.92928  0.32224  0.66954  1.0000
  H   H3525     1.0  0.94200  0.21382  0.58833  1.0000
  C   C1974     1.0  0.91776  0.15103  0.62934  1.0000
  C   C1975     1.0  0.92869  0.13281  0.63701  1.0000
  C   C1976     1.0  0.94122  0.12072  0.62454  1.0000
  C   C1977     1.0  0.94313  0.12682  0.60427  1.0000
  C   C1978     1.0  0.93214  0.14502  0.59648  1.0000
  C   C1979     1.0  0.91934  0.15710  0.60904  1.0000
  H   H3526     1.0  0.92750  0.12805  0.65267  1.0000
  H   H3527     1.0  0.94961  0.10667  0.63065  1.0000
  H   H3528     1.0  0.93330  0.14974  0.58083  1.0000
  H   H3529     1.0  0.91091  0.17116  0.60299  1.0000
  C   C1980     1.0  0.78247  0.09254  0.55851  1.0000
  H   H3530     1.0  0.88765  0.10270  0.56166  1.0000
  C   C1981     1.0  0.69101  0.14615  0.65216  1.0000
  H   H3531     1.0  0.85718  0.31746  0.56055  1.0000
  C   C1982     1.0  0.81131  0.07011  0.54513  1.0000
  C   C1983     1.0  0.79084  0.07592  0.55027  1.0000
  H   H3532     1.0  0.85222  0.23895  0.68221  1.0000
  H   H3533     1.0  0.81768  0.05715  0.53910  1.0000
  H   H3534     1.0  0.78148  0.06751  0.54799  1.0000
  C   C1984     1.0  0.79835  0.18056  0.59413  1.0000
  C   C1985     1.0  0.78637  0.18009  0.61275  1.0000
  C   C1986     1.0  0.79025  0.18921  0.62597  1.0000
  C   C1987     1.0  0.80597  0.19887  0.62059  1.0000
  C   C1988     1.0  0.81762  0.19968  0.60180  1.0000
  C   C1989     1.0  0.81387  0.19047  0.58864  1.0000
  H   H3535     1.0  0.77447  0.17233  0.61704  1.0000
  H   H3536     1.0  0.78144  0.18835  0.64051  1.0000
  H   H3537     1.0  0.82958  0.20732  0.59741  1.0000
  H   H3538     1.0  0.82307  0.19102  0.57419  1.0000
  C   C1990     1.0  0.72159  0.17787  0.50062  1.0000
  C   C1991     1.0  0.74899  0.20202  0.67097  1.0000
  C   C1992     1.0  0.79460  0.10341  0.56148  1.0000
  H   H3539     1.0  0.99274  0.35831  0.65822  1.0000
  C   C1993     1.0  0.83965  0.24387  0.52665  1.0000
  C   C1994     1.0  0.85935  0.23913  0.51748  1.0000
  C   C1995     1.0  0.87399  0.23238  0.52867  1.0000
  C   C1996     1.0  0.86891  0.23014  0.54903  1.0000
  C   C1997     1.0  0.84913  0.23358  0.55830  1.0000
  C   C1998     1.0  0.83449  0.24065  0.54709  1.0000
  C   C1999     1.0  0.85911  0.29482  0.51260  1.0000
  H   H3540     1.0  0.88931  0.22939  0.52149  1.0000
  H   H3541     1.0  0.84514  0.23174  0.57402  1.0000
  H   H3542     1.0  0.81921  0.24401  0.55425  1.0000
  H   H3543     1.0  0.94677  0.20064  0.65128  1.0000
  C   C2000     1.0  0.81505  0.01210  0.56838  1.0000
  C   C2001     1.0  0.68192  0.13835  0.67117  1.0000
  H   H3544     1.0  0.92027  0.04779  0.53590  1.0000
  H   H3545     1.0  0.84393  0.28339  0.58728  1.0000
  H   H3546     1.0  0.90496  0.11637  0.51815  1.0000
  C   C2002     1.0  0.77117  0.01737  0.52353  1.0000
  C   C2003     1.0  0.72221  0.17818  0.51993  1.0000
  C   C2004     1.0  0.70989  0.19328  0.52903  1.0000
  C   C2005     1.0  0.69697  0.20790  0.51886  1.0000
  H   H3547     1.0  0.71880  0.09417  0.50531  1.0000
  H   H3548     1.0  0.98659  0.31686  0.68045  1.0000
  H   H3549     1.0  0.73228  0.16692  0.52772  1.0000
  H   H3550     1.0  0.68746  0.21963  0.52576  1.0000
  C   C2006     1.0  0.93610  0.01471  0.61093  1.0000
  Fe  Fe229     1.0  0.86693  0.01504  0.50893  1.0000
  H   H3551     1.0  0.83083  0.29616  0.69477  1.0000
  S   S460      1.0  0.91790  0.47257  0.70373  1.0000
  H   H3552     1.0  0.74938  0.21161  0.65621  1.0000
  H   H3553     1.0  0.76251  0.12957  0.49648  1.0000
  H   H3554     1.0  0.70438  0.10443  0.58844  1.0000
  H   H3555     1.0  0.93352  0.21775  0.63341  1.0000
  C   C2007     1.0  0.84923  0.40231  0.70999  1.0000
  H   H3556     1.0  0.92705  0.19926  0.56920  1.0000
  H   H3557     1.0  0.95207  0.01359  0.55125  1.0000
  H   H3558     1.0  0.98540  0.11985  0.61314  1.0000
  H   H3559     1.0  0.91980  0.08023  0.56602  1.0000
  C   C2008     1.0  0.89023  0.26818  0.69323  1.0000
  C   C2009     1.0  0.89324  0.25014  0.68763  1.0000
  C   C2010     1.0  0.88786  0.24940  0.67045  1.0000
  C   C2011     1.0  0.87934  0.26672  0.65886  1.0000
  C   C2012     1.0  0.87672  0.28475  0.66425  1.0000
  C   C2013     1.0  0.88216  0.28549  0.68134  1.0000
  H   H3560     1.0  0.89954  0.23670  0.69674  1.0000
  H   H3561     1.0  0.89007  0.23545  0.66632  1.0000
  H   H3562     1.0  0.87022  0.29821  0.65529  1.0000
  H   H3563     1.0  0.87997  0.29946  0.68535  1.0000
  C   C2014     1.0  0.88325  0.38689  0.69933  1.0000
  C   C2015     1.0  0.88848  0.40516  0.69505  1.0000
  C   C2016     1.0  0.87415  0.42193  0.69875  1.0000
  C   C2017     1.0  0.85452  0.42049  0.70628  1.0000
  C   C2018     1.0  0.92375  0.47070  0.72640  1.0000
  C   C2019     1.0  0.86361  0.38548  0.70675  1.0000
  H   H3564     1.0  0.90363  0.40629  0.68922  1.0000
  H   H3565     1.0  0.87832  0.43593  0.69586  1.0000
  H   H3566     1.0  0.77609  0.04276  0.49977  1.0000
  H   H3567     1.0  0.68946  0.09994  0.54415  1.0000
  C   C2020     1.0  0.88091  0.32207  0.53639  1.0000
  C   C2021     1.0  0.89979  0.27385  0.55352  1.0000
  C   C2022     1.0  0.91137  0.26472  0.56985  1.0000
  C   C2023     1.0  0.87610  0.34448  0.53341  1.0000
  H   H3568     1.0  0.88779  0.31835  0.52187  1.0000
  H   H3569     1.0  0.89164  0.31650  0.54619  1.0000
  H   H3570     1.0  0.90227  0.26258  0.54464  1.0000
  H   H3571     1.0  0.90611  0.28632  0.54403  1.0000
  H   H3572     1.0  0.92718  0.26019  0.56341  1.0000
  H   H3573     1.0  0.90976  0.27542  0.57913  1.0000
  H   H3574     1.0  0.90611  0.25147  0.57912  1.0000
  H   H3575     1.0  0.88979  0.35018  0.52697  1.0000
  H   H3576     1.0  0.86574  0.35105  0.52324  1.0000
  H   H3577     1.0  0.86951  0.34916  0.54760  1.0000
  N   N110      1.0  0.86806  0.13389  0.60514  1.0000
  C   C2024     1.0  0.86745  0.15243  0.58949  1.0000
  C   C2025     1.0  0.86391  0.13938  0.62486  1.0000
  C   C2026     1.0  0.88878  0.12182  0.60190  1.0000
  C   C2027     1.0  0.85412  0.12160  0.60459  1.0000
  C   C2028     1.0  0.83476  0.13263  0.59746  1.0000
  C   C2029     1.0  0.87503  0.14941  0.56811  1.0000
  C   C2030     1.0  0.89347  0.10352  0.61826  1.0000
  C   C2031     1.0  0.84310  0.15128  0.63168  1.0000
  C   C2032     1.0  0.84151  0.15736  0.65091  1.0000
  C   C2033     1.0  0.82105  0.11854  0.60066  1.0000
  C   C2034     1.0  0.86884  0.16819  0.55350  1.0000
  C   C2035     1.0  0.91118  0.08843  0.61074  1.0000
  H   H3578     1.0  0.87667  0.16168  0.59159  1.0000
  H   H3579     1.0  0.85243  0.16176  0.59066  1.0000
  H   H3580     1.0  0.86567  0.12607  0.63668  1.0000
  H   H3581     1.0  0.87487  0.14773  0.62516  1.0000
  H   H3582     1.0  0.89954  0.13108  0.60015  1.0000
  H   H3583     1.0  0.89230  0.11663  0.58793  1.0000
  H   H3584     1.0  0.86146  0.11094  0.59484  1.0000
  H   H3585     1.0  0.85006  0.11236  0.61933  1.0000
  H   H3586     1.0  0.83778  0.13913  0.58159  1.0000
  H   H3587     1.0  0.82671  0.14475  0.60508  1.0000
  H   H3588     1.0  0.89137  0.14549  0.56485  1.0000
  H   H3589     1.0  0.86952  0.13745  0.56559  1.0000
  H   H3590     1.0  0.88090  0.09607  0.62438  1.0000
  H   H3591     1.0  0.89696  0.10815  0.63033  1.0000
  H   H3592     1.0  0.83930  0.16481  0.62076  1.0000
  H   H3593     1.0  0.83203  0.14216  0.63444  1.0000
  H   H3594     1.0  0.82644  0.16585  0.65546  1.0000
  H   H3595     1.0  0.84446  0.14422  0.66265  1.0000
  H   H3596     1.0  0.85208  0.16680  0.64916  1.0000
  H   H3597     1.0  0.81626  0.11272  0.61652  1.0000
  H   H3598     1.0  0.80777  0.12642  0.59458  1.0000
  H   H3599     1.0  0.82846  0.10611  0.59313  1.0000
  H   H3600     1.0  0.87464  0.16564  0.53838  1.0000
  H   H3601     1.0  0.85260  0.17261  0.55581  1.0000
  H   H3602     1.0  0.87484  0.18036  0.55505  1.0000
  H   H3603     1.0  0.92402  0.09533  0.60375  1.0000
  H   H3604     1.0  0.91513  0.07638  0.62311  1.0000
  H   H3605     1.0  0.90758  0.08211  0.59997  1.0000
  H   H3606     1.0  0.85385  0.19568  0.69682  1.0000
  C   C2036     1.0  0.93883  0.20766  0.56200  1.0000
  H   H3607     1.0  0.74875  0.15872  0.68234  1.0000
  H   H3608     1.0  0.84559  0.28873  0.51684  1.0000
  H   H3609     1.0  0.90396  0.14173  0.51811  1.0000
  C   C2037     1.0  0.75450  0.21270  0.68388  1.0000
  C   C2038     1.0  0.95159  0.20667  0.57634  1.0000
  H   H3610     1.0  0.80492  0.28958  0.57414  1.0000
  C   C2039     1.0  0.82344  0.08088  0.54824  1.0000
  C   C2040     1.0  0.76370  0.25727  0.50237  1.0000
  H   H3611     1.0  0.82774  0.30831  0.72420  1.0000
  H   H3612     1.0  0.71843  0.20994  0.68446  1.0000
  H   H3613     1.0  0.92023  0.07801  0.54204  1.0000
  H   H3614     1.0  0.69005  0.09234  0.58008  1.0000
  H   H3615     1.0  0.69213  0.12583  0.55963  1.0000
  H   H3616     1.0  0.81892  0.26627  0.58484  1.0000
  S   S461      1.0  0.84907  0.07405  0.54160  1.0000
  H   H3617     1.0  0.91529  0.32945  0.67802  1.0000
  C   C2041     1.0  0.95718  0.36216  0.68523  1.0000
  S   S462      1.0  0.98038  0.09177  0.49934  1.0000
  H   H3618     1.0  0.91409  0.03062  0.55749  1.0000
  H   H3619     1.0  0.86567  0.19233  0.71699  1.0000
  H   H3620     1.0  0.93257  0.30637  0.67641  1.0000
  H   H3621     1.0  0.68976  0.23413  0.62697  1.0000
  N   N111      1.0  0.97487  0.18198  0.59791  1.0000
  C   C2042     1.0  0.93673  0.20221  0.64132  1.0000
  H   H3622     1.0  0.72299  0.13691  0.52418  1.0000
  C   C2043     1.0  0.78722  0.47552  0.71108  1.0000
  H   H3623     1.0  0.96350  0.20925  0.60833  1.0000
  H   H3624     1.0  0.83376  0.29601  0.54615  1.0000
  C   C2044     1.0  0.81506  0.09751  0.55645  1.0000
  C   C2045     1.0  0.74345  0.11074  0.51656  1.0000
  H   H3625     1.0  0.98322  0.30609  0.71412  1.0000
  C   C2046     1.0  0.97976  0.16035  0.60680  1.0000
  C   C2047     1.0  0.74595  0.04843  0.51424  1.0000
  H   H3626     1.0  0.76982  0.23287  0.48832  1.0000
  H   H3627     1.0  0.98301  0.07259  0.54144  1.0000
  H   H3628     1.0  0.96611  0.15490  0.61452  1.0000
  H   H3629     1.0  0.78920  0.16538  0.50694  1.0000
  H   H3630     1.0  0.86698  0.09193  0.56407  1.0000
  H   H3631     1.0  0.94793  0.17322  0.63555  1.0000
  H   H3632     1.0  0.98845  0.15771  0.61830  1.0000
  H   H3633     1.0  0.97568  0.18999  0.62453  1.0000
  N   N112      1.0  0.70556  0.11830  0.52028  1.0000
  H   H3634     1.0  0.92270  0.19841  0.65030  1.0000
  H   H3635     1.0  0.78826  0.11635  0.56768  1.0000
  N   N113      1.0  0.72009  0.18939  0.66659  1.0000
  C   C2048     1.0  0.71353  0.20661  0.65092  1.0000
  C   C2049     1.0  0.72861  0.19664  0.67980  1.0000
  C   C2050     1.0  0.73522  0.17424  0.65664  1.0000
  C   C2051     1.0  0.70308  0.18031  0.67878  1.0000
  C   C2052     1.0  0.68612  0.19421  0.68989  1.0000
  C   C2053     1.0  0.70037  0.20307  0.63866  1.0000
  H   H3636     1.0  0.95349  0.03039  0.52797  1.0000
  C   C2054     1.0  0.69702  0.22035  0.62157  1.0000
  C   C2055     1.0  0.76195  0.14323  0.65893  1.0000
  H   H3637     1.0  0.72654  0.21134  0.64042  1.0000
  H   H3638     1.0  0.70539  0.21969  0.65728  1.0000
  H   H3639     1.0  0.92062  0.01304  0.61642  1.0000
  H   H3640     1.0  0.74738  0.18088  0.64659  1.0000
  H   H3641     1.0  0.72886  0.16913  0.64690  1.0000
  H   H3642     1.0  0.69701  0.17390  0.66974  1.0000
  H   H3643     1.0  0.70811  0.16762  0.69019  1.0000
  H   H3644     1.0  0.95061  0.44935  0.72078  1.0000
  H   H3645     1.0  0.69125  0.19830  0.70125  1.0000
  H   H3646     1.0  0.70706  0.18975  0.63242  1.0000
  H   H3647     1.0  0.68574  0.20128  0.64778  1.0000
  H   H3648     1.0  0.76046  0.18844  0.66987  1.0000
  H   H3649     1.0  0.67202  0.17564  0.51195  1.0000
  C   C2056     1.0  0.92663  0.04128  0.58223  1.0000
  C   C2057     1.0  0.98464  0.33276  0.68033  1.0000
  H   H3650     1.0  0.74075  0.04083  0.50558  1.0000
  C   C2058     1.0  0.95151  0.05361  0.55361  1.0000
  C   C2059     1.0  0.76198  0.23606  0.50289  1.0000
  H   H3651     1.0  0.75796  0.13950  0.64663  1.0000
  H   H3652     1.0  0.77398  0.15146  0.65303  1.0000
  C   C2060     1.0  0.70470  0.11334  0.55728  1.0000
  C   C2061     1.0  0.66886  0.18427  0.70032  1.0000
  C   C2062     1.0  0.76097  0.12060  0.51160  1.0000
  H   H3653     1.0  0.83407  0.40115  0.71576  1.0000
  H   H3654     1.0  0.76669  0.01100  0.51336  1.0000
  C   C2063     1.0  0.95822  0.06573  0.56471  1.0000
  H   H3655     1.0  0.79994  0.28825  0.65020  1.0000
  H   H3656     1.0  0.82437  0.10600  0.55870  1.0000
  H   H3657     1.0  0.71510  0.09081  0.53966  1.0000
  H   H3658     1.0  0.74301  0.10158  0.53145  1.0000
  C   C2064     1.0  0.80566  0.00671  0.48988  1.0000
  H   H3659     1.0  0.67382  0.16966  0.70944  1.0000
  H   H3660     1.0  0.95386  0.31369  0.69501  1.0000
  H   H3661     1.0  0.95013  0.08124  0.56249  1.0000
  H   H3662     1.0  0.85489  0.31104  0.51064  1.0000
  H   H3663     1.0  0.93889  0.02548  0.61797  1.0000
  C   C2065     1.0  0.70632  0.10705  0.50506  1.0000
  H   H3664     1.0  0.80747  0.26938  0.63591  1.0000
  H   H3665     1.0  0.87283  0.26592  0.56958  1.0000
  C   C2066     1.0  0.84423  0.28714  0.55568  1.0000
  C   C2067     1.0  0.94603  0.33203  0.66877  1.0000
  C   C2068     1.0  0.87207  0.28568  0.52821  1.0000
  S   S463      1.0  0.88352  0.02876  0.52251  1.0000
  C   C2069     1.0  0.70386  0.09786  0.57630  1.0000
  Fe  Fe230     1.0  0.84948  0.46730  0.70768  1.0000
  H   H3666     1.0  0.96361  0.37719  0.70495  1.0000
  H   H3667     1.0  0.85139  0.26431  0.69974  1.0000
  H   H3668     1.0  0.88146  0.19614  0.51509  1.0000
  C   C2070     1.0  0.89183  0.19535  0.50139  1.0000
  C   C2071     1.0  0.83591  0.26464  0.70760  1.0000
  C   C2072     1.0  0.77367  0.19533  0.49714  1.0000
  S   S464      1.0  0.82146  0.25483  0.51275  1.0000
  S   S465      1.0  0.87122  0.47943  0.68215  1.0000
  H   H3669     1.0  0.87409  0.26946  0.53049  1.0000
  C   C2073     1.0  0.70375  0.10465  0.54007  1.0000
  H   H3670     1.0  0.94782  0.20158  0.54909  1.0000
  C   C2074     1.0  0.76758  0.03984  0.51499  1.0000
  H   H3671     1.0  0.76941  0.21579  0.67733  1.0000
  H   H3672     1.0  0.82952  0.00557  0.57263  1.0000
  C   C2075     1.0  0.94444  0.08170  0.50295  1.0000
  H   H3673     1.0  0.94193  0.34766  0.66157  1.0000
  H   H3674     1.0  0.77637  0.47153  0.70510  1.0000
  H   H3675     1.0  0.92672  0.00029  0.54405  1.0000
  H   H3676     1.0  0.85375  0.22704  0.71877  1.0000
  N   N114      1.0  0.76982  0.22010  0.51892  1.0000
  C   C2076     1.0  0.76550  0.20117  0.51744  1.0000
  C   C2077     1.0  0.75849  0.22538  0.53820  1.0000
  H   H3677     1.0  0.87469  0.27379  0.49392  1.0000
  C   C2078     1.0  0.79152  0.21916  0.51665  1.0000
  C   C2079     1.0  0.80446  0.19873  0.52358  1.0000
  H   H3678     1.0  0.80313  0.25446  0.67125  1.0000
  S   S466      1.0  0.83655  0.44103  0.71191  1.0000
  C   C2080     1.0  0.76450  0.21143  0.55687  1.0000
  C   C2081     1.0  0.75197  0.21869  0.57519  1.0000
  C   C2082     1.0  0.82404  0.20060  0.52669  1.0000
  H   H3679     1.0  0.66137  0.18244  0.68946  1.0000
  H   H3680     1.0  0.74933  0.20213  0.52073  1.0000
  H   H3681     1.0  0.77078  0.18876  0.52884  1.0000
  H   H3682     1.0  0.76033  0.23993  0.53910  1.0000
  H   H3683     1.0  0.74245  0.22662  0.53946  1.0000
  H   H3684     1.0  0.83209  0.20898  0.51333  1.0000
  H   H3685     1.0  0.95377  0.06095  0.53788  1.0000
  H   H3686     1.0  0.79358  0.22978  0.52437  1.0000
  H   H3687     1.0  0.80772  0.18960  0.51244  1.0000
  H   H3688     1.0  0.79725  0.19048  0.53748  1.0000
  H   H3689     1.0  0.71845  0.11868  0.55456  1.0000
  N   N115      1.0  0.93066  0.05053  0.56075  1.0000
  H   H3690     1.0  0.75322  0.26310  0.51477  1.0000
  H   H3691     1.0  0.76261  0.19637  0.55802  1.0000
  H   H3692     1.0  0.77997  0.21104  0.55700  1.0000
  H   H3693     1.0  0.75696  0.20878  0.58835  1.0000
  H   H3694     1.0  0.75354  0.23372  0.57483  1.0000
  H   H3695     1.0  0.73626  0.21876  0.57636  1.0000
  H   H3696     1.0  0.82153  0.20814  0.53900  1.0000
  H   H3697     1.0  0.83330  0.18574  0.53036  1.0000
  Fe  Fe231     1.0  0.89655  0.04176  0.49176  1.0000
  C   C2083     1.0  0.96477  0.07848  0.49551  1.0000
  H   H3698     1.0  0.89039  0.06683  0.58004  1.0000
  C   C2084     1.0  0.94343  0.02279  0.54024  1.0000
  C   C2085     1.0  0.69600  0.20732  0.49992  1.0000
  C   C2086     1.0  0.74408  0.15536  0.67032  1.0000
  Fe  Fe232     1.0  0.88796  0.29720  0.72603  1.0000
  C   C2087     1.0  0.68023  0.16172  0.64054  1.0000
  H   H3699     1.0  0.68714  0.16782  0.62585  1.0000
  H   H3700     1.0  0.68959  0.14517  0.52995  1.0000
  C   C2088     1.0  0.87748  0.28006  0.56200  1.0000
  C   C2089     1.0  0.97026  0.31415  0.72308  1.0000
  H   H3701     1.0  0.97321  0.39475  0.66080  1.0000
  C   C2090     1.0  0.92921  0.41541  0.71391  1.0000
  C   C2091     1.0  0.94578  0.18850  0.62686  1.0000
  H   H3702     1.0  0.96889  0.17855  0.57136  1.0000
  C   C2092     1.0  0.83894  0.23604  0.69349  1.0000
  H   H3703     1.0  0.80841  0.28522  0.59889  1.0000
  H   H3704     1.0  0.88691  0.28868  0.52146  1.0000
  H   H3705     1.0  0.92870  0.40165  0.70997  1.0000
  H   H3706     1.0  0.72987  0.18559  0.69366  1.0000
  N   N116      1.0  0.96438  0.34029  0.69151  1.0000
  H   H3707     1.0  0.83141  0.22828  0.68710  1.0000
  H   H3708     1.0  0.83152  0.11033  0.50745  1.0000
  H   H3709     1.0  0.93493  0.19019  0.61779  1.0000
  H   H3710     1.0  0.76737  0.12931  0.66877  1.0000
  H   H3711     1.0  0.73305  0.14597  0.67685  1.0000
  H   H3712     1.0  0.98486  0.36870  0.68761  1.0000
  C   C2093     1.0  0.68513  0.14872  0.50076  1.0000
  C   C2094     1.0  0.78758  0.46412  0.73207  1.0000
  H   H3713     1.0  0.84502  0.27156  0.55562  1.0000
  H   H3714     1.0  0.98051  0.14607  0.58311  1.0000
  H   H3715     1.0  0.83782  0.27300  0.67010  1.0000
  H   H3716     1.0  0.95667  0.36632  0.66947  1.0000
  H   H3717     1.0  0.82819  0.24835  0.65836  1.0000
  N   N117      1.0  0.82583  0.25531  0.69756  1.0000
  C   C2095     1.0  0.81547  0.28241  0.58402  1.0000
  C   C2096     1.0  0.86223  0.31362  0.54585  1.0000
  H   H3718     1.0  0.94474  0.41684  0.71082  1.0000
  C   C2097     1.0  0.82362  0.26874  0.67798  1.0000
  C   C2098     1.0  0.91714  0.07053  0.55770  1.0000
  Fe  Fe233     1.0  0.85923  0.05530  0.51906  1.0000
  C   C2099     1.0  0.89476  0.07083  0.56387  1.0000
  H   H3719     1.0  0.96230  0.03945  0.55414  1.0000
  H   H3720     1.0  0.87583  0.28802  0.57387  1.0000
  C   C2100     1.0  0.96105  0.18505  0.58433  1.0000
  C   C2101     1.0  0.96563  0.19311  0.61419  1.0000
  H   H3721     1.0  0.96298  0.21532  0.56849  1.0000
  C   C2102     1.0  0.83422  0.29059  0.57663  1.0000
  H   H3722     1.0  0.67419  0.11011  0.50878  1.0000
  H   H3723     1.0  0.98914  0.05094  0.55992  1.0000
  H   H3724     1.0  0.95610  0.05942  0.58062  1.0000
  H   H3725     1.0  0.92689  0.05163  0.59118  1.0000
  C   C2103     1.0  0.80570  0.25239  0.70907  1.0000
  C   C2104     1.0  0.81655  0.26033  0.66384  1.0000
  H   H3726     1.0  0.85946  0.37143  0.70995  1.0000
  C   C2105     1.0  0.93611  0.00899  0.53218  1.0000
  H   H3727     1.0  0.87389  0.20772  0.69392  1.0000
  H   H3728     1.0  0.94904  0.17699  0.59140  1.0000
  H   H3729     1.0  0.80171  0.24019  0.70507  1.0000
  H   H3730     1.0  0.77450  0.10906  0.51264  1.0000
  H   H3731     1.0  0.71119  0.22223  0.61144  1.0000
  H   H3732     1.0  0.80340  0.00720  0.58072  1.0000
  C   C2106     1.0  0.84611  0.22082  0.71104  1.0000
  H   H3733     1.0  0.92754  0.01747  0.52082  1.0000
  H   H3734     1.0  0.81309  0.28279  0.68000  1.0000
  N   N118      1.0  0.79179  0.00754  0.52655  1.0000
  C   C2107     1.0  0.99037  0.34355  0.65877  1.0000
  C   C2108     1.0  0.94034  0.02141  0.58867  1.0000
  S   S467      1.0  0.84128  0.04065  0.50838  1.0000
  H   H3735     1.0  0.74629  0.10087  0.50627  1.0000
  N   N119      1.0  0.86439  0.29185  0.54771  1.0000
  H   H3736     1.0  0.93516  0.33482  0.69887  1.0000
  H   H3737     1.0  0.88420  0.09474  0.54116  1.0000
  H   H3738     1.0  0.79509  0.03111  0.53844  1.0000
  C   C2109     1.0  0.72409  0.12622  0.51505  1.0000
  H   H3739     1.0  0.75469  0.20345  0.69877  1.0000
  H   H3740     1.0  0.92102  0.42823  0.70478  1.0000
  H   H3741     1.0  0.94164  0.36668  0.69275  1.0000
  H   H3742     1.0  0.74622  0.23633  0.50375  1.0000
  C   C2110     1.0  0.86074  0.20310  0.70420  1.0000
  C   C2111     1.0  0.96893  0.37533  0.68952  1.0000
  H   H3743     1.0  0.95046  0.40264  0.67709  1.0000
  H   H3744     1.0  0.72610  0.13464  0.49970  1.0000
  C   C2112     1.0  0.92615  0.03827  0.54884  1.0000
  H   H3745     1.0  0.92721  0.32364  0.65448  1.0000
  H   H3746     1.0  0.79833  0.22419  0.50107  1.0000
  C   C2113     1.0  0.68791  0.09873  0.50722  1.0000
  C   C2114     1.0  0.68820  0.13542  0.52084  1.0000
  C   C2115     1.0  0.91138  0.18572  0.50141  1.0000
  H   H3747     1.0  0.82533  0.28191  0.63781  1.0000
  H   H3748     1.0  0.71667  0.08538  0.57495  1.0000
  C   C2116     1.0  0.83349  0.29236  0.72452  1.0000
  H   H3749     1.0  0.80705  0.10622  0.51266  1.0000
  C   C2117     1.0  0.81203  0.27602  0.64588  1.0000
  H   H3750     1.0  0.80674  0.02875  0.50512  1.0000
  C   C2118     1.0  0.66856  0.16667  0.50335  1.0000
  H   H3751     1.0  0.79197  0.44826  0.73166  1.0000
  H   H3752     1.0  0.95935  0.32458  0.65967  1.0000
  C   C2119     1.0  0.89754  0.13181  0.51322  1.0000
  C   C2120     1.0  0.66214  0.14600  0.67857  1.0000
  C   C2121     1.0  0.98002  0.06604  0.55733  1.0000
  H   H3753     1.0  0.91149  0.03841  0.58689  1.0000
  H   H3754     1.0  0.95022  0.34237  0.72132  1.0000
  S   S468      1.0  0.86521  0.46807  0.73025  1.0000
  H   H3755     1.0  0.97544  0.34360  0.71553  1.0000
  C   C2122     1.0  0.80246  0.24848  0.73174  1.0000
  C   C2123     1.0  0.81473  0.00543  0.55003  1.0000
  C   C2124     1.0  0.79515  0.01513  0.54287  1.0000
  S   S469      1.0  0.97358  0.14686  0.50197  1.0000
  C   C2125     1.0  0.86995  0.28995  0.49273  1.0000
  S   S470      1.0  0.91087  0.31253  0.72753  1.0000
  H   H3756     1.0  0.88171  0.13367  0.52020  1.0000
  H   H3757     1.0  0.73680  0.04711  0.52925  1.0000
  H   H3758     1.0  0.68674  0.08658  0.52026  1.0000
  Fe  Fe234     1.0  0.88549  0.48260  0.70512  1.0000
  H   H3759     1.0  0.95770  0.30694  0.72552  1.0000
  H   H3760     1.0  0.73140  0.16658  0.49337  1.0000
  H   H3761     1.0  0.74416  0.06424  0.50711  1.0000
  H   H3762     1.0  0.83358  0.21520  0.72137  1.0000
  H   H3763     1.0  0.93782  0.00989  0.58249  1.0000
  H   H3764     1.0  0.83710  0.25608  0.72254  1.0000
  Fe  Fe235     1.0  0.99152  0.14621  0.52368  1.0000
  H   H3765     1.0  0.82706  0.08946  0.50097  1.0000
  C   C2126     1.0  0.77738  0.17313  0.49865  1.0000
  H   H3766     1.0  0.88304  0.29671  0.48703  1.0000
  H   H3767     1.0  0.81022  0.28890  0.71275  1.0000
  C   C2127     1.0  0.93292  0.07046  0.49909  1.0000
  C   C2128     1.0  0.96483  0.33614  0.71303  1.0000
  H   H3768     1.0  0.98434  0.07506  0.56526  1.0000
  C   C2129     1.0  0.82115  0.10514  0.50190  1.0000
  H   H3769     1.0  0.93012  0.12072  0.48813  1.0000
  H   H3770     1.0  0.84979  0.28946  0.72156  1.0000
  H   H3771     1.0  0.80192  0.47184  0.70164  1.0000
  C   C2130     1.0  0.96629  0.39574  0.67622  1.0000
  H   H3772     1.0  0.82724  0.00978  0.53866  1.0000
  H   H3773     1.0  0.91721  0.07302  0.50461  1.0000
  H   H3774     1.0  0.97891  0.34566  0.65031  1.0000
  H   H3775     1.0  0.97338  0.40531  0.68083  1.0000
  H   H3776     1.0  0.94588  0.00027  0.61518  1.0000
  H   H3777     1.0  0.98950  0.20583  0.58207  1.0000
  H   H3778     1.0  0.81291  0.06755  0.48861  1.0000
  H   H3779     1.0  0.81286  0.02834  0.56563  1.0000
  H   H3780     1.0  0.69862  0.15400  0.49255  1.0000
  H   H3781     1.0  0.68118  0.14068  0.49163  1.0000
  H   H3782     1.0  0.68564  0.21853  0.49238  1.0000
  H   H3783     1.0  0.89087  0.42506  0.73022  1.0000
  H   H3784     1.0  0.77695  0.08002  0.49383  1.0000
  H   H3785     1.0  0.77880  0.25772  0.50307  1.0000
  H   H3786     1.0  0.81182  0.99071  0.49094  1.0000
  C   C2131     1.0  0.99059  0.14673  0.59216  1.0000
  C   C2132     1.0  0.89987  0.13684  0.49096  1.0000
  H   H3787     1.0  0.94881  0.99870  0.52534  1.0000
  C   C2133     1.0  0.99301  0.18949  0.58619  1.0000
  C   C2134     1.0  0.68926  0.09046  0.48933  1.0000
  S   S471      1.0  0.99279  0.11423  0.53684  1.0000
  H   H3788     1.0  0.70951  0.11619  0.49009  1.0000
  S   S472      1.0  0.87337  0.06932  0.48910  1.0000
  C   C2135     1.0  0.94189  0.05592  0.48794  1.0000
  C   C2136     1.0  0.70816  0.19229  0.49075  1.0000
  H   H3789     1.0  0.66682  0.17601  0.48877  1.0000
  H   H3790     1.0  0.70272  0.07876  0.48725  1.0000
  H   H3791     1.0  0.76284  0.20259  0.48755  1.0000
  H   H3792     1.0  0.89260  0.12719  0.48683  1.0000
  H   H3793     1.0  0.79040  0.00981  0.48780  1.0000
  H   H3794     1.0  0.89194  0.15232  0.48692  1.0000
  C   C2137     1.0  0.80042  0.47786  0.88750  1.0000
  S   S473      1.0  0.87244  0.29779  0.75726  1.0000
  S   S474      1.0  0.82181  0.33547  0.75367  1.0000
  S   S475      1.0  0.90785  0.31442  0.78216  1.0000
  H   H3795     1.0  0.90300  0.48457  0.85922  1.0000
  Fe  Fe236     1.0  0.72348  0.33249  0.86883  1.0000
  S   S476      1.0  0.74313  0.33645  0.83923  1.0000
  S   S477      1.0  0.69670  0.31912  0.87586  1.0000
  Fe  Fe237     1.0  0.74967  0.34657  0.88729  1.0000
  S   S478      1.0  0.77168  0.35124  0.85928  1.0000
  S   S479      1.0  0.75154  0.35441  0.91506  1.0000
  Fe  Fe238     1.0  0.74552  0.36454  0.84537  1.0000
  S   S480      1.0  0.74869  0.39134  0.82168  1.0000
  Fe  Fe239     1.0  0.76763  0.32280  0.85546  1.0000
  S   S481      1.0  0.79296  0.30078  0.84298  1.0000
  S   S482      1.0  0.72346  0.36217  0.87370  1.0000
  S   S483      1.0  0.74795  0.31659  0.88486  1.0000
  H   H3796     1.0  0.86582  0.36214  0.86905  1.0000
  Fe  Fe240     1.0  0.89345  0.31603  0.75733  1.0000
  H   H3797     1.0  0.75230  0.47291  0.92580  1.0000
  H   H3798     1.0  0.73191  0.29012  0.76746  1.0000
  Fe  Fe241     1.0  0.96389  0.39006  0.78461  1.0000
  S   S484      1.0  0.93580  0.40681  0.79949  1.0000
  S   S485      1.0  0.96223  0.37642  0.76039  1.0000
  S   S486      1.0  0.96183  0.41786  0.82507  1.0000
  Fe  Fe242     1.0  0.94706  0.39334  0.82714  1.0000
  S   S487      1.0  0.92678  0.37963  0.85337  1.0000
  Fe  Fe243     1.0  0.95282  0.42980  0.79595  1.0000
  S   S488      1.0  0.93621  0.46081  0.78751  1.0000
  Fe  Fe244     1.0  0.85719  0.41940  0.93646  1.0000
  S   S489      1.0  0.83624  0.43328  0.96057  1.0000
  S   S490      1.0  0.88451  0.42974  0.91833  1.0000
  Fe  Fe245     1.0  0.83295  0.38968  0.93949  1.0000
  H   H3799     1.0  0.67237  0.16148  0.81257  1.0000
  S   S491      1.0  0.83297  0.36777  0.92195  1.0000
  Fe  Fe246     1.0  0.81272  0.43043  0.94687  1.0000
  S   S492      1.0  0.78445  0.45234  0.94438  1.0000
  H   H3800     1.0  0.68108  0.36050  0.94865  1.0000
  S   S493      1.0  0.83366  0.41981  0.92120  1.0000
  S   S494      1.0  0.85813  0.38838  0.95330  1.0000
  H   H3801     1.0  0.87749  0.47159  0.77257  1.0000
  H   H3802     1.0  0.77958  0.47785  0.77189  1.0000
  H   H3803     1.0  0.75527  0.35899  0.77746  1.0000
  C   C2138     1.0  0.91601  0.39299  0.87204  1.0000
  C   C2139     1.0  0.92371  0.40834  0.87363  1.0000
  C   C2140     1.0  0.91424  0.41932  0.88818  1.0000
  C   C2141     1.0  0.89689  0.41518  0.90096  1.0000
  C   C2142     1.0  0.88934  0.39970  0.89949  1.0000
  C   C2143     1.0  0.89902  0.38849  0.88523  1.0000
  H   H3804     1.0  0.93694  0.41172  0.86371  1.0000
  H   H3805     1.0  0.92028  0.43105  0.88953  1.0000
  H   H3806     1.0  0.87606  0.39629  0.90937  1.0000
  H   H3807     1.0  0.89311  0.37650  0.88424  1.0000
  H   H3808     1.0  0.72789  0.39188  0.90670  1.0000
  H   H3809     1.0  0.80237  0.25601  0.77324  1.0000
  C   C2144     1.0  0.80127  0.46757  0.90672  1.0000
  C   C2145     1.0  0.78389  0.46566  0.92049  1.0000
  H   H3810     1.0  0.94261  0.45082  0.85594  1.0000
  C   C2146     1.0  0.93206  0.46531  0.76363  1.0000
  H   H3811     1.0  0.96212  0.31916  0.75291  1.0000
  H   H3812     1.0  0.81530  0.46135  0.91097  1.0000
  H   H3813     1.0  0.74029  0.43138  0.76543  1.0000
  H   H3814     1.0  0.84751  0.47681  0.91153  1.0000
  C   C2147     1.0  0.99322  0.46381  0.84910  1.0000
  C   C2148     1.0  0.77426  0.35813  0.91675  1.0000
  C   C2149     1.0  0.77535  0.36540  0.93259  1.0000
  C   C2150     1.0  0.79316  0.36897  0.93408  1.0000
  C   C2151     1.0  0.81016  0.36455  0.92006  1.0000
  C   C2152     1.0  0.80916  0.35688  0.90444  1.0000
  C   C2153     1.0  0.79121  0.35397  0.90261  1.0000
  H   H3815     1.0  0.76244  0.36806  0.94387  1.0000
  H   H3816     1.0  0.79385  0.37458  0.94635  1.0000
  N   N120      1.0  0.88499  0.47202  0.84777  1.0000
  S   S495      1.0  0.70082  0.46802  0.85245  1.0000
  C   C2154     1.0  0.73530  0.41249  0.83030  1.0000
  C   C2155     1.0  0.74387  0.42879  0.82611  1.0000
  C   C2156     1.0  0.73332  0.44588  0.83283  1.0000
  C   C2157     1.0  0.71408  0.44687  0.84352  1.0000
  C   C2158     1.0  0.70551  0.43048  0.84780  1.0000
  C   C2159     1.0  0.71620  0.41321  0.84136  1.0000
  H   H3817     1.0  0.75877  0.42813  0.81792  1.0000
  H   H3818     1.0  0.74014  0.45821  0.82972  1.0000
  H   H3819     1.0  0.76344  0.41093  0.86428  1.0000
  H   H3820     1.0  0.70953  0.40061  0.84459  1.0000
  C   C2160     1.0  0.92231  0.33220  0.77648  1.0000
  C   C2161     1.0  0.93246  0.33340  0.79018  1.0000
  C   C2162     1.0  0.94437  0.34731  0.78558  1.0000
  C   C2163     1.0  0.94637  0.35984  0.76715  1.0000
  C   C2164     1.0  0.93606  0.35875  0.75357  1.0000
  C   C2165     1.0  0.92393  0.34510  0.75826  1.0000
  H   H3821     1.0  0.93126  0.32349  0.80430  1.0000
  H   H3822     1.0  0.95232  0.34805  0.79613  1.0000
  C   C2166     1.0  0.89652  0.43840  0.83658  1.0000
  C   C2167     1.0  0.91564  0.47921  0.75836  1.0000
  C   C2168     1.0  0.81371  0.32557  0.77835  1.0000
  C   C2169     1.0  0.82103  0.30593  0.78640  1.0000
  C   C2170     1.0  0.81444  0.29825  0.80627  1.0000
  C   C2171     1.0  0.80081  0.31029  0.81812  1.0000
  C   C2172     1.0  0.79356  0.32992  0.81005  1.0000
  C   C2173     1.0  0.79982  0.33748  0.79014  1.0000
  H   H3823     1.0  0.83155  0.29661  0.77726  1.0000
  H   H3824     1.0  0.82002  0.28305  0.81250  1.0000
  H   H3825     1.0  0.78322  0.33940  0.81913  1.0000
  H   H3826     1.0  0.79414  0.35268  0.78396  1.0000
  H   H3827     1.0  0.70434  0.33145  0.83348  1.0000
  C   C2174     1.0  0.69141  0.31073  0.85723  1.0000
  N   N121      1.0  0.75124  0.29184  0.79844  1.0000
  C   C2175     1.0  0.73800  0.27919  0.79721  1.0000
  C   C2176     1.0  0.74863  0.29387  0.81941  1.0000
  C   C2177     1.0  0.74502  0.31208  0.78639  1.0000
  C   C2178     1.0  0.77255  0.28414  0.79021  1.0000
  H   H3828     1.0  0.69797  0.38593  0.94867  1.0000
  C   C2179     1.0  0.68113  0.29546  0.86229  1.0000
  C   C2180     1.0  0.75668  0.32758  0.78600  1.0000
  C   C2181     1.0  0.74293  0.27649  0.83600  1.0000
  C   C2182     1.0  0.74387  0.27940  0.85593  1.0000
  C   C2183     1.0  0.69454  0.38562  0.93464  1.0000
  H   H3829     1.0  0.90599  0.48772  0.76874  1.0000
  C   C2184     1.0  0.74626  0.34840  0.77796  1.0000
  H   H3830     1.0  0.72245  0.28552  0.80336  1.0000
  H   H3831     1.0  0.74118  0.26431  0.80645  1.0000
  H   H3832     1.0  0.76208  0.29707  0.82178  1.0000
  H   H3833     1.0  0.73672  0.30672  0.82256  1.0000
  H   H3834     1.0  0.72912  0.31794  0.79165  1.0000
  H   H3835     1.0  0.74668  0.31155  0.77082  1.0000
  C   C2185     1.0  0.82498  0.47312  0.82824  1.0000
  H   H3836     1.0  0.78185  0.29345  0.79203  1.0000
  S   S496      1.0  0.67734  0.28862  0.80920  1.0000
  H   H3837     1.0  0.78233  0.26218  0.81488  1.0000
  C   C2186     1.0  0.90399  0.47130  0.85349  1.0000
  C   C2187     1.0  0.92286  0.46994  0.83724  1.0000
  H   H3838     1.0  0.77144  0.32467  0.77642  1.0000
  H   H3839     1.0  0.75870  0.32731  0.80073  1.0000
  H   H3840     1.0  0.72757  0.27556  0.83670  1.0000
  H   H3841     1.0  0.75268  0.26224  0.83374  1.0000
  H   H3842     1.0  0.73877  0.26733  0.86761  1.0000
  H   H3843     1.0  0.75915  0.27936  0.85649  1.0000
  H   H3844     1.0  0.73421  0.29353  0.85894  1.0000
  H   H3845     1.0  0.94086  0.47691  0.85360  1.0000
  C   C2188     1.0  0.67580  0.47151  0.90204  1.0000
  H   H3846     1.0  0.95437  0.46489  0.83363  1.0000
  H   H3847     1.0  0.70920  0.44606  0.89532  1.0000
  H   H3848     1.0  0.86601  0.46453  0.79772  1.0000
  H   H3849     1.0  0.73096  0.42861  0.87450  1.0000
  H   H3850     1.0  0.73174  0.35238  0.78762  1.0000
  H   H3851     1.0  0.68179  0.40648  0.91128  1.0000
  H   H3852     1.0  0.74422  0.34965  0.76293  1.0000
  N   N122      1.0  0.86270  0.30899  0.83077  1.0000
  C   C2189     1.0  0.85853  0.33028  0.82043  1.0000
  C   C2190     1.0  0.88239  0.30369  0.83688  1.0000
  C   C2191     1.0  0.86385  0.29663  0.81631  1.0000
  C   C2192     1.0  0.84651  0.30428  0.84801  1.0000
  C   C2193     1.0  0.84155  0.31649  0.86403  1.0000
  C   C2194     1.0  0.83889  0.33780  0.81317  1.0000
  C   C2195     1.0  0.87000  0.27402  0.82322  1.0000
  C   C2196     1.0  0.88905  0.32007  0.84241  1.0000
  C   C2197     1.0  0.90751  0.31187  0.85109  1.0000
  C   C2198     1.0  0.82353  0.31157  0.87936  1.0000
  C   C2199     1.0  0.83633  0.35952  0.80338  1.0000
  H   H3853     1.0  0.75161  0.39769  0.95649  1.0000
  H   H3854     1.0  0.87064  0.33296  0.80752  1.0000
  H   H3855     1.0  0.85838  0.34022  0.82992  1.0000
  H   H3856     1.0  0.88289  0.29076  0.84929  1.0000
  H   H3857     1.0  0.89445  0.29899  0.82475  1.0000
  H   H3858     1.0  0.87410  0.30111  0.80241  1.0000
  H   H3859     1.0  0.84944  0.29911  0.81226  1.0000
  H   H3860     1.0  0.83276  0.30546  0.84301  1.0000
  H   H3861     1.0  0.85026  0.28868  0.85562  1.0000
  H   H3862     1.0  0.83825  0.33251  0.85795  1.0000
  H   H3863     1.0  0.85394  0.31285  0.87173  1.0000
  H   H3864     1.0  0.83854  0.32990  0.80203  1.0000
  H   H3865     1.0  0.82615  0.33609  0.82546  1.0000
  H   H3866     1.0  0.85842  0.26841  0.83517  1.0000
  H   H3867     1.0  0.88399  0.26976  0.82852  1.0000
  H   H3868     1.0  0.89271  0.33132  0.82906  1.0000
  H   H3869     1.0  0.87755  0.32750  0.85311  1.0000
  H   H3870     1.0  0.91228  0.32406  0.85418  1.0000
  H   H3871     1.0  0.90453  0.30109  0.86500  1.0000
  H   H3872     1.0  0.91966  0.30465  0.84061  1.0000
  H   H3873     1.0  0.81021  0.31638  0.87281  1.0000
  H   H3874     1.0  0.82566  0.29551  0.88551  1.0000
  H   H3875     1.0  0.82107  0.31918  0.89158  1.0000
  H   H3876     1.0  0.82205  0.36460  0.79853  1.0000
  H   H3877     1.0  0.83656  0.36851  0.81368  1.0000
  H   H3878     1.0  0.84827  0.36159  0.79035  1.0000
  S   S497      1.0  0.81010  0.40027  0.96421  1.0000
  H   H3879     1.0  0.89845  0.38187  0.76887  1.0000
  S   S498      1.0  0.87399  0.34461  0.74711  1.0000
  H   H3880     1.0  0.70368  0.42333  0.94219  1.0000
  H   H3881     1.0  0.79801  0.37597  0.83314  1.0000
  C   C2200     1.0  0.94466  0.45460  0.75001  1.0000
  H   H3882     1.0  0.95750  0.44403  0.75383  1.0000
  H   H3883     1.0  0.69598  0.31965  0.80778  1.0000
  C   C2201     1.0  0.67237  0.17321  0.81993  1.0000
  C   C2202     1.0  0.69690  0.31932  0.83749  1.0000
  C   C2203     1.0  0.78269  0.24272  0.74143  1.0000
  C   C2204     1.0  0.97496  0.31192  0.74312  1.0000
  H   H3884     1.0  0.88936  0.40371  0.80274  1.0000
  H   H3885     1.0  0.91061  0.43304  0.84168  1.0000
  C   C2205     1.0  0.76228  0.40619  0.75918  1.0000
  C   C2206     1.0  0.79653  0.39183  0.83256  1.0000
  H   H3886     1.0  0.82718  0.44553  0.82114  1.0000
  C   C2207     1.0  0.94127  0.46537  0.84575  1.0000
  H   H3887     1.0  0.78964  0.42109  0.91775  1.0000
  H   H3888     1.0  0.77721  0.40620  0.91046  1.0000
  C   C2208     1.0  0.88404  0.48305  0.82708  1.0000
  H   H3889     1.0  0.87077  0.48141  0.82289  1.0000
  H   H3890     1.0  0.97956  0.38802  0.90899  1.0000
  H   H3891     1.0  0.82252  0.38609  0.84365  1.0000
  N   N123      1.0  0.81763  0.42089  0.85871  1.0000
  C   C2209     1.0  0.68217  0.29715  0.82799  1.0000
  H   H3892     1.0  0.87521  0.38351  0.85534  1.0000
  C   C2210     1.0  0.73715  0.48543  0.77923  1.0000
  C   C2211     1.0  0.67665  0.28857  0.84772  1.0000
  H   H3893     1.0  0.92201  0.42833  0.73904  1.0000
  C   C2212     1.0  0.82959  0.45065  0.83330  1.0000
  C   C2213     1.0  0.78146  0.26288  0.79958  1.0000
  H   H3894     1.0  0.74506  0.40255  0.92377  1.0000
  H   H3895     1.0  0.84539  0.44570  0.83364  1.0000
  H   H3896     1.0  0.86011  0.37359  0.84529  1.0000
  H   H3897     1.0  0.74058  0.45409  0.79091  1.0000
  H   H3898     1.0  0.80653  0.44638  0.76257  1.0000
  C   C2214     1.0  0.86472  0.47177  0.88322  1.0000
  H   H3899     1.0  0.78069  0.39858  0.83599  1.0000
  H   H3900     1.0  0.83381  0.41112  0.75030  1.0000
  H   H3901     1.0  0.83208  0.38106  0.87185  1.0000
  H   H3902     1.0  0.80947  0.47875  0.82650  1.0000
  H   H3903     1.0  0.77503  0.28548  0.77412  1.0000
  H   H3904     1.0  0.79115  0.42427  0.84806  1.0000
  H   H3905     1.0  0.97967  0.47456  0.84598  1.0000
  H   H3906     1.0  0.89951  0.44594  0.82110  1.0000
  H   H3907     1.0  0.88398  0.41311  0.85265  1.0000
  H   H3908     1.0  0.89203  0.44363  0.75306  1.0000
  H   H3909     1.0  0.81278  0.42175  0.83013  1.0000
  H   H3910     1.0  0.71124  0.26561  0.78490  1.0000
  H   H3911     1.0  0.72124  0.43430  0.92356  1.0000
  H   H3912     1.0  0.85403  0.48486  0.85637  1.0000
  H   H3913     1.0  0.73314  0.24641  0.78601  1.0000
  H   H3914     1.0  0.84460  0.40949  0.83985  1.0000
  H   H3915     1.0  0.85835  0.45871  0.88525  1.0000
  H   H3916     1.0  0.90660  0.45873  0.86590  1.0000
  H   H3917     1.0  0.66402  0.48081  0.91099  1.0000
  H   H3918     1.0  0.82163  0.44739  0.86473  1.0000
  H   H3919     1.0  0.86813  0.38196  0.76706  1.0000
  C   C2215     1.0  0.80236  0.25615  0.78857  1.0000
  H   H3920     1.0  0.78431  0.43006  0.76068  1.0000
  H   H3921     1.0  0.79063  0.34798  0.89060  1.0000
  H   H3922     1.0  0.81383  0.47936  0.87686  1.0000
  H   H3923     1.0  0.92440  0.45839  0.82916  1.0000
  C   C2216     1.0  0.80719  0.39429  0.84730  1.0000
  H   H3924     1.0  0.78061  0.24038  0.75758  1.0000
  H   H3925     1.0  0.90055  0.40971  0.83000  1.0000
  H   H3926     1.0  0.66599  0.19854  0.92857  1.0000
  H   H3927     1.0  0.86906  0.43136  0.79490  1.0000
  C   C2217     1.0  0.73858  0.27623  0.77651  1.0000
  C   C2218     1.0  0.69218  0.31262  0.82296  1.0000
  H   H3928     1.0  0.76708  0.42784  0.78308  1.0000
  S   S499      1.0  0.97392  0.37445  0.81255  1.0000
  H   H3929     1.0  0.87868  0.46690  0.88861  1.0000
  H   H3930     1.0  0.77772  0.40222  0.75131  1.0000
  H   H3931     1.0  0.87661  0.24736  0.81188  1.0000
  H   H3932     1.0  0.87192  0.39178  0.79866  1.0000
  H   H3933     1.0  0.90384  0.42908  0.77205  1.0000
  H   H3934     1.0  0.80862  0.24105  0.79587  1.0000
  H   H3935     1.0  0.86672  0.45249  0.84826  1.0000
  H   H3936     1.0  0.75381  0.27104  0.76894  1.0000
  H   H3937     1.0  0.82737  0.47924  0.83987  1.0000
  H   H3938     1.0  0.76526  0.43109  0.91307  1.0000
  H   H3939     1.0  0.91357  0.37214  0.80577  1.0000
  H   H3940     1.0  0.89609  0.36009  0.80188  1.0000
  N   N124      1.0  0.70602  0.41753  0.91362  1.0000
  H   H3941     1.0  0.68889  0.47833  0.89719  1.0000
  H   H3942     1.0  0.76199  0.39202  0.88620  1.0000
  H   H3943     1.0  0.85950  0.44742  0.77442  1.0000
  H   H3944     1.0  0.74324  0.42369  0.89432  1.0000
  C   C2219     1.0  0.72061  0.40632  0.89919  1.0000
  H   H3945     1.0  0.81191  0.26604  0.78853  1.0000
  H   H3946     1.0  0.80148  0.45111  0.85314  1.0000
  C   C2220     1.0  0.91117  0.48153  0.73996  1.0000
  H   H3947     1.0  0.71292  0.40284  0.88930  1.0000
  H   H3948     1.0  0.98250  0.42200  0.89699  1.0000
  H   H3949     1.0  0.82235  0.35299  0.89384  1.0000
  H   H3950     1.0  0.78938  0.44414  0.88567  1.0000
  H   H3951     1.0  0.97489  0.40820  0.87370  1.0000
  H   H3952     1.0  0.67346  0.37405  0.92622  1.0000
  C   C2221     1.0  0.77950  0.42130  0.90836  1.0000
  C   C2222     1.0  0.86243  0.37646  0.85883  1.0000
  S   S500      1.0  0.98052  0.41412  0.77887  1.0000
  C   C2223     1.0  0.78789  0.42895  0.88688  1.0000
  C   C2224     1.0  0.74370  0.46386  0.77630  1.0000
  H   H3953     1.0  0.83746  0.38472  0.75623  1.0000
  H   H3954     1.0  0.86900  0.39467  0.74205  1.0000
  H   H3955     1.0  0.91293  0.39566  0.77369  1.0000
  H   H3956     1.0  0.75710  0.43558  0.74215  1.0000
  H   H3957     1.0  0.89111  0.37059  0.82321  1.0000
  H   H3958     1.0  0.89192  0.45539  0.78989  1.0000
  H   H3959     1.0  0.77085  0.46117  0.79314  1.0000
  N   N125      1.0  0.88801  0.41340  0.76135  1.0000
  C   C2225     1.0  0.86669  0.41377  0.76235  1.0000
  C   C2226     1.0  0.89010  0.43187  0.76642  1.0000
  H   H3960     1.0  0.72688  0.40992  0.96529  1.0000
  C   C2227     1.0  0.89743  0.39529  0.77434  1.0000
  C   C2228     1.0  0.88768  0.39203  0.79628  1.0000
  C   C2229     1.0  0.86234  0.39581  0.75742  1.0000
  H   H3961     1.0  0.67810  0.41492  0.93333  1.0000
  C   C2230     1.0  0.87278  0.44173  0.78097  1.0000
  C   C2231     1.0  0.87744  0.45933  0.78558  1.0000
  C   C2232     1.0  0.89773  0.37250  0.80740  1.0000
  C   C2233     1.0  0.84021  0.39762  0.76007  1.0000
  Fe  Fe247     1.0  0.85448  0.32632  0.74422  1.0000
  H   H3962     1.0  0.86044  0.42711  0.75215  1.0000
  H   H3963     1.0  0.85774  0.41503  0.77709  1.0000
  H   H3964     1.0  0.69195  0.43564  0.88986  1.0000
  H   H3965     1.0  0.70580  0.48655  0.78318  1.0000
  H   H3966     1.0  0.69064  0.43110  0.85611  1.0000
  H   H3967     1.0  0.67793  0.18527  0.80854  1.0000
  H   H3968     1.0  0.67673  0.28884  0.87753  1.0000
  H   H3969     1.0  0.77274  0.25234  0.79941  1.0000
  C   C2234     1.0  0.76574  0.47424  0.91511  1.0000
  H   H3970     1.0  0.71483  0.48007  0.80572  1.0000
  H   H3971     1.0  0.68255  0.16741  0.83032  1.0000
  H   H3972     1.0  0.84812  0.41862  0.85908  1.0000
  Fe  Fe248     1.0  0.98820  0.40001  0.80834  1.0000
  H   H3973     1.0  0.92946  0.40219  0.74391  1.0000
  H   H3974     1.0  0.83449  0.47852  0.81419  1.0000
  H   H3975     1.0  0.91613  0.34435  0.74761  1.0000
  C   C2235     1.0  0.81146  0.45776  0.78509  1.0000
  H   H3976     1.0  0.92270  0.48406  0.82645  1.0000
  H   H3977     1.0  0.81791  0.41662  0.88932  1.0000
  C   C2236     1.0  0.71515  0.42069  0.92896  1.0000
  H   H3978     1.0  0.88509  0.26783  0.79451  1.0000
  H   H3979     1.0  0.83270  0.39818  0.77544  1.0000
  C   C2237     1.0  0.72680  0.26096  0.77767  1.0000
  H   H3980     1.0  0.70706  0.37626  0.92653  1.0000
  C   C2238     1.0  0.76732  0.46914  0.74556  1.0000
  C   C2239     1.0  0.71604  0.48942  0.79078  1.0000
  H   H3981     1.0  0.88257  0.44299  0.86523  1.0000
  H   H3982     1.0  0.72705  0.25940  0.76270  1.0000
  H   H3983     1.0  0.85922  0.26718  0.80062  1.0000
  C   C2240     1.0  0.77788  0.46229  0.77732  1.0000
  H   H3984     1.0  0.73351  0.46221  0.76785  1.0000
  C   C2241     1.0  0.79867  0.44890  0.77731  1.0000
  H   H3985     1.0  0.84624  0.39060  0.88268  1.0000
  C   C2242     1.0  0.89866  0.41298  0.74047  1.0000
  C   C2243     1.0  0.69755  0.43740  0.90221  1.0000
  H   H3986     1.0  0.79737  0.43433  0.78700  1.0000
  H   H3987     1.0  0.80289  0.39865  0.81740  1.0000
  C   C2244     1.0  0.83893  0.41020  0.85558  1.0000
  C   C2245     1.0  0.84390  0.38926  0.86847  1.0000
  H   H3988     1.0  0.97856  0.29609  0.75001  1.0000
  H   H3989     1.0  0.77718  0.42952  0.87807  1.0000
  H   H3990     1.0  0.80372  0.46181  0.79936  1.0000
  C   C2246     1.0  0.68935  0.40689  0.92283  1.0000
  H   H3991     1.0  0.96079  0.37872  0.87944  1.0000
  H   H3992     1.0  0.74657  0.48876  0.78739  1.0000
  H   H3993     1.0  0.80010  0.38750  0.86216  1.0000
  H   H3994     1.0  0.97284  0.40905  0.93325  1.0000
  H   H3995     1.0  0.76097  0.39831  0.77473  1.0000
  C   C2247     1.0  0.75349  0.40254  0.87560  1.0000
  H   H3996     1.0  0.74371  0.42347  0.94716  1.0000
  C   C2248     1.0  0.73220  0.40424  0.93590  1.0000
  C   C2249     1.0  0.75591  0.42843  0.75785  1.0000
  H   H3997     1.0  0.87638  0.42462  0.82955  1.0000
  H   H3998     1.0  0.72811  0.38976  0.94138  1.0000
  H   H3999     1.0  0.80587  0.40048  0.88431  1.0000
  H   H4000     1.0  0.89662  0.47680  0.81637  1.0000
  C   C2250     1.0  0.81689  0.44280  0.85334  1.0000
  C   C2251     1.0  0.80672  0.41625  0.84573  1.0000
  N   N126      1.0  0.76486  0.45762  0.76636  1.0000
  C   C2252     1.0  0.87287  0.26351  0.80649  1.0000
  C   C2253     1.0  0.80804  0.41582  0.88006  1.0000
  H   H4001     1.0  0.81523  0.47108  0.77448  1.0000
  C   C2254     1.0  0.76888  0.43571  0.76747  1.0000
  H   H4002     1.0  0.74752  0.39426  0.86828  1.0000
  C   C2255     1.0  0.68075  0.45074  0.91412  1.0000
  H   H4003     1.0  0.93747  0.36849  0.73936  1.0000
  C   C2256     1.0  0.73893  0.40919  0.95220  1.0000
  C   C2257     1.0  0.88181  0.45157  0.85012  1.0000
  C   C2258     1.0  0.88878  0.42040  0.83727  1.0000
  H   H4004     1.0  0.67054  0.47116  0.88898  1.0000
  Fe  Fe249     1.0  0.83523  0.40222  0.97643  1.0000
  C   C2259     1.0  0.73699  0.41681  0.88593  1.0000
  H   H4005     1.0  0.82531  0.44695  0.78702  1.0000
  H   H4006     1.0  0.79891  0.46849  0.73700  1.0000
  S   S501      1.0  0.66888  0.23498  0.81792  1.0000
  H   H4007     1.0  0.66897  0.27662  0.85178  1.0000
  H   H4008     1.0  0.68486  0.45190  0.92750  1.0000
  C   C2260     1.0  0.76491  0.48428  0.89586  1.0000
  H   H4009     1.0  0.76484  0.48510  0.74533  1.0000
  C   C2261     1.0  0.86810  0.48237  0.86136  1.0000
  H   H4010     1.0  0.97106  0.38068  0.85356  1.0000
  C   C2262     1.0  0.67715  0.37550  0.93975  1.0000
  H   H4011     1.0  0.98220  0.43925  0.84808  1.0000
  C   C2263     1.0  0.97384  0.37369  0.86845  1.0000
  C   C2264     1.0  0.78222  0.48599  0.88200  1.0000
  H   H4012     1.0  0.97592  0.35754  0.87021  1.0000
  H   H4013     1.0  0.75270  0.40122  0.75242  1.0000
  H   H4014     1.0  0.97719  0.44491  0.87189  1.0000
  C   C2265     1.0  0.99215  0.37866  0.87129  1.0000
  H   H4015     1.0  0.99234  0.40614  0.85153  1.0000
  H   H4016     1.0  0.98264  0.38370  0.94297  1.0000
  C   C2266     1.0  0.85035  0.48521  0.89621  1.0000
  H   H4017     1.0  0.75588  0.46782  0.73841  1.0000
  C   C2267     1.0  0.98612  0.39701  0.93213  1.0000
  C   C2268     1.0  0.98857  0.44349  0.85846  1.0000
  H   H4018     1.0  0.98772  0.31849  0.74173  1.0000
  C   C2269     1.0  0.99211  0.39259  0.91156  1.0000
  H   H4019     1.0  0.66408  0.38390  0.94833  1.0000
  H   H4020     1.0  0.66711  0.44488  0.91839  1.0000
  H   H4021     1.0  0.82813  0.28412  0.73938  1.0000
  C   C2270     1.0  0.99031  0.40128  0.86775  1.0000
  H   H4022     1.0  0.89877  0.39902  0.73647  1.0000
  H   H4023     1.0  0.78216  0.22884  0.73772  1.0000
  H   H4024     1.0  0.77044  0.25454  0.73661  1.0000
  H   H4025     1.0  0.81407  0.23666  0.73751  1.0000
  H   H4026     1.0  0.80242  0.26194  0.73654  1.0000
  C   C2271     1.0  0.92045  0.41483  0.73558  1.0000
  H   H4027     1.0  0.91585  0.51149  0.13507  1.0000
  H   H4028     1.0  0.70878  0.51226  0.20627  1.0000
  H   H4029     1.0  0.82086  0.56905  0.22247  1.0000
  N   N127      1.0  0.87569  0.50584  0.15049  1.0000
  Fe  Fe250     1.0  0.73182  0.54631  0.20534  1.0000
  C   C2272     1.0  0.88446  0.49957  0.13110  1.0000
  S   S502      1.0  0.70494  0.56439  0.19382  1.0000
  H   H4030     1.0  0.70576  0.52127  0.15239  1.0000
  C   C2273     1.0  0.69104  0.57845  0.22788  1.0000
  C   C2274     1.0  0.68693  0.64025  0.22327  1.0000
  S   S503      1.0  0.75835  0.55706  0.20588  1.0000
  S   S504      1.0  0.74888  0.52165  0.19029  1.0000
  C   C2275     1.0  0.69626  0.50914  0.18321  1.0000
  H   H4031     1.0  0.70557  0.63965  0.18639  1.0000
  C   C2276     1.0  0.67705  0.64552  0.20569  1.0000
  C   C2277     1.0  0.66462  0.63706  0.17211  1.0000
  S   S505      1.0  0.80096  0.52809  0.16786  1.0000
  H   H4032     1.0  0.82286  0.51095  0.13445  1.0000
  C   C2278     1.0  0.85549  0.53673  0.16425  1.0000
  H   H4033     1.0  0.85776  0.52085  0.21200  1.0000
  H   H4034     1.0  0.73306  0.60862  0.13815  1.0000
  H   H4035     1.0  0.85714  0.50204  0.23370  1.0000
  H   H4036     1.0  0.87391  0.53622  0.13533  1.0000
  H   H4037     1.0  0.74468  0.49718  0.15030  1.0000
  S   S506      1.0  0.77740  0.51053  0.22236  1.0000
  C   C2279     1.0  0.68361  0.67504  0.14141  1.0000
  H   H4038     1.0  0.69974  0.64730  0.21983  1.0000
  C   C2280     1.0  0.68724  0.57751  0.21014  1.0000
  C   C2281     1.0  0.81150  0.55037  0.20944  1.0000
  Fe  Fe251     1.0  0.77536  0.53052  0.19323  1.0000
  H   H4039     1.0  0.89304  0.51025  0.12095  1.0000
  C   C2282     1.0  0.70366  0.52529  0.16674  1.0000
  H   H4040     1.0  0.88831  0.50428  0.09081  1.0000
  H   H4041     1.0  0.69230  0.62039  0.19358  1.0000
  H   H4042     1.0  0.88716  0.50750  0.17497  1.0000
  H   H4043     1.0  0.71354  0.63888  0.15254  1.0000
  H   H4044     1.0  0.71793  0.52721  0.16834  1.0000
  H   H4045     1.0  0.68693  0.52979  0.20229  1.0000
  H   H4046     1.0  0.84723  0.49801  0.15913  1.0000
  C   C2283     1.0  0.69378  0.51387  0.20364  1.0000
  C   C2284     1.0  0.69970  0.63386  0.15417  1.0000
  H   H4047     1.0  0.80966  0.56206  0.19620  1.0000
  H   H4048     1.0  0.86655  0.53572  0.17288  1.0000
  H   H4049     1.0  0.85191  0.52788  0.13967  1.0000
  H   H4050     1.0  0.85813  0.56635  0.14796  1.0000
  H   H4051     1.0  0.68435  0.70388  0.14540  1.0000
  C   C2285     1.0  0.69070  0.63657  0.18836  1.0000
  H   H4052     1.0  0.89392  0.51519  0.20660  1.0000
  H   H4053     1.0  0.66348  0.63954  0.21044  1.0000
  C   C2286     1.0  0.86483  0.51379  0.22474  1.0000
  H   H4054     1.0  0.75417  0.51898  0.13799  1.0000
  H   H4055     1.0  0.71271  0.60786  0.12802  1.0000
  C   C2287     1.0  0.82617  0.55394  0.21950  1.0000
  C   C2288     1.0  0.84671  0.55852  0.15776  1.0000
  H   H4056     1.0  0.67911  0.70384  0.12228  1.0000
  C   C2289     1.0  0.80475  0.50446  0.16307  1.0000
  C   C2290     1.0  0.71923  0.60323  0.14130  1.0000
  H   H4057     1.0  0.90160  0.53185  0.14635  1.0000
  H   H4058     1.0  0.77971  0.50090  0.11561  1.0000
  H   H4059     1.0  0.84054  0.56537  0.17075  1.0000
  H   H4060     1.0  0.84065  0.55324  0.20934  1.0000
  H   H4061     1.0  0.88641  0.49230  0.20972  1.0000
  N   N128      1.0  0.68379  0.64329  0.16915  1.0000
  H   H4062     1.0  0.83464  0.56032  0.15001  1.0000
  C   C2291     1.0  0.86451  0.52685  0.14641  1.0000
  C   C2292     1.0  0.68089  0.66549  0.16355  1.0000
  C   C2293     1.0  0.70474  0.61103  0.15848  1.0000
  Fe  Fe252     1.0  0.74968  0.50348  0.22028  1.0000
  C   C2294     1.0  0.76701  0.49406  0.12378  1.0000
  H   H4063     1.0  0.79694  0.55061  0.21949  1.0000
  H   H4064     1.0  0.85581  0.50210  0.19078  1.0000
  H   H4065     1.0  0.66601  0.62138  0.17936  1.0000
  H   H4066     1.0  0.84327  0.52989  0.17372  1.0000
  H   H4067     1.0  0.81671  0.53594  0.20493  1.0000
  C   C2295     1.0  0.89248  0.50368  0.16036  1.0000
  H   H4068     1.0  0.69945  0.67197  0.13442  1.0000
  N   N129      1.0  0.68192  0.50187  0.22067  1.0000
  H   H4069     1.0  0.87064  0.54126  0.22521  1.0000
  H   H4070     1.0  0.70722  0.49526  0.18182  1.0000
  C   C2296     1.0  0.90825  0.51591  0.14917  1.0000
  C   C2297     1.0  0.92407  0.51261  0.16100  1.0000
  H   H4071     1.0  0.72284  0.58690  0.14507  1.0000
  H   H4072     1.0  0.71181  0.60512  0.17137  1.0000
  H   H4073     1.0  0.93549  0.52108  0.15257  1.0000
  H   H4074     1.0  0.70496  0.57079  0.23190  1.0000
  H   H4075     1.0  0.69144  0.67062  0.16902  1.0000
  C   C2298     1.0  0.66114  0.50597  0.21752  1.0000
  C   C2299     1.0  0.88602  0.50417  0.21707  1.0000
  H   H4076     1.0  0.68882  0.53709  0.23038  1.0000
  H   H4077     1.0  0.66606  0.67246  0.17088  1.0000
  C   C2300     1.0  0.67644  0.69735  0.13820  1.0000
  C   C2301     1.0  0.75813  0.50270  0.14213  1.0000
  H   H4078     1.0  0.69145  0.60490  0.16122  1.0000
  H   H4079     1.0  0.69602  0.63870  0.13944  1.0000
  H   H4080     1.0  0.67289  0.66177  0.20177  1.0000
  H   H4081     1.0  0.91764  0.51760  0.17504  1.0000
  C   C2302     1.0  0.81665  0.49973  0.14558  1.0000
  C   C2303     1.0  0.66913  0.58737  0.20514  1.0000
  H   H4082     1.0  0.69289  0.53951  0.16688  1.0000
  C   C2304     1.0  0.88046  0.49256  0.09982  1.0000
  H   H4083     1.0  0.68219  0.50761  0.18077  1.0000
  H   H4084     1.0  0.69193  0.62409  0.22756  1.0000
  H   H4085     1.0  0.75593  0.49831  0.11441  1.0000
  H   H4086     1.0  0.98999  0.52331  0.19026  1.0000
  H   H4087     1.0  0.99059  0.53935  0.16649  1.0000
  C   C2305     1.0  0.79623  0.49002  0.17708  1.0000
  Fe  Fe253     1.0  0.93592  0.49223  0.23356  1.0000
  C   C2306     1.0  0.86975  0.49745  0.11972  1.0000
  H   H4088     1.0  0.66691  0.63419  0.14171  1.0000
  H   H4089     1.0  0.85866  0.51121  0.11696  1.0000
  H   H4090     1.0  0.78673  0.49340  0.19042  1.0000
  C   C2307     1.0  0.86203  0.49239  0.16267  1.0000
  H   H4091     1.0  0.66351  0.53673  0.23318  1.0000
  H   H4092     1.0  0.93124  0.49678  0.16409  1.0000
  H   H4093     1.0  0.67559  0.66937  0.13364  1.0000
  H   H4094     1.0  0.66602  0.58632  0.19160  1.0000
  H   H4095     1.0  0.89378  0.49754  0.22937  1.0000
  H   H4096     1.0  0.76888  0.49868  0.15186  1.0000
  H   H4097     1.0  0.86969  0.49136  0.09181  1.0000
  H   H4098     1.0  0.84818  0.56753  0.23439  1.0000
  C   C2308     1.0  0.81700  0.68298  0.38100  1.0000
  Fe  Fe254     1.0  0.85459  0.53725  0.33345  1.0000
  H   H4099     1.0  0.73040  0.65592  0.36291  1.0000
  S   S507      1.0  0.88719  0.52609  0.32769  1.0000
  Fe  Fe255     1.0  0.81989  0.56488  0.31727  1.0000
  S   S508      1.0  0.79870  0.55814  0.34554  1.0000
  S   S509      1.0  0.80951  0.58384  0.29023  1.0000
  Fe  Fe256     1.0  0.82244  0.55973  0.35986  1.0000
  S   S510      1.0  0.81784  0.57319  0.38622  1.0000
  S   S511      1.0  0.84222  0.56950  0.33144  1.0000
  Fe  Fe257     1.0  0.94034  0.74680  0.47330  1.0000
  C   C2309     1.0  0.89635  0.58409  0.38523  1.0000
  H   H4100     1.0  0.84447  0.49473  0.30093  1.0000
  C   C2310     1.0  0.67686  0.52963  0.23936  1.0000
  S   S512      1.0  0.81897  0.89746  0.46063  1.0000
  H   H4101     1.0  0.68476  0.79572  0.46907  1.0000
  C   C2311     1.0  0.94164  0.51522  0.34935  1.0000
  S   S513      1.0  0.83596  0.93977  0.47040  1.0000
  H   H4102     1.0  0.75262  0.49467  0.27594  1.0000
  S   S514      1.0  0.76190  0.90315  0.46888  1.0000
  C   C2312     1.0  0.88898  0.51326  0.29467  1.0000
  C   C2313     1.0  0.93746  0.71472  0.43519  1.0000
  Fe  Fe258     1.0  0.89034  0.66278  0.42776  1.0000
  S   S515      1.0  0.86854  0.66282  0.45608  1.0000
  S   S516      1.0  0.91949  0.67174  0.42201  1.0000
  Fe  Fe259     1.0  0.86520  0.64640  0.40995  1.0000
  S   S517      1.0  0.84121  0.64532  0.43681  1.0000
  S   S518      1.0  0.86410  0.63832  0.38205  1.0000
  Fe  Fe260     1.0  0.84595  0.67480  0.43721  1.0000
  S   S519      1.0  0.82116  0.69900  0.44665  1.0000
  Fe  Fe261     1.0  0.86596  0.63351  0.45308  1.0000
  H   H4103     1.0  0.67986  0.59030  0.25409  1.0000
  S   S520      1.0  0.86790  0.67711  0.40892  1.0000
  S   S521      1.0  0.88971  0.63225  0.42616  1.0000
  Fe  Fe262     1.0  0.71870  0.80717  0.40971  1.0000
  S   S522      1.0  0.73732  0.77804  0.42041  1.0000
  S   S523      1.0  0.68921  0.81272  0.40135  1.0000
  Fe  Fe263     1.0  0.74740  0.83021  0.41257  1.0000
  S   S524      1.0  0.76887  0.80336  0.42308  1.0000
  S   S525      1.0  0.75215  0.86102  0.40622  1.0000
  Fe  Fe264     1.0  0.76268  0.79043  0.40077  1.0000
  S   S526      1.0  0.78713  0.77062  0.38422  1.0000
  Fe  Fe265     1.0  0.74217  0.79288  0.44199  1.0000
  H   H4104     1.0  0.82627  0.50451  0.26461  1.0000
  S   S527      1.0  0.74374  0.81850  0.38801  1.0000
  S   S528      1.0  0.72100  0.82099  0.43349  1.0000
  H   H4105     1.0  0.72211  0.51194  0.32065  1.0000
  C   C2314     1.0  0.68308  0.50734  0.23912  1.0000
  C   C2315     1.0  0.91085  0.52238  0.26376  1.0000
  H   H4106     1.0  0.93695  0.51348  0.33647  1.0000
  Fe  Fe266     1.0  0.82386  0.91203  0.48256  1.0000
  C   C2316     1.0  0.92105  0.68960  0.43389  1.0000
  H   H4107     1.0  0.80016  0.81769  0.43769  1.0000
  C   C2317     1.0  0.92227  0.72059  0.45030  1.0000
  C   C2318     1.0  0.90706  0.71033  0.45784  1.0000
  C   C2319     1.0  0.90641  0.69489  0.44962  1.0000
  C   C2320     1.0  0.88229  0.77338  0.42708  1.0000
  H   H4108     1.0  0.87192  0.58184  0.26664  1.0000
  C   C2321     1.0  0.81221  0.71853  0.42875  1.0000
  C   C2322     1.0  0.79763  0.73407  0.43489  1.0000
  C   C2323     1.0  0.78988  0.74985  0.42119  1.0000
  C   C2324     1.0  0.79677  0.75038  0.40119  1.0000
  C   C2325     1.0  0.81158  0.73495  0.39493  1.0000
  C   C2326     1.0  0.81930  0.71899  0.40873  1.0000
  H   H4109     1.0  0.79218  0.73400  0.45028  1.0000
  H   H4110     1.0  0.77851  0.76158  0.42624  1.0000
  H   H4111     1.0  0.81703  0.73533  0.37945  1.0000
  H   H4112     1.0  0.83064  0.70708  0.40390  1.0000
  C   C2327     1.0  0.81393  0.88393  0.41760  1.0000
  C   C2328     1.0  0.83831  0.50476  0.27142  1.0000
  H   H4113     1.0  0.89153  0.59629  0.41089  1.0000
  H   H4114     1.0  0.85438  0.71793  0.43775  1.0000
  S   S529      1.0  0.79752  0.50399  0.34714  1.0000
  C   C2329     1.0  0.84620  0.75504  0.41939  1.0000
  C   C2330     1.0  0.89709  0.51129  0.27527  1.0000
  H   H4115     1.0  0.80464  0.75166  0.48165  1.0000
  N   N130      1.0  0.81808  0.84962  0.40950  1.0000
  H   H4116     1.0  0.91691  0.58586  0.40195  1.0000
  H   H4117     1.0  0.80663  0.68878  0.39351  1.0000
  C   C2331     1.0  0.85034  0.96890  0.47637  1.0000
  H   H4118     1.0  0.69249  0.88165  0.45958  1.0000
  Fe  Fe267     1.0  0.83031  0.86912  0.47984  1.0000
  S   S530      1.0  0.95375  0.77339  0.46478  1.0000
  H   H4119     1.0  0.75286  0.69223  0.46710  1.0000
  H   H4120     1.0  0.93115  0.55480  0.34266  1.0000
  H   H4121     1.0  0.74541  0.51772  0.30752  1.0000
  H   H4122     1.0  0.89120  0.60962  0.31185  1.0000
  H   H4123     1.0  0.92746  0.54359  0.26293  1.0000
  H   H4124     1.0  0.79388  0.49164  0.26365  1.0000
  H   H4125     1.0  0.66100  0.81879  0.30443  1.0000
  C   C2332     1.0  0.81607  0.81258  0.46045  1.0000
  C   C2333     1.0  0.87291  0.82804  0.38775  1.0000
  S   S531      1.0  0.83601  0.52745  0.36255  1.0000
  H   H4126     1.0  0.88788  0.78108  0.45208  1.0000
  C   C2334     1.0  0.83279  0.49548  0.29308  1.0000
  C   C2335     1.0  0.70465  0.86995  0.46471  1.0000
  C   C2336     1.0  0.91693  0.53491  0.27186  1.0000
  Fe  Fe268     1.0  0.78985  0.89505  0.48042  1.0000
  H   H4127     1.0  0.98829  0.78961  0.43848  1.0000
  H   H4128     1.0  0.91485  0.54525  0.29793  1.0000
  C   C2337     1.0  0.90159  0.58395  0.40446  1.0000
  H   H4129     1.0  0.87511  0.52303  0.24592  1.0000
  H   H4130     1.0  0.85657  0.71202  0.48473  1.0000
  H   H4131     1.0  0.84073  0.85683  0.38420  1.0000
  H   H4132     1.0  0.85108  0.97476  0.46088  1.0000
  C   C2338     1.0  0.81619  0.84143  0.43132  1.0000
  C   C2339     1.0  0.75930  0.89046  0.45219  1.0000
  C   C2340     1.0  0.75004  0.90125  0.43677  1.0000
  C   C2341     1.0  0.74770  0.89190  0.42303  1.0000
  C   C2342     1.0  0.75360  0.87150  0.42512  1.0000
  C   C2343     1.0  0.76206  0.86040  0.44111  1.0000
  C   C2344     1.0  0.76536  0.86998  0.45439  1.0000
  H   H4133     1.0  0.74516  0.91703  0.43510  1.0000
  H   H4134     1.0  0.74124  0.90055  0.41070  1.0000
  H   H4135     1.0  0.76669  0.84462  0.44276  1.0000
  H   H4136     1.0  0.77244  0.86159  0.46635  1.0000
  H   H4137     1.0  0.96157  0.64993  0.47152  1.0000
  H   H4138     1.0  0.76149  0.68066  0.35602  1.0000
  H   H4139     1.0  0.87296  0.83611  0.37239  1.0000
  C   C2345     1.0  0.83240  0.58988  0.38500  1.0000
  C   C2346     1.0  0.84030  0.60072  0.36702  1.0000
  C   C2347     1.0  0.85012  0.61542  0.36637  1.0000
  C   C2348     1.0  0.85225  0.61930  0.38367  1.0000
  C   C2349     1.0  0.84484  0.60812  0.40168  1.0000
  C   C2350     1.0  0.83494  0.59341  0.40232  1.0000
  H   H4140     1.0  0.83829  0.59824  0.35365  1.0000
  H   H4141     1.0  0.85583  0.62405  0.35241  1.0000
  H   H4142     1.0  0.84661  0.61087  0.41511  1.0000
  H   H4143     1.0  0.82893  0.58501  0.41630  1.0000
  C   C2351     1.0  0.78915  0.57828  0.26509  1.0000
  C   C2352     1.0  0.79513  0.57149  0.28316  1.0000
  C   C2353     1.0  0.79047  0.55412  0.29527  1.0000
  C   C2354     1.0  0.96368  0.66137  0.47811  1.0000
  H   H4144     1.0  0.82618  0.80957  0.43058  1.0000
  H   H4145     1.0  0.79475  0.54881  0.30929  1.0000
  C   C2355     1.0  0.81321  0.66342  0.37987  1.0000
  H   H4146     1.0  0.84761  0.78599  0.41040  1.0000
  H   H4147     1.0  0.89431  0.68744  0.45513  1.0000
  H   H4148     1.0  0.77422  0.57262  0.24521  1.0000
  H   H4149     1.0  0.88590  0.75103  0.40257  1.0000
  C   C2356     1.0  0.77836  0.69068  0.47894  1.0000
  C   C2357     1.0  0.68205  0.79478  0.39370  1.0000
  C   C2358     1.0  0.69165  0.77502  0.39723  1.0000
  C   C2359     1.0  0.68489  0.76094  0.39181  1.0000
  H   H4150     1.0  0.88162  0.81287  0.38753  1.0000
  C   C2360     1.0  0.98280  0.80523  0.43190  1.0000
  H   H4151     1.0  0.70420  0.77058  0.40417  1.0000
  H   H4152     1.0  0.69229  0.74565  0.39464  1.0000
  H   H4153     1.0  0.81137  0.87830  0.39063  1.0000
  H   H4154     1.0  0.91000  0.58873  0.34048  1.0000
  H   H4155     1.0  0.92990  0.52825  0.37461  1.0000
  C   C2361     1.0  0.70280  0.75974  0.46750  1.0000
  H   H4156     1.0  0.67425  0.49944  0.25221  1.0000
  H   H4157     1.0  0.84262  0.74419  0.41306  1.0000
  H   H4158     1.0  0.82747  0.52431  0.23644  1.0000
  H   H4159     1.0  0.82748  0.73498  0.45778  1.0000
  H   H4160     1.0  0.87191  0.80387  0.47401  1.0000
  H   H4161     1.0  0.91338  0.55416  0.38693  1.0000
  H   H4162     1.0  0.73440  0.85341  0.48231  1.0000
  C   C2362     1.0  0.93691  0.69913  0.42709  1.0000
  H   H4163     1.0  0.84574  0.81934  0.39158  1.0000
  H   H4164     1.0  0.77020  0.49231  0.29024  1.0000
  C   C2363     1.0  0.91802  0.54816  0.34952  1.0000
  H   H4165     1.0  0.92428  0.57173  0.36868  1.0000
  H   H4166     1.0  0.91254  0.51947  0.36642  1.0000
  C   C2364     1.0  0.92476  0.52748  0.36167  1.0000
  C   C2365     1.0  0.88185  0.59856  0.31572  1.0000
  H   H4167     1.0  0.67934  0.83238  0.46551  1.0000
  H   H4168     1.0  0.92886  0.65692  0.46582  1.0000
  H   H4169     1.0  0.96280  0.81305  0.45772  1.0000
  H   H4170     1.0  0.89981  0.57002  0.41511  1.0000
  H   H4171     1.0  0.82812  0.53392  0.27765  1.0000
  C   C2366     1.0  0.97591  0.81778  0.44752  1.0000
  H   H4172     1.0  0.87785  0.50528  0.30339  1.0000
  H   H4173     1.0  0.71068  0.77204  0.46221  1.0000
  H   H4174     1.0  0.79200  0.87293  0.41054  1.0000
  H   H4175     1.0  0.76332  0.66783  0.47950  1.0000
  C   C2367     1.0  0.90994  0.56723  0.37533  1.0000
  H   H4176     1.0  0.95455  0.52229  0.34424  1.0000
  C   C2368     1.0  0.81464  0.81950  0.43891  1.0000
  C   C2369     1.0  0.78019  0.54340  0.28939  1.0000
  C   C2370     1.0  0.66872  0.76656  0.38261  1.0000
  H   H4177     1.0  0.80892  0.87932  0.43361  1.0000
  S   S532      1.0  0.91945  0.74319  0.45669  1.0000
  C   C2371     1.0  0.85977  0.55994  0.26072  1.0000
  H   H4178     1.0  0.87900  0.59650  0.30205  1.0000
  C   C2372     1.0  0.89741  0.58112  0.34532  1.0000
  Fe  Fe269     1.0  0.81446  0.52683  0.34520  1.0000
  H   H4179     1.0  0.90438  0.65697  0.48023  1.0000
  C   C2373     1.0  0.83061  0.78029  0.39304  1.0000
  H   H4180     1.0  0.86144  0.77175  0.39213  1.0000
  H   H4181     1.0  0.83279  0.75913  0.43049  1.0000
  N   N131      1.0  0.90208  0.56230  0.36011  1.0000
  C   C2374     1.0  0.91985  0.64871  0.47846  1.0000
  H   H4182     1.0  0.83058  0.76891  0.38520  1.0000
  S   S533      1.0  0.76175  0.53543  0.26503  1.0000
  H   H4183     1.0  0.94834  0.69503  0.41496  1.0000
  S   S534      1.0  0.84859  0.84280  0.46770  1.0000
  H   H4184     1.0  0.89744  0.76441  0.42423  1.0000
  C   C2375     1.0  0.84788  0.77386  0.40347  1.0000
  H   H4185     1.0  0.85475  0.55477  0.27667  1.0000
  C   C2376     1.0  0.90970  0.53596  0.29158  1.0000
  H   H4186     1.0  0.97416  0.85738  0.45435  1.0000
  H   H4187     1.0  0.80934  0.91132  0.39600  1.0000
  H   H4188     1.0  0.91311  0.54529  0.33732  1.0000
  S   S535      1.0  0.83458  0.53357  0.31631  1.0000
  H   H4189     1.0  0.87456  0.55107  0.25604  1.0000
  C   C2377     1.0  0.85192  0.82732  0.39897  1.0000
  H   H4190     1.0  0.83221  0.68071  0.38326  1.0000
  C   C2378     1.0  0.86178  0.58118  0.25765  1.0000
  H   H4191     1.0  0.89774  0.59856  0.37539  1.0000
  H   H4192     1.0  0.78168  0.70419  0.46851  1.0000
  S   S536      1.0  0.74593  0.77549  0.47174  1.0000
  H   H4193     1.0  0.77681  0.52991  0.29895  1.0000
  C   C2379     1.0  0.77443  0.54991  0.27132  1.0000
  H   H4194     1.0  0.90570  0.57355  0.31632  1.0000
  S   S537      1.0  0.86657  0.60691  0.47740  1.0000
  H   H4195     1.0  0.84688  0.85512  0.40681  1.0000
  H   H4196     1.0  0.94909  0.72283  0.42905  1.0000
  H   H4197     1.0  0.82841  0.84389  0.43665  1.0000
  H   H4198     1.0  0.80818  0.91440  0.42027  1.0000
  C   C2380     1.0  0.83939  0.84822  0.39950  1.0000
  C   C2381     1.0  0.84128  0.52590  0.26868  1.0000
  H   H4199     1.0  0.91367  0.63229  0.46023  1.0000
  H   H4200     1.0  0.69325  0.76714  0.43994  1.0000
  H   H4201     1.0  0.87415  0.75175  0.45218  1.0000
  C   C2382     1.0  0.89564  0.52524  0.30293  1.0000
  S   S538      1.0  0.96721  0.72651  0.48280  1.0000
  H   H4202     1.0  0.83001  0.88287  0.41449  1.0000
  C   C2383     1.0  0.80756  0.83941  0.40079  1.0000
  N   N132      1.0  0.86363  0.74589  0.42903  1.0000
  N   N133      1.0  0.66836  0.77889  0.46090  1.0000
  H   H4203     1.0  0.66913  0.54939  0.25956  1.0000
  N   N134      1.0  0.70725  0.77950  0.32715  1.0000
  C   C2384     1.0  0.68621  0.78957  0.32613  1.0000
  C   C2385     1.0  0.70841  0.75758  0.33340  1.0000
  C   C2386     1.0  0.71266  0.78610  0.34296  1.0000
  C   C2387     1.0  0.72156  0.78449  0.30816  1.0000
  C   C2388     1.0  0.71403  0.78847  0.28887  1.0000
  C   C2389     1.0  0.68132  0.81220  0.32425  1.0000
  C   C2390     1.0  0.73258  0.77507  0.34883  1.0000
  C   C2391     1.0  0.70365  0.74746  0.31919  1.0000
  C   C2392     1.0  0.70094  0.72657  0.32908  1.0000
  C   C2393     1.0  0.73079  0.79032  0.27103  1.0000
  H   H4204     1.0  0.69844  0.50240  0.24166  1.0000
  C   C2394     1.0  0.73881  0.78609  0.36089  1.0000
  H   H4205     1.0  0.67609  0.78351  0.33948  1.0000
  H   H4206     1.0  0.68164  0.78645  0.31392  1.0000
  H   H4207     1.0  0.72344  0.74964  0.33540  1.0000
  H   H4208     1.0  0.69858  0.75425  0.34797  1.0000
  H   H4209     1.0  0.70112  0.78476  0.35648  1.0000
  H   H4210     1.0  0.71315  0.80200  0.33854  1.0000
  H   H4211     1.0  0.72680  0.79792  0.30763  1.0000
  H   H4212     1.0  0.73505  0.77260  0.30736  1.0000
  H   H4213     1.0  0.70295  0.80247  0.28734  1.0000
  H   H4214     1.0  0.70709  0.77670  0.28827  1.0000
  H   H4215     1.0  0.68077  0.81582  0.33847  1.0000
  H   H4216     1.0  0.69256  0.81915  0.31301  1.0000
  H   H4217     1.0  0.74443  0.77323  0.33576  1.0000
  H   H4218     1.0  0.73124  0.76033  0.35805  1.0000
  H   H4219     1.0  0.69005  0.75540  0.31392  1.0000
  H   H4220     1.0  0.71600  0.74641  0.30638  1.0000
  H   H4221     1.0  0.71437  0.71759  0.33436  1.0000
  H   H4222     1.0  0.68822  0.72688  0.34162  1.0000
  H   H4223     1.0  0.69795  0.71952  0.31845  1.0000
  H   H4224     1.0  0.72492  0.79361  0.25746  1.0000
  H   H4225     1.0  0.73787  0.80246  0.27059  1.0000
  H   H4226     1.0  0.71112  0.72783  0.47077  1.0000
  C   C2395     1.0  0.82758  0.53882  0.23898  1.0000
  H   H4227     1.0  0.74160  0.80055  0.35205  1.0000
  H   H4228     1.0  0.72729  0.78845  0.37410  1.0000
  H   H4229     1.0  0.75256  0.77737  0.36570  1.0000
  C   C2396     1.0  0.80716  0.84707  0.37873  1.0000
  C   C2397     1.0  0.79676  0.83504  0.37161  1.0000
  H   H4230     1.0  0.79201  0.84062  0.40883  1.0000
  H   H4231     1.0  0.81385  0.82342  0.40272  1.0000
  H   H4232     1.0  0.79895  0.86253  0.37593  1.0000
  H   H4233     1.0  0.82227  0.84610  0.36979  1.0000
  H   H4234     1.0  0.79660  0.84082  0.35583  1.0000
  H   H4235     1.0  0.80433  0.81933  0.37361  1.0000
  H   H4236     1.0  0.78131  0.83613  0.37974  1.0000
  C   C2398     1.0  0.73377  0.51025  0.30740  1.0000
  H   H4237     1.0  0.89466  0.73348  0.42213  1.0000
  C   C2399     1.0  0.89212  0.57894  0.32656  1.0000
  C   C2400     1.0  0.80426  0.90560  0.41183  1.0000
  C   C2401     1.0  0.87081  0.83348  0.47587  1.0000
  C   C2402     1.0  0.88366  0.55407  0.36865  1.0000
  C   C2403     1.0  0.88167  0.54177  0.38995  1.0000
  C   C2404     1.0  0.86544  0.53020  0.39486  1.0000
  C   C2405     1.0  0.80823  0.87119  0.40639  1.0000
  H   H4238     1.0  0.88487  0.59158  0.35216  1.0000
  H   H4239     1.0  0.87025  0.56602  0.36870  1.0000
  H   H4240     1.0  0.88205  0.54495  0.35908  1.0000
  H   H4241     1.0  0.87784  0.55156  0.40057  1.0000
  H   H4242     1.0  0.89534  0.53113  0.39262  1.0000
  H   H4243     1.0  0.88075  0.58305  0.38827  1.0000
  H   H4244     1.0  0.88241  0.56836  0.33007  1.0000
  H   H4245     1.0  0.86900  0.51942  0.38525  1.0000
  H   H4246     1.0  0.86394  0.52209  0.41030  1.0000
  H   H4247     1.0  0.85117  0.54031  0.39304  1.0000
  C   C2406     1.0  0.88189  0.73885  0.41469  1.0000
  H   H4248     1.0  0.86754  0.60413  0.32487  1.0000
  N   N135      1.0  0.78666  0.64747  0.37517  1.0000
  C   C2407     1.0  0.79820  0.64164  0.35618  1.0000
  C   C2408     1.0  0.79211  0.66588  0.37660  1.0000
  C   C2409     1.0  0.79153  0.63076  0.39185  1.0000
  C   C2410     1.0  0.76484  0.65165  0.37604  1.0000
  C   C2411     1.0  0.75749  0.66627  0.35818  1.0000
  C   C2412     1.0  0.79329  0.62393  0.35121  1.0000
  C   C2413     1.0  0.78189  0.63465  0.41270  1.0000
  C   C2414     1.0  0.73515  0.66990  0.36106  1.0000
  C   C2415     1.0  0.80403  0.62103  0.33063  1.0000
  C   C2416     1.0  0.79003  0.61794  0.42832  1.0000
  H   H4249     1.0  0.81415  0.63762  0.35627  1.0000
  H   H4250     1.0  0.79667  0.65437  0.34368  1.0000
  H   H4251     1.0  0.79078  0.67726  0.36300  1.0000
  H   H4252     1.0  0.78161  0.67269  0.38848  1.0000
  H   H4253     1.0  0.80766  0.62625  0.39068  1.0000
  H   H4254     1.0  0.78699  0.61742  0.39098  1.0000
  H   H4255     1.0  0.75974  0.63777  0.37814  1.0000
  H   H4256     1.0  0.75669  0.65787  0.38916  1.0000
  H   H4257     1.0  0.76385  0.66047  0.34458  1.0000
  H   H4258     1.0  0.79792  0.61015  0.36159  1.0000
  H   H4259     1.0  0.77738  0.62593  0.35179  1.0000
  H   H4260     1.0  0.76579  0.63571  0.41548  1.0000
  H   H4261     1.0  0.78452  0.64841  0.41477  1.0000
  H   H4262     1.0  0.72789  0.67652  0.37408  1.0000
  H   H4263     1.0  0.73028  0.68021  0.34801  1.0000
  H   H4264     1.0  0.79889  0.63388  0.31946  1.0000
  H   H4265     1.0  0.82015  0.61896  0.32905  1.0000
  H   H4266     1.0  0.80101  0.60773  0.32781  1.0000
  H   H4267     1.0  0.78180  0.62023  0.44309  1.0000
  H   H4268     1.0  0.78863  0.60352  0.42650  1.0000
  H   H4269     1.0  0.80574  0.61763  0.42742  1.0000
  H   H4270     1.0  0.81562  0.65305  0.39377  1.0000
  H   H4271     1.0  0.89530  0.71491  0.46951  1.0000
  H   H4272     1.0  0.68237  0.74893  0.45798  1.0000
  H   H4273     1.0  0.97646  0.89173  0.45102  1.0000
  H   H4274     1.0  0.87861  0.78129  0.41278  1.0000
  H   H4275     1.0  0.84232  0.74503  0.46758  1.0000
  C   C2417     1.0  0.88139  0.72191  0.40537  1.0000
  C   C2418     1.0  0.97619  0.67411  0.46217  1.0000
  H   H4276     1.0  0.83199  0.79407  0.38205  1.0000
  C   C2419     1.0  0.88279  0.78858  0.43821  1.0000
  H   H4277     1.0  0.87189  0.71973  0.45001  1.0000
  C   C2420     1.0  0.89938  0.71830  0.38906  1.0000
  H   H4278     1.0  0.68654  0.52708  0.26632  1.0000
  H   H4279     1.0  0.80505  0.82249  0.46940  1.0000
  H   H4280     1.0  0.66265  0.78937  0.43163  1.0000
  H   H4281     1.0  0.72992  0.73924  0.47259  1.0000
  H   H4282     1.0  0.80260  0.84951  0.43955  1.0000
  H   H4283     1.0  0.86786  0.58685  0.24205  1.0000
  C   C2421     1.0  0.77881  0.56744  0.25912  1.0000
  H   H4284     1.0  0.85214  0.49534  0.26525  1.0000
  S   S539      1.0  0.73015  0.52718  0.23529  1.0000
  H   H4285     1.0  0.71005  0.80580  0.47567  1.0000
  C   C2422     1.0  0.85869  0.72818  0.44429  1.0000
  H   H4286     1.0  0.88174  0.70808  0.41659  1.0000
  H   H4287     1.0  0.86813  0.72501  0.39906  1.0000
  H   H4288     1.0  0.82441  0.65793  0.36769  1.0000
  H   H4289     1.0  0.81643  0.78292  0.40361  1.0000
  H   H4290     1.0  0.84259  0.70099  0.47467  1.0000
  H   H4291     1.0  0.88012  0.83535  0.39493  1.0000
  C   C2423     1.0  0.92035  0.62931  0.47325  1.0000
  H   H4292     1.0  0.77566  0.67845  0.45557  1.0000
  H   H4293     1.0  0.89324  0.79797  0.42927  1.0000
  H   H4294     1.0  0.81547  0.69397  0.36723  1.0000
  H   H4295     1.0  0.78802  0.90755  0.41511  1.0000
  H   H4296     1.0  0.74197  0.77636  0.27135  1.0000
  H   H4297     1.0  0.89935  0.73128  0.37678  1.0000
  H   H4298     1.0  0.91312  0.71512  0.39468  1.0000
  H   H4299     1.0  0.89919  0.70538  0.38343  1.0000
  H   H4300     1.0  0.85295  0.81907  0.41401  1.0000
  H   H4301     1.0  0.99034  0.86761  0.47826  1.0000
  C   C2424     1.0  0.66811  0.83436  0.45671  1.0000
  H   H4302     1.0  0.95772  0.83419  0.47729  1.0000
  H   H4303     1.0  0.72729  0.51753  0.29426  1.0000
  C   C2425     1.0  0.98930  0.85056  0.45697  1.0000
  H   H4304     1.0  0.89244  0.50150  0.26910  1.0000
  H   H4305     1.0  0.97134  0.83326  0.44008  1.0000
  H   H4306     1.0  0.83099  0.81234  0.46227  1.0000
  H   H4307     1.0  0.67627  0.64551  0.23591  1.0000
  H   H4308     1.0  0.93383  0.49755  0.30031  1.0000
  H   H4309     1.0  0.81323  0.79748  0.46592  1.0000
  H   H4310     1.0  0.84728  0.59069  0.26223  1.0000
  H   H4311     1.0  0.85385  0.52431  0.27567  1.0000
  H   H4312     1.0  0.97036  0.80602  0.42507  1.0000
  H   H4313     1.0  0.85369  0.76973  0.44485  1.0000
  H   H4314     1.0  0.70257  0.85555  0.46360  1.0000
  H   H4315     1.0  0.79231  0.67995  0.48065  1.0000
  H   H4316     1.0  0.72462  0.74130  0.44900  1.0000
  S   S540      1.0  0.91928  0.52202  0.23887  1.0000
  C   C2426     1.0  0.86768  0.76002  0.43915  1.0000
  C   C2427     1.0  0.87919  0.81341  0.47764  1.0000
  H   H4317     1.0  0.68442  0.80117  0.44370  1.0000
  H   H4318     1.0  0.79271  0.59174  0.25567  1.0000
  C   C2428     1.0  0.68643  0.76335  0.45576  1.0000
  H   H4319     1.0  0.86804  0.79814  0.44156  1.0000
  C   C2429     1.0  0.76673  0.68175  0.46980  1.0000
  H   H4320     1.0  0.96857  0.68133  0.44979  1.0000
  H   H4321     1.0  0.93616  0.68152  0.47391  1.0000
  C   C2430     1.0  0.84187  0.73220  0.46207  1.0000
  C   C2431     1.0  0.84485  0.55832  0.24928  1.0000
  Fe  Fe270     1.0  0.97917  0.75380  0.47771  1.0000
  H   H4322     1.0  0.81871  0.50407  0.30007  1.0000
  C   C2432     1.0  0.67311  0.53331  0.26004  1.0000
  H   H4323     1.0  0.71866  0.87285  0.45493  1.0000
  H   H4324     1.0  0.99041  0.66480  0.45652  1.0000
  N   N136      1.0  0.98947  0.83074  0.47075  1.0000
  H   H4325     1.0  0.66391  0.75513  0.43456  1.0000
  H   H4326     1.0  0.67501  0.83726  0.44089  1.0000
  N   N137      1.0  0.84466  0.53773  0.24801  1.0000
  C   C2433     1.0  0.67520  0.79763  0.45858  1.0000
  H   H4327     1.0  0.83007  0.56567  0.25622  1.0000
  H   H4328     1.0  0.97926  0.68555  0.46808  1.0000
  H   H4329     1.0  0.69672  0.75866  0.48339  1.0000
  C   C2434     1.0  0.66580  0.80036  0.38463  1.0000
  H   H4330     1.0  0.79295  0.72127  0.48419  1.0000
  H   H4331     1.0  0.87396  0.86135  0.47907  1.0000
  H   H4332     1.0  0.93572  0.62106  0.46975  1.0000
  H   H4333     1.0  0.94609  0.50038  0.35829  1.0000
  H   H4334     1.0  0.81353  0.54254  0.24941  1.0000
  C   C2435     1.0  0.71799  0.74083  0.46474  1.0000
  C   C2436     1.0  0.88013  0.84576  0.48081  1.0000
  C   C2437     1.0  0.67683  0.58951  0.24041  1.0000
  C   C2438     1.0  0.84289  0.71451  0.47919  1.0000
  C   C2439     1.0  0.89668  0.80554  0.48461  1.0000
  Fe  Fe271     1.0  0.75798  0.53584  0.23502  1.0000
  C   C2440     1.0  0.86428  0.52940  0.23627  1.0000
  C   C2441     1.0  0.66123  0.82135  0.31890  1.0000
  C   C2442     1.0  0.99229  0.81530  0.45893  1.0000
  C   C2443     1.0  0.99257  0.88618  0.44969  1.0000
  H   H4335     1.0  0.99364  0.80035  0.46852  1.0000
  H   H4336     1.0  0.77776  0.87693  0.58716  1.0000
  Fe  Fe272     1.0  0.85249  0.50897  0.68622  1.0000
  S   S541      1.0  0.84183  0.53174  0.66119  1.0000
  S   S542      1.0  0.86866  0.51316  0.70713  1.0000
  H   H4337     1.0  0.68999  0.86847  0.49456  1.0000
  C   C2444     1.0  0.94369  0.67396  0.48629  1.0000
  C   C2445     1.0  0.83701  0.82485  0.56207  1.0000
  C   C2446     1.0  0.86790  0.62678  0.50485  1.0000
  C   C2447     1.0  0.73403  0.72708  0.54735  1.0000
  H   H4338     1.0  0.88869  0.51469  0.65279  1.0000
  H   H4339     1.0  0.67170  0.79923  0.64336  1.0000
  H   H4340     1.0  0.83307  0.58715  0.72407  1.0000
  H   H4341     1.0  0.90713  0.78539  0.56654  1.0000
  Fe  Fe273     1.0  0.86376  0.67131  0.58480  1.0000
  S   S543      1.0  0.85568  0.66356  0.56009  1.0000
  S   S544      1.0  0.86952  0.70128  0.58190  1.0000
  Fe  Fe274     1.0  0.85636  0.63345  0.61320  1.0000
  S   S545      1.0  0.84718  0.62257  0.59121  1.0000
  S   S546      1.0  0.85909  0.61669  0.64369  1.0000
  Fe  Fe275     1.0  0.87280  0.63332  0.57026  1.0000
  S   S547      1.0  0.89370  0.61267  0.55197  1.0000
  Fe  Fe276     1.0  0.83077  0.65357  0.58314  1.0000
  S   S548      1.0  0.79944  0.66138  0.57942  1.0000
  S   S549      1.0  0.88338  0.64200  0.59283  1.0000
  S   S550      1.0  0.83755  0.66356  0.60712  1.0000
  Fe  Fe277     1.0  0.73057  0.80404  0.59312  1.0000
  S   S551      1.0  0.73738  0.79904  0.56276  1.0000
  H   H4342     1.0  0.94050  0.67632  0.56409  1.0000
  Fe  Fe278     1.0  0.71343  0.76764  0.61004  1.0000
  S   S552      1.0  0.71866  0.75926  0.58100  1.0000
  S   S553      1.0  0.69911  0.75070  0.63851  1.0000
  Fe  Fe279     1.0  0.74780  0.76751  0.57588  1.0000
  S   S554      1.0  0.77623  0.75385  0.55836  1.0000
  Fe  Fe280     1.0  0.70784  0.79146  0.56994  1.0000
  H   H4343     1.0  0.72639  0.77588  0.54085  1.0000
  S   S555      1.0  0.74371  0.77299  0.60603  1.0000
  S   S556      1.0  0.69989  0.79927  0.59942  1.0000
  C   C2448     1.0  0.89382  0.70344  0.57142  1.0000
  C   C2449     1.0  0.89772  0.72190  0.56160  1.0000
  C   C2450     1.0  0.91685  0.72375  0.55193  1.0000
  C   C2451     1.0  0.93219  0.70721  0.55241  1.0000
  C   C2452     1.0  0.92853  0.68897  0.56328  1.0000
  C   C2453     1.0  0.90928  0.68700  0.57253  1.0000
  H   H4344     1.0  0.88589  0.73470  0.56098  1.0000
  H   H4345     1.0  0.91976  0.73797  0.54418  1.0000
  H   H4346     1.0  0.90643  0.67280  0.58054  1.0000
  C   C2454     1.0  0.79235  0.68696  0.57297  1.0000
  C   C2455     1.0  0.77382  0.69673  0.58141  1.0000
  C   C2456     1.0  0.76873  0.71736  0.57714  1.0000
  C   C2457     1.0  0.78191  0.72811  0.56386  1.0000
  C   C2458     1.0  0.80013  0.71826  0.55494  1.0000
  C   C2459     1.0  0.80546  0.69776  0.55972  1.0000
  H   H4347     1.0  0.76370  0.68838  0.59176  1.0000
  H   H4348     1.0  0.75466  0.72489  0.58415  1.0000
  H   H4349     1.0  0.81033  0.72649  0.54458  1.0000
  H   H4350     1.0  0.81968  0.69031  0.55303  1.0000
  H   H4351     1.0  0.90296  0.58255  0.53012  1.0000
  C   C2460     1.0  0.83968  0.82518  0.58266  1.0000
  H   H4352     1.0  0.84795  0.94805  0.53178  1.0000
  C   C2461     1.0  0.92624  0.64949  0.54017  1.0000
  H   H4353     1.0  0.66498  0.77628  0.49208  1.0000
  C   C2462     1.0  0.75388  0.84229  0.58607  1.0000
  C   C2463     1.0  0.75901  0.85635  0.59293  1.0000
  Fe  Fe281     1.0  0.95293  0.73361  0.51227  1.0000
  H   H4354     1.0  0.84190  0.80993  0.59148  1.0000
  H   H4355     1.0  0.75154  0.85962  0.60712  1.0000
  C   C2464     1.0  0.93807  0.63745  0.55569  1.0000
  C   C2465     1.0  0.84523  0.55567  0.65801  1.0000
  C   C2466     1.0  0.85726  0.55987  0.66818  1.0000
  C   C2467     1.0  0.86135  0.57871  0.66383  1.0000
  C   C2468     1.0  0.85330  0.59343  0.64941  1.0000
  C   C2469     1.0  0.84058  0.58947  0.63990  1.0000
  C   C2470     1.0  0.83660  0.57060  0.64415  1.0000
  H   H4356     1.0  0.86390  0.54849  0.67892  1.0000
  H   H4357     1.0  0.87105  0.58180  0.67136  1.0000
  H   H4358     1.0  0.83370  0.60095  0.62934  1.0000
  H   H4359     1.0  0.82700  0.56750  0.63652  1.0000
  C   C2471     1.0  0.87415  0.60932  0.49775  1.0000
  H   H4360     1.0  0.70418  0.86939  0.61010  1.0000
  H   H4361     1.0  0.74281  0.73659  0.54962  1.0000
  H   H4362     1.0  0.90732  0.57955  0.58276  1.0000
  H   H4363     1.0  0.94592  0.66834  0.52256  1.0000
  H   H4364     1.0  0.82007  0.85334  0.58606  1.0000
  H   H4365     1.0  0.71893  0.73588  0.54677  1.0000
  S   S557      1.0  0.69010  0.80374  0.54639  1.0000
  C   C2472     1.0  0.83861  0.57412  0.58908  1.0000
  H   H4366     1.0  0.76085  0.69204  0.53780  1.0000
  N   N138      1.0  0.81562  0.74676  0.59629  1.0000
  C   C2473     1.0  0.79982  0.73517  0.60633  1.0000
  C   C2474     1.0  0.80618  0.76837  0.59244  1.0000
  C   C2475     1.0  0.82455  0.74125  0.57660  1.0000
  C   C2476     1.0  0.83174  0.74256  0.60764  1.0000
  C   C2477     1.0  0.82577  0.73785  0.63032  1.0000
  C   C2478     1.0  0.80640  0.71255  0.60824  1.0000
  C   C2479     1.0  0.84007  0.75271  0.56290  1.0000
  C   C2480     1.0  0.79510  0.77755  0.61039  1.0000
  C   C2481     1.0  0.78398  0.79850  0.60384  1.0000
  C   C2482     1.0  0.84284  0.73704  0.63966  1.0000
  C   C2483     1.0  0.79114  0.70190  0.62280  1.0000
  C   C2484     1.0  0.84910  0.74455  0.54426  1.0000
  H   H4367     1.0  0.78746  0.74007  0.59832  1.0000
  H   H4368     1.0  0.79305  0.73805  0.62119  1.0000
  H   H4369     1.0  0.81738  0.77734  0.58481  1.0000
  H   H4370     1.0  0.79574  0.77124  0.58243  1.0000
  H   H4371     1.0  0.81286  0.74332  0.56842  1.0000
  H   H4372     1.0  0.83177  0.72542  0.57837  1.0000
  H   H4373     1.0  0.84330  0.72967  0.60379  1.0000
  H   H4374     1.0  0.83944  0.75505  0.60324  1.0000
  H   H4375     1.0  0.82168  0.72327  0.63553  1.0000
  H   H4376     1.0  0.81308  0.74875  0.63600  1.0000
  H   H4377     1.0  0.80811  0.70866  0.59393  1.0000
  H   H4378     1.0  0.82072  0.70682  0.61288  1.0000
  H   H4379     1.0  0.85204  0.75188  0.57035  1.0000
  H   H4380     1.0  0.83316  0.76830  0.55807  1.0000
  H   H4381     1.0  0.78418  0.76921  0.62022  1.0000
  H   H4382     1.0  0.80574  0.77850  0.61867  1.0000
  C   C2485     1.0  0.78336  0.86241  0.56311  1.0000
  H   H4383     1.0  0.79408  0.80767  0.59376  1.0000
  C   C2486     1.0  0.73322  0.87138  0.51083  1.0000
  H   H4384     1.0  0.85576  0.72573  0.63481  1.0000
  H   H4385     1.0  0.84706  0.75156  0.63568  1.0000
  H   H4386     1.0  0.83841  0.73308  0.65584  1.0000
  H   H4387     1.0  0.77653  0.70756  0.61870  1.0000
  H   H4388     1.0  0.79553  0.68593  0.62271  1.0000
  H   H4389     1.0  0.79003  0.70387  0.63783  1.0000
  H   H4390     1.0  0.86055  0.75262  0.53498  1.0000
  H   H4391     1.0  0.85606  0.72873  0.54785  1.0000
  H   H4392     1.0  0.83765  0.74631  0.53577  1.0000
  C   C2487     1.0  0.78772  0.95301  0.53056  1.0000
  H   H4393     1.0  0.87524  0.58075  0.58156  1.0000
  H   H4394     1.0  0.89560  0.85558  0.52404  1.0000
  H   H4395     1.0  0.89525  0.53425  0.65965  1.0000
  H   H4396     1.0  0.88148  0.83716  0.55614  1.0000
  H   H4397     1.0  0.91674  0.63798  0.50937  1.0000
  C   C2488     1.0  0.87258  0.57002  0.59565  1.0000
  C   C2489     1.0  0.79556  0.66901  0.52281  1.0000
  C   C2490     1.0  0.71336  0.79913  0.48995  1.0000
  C   C2491     1.0  0.78740  0.73643  0.50783  1.0000
  H   H4398     1.0  0.83194  0.58381  0.59983  1.0000
  C   C2492     1.0  0.81619  0.65700  0.52452  1.0000
  C   C2493     1.0  0.66565  0.76983  0.62511  1.0000
  H   H4399     1.0  0.73331  0.71210  0.52548  1.0000
  N   N139      1.0  0.89166  0.55702  0.60026  1.0000
  H   H4400     1.0  0.91808  0.60472  0.59288  1.0000
  C   C2494     1.0  0.90095  0.58380  0.61224  1.0000
  C   C2495     1.0  0.70056  0.80488  0.50674  1.0000
  C   C2496     1.0  0.77204  0.81152  0.51364  1.0000
  H   H4401     1.0  0.77848  0.94628  0.52509  1.0000
  N   N140      1.0  0.77684  0.70414  0.50934  1.0000
  H   H4402     1.0  0.91715  0.54117  0.62777  1.0000
  H   H4403     1.0  0.68751  0.85310  0.57796  1.0000
  H   H4404     1.0  0.85833  0.63916  0.49761  1.0000
  H   H4405     1.0  0.66780  0.69536  0.70958  1.0000
  H   H4406     1.0  0.67442  0.76919  0.61061  1.0000
  H   H4407     1.0  0.66890  0.75455  0.67297  1.0000
  H   H4408     1.0  0.88657  0.87105  0.54181  1.0000
  C   C2497     1.0  0.79620  0.69069  0.51262  1.0000
  H   H4409     1.0  0.83796  0.93024  0.51181  1.0000
  H   H4410     1.0  0.75471  0.89840  0.51049  1.0000
  H   H4411     1.0  0.86355  0.79006  0.56502  1.0000
  H   H4412     1.0  0.94186  0.85216  0.52433  1.0000
  H   H4413     1.0  0.85183  0.55029  0.60952  1.0000
  Fe  Fe282     1.0  0.80718  0.88244  0.51688  1.0000
  C   C2498     1.0  0.70559  0.85451  0.52792  1.0000
  C   C2499     1.0  0.88776  0.54559  0.62102  1.0000
  C   C2500     1.0  0.73039  0.78458  0.49180  1.0000
  C   C2501     1.0  0.94548  0.84189  0.51418  1.0000
  H   H4414     1.0  0.77680  0.81525  0.52547  1.0000
  C   C2502     1.0  0.98289  0.76282  0.55105  1.0000
  H   H4415     1.0  0.80807  0.83276  0.59426  1.0000
  H   H4416     1.0  0.84566  0.79568  0.54058  1.0000
  C   C2503     1.0  0.78954  0.54278  0.69671  1.0000
  H   H4417     1.0  0.80710  0.69064  0.49855  1.0000
  H   H4418     1.0  0.78662  0.53186  0.71050  1.0000
  H   H4419     1.0  0.77722  0.54569  0.68903  1.0000
  H   H4420     1.0  0.80324  0.53649  0.68719  1.0000
  H   H4421     1.0  0.81543  0.64156  0.53191  1.0000
  C   C2504     1.0  0.72253  0.78238  0.52680  1.0000
  H   H4422     1.0  0.71754  0.84248  0.55508  1.0000
  C   C2505     1.0  0.73501  0.77647  0.51020  1.0000
  H   H4423     1.0  0.69888  0.84206  0.52833  1.0000
  H   H4424     1.0  0.79790  0.63169  0.68261  1.0000
  H   H4425     1.0  0.76133  0.68252  0.50822  1.0000
  H   H4426     1.0  0.77973  0.76463  0.48830  1.0000
  H   H4427     1.0  0.69654  0.78437  0.66324  1.0000
  C   C2506     1.0  0.90606  0.53253  0.62895  1.0000
  H   H4428     1.0  0.94729  0.82660  0.52289  1.0000
  H   H4429     1.0  0.91299  0.52052  0.62079  1.0000
  H   H4430     1.0  0.74304  0.83411  0.53320  1.0000
  C   C2507     1.0  0.87355  0.62794  0.52173  1.0000
  H   H4431     1.0  0.67459  0.86472  0.55818  1.0000
  S   S558      1.0  0.83791  0.88366  0.50012  1.0000
  H   H4432     1.0  0.74105  0.86333  0.54028  1.0000
  H   H4433     1.0  0.90389  0.68140  0.49377  1.0000
  H   H4434     1.0  0.82880  0.83961  0.55600  1.0000
  H   H4435     1.0  0.86218  0.54964  0.58420  1.0000
  C   C2508     1.0  0.89004  0.70699  0.51969  1.0000
  H   H4436     1.0  0.86226  0.80698  0.52088  1.0000
  H   H4437     1.0  0.74834  0.76562  0.51170  1.0000
  H   H4438     1.0  0.68976  0.80504  0.67514  1.0000
  H   H4439     1.0  0.78521  0.80750  0.50234  1.0000
  C   C2509     1.0  0.68810  0.87279  0.61605  1.0000
  S   S559      1.0  0.82936  0.49643  0.70964  1.0000
  C   C2510     1.0  0.91063  0.67672  0.50689  1.0000
  H   H4440     1.0  0.82576  0.65698  0.50980  1.0000
  C   C2511     1.0  0.67387  0.76063  0.64157  1.0000
  H   H4441     1.0  0.68976  0.68354  0.67489  1.0000
  C   C2512     1.0  0.74328  0.72016  0.52815  1.0000
  H   H4442     1.0  0.91622  0.66233  0.54572  1.0000
  H   H4443     1.0  0.78657  0.66803  0.53786  1.0000
  H   H4444     1.0  0.83717  0.83588  0.51259  1.0000
  H   H4445     1.0  0.75286  0.70653  0.49541  1.0000
  H   H4446     1.0  0.89764  0.80788  0.53653  1.0000
  H   H4447     1.0  0.90011  0.66889  0.51838  1.0000
  C   C2513     1.0  0.87121  0.84735  0.54710  1.0000
  H   H4448     1.0  0.90293  0.79000  0.48609  1.0000
  H   H4449     1.0  0.85247  0.83123  0.58211  1.0000
  H   H4450     1.0  0.83919  0.80558  0.50039  1.0000
  H   H4451     1.0  0.73324  0.71437  0.55988  1.0000
  H   H4452     1.0  0.68959  0.84586  0.63721  1.0000
  S   S560      1.0  0.80068  0.86553  0.49812  1.0000
  C   C2514     1.0  0.68662  0.85261  0.56297  1.0000
  H   H4453     1.0  0.68729  0.81599  0.50543  1.0000
  H   H4454     1.0  0.82668  0.81482  0.56487  1.0000
  H   H4455     1.0  0.91342  0.51247  0.65548  1.0000
  H   H4456     1.0  0.90494  0.84750  0.49134  1.0000
  C   C2515     1.0  0.82167  0.83762  0.59356  1.0000
  H   H4457     1.0  0.82337  0.83637  0.60872  1.0000
  H   H4458     1.0  0.91249  0.54282  0.53661  1.0000
  H   H4459     1.0  0.87430  0.80796  0.56855  1.0000
  H   H4460     1.0  0.89674  0.76676  0.56244  1.0000
  C   C2516     1.0  0.87018  0.80303  0.55713  1.0000
  H   H4461     1.0  0.77141  0.71133  0.53779  1.0000
  S   S561      1.0  0.86145  0.98428  0.52220  1.0000
  S   S562      1.0  0.95563  0.70900  0.53841  1.0000
  C   C2517     1.0  0.77384  0.86616  0.58162  1.0000
  H   H4462     1.0  0.73468  0.89958  0.53143  1.0000
  C   C2518     1.0  0.93977  0.65648  0.52049  1.0000
  H   H4463     1.0  0.80975  0.97800  0.52954  1.0000
  H   H4464     1.0  0.91908  0.69312  0.52446  1.0000
  C   C2519     1.0  0.88606  0.61186  0.53101  1.0000
  C   C2520     1.0  0.90357  0.77966  0.55527  1.0000
  H   H4465     1.0  0.90046  0.52579  0.55584  1.0000
  H   H4466     1.0  0.91751  0.77477  0.54518  1.0000
  C   C2521     1.0  0.76379  0.70645  0.52893  1.0000
  H   H4467     1.0  0.77547  0.74097  0.51996  1.0000
  H   H4468     1.0  0.88282  0.69815  0.53334  1.0000
  S   S563      1.0  0.96632  0.75948  0.50785  1.0000
  S   S564      1.0  0.73506  0.83053  0.60099  1.0000
  H   H4469     1.0  0.82747  0.56617  0.58865  1.0000
  H   H4470     1.0  0.73089  0.82198  0.52315  1.0000
  C   C2522     1.0  0.74659  0.87028  0.52507  1.0000
  H   H4471     1.0  0.68465  0.84478  0.61426  1.0000
  C   C2523     1.0  0.89290  0.59478  0.52337  1.0000
  C   C2524     1.0  0.88987  0.79565  0.54363  1.0000
  H   H4472     1.0  0.88764  0.78924  0.53216  1.0000
  H   H4473     1.0  0.74389  0.73337  0.51634  1.0000
  C   C2525     1.0  0.79128  0.56191  0.70096  1.0000
  H   H4474     1.0  0.80048  0.72820  0.51398  1.0000
  H   H4475     1.0  0.79308  0.57256  0.68679  1.0000
  H   H4476     1.0  0.86837  0.64126  0.52742  1.0000
  N   N141      1.0  0.85531  0.81881  0.54723  1.0000
  C   C2526     1.0  0.68103  0.85364  0.62565  1.0000
  H   H4477     1.0  0.86710  0.56747  0.73158  1.0000
  C   C2527     1.0  0.84964  0.81006  0.53307  1.0000
  H   H4478     1.0  0.81933  0.82798  0.53364  1.0000
  H   H4479     1.0  0.87085  0.55428  0.71225  1.0000
  C   C2528     1.0  0.67583  0.80902  0.65050  1.0000
  C   C2529     1.0  0.74898  0.89064  0.52541  1.0000
  H   H4480     1.0  0.78949  0.66190  0.51445  1.0000
  H   H4481     1.0  0.68849  0.70625  0.65688  1.0000
  H   H4482     1.0  0.69487  0.86815  0.52342  1.0000
  S   S565      1.0  0.92505  0.75186  0.50330  1.0000
  C   C2530     1.0  0.90585  0.81775  0.48986  1.0000
  H   H4483     1.0  0.80282  0.69633  0.52180  1.0000
  H   H4484     1.0  0.78446  0.97937  0.50857  1.0000
  H   H4485     1.0  0.82042  0.79861  0.52134  1.0000
  H   H4486     1.0  0.89155  0.57988  0.50158  1.0000
  H   H4487     1.0  0.71652  0.83904  0.49468  1.0000
  H   H4488     1.0  0.77668  0.80530  0.61673  1.0000
  H   H4489     1.0  0.76510  0.84163  0.49836  1.0000
  C   C2531     1.0  0.78101  0.72367  0.49716  1.0000
  N   N142      1.0  0.72483  0.85352  0.51327  1.0000
  H   H4490     1.0  0.78545  0.94811  0.54672  1.0000
  C   C2532     1.0  0.70625  0.85466  0.54916  1.0000
  C   C2533     1.0  0.68466  0.69975  0.67274  1.0000
  C   C2534     1.0  0.85670  0.55934  0.59497  1.0000
  H   H4491     1.0  0.81161  0.62311  0.66070  1.0000
  C   C2535     1.0  0.88655  0.59331  0.50713  1.0000
  C   C2536     1.0  0.86365  0.83646  0.53562  1.0000
  S   S566      1.0  0.80201  0.87508  0.54972  1.0000
  H   H4492     1.0  0.80331  0.94763  0.52401  1.0000
  H   H4493     1.0  0.84261  0.58334  0.57433  1.0000
  H   H4494     1.0  0.77251  0.79844  0.59612  1.0000
  C   C2537     1.0  0.80233  0.61892  0.67534  1.0000
  H   H4495     1.0  0.81826  0.58892  0.67964  1.0000
  H   H4496     1.0  0.87260  0.87336  0.52359  1.0000
  H   H4497     1.0  0.72115  0.88463  0.51180  1.0000
  H   H4498     1.0  0.78584  0.84515  0.54193  1.0000
  C   C2538     1.0  0.90025  0.54267  0.58679  1.0000
  H   H4499     1.0  0.86568  0.57927  0.60674  1.0000
  H   H4500     1.0  0.82237  0.55536  0.69918  1.0000
  H   H4501     1.0  0.67277  0.78908  0.67903  1.0000
  H   H4502     1.0  0.78907  0.61522  0.67324  1.0000
  H   H4503     1.0  0.94579  0.62295  0.55203  1.0000
  C   C2539     1.0  0.85609  0.97892  0.48759  1.0000
  H   H4504     1.0  0.92799  0.63494  0.57013  1.0000
  C   C2540     1.0  0.76377  0.83803  0.56773  1.0000
  C   C2541     1.0  0.80909  0.55870  0.71071  1.0000
  C   C2542     1.0  0.81404  0.60125  0.68743  1.0000
  H   H4505     1.0  0.78682  0.59676  0.70730  1.0000
  C   C2543     1.0  0.82646  0.81116  0.51139  1.0000
  C   C2544     1.0  0.77839  0.84826  0.55615  1.0000
  H   H4506     1.0  0.76004  0.82707  0.56241  1.0000
  C   C2545     1.0  0.83155  0.57418  0.71927  1.0000
  S   S567      1.0  0.92689  0.80783  0.50004  1.0000
  H   H4507     1.0  0.96908  0.75724  0.55516  1.0000
  H   H4508     1.0  0.92536  0.52727  0.55530  1.0000
  C   C2546     1.0  0.73861  0.83440  0.51955  1.0000
  H   H4509     1.0  0.85239  0.84771  0.52848  1.0000
  C   C2547     1.0  0.70520  0.79641  0.52522  1.0000
  H   H4510     1.0  0.82281  0.66307  0.53337  1.0000
  H   H4511     1.0  0.75952  0.88924  0.53480  1.0000
  C   C2548     1.0  0.80221  0.59529  0.70843  1.0000
  H   H4512     1.0  0.80161  0.60676  0.71654  1.0000
  H   H4513     1.0  0.82768  0.60539  0.68802  1.0000
  C   C2549     1.0  0.84861  0.95391  0.51630  1.0000
  C   C2550     1.0  0.84291  0.94384  0.50504  1.0000
  H   H4514     1.0  0.79749  0.76359  0.50224  1.0000
  H   H4515     1.0  0.80943  0.54485  0.72192  1.0000
  H   H4516     1.0  0.85857  0.85527  0.55657  1.0000
  H   H4517     1.0  0.70909  0.86891  0.54973  1.0000
  H   H4518     1.0  0.68528  0.88219  0.62690  1.0000
  H   H4519     1.0  0.76508  0.79855  0.51977  1.0000
  H   H4520     1.0  0.76614  0.97976  0.53080  1.0000
  H   H4521     1.0  0.87565  0.83233  0.52338  1.0000
  C   C2551     1.0  0.85510  0.97155  0.50762  1.0000
  S   S568      1.0  0.79362  0.91200  0.50090  1.0000
  Fe  Fe283     1.0  0.84689  0.49826  0.73038  1.0000
  H   H4522     1.0  0.95266  0.64419  0.51825  1.0000
  C   C2552     1.0  0.83255  0.82282  0.52298  1.0000
  H   H4523     1.0  0.84030  0.57491  0.70409  1.0000
  N   N143      1.0  0.93037  0.66312  0.50278  1.0000
  H   H4524     1.0  0.97586  0.84295  0.50760  1.0000
  C   C2553     1.0  0.68418  0.79615  0.66814  1.0000
  C   C2554     1.0  0.89774  0.83792  0.48764  1.0000
  H   H4525     1.0  0.68323  0.83830  0.56348  1.0000
  H   H4526     1.0  0.88675  0.59427  0.61104  1.0000
  H   H4527     1.0  0.76817  0.73277  0.49081  1.0000
  C   C2555     1.0  0.88215  0.86276  0.53322  1.0000
  H   H4528     1.0  0.68775  0.81541  0.64001  1.0000
  C   C2556     1.0  0.78209  0.97539  0.52472  1.0000
  H   H4529     1.0  0.77719  0.56774  0.71010  1.0000
  C   C2557     1.0  0.90043  0.52293  0.65052  1.0000
  H   H4530     1.0  0.89135  0.53121  0.59025  1.0000
  C   C2558     1.0  0.91086  0.69599  0.51264  1.0000
  C   C2559     1.0  0.75769  0.82903  0.50442  1.0000
  H   H4531     1.0  0.91511  0.53446  0.58924  1.0000
  H   H4532     1.0  0.91701  0.64025  0.53851  1.0000
  H   H4533     1.0  0.69246  0.70570  0.68060  1.0000
  C   C2560     1.0  0.91078  0.53587  0.55242  1.0000
  H   H4534     1.0  0.87772  0.53561  0.62264  1.0000
  C   C2561     1.0  0.90605  0.56990  0.59759  1.0000
  H   H4535     1.0  0.98740  0.72677  0.54310  1.0000
  H   H4536     1.0  0.91232  0.60618  0.61834  1.0000
  H   H4537     1.0  0.66656  0.73008  0.70189  1.0000
  N   N144      1.0  0.81023  0.57516  0.71957  1.0000
  H   H4538     1.0  0.76135  0.86140  0.52036  1.0000
  H   H4539     1.0  0.93103  0.58620  0.61012  1.0000
  H   H4540     1.0  0.81498  0.82087  0.50349  1.0000
  H   H4541     1.0  0.94906  0.64523  0.55678  1.0000
  H   H4542     1.0  0.87977  0.55568  0.63110  1.0000
  H   H4543     1.0  0.78933  0.98120  0.54918  1.0000
  H   H4544     1.0  0.92111  0.56090  0.59806  1.0000
  C   C2562     1.0  0.91663  0.59593  0.60807  1.0000
  C   C2563     1.0  0.90278  0.55179  0.56459  1.0000
  H   H4545     1.0  0.90003  0.57550  0.62757  1.0000
  H   H4546     1.0  0.91329  0.56175  0.56022  1.0000
  H   H4547     1.0  0.66188  0.71979  0.72741  1.0000
  H   H4548     1.0  0.88863  0.56028  0.56058  1.0000
  Fe  Fe284     1.0  0.94019  0.77714  0.49539  1.0000
  H   H4549     1.0  0.94134  0.63376  0.49671  1.0000
  C   C2564     1.0  0.66246  0.70526  0.67993  1.0000
  H   H4550     1.0  0.88115  0.71030  0.50829  1.0000
  C   C2565     1.0  0.79397  0.98542  0.53298  1.0000
  H   H4551     1.0  0.89068  0.72109  0.52285  1.0000
  H   H4552     1.0  0.98220  0.77231  0.56123  1.0000
  H   H4553     1.0  0.74228  0.87476  0.49590  1.0000
  C   C2566     1.0  0.76645  0.69581  0.49872  1.0000
  H   H4554     1.0  0.68062  0.88096  0.60375  1.0000
  H   H4555     1.0  0.66704  0.75448  0.71870  1.0000
  C   C2567     1.0  0.79265  0.75517  0.49409  1.0000
  H   H4556     1.0  0.91785  0.70595  0.49980  1.0000
  H   H4557     1.0  0.98410  0.77193  0.53600  1.0000
  H   H4558     1.0  0.83017  0.71722  0.49131  1.0000
  C   C2568     1.0  0.72081  0.85307  0.49384  1.0000
  H   H4559     1.0  0.91189  0.62012  0.48555  1.0000
  C   C2569     1.0  0.66235  0.76128  0.66032  1.0000
  C   C2570     1.0  0.86419  0.55459  0.72787  1.0000
  H   H4560     1.0  0.83989  0.54203  0.72876  1.0000
  C   C2571     1.0  0.92749  0.64515  0.49759  1.0000
  C   C2572     1.0  0.84211  0.55549  0.73189  1.0000
  H   H4561     1.0  0.75428  0.82472  0.49214  1.0000
  H   H4562     1.0  0.94712  0.68599  0.49107  1.0000
  H   H4563     1.0  0.66569  0.82467  0.61772  1.0000
  H   H4564     1.0  0.70729  0.88459  0.48607  1.0000
  C   C2573     1.0  0.70479  0.87010  0.48580  1.0000
  H   H4565     1.0  0.97215  0.65406  0.48981  1.0000
  H   H4566     1.0  0.78355  0.49161  0.71049  1.0000
  H   H4567     1.0  0.81733  0.98915  0.55357  1.0000
  C   C2574     1.0  0.96431  0.84492  0.49925  1.0000
  C   C2575     1.0  0.84360  0.95142  0.48505  1.0000
  H   H4568     1.0  0.93302  0.84490  0.50667  1.0000
  H   H4569     1.0  0.96135  0.86029  0.49094  1.0000
  H   H4570     1.0  0.96994  0.81534  0.49404  1.0000
  C   C2576     1.0  0.97010  0.83050  0.48510  1.0000
  H   H4571     1.0  0.70431  0.64422  0.83140  1.0000
  Fe  Fe285     1.0  0.71079  0.53363  0.85296  1.0000
  S   S569      1.0  0.70321  0.52246  0.83016  1.0000
  H   H4572     1.0  0.66743  0.50595  0.85900  1.0000
  Fe  Fe286     1.0  0.73392  0.52425  0.81425  1.0000
  S   S570      1.0  0.74239  0.53252  0.78169  1.0000
  C   C2577     1.0  0.68688  0.58129  0.83433  1.0000
  S   S571      1.0  0.74046  0.53826  0.83555  1.0000
  C   C2578     1.0  0.76788  0.52443  0.77584  1.0000
  H   H4573     1.0  0.88665  0.53019  0.79886  1.0000
  H   H4574     1.0  0.77525  0.56281  0.77614  1.0000
  C   C2579     1.0  0.80888  0.51279  0.76597  1.0000
  C   C2580     1.0  0.79738  0.51525  0.75223  1.0000
  H   H4575     1.0  0.70069  0.57239  0.82845  1.0000
  H   H4576     1.0  0.69365  0.62330  0.84452  1.0000
  H   H4577     1.0  0.68236  0.64136  0.82584  1.0000
  C   C2581     1.0  0.77927  0.52128  0.78986  1.0000
  H   H4578     1.0  0.77240  0.52370  0.80443  1.0000
  C   C2582     1.0  0.88802  0.51406  0.80126  1.0000
  C   C2583     1.0  0.77693  0.52125  0.75706  1.0000
  H   H4579     1.0  0.86843  0.51321  0.82923  1.0000
  S   S572      1.0  0.68835  0.55500  0.86935  1.0000
  H   H4580     1.0  0.80509  0.55803  0.74920  1.0000
  C   C2584     1.0  0.67816  0.59832  0.82237  1.0000
  H   H4581     1.0  0.77353  0.56195  0.74199  1.0000
  C   C2585     1.0  0.79977  0.51566  0.78487  1.0000
  C   C2586     1.0  0.88338  0.50540  0.82318  1.0000
  Fe  Fe287     1.0  0.75129  0.50718  0.85044  1.0000
  S   S573      1.0  0.83461  0.50644  0.75981  1.0000
  H   H4582     1.0  0.67258  0.51619  0.87693  1.0000
  H   H4583     1.0  0.80269  0.58363  0.74760  1.0000
  C   C2587     1.0  0.76805  0.57573  0.76632  1.0000
  H   H4584     1.0  0.76813  0.52351  0.74626  1.0000
  H   H4585     1.0  0.68703  0.64959  0.86392  1.0000
  H   H4586     1.0  0.67466  0.66676  0.84562  1.0000
  H   H4587     1.0  0.75216  0.57556  0.76935  1.0000
  H   H4588     1.0  0.80852  0.51366  0.79566  1.0000
  H   H4589     1.0  0.68530  0.60254  0.80727  1.0000
  H   H4590     1.0  0.85659  0.49784  0.89601  1.0000
  S   S574      1.0  0.72200  0.50364  0.86979  1.0000
  C   C2588     1.0  0.69026  0.63923  0.83783  1.0000
  H   H4591     1.0  0.76964  0.58936  0.76971  1.0000
  S   S575      1.0  0.74711  0.49361  0.82763  1.0000
  H   H4592     1.0  0.90330  0.50748  0.79470  1.0000
  Fe  Fe288     1.0  0.71688  0.49274  0.84554  1.0000
  C   C2589     1.0  0.67789  0.57603  0.85396  1.0000
  C   C2590     1.0  0.67787  0.65112  0.85315  1.0000
  H   H4593     1.0  0.66510  0.66790  0.92162  1.0000
  H   H4594     1.0  0.89401  0.50846  0.83017  1.0000
  C   C2591     1.0  0.77702  0.57494  0.74485  1.0000
  H   H4595     1.0  0.71161  0.50505  0.79219  1.0000
  H   H4596     1.0  0.66402  0.54246  0.84939  1.0000
  H   H4597     1.0  0.66622  0.66330  0.88752  1.0000
  H   H4598     1.0  0.83650  0.55538  0.74773  1.0000
  H   H4599     1.0  0.87766  0.51128  0.79372  1.0000
  H   H4600     1.0  0.75088  0.49076  0.89186  1.0000
  H   H4601     1.0  0.87024  0.49723  0.86100  1.0000
  C   C2592     1.0  0.79957  0.57286  0.74071  1.0000
  H   H4602     1.0  0.80418  0.51295  0.73777  1.0000
  S   S576      1.0  0.78150  0.49754  0.85759  1.0000
  H   H4603     1.0  0.73769  0.49596  0.76497  1.0000
  H   H4604     1.0  0.83614  0.49079  0.89127  1.0000
  H   H4605     1.0  0.89807  0.49175  0.73624  1.0000
  H   H4606     1.0  0.66370  0.62810  0.87110  1.0000
  H   H4607     1.0  0.87133  0.54098  0.73700  1.0000
  H   H4608     1.0  0.76963  0.58846  0.73599  1.0000
