data_image0
_chemical_formula_structural       CH3C4HSHC2H2C2H4CH2CHC2HCH7CH4NH2SH4CH6CHCH5SFeS2Fe2S2FeSHFeS2FeSFeS2FeSCFeSFeSFeS3FeS2FeSHFeSH2SH2SHCFeHSFeH2FeHC2S2FeCHFeCH2CH2C3HCSH3C6H4C2H2CH5C6H6NC6H4C6H4CHC2H2C2H6C3HCH6CH3C3H2SH3CH4CH2NHSH2SH7CH2SH2C5HCH6CH8CH2C3HCH3C2HCH3CNC5HC2H7CH4CHC2H5C2HCNC10H13C2H5C2HCHNCH2SH3CHCHCH3CH4CH4CHFe2H2C2H2CHSFeHSCHSH4CH7CHCH3C4HCH4CHC3H2C3HSH8CHSH2C4H2CH3CH4C4NH3CH12CH2C2H2NCHC2HCH2C4HNHC2H3SH3CH2C2NHSC2H11CFeHSHSHSH2FeS2FeS2FeSFeS3HC2HCH5CHCHCHCH2C3H8C2H2C6H4C6H4C6H9CH2CH5CNC12H29CH3S2CH3CHCH2SH2C3NCH2CH3CHNC2H2C2HCH5CSH6CHC2H7SHCHC3HSHCH5C3H2CH2CH4CHC2H2CNH2CNC7H3NCH8CH5C2SC4H3CSC3HCH8CHCH2CHCH3CH13CFeS2FeSHSCFeSCFeS2FeSFeS2CHSCSH5CH2SCH2CH3CHC7H4C6H2FeH2CH5CH2CH2NH2CHCH2NH3CH4NCH2CHCH4CH3CH5SH4C2H5CHC2H3CHC2H2C2H9CNH2SCFeS2FeH2CSFeS2FeS2FeCFe2S2C2H3CHCH2CHC7H5SC2HFeH4NC2H2CH8CH3CH5C2H10C2NSH2CH3C3H2C4HC4HC2H2CH2C2H3CHCH2SH2CH2C2H3CH2SH2SH2CH2CH2CH4CH2CH2C3HC2H2CHC2HFeSCFeS2FeSFeS3H2CFeSH2SCSFeSFeSHC2FeCSFeS2FeS2FeSFeS3C6H5CHC6SH2SHC2HC8H4C6H4C6H4C3FeHNHCNC10HCH16CHSH2CH5CSH4CHCHCSCH5CHCH5C2H3CH3SHCHCHNC5H2CH7CHCHCHC2H4NC3H2CH2CHCH4FeH5CH5CH2CH5CNCHC2HNCHNHC4H6C2H4CHCSH4C2H8FeH3NHC2HC4FeH17C3FeH2CH4C2H2SH4CH8C2H2CHSH4CHSH5C2H4CFeC2HCHSH2CHCH3CSC3H3CH2SHCH2C2HNCHC2H16CHCH10SH2CH3SCH7CHCHCHCH2FeCH2CHC2H2CHCHCH8FeH2CHSH3FeS2FeS2FeSFeS3CSHS3FeS2FeS2FeSFeS3C3SFeSH5C2HC2H3FeH2CHC6H3C6H3C4HCH3C6H4C6H4C3H2C2HCH2C3H4C2H4C3H3CHC2SHCH2CH3CH3SCHC2FeHCSH2CH3SH2CHCH3NH2CNSCH4CH2CFeH3NC12H23SCH3CH2CH3FeHCS2H2NC9H13CH8C2H2FeHC3H2CH2SHCHC2H3CH5CH2C2HSH5NC2H2C2SH2CHC2HCH4CH3SH4CH3CH6C3HCH5CH5CH7C2SCH5CHCH2CH3C2H4CHCHC2HCH3CH5CH2CFeCH2C2HC3H3CH2FeCHCHSNHCFeH2C2H2CH2CHCH8CH6CH2CHCHCH4CHFeH3CHCHCHCNCH4CFeS2CHFeH2SFeSHFeS2FeSFeS3H2FeS2FeSCSCH2FeS2CHFeSCSFeS2FeSHFe2S3C6H4C6H4C6H4C6H5CHC6H5C2H4C2H3CH12CHC2HCH2C3H5CH5SH6C2NC3H2C2HSH2C3HCHCH5CH8CH9SH3CH5CHCHCNH3NC12H28CH13CH4C2HNSHNC3HCH6CHC3H3CHCHCHCHCHCNCHCH4C3H2CH4CSH2CSHCH4CHC2HC2HCHSHCHC3H2CH3CHC2HCH3C2HCH3C2H2CFeCH3NH5C2H4C3H4C4H5CH3CH2CH2FeC3H5SCH4CH2FeCHSCH5NH4CFeH3CH3FeS2FeSNFeHFeS3FeSCFeS2FeSFeHS2FeS2FeS2FeSFeS3H2CH2CHC3HC2H4C3H3C6H4C6H4C6H3C3H7CH3CH2CNCH2CH2CH3C3H3CSH3C2HCH4CH3CH2C2H4C2H8CHFeH4CHC2HC2H10C2NHCH4CHC3NC8HCH21CH5CH2CSC4HCSHCH4CHCHCSCNHC2H2SHC2HC2H2C2H2SCHCH2C2H3CHCSH9CNH3C5H5C2HCH3CHCHCH5CH4CH2CH2CH4C2HCSH2C3H2C2H5FeCH4CHNHC2HCH4CH4C2H4C3HNHCH2CHC3H10SCH9C2HNC2HCH2CH4CH2C5HCH9CH2C2HCH2NH4CH2SHCHSHCH6C2H5CHCH2CH2FeCH4NSHCH3FeHFeS2FeSFeS2H5C2HFeS2FeS2FeSFeS3CH3CH2SHCHCFeS2FeS2FeCFeS3C6H4C6H4C5H3SH3C3H2C6H4C6H4CH3CH3SH2C3HC2H6CHCH2SH2NC12H28SH2C3H2C3H3C2HC3H2CHCHCHCHCHFeHSCHC2H9CNH3NH4CHCH6NC6H15CHCH6CH3C2H4CH2CH8C3HCH2CH8CH3CH3CHCH2CHCHC5HCNHNC2H4SH7CH5CHC2HCHSH2CHCH2C3H2C2FeSFeSFeSFeS3FeSFeS2FeSFeS3CHSHCH5FeS2FeS2FeSFeS3H2C6H4CH3C6H5C6H7C4H6C4H4NC2SHCHC3HCH2CH2C2HC3HC2H2CHCH2CFeH3CH2CHCH7CHCH2CH3C2H5NC10HCH19SH2CH5CHC2H2CH2CH3SH2CHCSC2H3CH4C2H5CSH2C6H13CHC2H4CHCHCH5CH2CH5SNHC2HCHNCHCH2CH2CHCH3CNHCH3CH3C2H2CSH4CHCHCH3CH3C2H4CHC2H4CH2NC6H2C2H5NH8CH4SCHCH2CHC4H4CHSCH7SHCHFeH2FeS2FeS2FeSFeS3FeS2H2FeH3SHFeS2HSHCFeS2CFeSHFeS2FeSFeS3H2C2H2CH4CH4C5H6C6H4C2H6C6H5C6H4C6H5C2H3NCHC3NC2HCHC2H7CHC3HC2H9C2H2CHCHC2H2CH6NC4H6CH3CH4NH3C3H5CH7CH2CHC2H4FeH2C2HCH4CH4CH4C2H3CH2CH2CHC2H3NSN2C3HC2HCH7CHC2HCHCH3CHCH6CH7CHCH6CH2CH2CH3CH3CHC3H3CHC2H5CHFeHCHFeSHFeS2FeHFeS3FeS2FeS2FeCFeS2FeS2FeS2FeSFeS3CNS2C4HCHCH3SH2FeHC7H4CHCHFeH2CH2C3H3C6H4C6H4C6H4C2H2CH4C2H2C3H4C2H7CH5C2HNC12H29C2H3SH3C2H2C2H2FeH9CH2C2H3CH2CH2SH7C2H4CH2CH2CNH2C3HC3NHCHCH2C2H2CH2CSH5C2H3CSH4CHCHFeH2CHC3HSHCNH2C2H3CH2C3HCHC2H6C2HCHCSH2CH10CH2SH3CH5C3SC3H2NH6CHCHCH2C3H5C3SNH6CSH3C2HCH2CH9CHCHCSCH2FeSFeS2FeSFeHS2H3FeS3HFeSCSFeCHFeS2HFeSHSFeS2FeS2FeSFeS3FeS2CHSH2C8H4C2HCHCHC6H4C6H5SCHC6H4C6H10CNHCHCH5CH2C2H3CHCH5CH3CH2CNC11H28CH5C4HC2HCH4CHCH10CHCH6CNCH7C2H4CH5C2H3SC2H4CH2C3HCH4CH3CH2FeH3C2FeC2SCH2CHCH5CH2C2HCSCHCH2CH2C3H2CH4CHCH4NH5NSHC2H2CH2C2H2CH4C2HCHCH3C2HC3H3C2HNH4CFeH4CH3C2H2CSC2HCH2C3H3CH3C2HCHC2HCH2NH2CH3SNHCHC3H9FeCH4CH5CHCHCH3CH4C2HSH4CHCH2SCH2SH2CH3N2HCH2C2H2C2H4CH4CHCH2FeSHFeS2FeSFeS3FeS2FeS2FeSFeHS2FeSHFeSHFeSFeCS2HS2H2SH2C5H3CH2C2SHC6HCH2C6H4C6H4C6H10SH2CSH2C2H3CHSH2N2C2SC3HC2HCHCHSH2CH6CH3SH4CH2CHC4HNHCHCH5CH4SHSC2HNC6HC3H13C2H11SC4H9FeCNC12H27C6H2CH3FeCH2C2H2CHNCH3SH4CFeH2CHCHSH4CH8NC9NC2H20CHCH7CH2CH4CHC5H4CH3CH6CHC2H3SCHCH2C2HCH2C2H2CHSCH8CHNH2C2HCH4CH3C2H4FeHFeHCHCH3CH7CH2CH2CH2C3HCH2CH6C3HCH2C5H3CFeS2FeS2FeHFeS3FeSCSFeSFeS2HFeS2FeS2FeSFeHS2CSFeS2FeSFeCSCHC6H4C5H3C2H4CH4S2C7H4C6H4CH2C7H2CH2NC3FeC3HC4HNH4CH8C2H3CHC2HCH2NHC2HCHC2H5C2H2CHSFeHFeH2CHC2SH4SH4SH4CSH4SHSHCFeHC2H2CH5CH3C2NH6SCH2CHFeCH2C2HC3H6CHC3H2NH5CH2NC11H25CH2SHCH6NHC2H4CH7CH2CH7NC12H29C2H2SH2C2H2CH4CFeC2SCH2CSH6C2HCHSCHCHSHCH4FeC2HC2SH3C3FeHCH3CHCHCHCSFeH4C2H4CH2CH2NC2HCSHSCH5CH8CH2SH3CHCH2C2H3CHCH2C2H3CHCSFeHC3HC5H3C2H4SH3FeS2FeS2FeSFeS3HSHFeHSFeHSHSHS2FeSFeS3CHCH4SHC2H5CH2CH3CHC3SH2C6H4C6H4C6H4C6H4C5H4C6H7CHCH2CHC2HC2HCH4CNCFeH9CH2CH7SH3CH2C2H2SH3CHCH3CHC3H6CH2SNH3C2H2C2H4SHC2HNH2CH3NHC4HC4HFeH2C2H3SHCH6CH4CH2CHC3H8CHC3HCHCHCH5NC4HC4H2CHCH12FeH5CH2SH4SFeH2C2HCH2C3FeH6CH3NC2H2C3HCH2CHCH4CH2FeH2CHCHC2H3C2H2C2H8C3H3CH2SH4C2HCH8SCH4CH2NH2CHNH4FeS2FeSHFeCFeCSCFeCHFeS2HC3H3CH2FeCH2CH2C2H5C6H7C2HNH3CSH2CH2SH4NCHC2HNFeCH9C2H4CH6SCH3CH2C3HCH2CH3C2H2CHCH2SHCH2SH3C2HCSH2FeS2FeSHFeHFeS2FeS2FeH2FeHFeS3CH3C2H5SCH3C10H4CHC4H5C2H3SH3C2H2C2H2SH2CH3CH2NCHC2HNH5C4H2CH2CH4CHC2HC2H7CHCHCH4SH3CH3C2H4CH2NH2C2HNH4C4HCH4NCH5C3H3CH2CHCH4C3H2CHCH3CH4CFeS2FeS2FeSFeS3FeH2FeS2FeHFeS3HSCSFeSH4SFeSHCS2HSFeCFeSCH7C3SH2CNH3CHCHC5H4C2NCHCSH6C2H2C6H5SCHC7H4C6H4CNC8HC3H16NCH9C2H5CNC2HC3H3C3H2CNCH7CH4NH8CHFeH2Fe2H3C2HFeH4C2HFeCHC2HCH2FeC2HC3H2CH6CHCH9CSC2H3C3HCH5CH4SH4C2S2HCHCHSHSHCH3CSCHC2HC3HNSHC3H3CH10C3H5CHFeCHCH4C3H4CH2CH5SC2HCH5CH3CH2SHFeCHCH5C2H2CHCH4CHCH4CHCH3FeH2SH6SCHCHCH2CHCH7SCHC2HC5HCH5CSH6CHCH2CH9CHSHFeS2FeH2FeSCHSCFeS2FeS2FeSFeS3H2C2H5CHCH2SFeH2CH4CHNHCH3CHCHCH2C4H5CHC2H3CH3CH2CHC7H6C2H3C6H4C6H7CSHC2NH2C2H6C2H10CHCHCNH7NH2C4H4C4H2C3H14CHNH6C3H2CHNCH2CHCHNCH11C2H2CH3CHC3H2C2HCH2CH2CH5CHC2HCH4C2H2CHSHC2HC2H3C2SH5CSHCH2C2H5CHCHCH3CH3CHCH3CH2CH3C2H2CHC3NH2CH7CH2C2HC
_chemical_formula_sum              "C2592 H4608 S576 N144 Fe288"
_cell_length_a       68.8363
_cell_length_b       69.2402
_cell_length_c       69.0985
_cell_angle_alpha    83
_cell_angle_beta     82.9217
_cell_angle_gamma    83.0209

_space_group_name_H-M_alt    "P 1"
_space_group_IT_number       1

loop_
  _space_group_symop_operation_xyz
  'x, y, z'

loop_
  _atom_site_type_symbol
  _atom_site_label
  _atom_site_symmetry_multiplicity
  _atom_site_fract_x
  _atom_site_fract_y
  _atom_site_fract_z
  _atom_site_occupancy
  C   C1        1.0  0.01908  0.18626  0.46700  1.0000
  H   H1        1.0  0.27195  0.00440  0.43565  1.0000
  H   H2        1.0  0.06290  0.02239  0.35478  1.0000
  H   H3        1.0  0.02842  0.01571  0.31518  1.0000
  C   C2        1.0  0.23268  0.00962  0.45433  1.0000
  C   C3        1.0  0.00532  0.99387  0.29885  1.0000
  C   C4        1.0  0.10173  0.01722  0.35225  1.0000
  C   C5        1.0  0.03848  0.18760  0.47518  1.0000
  H   H4        1.0  0.10293  0.03260  0.34585  1.0000
  S   S1        1.0  0.47455  0.31230  0.47783  1.0000
  H   H5        1.0  0.05754  0.01121  0.28886  1.0000
  C   C6        1.0  0.01406  0.05345  0.32542  1.0000
  C   C7        1.0  0.08924  0.00717  0.34050  1.0000
  H   H6        1.0  0.02460  0.06331  0.31730  1.0000
  H   H7        1.0  0.03992  0.20335  0.47547  1.0000
  C   C8        1.0  0.02497  0.03608  0.33694  1.0000
  C   C9        1.0  0.03833  0.02285  0.32298  1.0000
  H   H8        1.0  0.10683  0.00274  0.47878  1.0000
  H   H9        1.0  0.09696  0.00676  0.32545  1.0000
  H   H10       1.0  0.30546  0.99606  0.42052  1.0000
  H   H11       1.0  0.22219  0.00481  0.46690  1.0000
  C   C10       1.0  0.06174  0.99416  0.31728  1.0000
  H   H12       1.0  0.03369  0.04188  0.34697  1.0000
  H   H13       1.0  0.09521  0.01698  0.36780  1.0000
  C   C11       1.0  0.04178  0.99609  0.34920  1.0000
  H   H14       1.0  0.23700  0.03737  0.43655  1.0000
  C   C12       1.0  0.06824  0.01816  0.33983  1.0000
  C   C13       1.0  0.06992  0.00440  0.29719  1.0000
  H   H15       1.0  0.22631  0.03952  0.46150  1.0000
  C   C14       1.0  0.22651  0.03130  0.44861  1.0000
  H   H16       1.0  0.23938  0.00527  0.42368  1.0000
  H   H17       1.0  0.05054  0.18146  0.46477  1.0000
  H   H18       1.0  0.01695  0.17077  0.46605  1.0000
  H   H19       1.0  0.21652  0.99781  0.43441  1.0000
  H   H20       1.0  0.24740  0.00801  0.45962  1.0000
  H   H21       1.0  0.21144  0.03336  0.44393  1.0000
  H   H22       1.0  0.01361  0.02764  0.34583  1.0000
  C   C15       1.0  0.18410  0.00535  0.48213  1.0000
  H   H23       1.0  0.04603  0.03279  0.31146  1.0000
  H   H24       1.0  0.00645  0.19293  0.47646  1.0000
  H   H25       1.0  0.17463  0.03605  0.47555  1.0000
  H   H26       1.0  0.01918  0.19429  0.45207  1.0000
  N   N1        1.0  0.05302  0.00767  0.33244  1.0000
  H   H27       1.0  0.07033  0.03228  0.33062  1.0000
  H   H28       1.0  0.00363  0.06191  0.33567  1.0000
  S   S2        1.0  0.17705  0.99926  0.45982  1.0000
  H   H29       1.0  0.11152  0.15412  0.47555  1.0000
  H   H30       1.0  0.07775  0.17443  0.47937  1.0000
  H   H31       1.0  0.07901  0.01605  0.29914  1.0000
  H   H32       1.0  0.06819  0.20352  0.49180  1.0000
  C   C16       1.0  0.18157  0.02511  0.48583  1.0000
  H   H33       1.0  0.03548  0.00557  0.36082  1.0000
  H   H34       1.0  0.11679  0.00929  0.35200  1.0000
  H   H35       1.0  0.00546  0.04831  0.31484  1.0000
  H   H36       1.0  0.06998  0.15185  0.49004  1.0000
  H   H37       1.0  0.27166  0.99317  0.41391  1.0000
  H   H38       1.0  0.10279  0.13317  0.49110  1.0000
  C   C17       1.0  0.23227  0.99731  0.43705  1.0000
  H   H39       1.0  0.08818  0.99769  0.27044  1.0000
  C   C18       1.0  0.10860  0.14749  0.49095  1.0000
  H   H40       1.0  0.00143  0.01340  0.27250  1.0000
  H   H41       1.0  0.48088  0.32258  0.41351  1.0000
  H   H42       1.0  0.49088  0.26285  0.49187  1.0000
  H   H43       1.0  0.49441  0.28492  0.45286  1.0000
  H   H44       1.0  0.16720  0.19892  0.62110  1.0000
  S   S3        1.0  0.05610  0.17753  0.57562  1.0000
  Fe  Fe1       1.0  0.05747  0.22066  0.60695  1.0000
  S   S4        1.0  0.07462  0.19144  0.61299  1.0000
  S   S5        1.0  0.06047  0.24565  0.62476  1.0000
  Fe  Fe2       1.0  0.08193  0.19243  0.58046  1.0000
  Fe  Fe3       1.0  0.04730  0.17950  0.60769  1.0000
  S   S6        1.0  0.03794  0.15315  0.62668  1.0000
  S   S7        1.0  0.02903  0.20854  0.60402  1.0000
  Fe  Fe4       1.0  0.16294  0.07905  0.56770  1.0000
  S   S8        1.0  0.19315  0.08094  0.55145  1.0000
  H   H45       1.0  0.09142  0.15584  0.55736  1.0000
  Fe  Fe5       1.0  0.17809  0.04836  0.59901  1.0000
  S   S9        1.0  0.20938  0.04764  0.58534  1.0000
  S   S10       1.0  0.16749  0.02971  0.62615  1.0000
  Fe  Fe6       1.0  0.20304  0.08054  0.58179  1.0000
  S   S11       1.0  0.22090  0.10374  0.58996  1.0000
  Fe  Fe7       1.0  0.19652  0.04782  0.55653  1.0000
  S   S12       1.0  0.17230  0.08091  0.59723  1.0000
  S   S13       1.0  0.16574  0.04627  0.57097  1.0000
  Fe  Fe8       1.0  0.24990  0.14859  0.71430  1.0000
  S   S14       1.0  0.26050  0.15540  0.68253  1.0000
  C   C19       1.0  0.17950  0.00076  0.60273  1.0000
  Fe  Fe9       1.0  0.28907  0.12594  0.72424  1.0000
  S   S15       1.0  0.30221  0.13094  0.69266  1.0000
  Fe  Fe10      1.0  0.28801  0.16184  0.69403  1.0000
  S   S16       1.0  0.30239  0.18915  0.68141  1.0000
  Fe  Fe11      1.0  0.27334  0.12400  0.68414  1.0000
  S   S17       1.0  0.26919  0.10118  0.66402  1.0000
  S   S18       1.0  0.27638  0.15738  0.72586  1.0000
  S   S19       1.0  0.26135  0.11671  0.71562  1.0000
  Fe  Fe12      1.0  0.38962  0.23800  0.71521  1.0000
  S   S20       1.0  0.42225  0.23169  0.70727  1.0000
  S   S21       1.0  0.37174  0.21211  0.72353  1.0000
  Fe  Fe13      1.0  0.39267  0.28093  0.71698  1.0000
  S   S22       1.0  0.42563  0.27725  0.71036  1.0000
  H   H46       1.0  0.03345  0.14486  0.52473  1.0000
  Fe  Fe14      1.0  0.42002  0.25962  0.68690  1.0000
  S   S23       1.0  0.44015  0.26575  0.65860  1.0000
  H   H47       1.0  0.22817  0.09302  0.70437  1.0000
  H   H48       1.0  0.18820  0.32232  0.71573  1.0000
  S   S24       1.0  0.38703  0.26433  0.69257  1.0000
  H   H49       1.0  0.12013  0.03465  0.62290  1.0000
  H   H50       1.0  0.47599  0.21510  0.71369  1.0000
  S   S25       1.0  0.42043  0.29644  0.57157  1.0000
  H   H51       1.0  0.24915  0.32163  0.66293  1.0000
  C   C20       1.0  0.05375  0.16663  0.52635  1.0000
  Fe  Fe15      1.0  0.13095  0.25825  0.70751  1.0000
  H   H52       1.0  0.21591  0.29977  0.69449  1.0000
  S   S26       1.0  0.11732  0.23605  0.69271  1.0000
  Fe  Fe16      1.0  0.15501  0.29347  0.70349  1.0000
  H   H53       1.0  0.18635  0.04624  0.50502  1.0000
  H   H54       1.0  0.09308  0.03718  0.60263  1.0000
  Fe  Fe17      1.0  0.16470  0.25843  0.73232  1.0000
  H   H55       1.0  0.11430  0.01668  0.56164  1.0000
  C   C21       1.0  0.21023  0.15494  0.66318  1.0000
  C   C22       1.0  0.01761  0.15078  0.69731  1.0000
  S   S27       1.0  0.16323  0.26166  0.69989  1.0000
  S   S28       1.0  0.12251  0.29054  0.70834  1.0000
  Fe  Fe18      1.0  0.12716  0.28534  0.74042  1.0000
  C   C23       1.0  0.17471  0.14889  0.69398  1.0000
  H   H56       1.0  0.19230  0.19530  0.58119  1.0000
  Fe  Fe19      1.0  0.46626  0.32052  0.50902  1.0000
  C   C24       1.0  0.21854  0.09513  0.69235  1.0000
  H   H57       1.0  0.18441  0.17244  0.57697  1.0000
  H   H58       1.0  0.40042  0.32050  0.63999  1.0000
  C   C25       1.0  0.10570  0.14855  0.56017  1.0000
  H   H59       1.0  0.16900  0.21791  0.60165  1.0000
  H   H60       1.0  0.10396  0.01303  0.53164  1.0000
  C   C26       1.0  0.04286  0.04826  0.64013  1.0000
  C   C27       1.0  0.04981  0.13536  0.54921  1.0000
  C   C28       1.0  0.17533  0.14727  0.67180  1.0000
  H   H61       1.0  0.04043  0.17058  0.69477  1.0000
  C   C29       1.0  0.20078  0.99746  0.51169  1.0000
  S   S29       1.0  0.47280  0.30053  0.53639  1.0000
  H   H62       1.0  0.00652  0.17907  0.55138  1.0000
  H   H63       1.0  0.06367  0.23395  0.51891  1.0000
  H   H64       1.0  0.37629  0.32389  0.62174  1.0000
  C   C30       1.0  0.43356  0.27578  0.63509  1.0000
  C   C31       1.0  0.41477  0.27521  0.62955  1.0000
  C   C32       1.0  0.41088  0.28168  0.61007  1.0000
  C   C33       1.0  0.42554  0.28916  0.59613  1.0000
  C   C34       1.0  0.44409  0.29027  0.60188  1.0000
  C   C35       1.0  0.44809  0.28350  0.62119  1.0000
  H   H65       1.0  0.40354  0.26903  0.64000  1.0000
  H   H66       1.0  0.39665  0.28037  0.60561  1.0000
  H   H67       1.0  0.45556  0.29577  0.59127  1.0000
  H   H68       1.0  0.46265  0.28399  0.62522  1.0000
  C   C36       1.0  0.15329  0.99415  0.62857  1.0000
  C   C37       1.0  0.18819  0.03096  0.50256  1.0000
  H   H69       1.0  0.21481  0.29174  0.73029  1.0000
  H   H70       1.0  0.29364  0.25449  0.72133  1.0000
  C   C38       1.0  0.01682  0.10989  0.60452  1.0000
  H   H71       1.0  0.36337  0.15522  0.71447  1.0000
  H   H72       1.0  0.23925  0.18553  0.73516  1.0000
  H   H73       1.0  0.04426  0.12077  0.55079  1.0000
  H   H74       1.0  0.19023  0.11127  0.67084  1.0000
  H   H75       1.0  0.34182  0.14866  0.70522  1.0000
  C   C39       1.0  0.32038  0.19678  0.69404  1.0000
  C   C40       1.0  0.33056  0.21274  0.68577  1.0000
  C   C41       1.0  0.34590  0.21821  0.69499  1.0000
  C   C42       1.0  0.35124  0.20755  0.71243  1.0000
  C   C43       1.0  0.34073  0.19191  0.72088  1.0000
  C   C44       1.0  0.32532  0.18659  0.71178  1.0000
  H   H76       1.0  0.32678  0.22069  0.67204  1.0000
  H   H77       1.0  0.35389  0.23030  0.68838  1.0000
  H   H78       1.0  0.36849  0.17556  0.68869  1.0000
  H   H79       1.0  0.31748  0.17434  0.71826  1.0000
  H   H80       1.0  0.49359  0.25947  0.62635  1.0000
  H   H81       1.0  0.14642  0.21682  0.64364  1.0000
  N   N2        1.0  0.07752  0.07732  0.60065  1.0000
  C   C45       1.0  0.23319  0.10297  0.61137  1.0000
  C   C46       1.0  0.23638  0.08581  0.62404  1.0000
  C   C47       1.0  0.24719  0.08562  0.64018  1.0000
  C   C48       1.0  0.25440  0.10269  0.64430  1.0000
  C   C49       1.0  0.25066  0.12003  0.63200  1.0000
  C   C50       1.0  0.24039  0.12006  0.61549  1.0000
  H   H82       1.0  0.23108  0.07251  0.62104  1.0000
  H   H83       1.0  0.25013  0.07208  0.64946  1.0000
  H   H84       1.0  0.25640  0.13319  0.63473  1.0000
  H   H85       1.0  0.23823  0.13336  0.60567  1.0000
  C   C51       1.0  0.07591  0.24288  0.64401  1.0000
  C   C52       1.0  0.08156  0.25959  0.65063  1.0000
  C   C53       1.0  0.09401  0.25787  0.66569  1.0000
  C   C54       1.0  0.10087  0.23937  0.67437  1.0000
  C   C55       1.0  0.09494  0.22268  0.66796  1.0000
  C   C56       1.0  0.08258  0.22441  0.65288  1.0000
  H   H86       1.0  0.07643  0.27396  0.64394  1.0000
  H   H87       1.0  0.09842  0.27084  0.67047  1.0000
  H   H88       1.0  0.10003  0.20831  0.67466  1.0000
  H   H89       1.0  0.07807  0.21144  0.64826  1.0000
  C   C57       1.0  0.22402  0.26287  0.70723  1.0000
  H   H90       1.0  0.09804  0.07659  0.56382  1.0000
  C   C58       1.0  0.13824  0.14946  0.56960  1.0000
  C   C59       1.0  0.14286  0.12947  0.56726  1.0000
  H   H91       1.0  0.14916  0.15747  0.57404  1.0000
  H   H92       1.0  0.15723  0.12216  0.56999  1.0000
  C   C60       1.0  0.14253  0.05745  0.52151  1.0000
  C   C61       1.0  0.22439  0.19215  0.73370  1.0000
  H   H93       1.0  0.38564  0.20652  0.68017  1.0000
  H   H94       1.0  0.08578  0.19265  0.52432  1.0000
  H   H95       1.0  0.15435  0.15854  0.71832  1.0000
  H   H96       1.0  0.44930  0.31296  0.69937  1.0000
  H   H97       1.0  0.34721  0.29019  0.73330  1.0000
  H   H98       1.0  0.09993  0.12084  0.55210  1.0000
  C   C62       1.0  0.02615  0.14041  0.61213  1.0000
  C   C63       1.0  0.02595  0.12021  0.61636  1.0000
  C   C64       1.0  0.22073  0.18913  0.66030  1.0000
  H   H99       1.0  0.04547  0.05480  0.65335  1.0000
  C   C65       1.0  0.01720  0.15031  0.59609  1.0000
  H   H100      1.0  0.21155  0.00656  0.66920  1.0000
  H   H101      1.0  0.01717  0.16599  0.59287  1.0000
  H   H102      1.0  0.20537  0.02021  0.64649  1.0000
  H   H103      1.0  0.20384  0.17919  0.64026  1.0000
  H   H104      1.0  0.22462  0.15003  0.65497  1.0000
  H   H105      1.0  0.07336  0.04266  0.62974  1.0000
  C   C66       1.0  0.07205  0.20245  0.52270  1.0000
  H   H106      1.0  0.20255  0.23643  0.69465  1.0000
  H   H107      1.0  0.26446  0.27427  0.69071  1.0000
  H   H108      1.0  0.04139  0.03244  0.64431  1.0000
  C   C67       1.0  0.11645  0.00198  0.52752  1.0000
  C   C68       1.0  0.04872  0.14517  0.52829  1.0000
  C   C69       1.0  0.11954  0.15897  0.56638  1.0000
  H   H109      1.0  0.41230  0.30774  0.67239  1.0000
  H   H110      1.0  0.19071  0.11286  0.63293  1.0000
  S   S30       1.0  0.15897  0.29059  0.73523  1.0000
  H   H111      1.0  0.00076  0.14755  0.57209  1.0000
  H   H112      1.0  0.48634  0.25639  0.71645  1.0000
  H   H113      1.0  0.10938  0.07740  0.59636  1.0000
  C   C70       1.0  0.01119  0.29418  0.73885  1.0000
  H   H114      1.0  0.00955  0.08941  0.66022  1.0000
  H   H115      1.0  0.13352  0.99399  0.49974  1.0000
  H   H116      1.0  0.31161  0.30069  0.74164  1.0000
  H   H117      1.0  0.15608  0.05825  0.52849  1.0000
  C   C71       1.0  0.36523  0.31399  0.62871  1.0000
  H   H118      1.0  0.32032  0.28402  0.70229  1.0000
  H   H119      1.0  0.32166  0.27558  0.67847  1.0000
  N   N3        1.0  0.19519  0.14142  0.66095  1.0000
  H   H120      1.0  0.34799  0.31029  0.58379  1.0000
  S   S31       1.0  0.13409  0.09402  0.55818  1.0000
  H   H121      1.0  0.37308  0.29888  0.62943  1.0000
  H   H122      1.0  0.39019  0.17989  0.64708  1.0000
  S   S32       1.0  0.11379  0.18390  0.56983  1.0000
  H   H123      1.0  0.04143  0.17520  0.53466  1.0000
  H   H124      1.0  0.16482  0.13662  0.67061  1.0000
  H   H125      1.0  0.38732  0.12482  0.62113  1.0000
  H   H126      1.0  0.34562  0.13243  0.73833  1.0000
  H   H127      1.0  0.02878  0.05528  0.63490  1.0000
  H   H128      1.0  0.30763  0.29875  0.68344  1.0000
  H   H129      1.0  0.07706  0.24739  0.72250  1.0000
  C   C72       1.0  0.02249  0.00532  0.60441  1.0000
  H   H130      1.0  0.06520  0.13344  0.55291  1.0000
  H   H131      1.0  0.45965  0.31892  0.72038  1.0000
  S   S33       1.0  0.02096  0.21807  0.54627  1.0000
  H   H132      1.0  0.13316  0.07162  0.52239  1.0000
  H   H133      1.0  0.22738  0.22455  0.69532  1.0000
  C   C73       1.0  0.03901  0.15463  0.69745  1.0000
  C   C74       1.0  0.07052  0.07113  0.58271  1.0000
  C   C75       1.0  0.06289  0.07252  0.61823  1.0000
  C   C76       1.0  0.08200  0.07810  0.56283  1.0000
  C   C77       1.0  0.05994  0.05063  0.62393  1.0000
  H   H134      1.0  0.18101  0.18218  0.72046  1.0000
  C   C78       1.0  0.07830  0.06652  0.54643  1.0000
  H   H135      1.0  0.05472  0.07679  0.58182  1.0000
  H   H136      1.0  0.07082  0.05501  0.58366  1.0000
  H   H137      1.0  0.04826  0.08062  0.61591  1.0000
  H   H138      1.0  0.06317  0.10653  0.59304  1.0000
  H   H139      1.0  0.07720  0.09378  0.55852  1.0000
  H   H140      1.0  0.05649  0.04354  0.61143  1.0000
  C   C79       1.0  0.06065  0.19766  0.50612  1.0000
  H   H141      1.0  0.21698  0.20462  0.65453  1.0000
  H   H142      1.0  0.21785  0.23231  0.67213  1.0000
  H   H143      1.0  0.16761  0.12476  0.64276  1.0000
  H   H144      1.0  0.08641  0.07223  0.53241  1.0000
  H   H145      1.0  0.08363  0.05079  0.54969  1.0000
  H   H146      1.0  0.06233  0.06803  0.54468  1.0000
  H   H147      1.0  0.05899  0.13618  0.51845  1.0000
  H   H148      1.0  0.09037  0.26490  0.73104  1.0000
  C   C80       1.0  0.38161  0.12032  0.65303  1.0000
  H   H149      1.0  0.20716  0.14230  0.63033  1.0000
  H   H150      1.0  0.19079  0.18268  0.66415  1.0000
  C   C81       1.0  0.20492  0.17690  0.65628  1.0000
  C   C82       1.0  0.18128  0.12709  0.63294  1.0000
  C   C83       1.0  0.34157  0.30544  0.73059  1.0000
  H   H151      1.0  0.38997  0.09961  0.63150  1.0000
  C   C84       1.0  0.03889  0.17624  0.49597  1.0000
  H   H152      1.0  0.33726  0.30699  0.61968  1.0000
  H   H153      1.0  0.48983  0.22104  0.73242  1.0000
  H   H154      1.0  0.18469  0.15742  0.63461  1.0000
  C   C85       1.0  0.39263  0.11469  0.63360  1.0000
  C   C86       1.0  0.13124  0.04082  0.53204  1.0000
  H   H155      1.0  0.14665  0.05532  0.50579  1.0000
  C   C87       1.0  0.28748  0.24576  0.71155  1.0000
  H   H156      1.0  0.46538  0.28194  0.68294  1.0000
  H   H157      1.0  0.01712  0.09421  0.60741  1.0000
  H   H158      1.0  0.15114  0.01962  0.51626  1.0000
  C   C88       1.0  0.17550  0.13284  0.61219  1.0000
  N   N4        1.0  0.37099  0.15043  0.67226  1.0000
  C   C89       1.0  0.38562  0.14098  0.65713  1.0000
  C   C90       1.0  0.37876  0.16850  0.67727  1.0000
  C   C91       1.0  0.26503  0.24993  0.71307  1.0000
  C   C92       1.0  0.35062  0.15534  0.66570  1.0000
  C   C93       1.0  0.34937  0.16096  0.64336  1.0000
  H   H159      1.0  0.04065  0.14444  0.55972  1.0000
  C   C94       1.0  0.21527  0.11688  0.68505  1.0000
  C   C95       1.0  0.32855  0.16933  0.63919  1.0000
  H   H160      1.0  0.00231  0.27533  0.61229  1.0000
  H   H161      1.0  0.22164  0.18838  0.67635  1.0000
  H   H162      1.0  0.18578  0.15809  0.69703  1.0000
  H   H163      1.0  0.38669  0.15035  0.64295  1.0000
  H   H164      1.0  0.29407  0.24921  0.69620  1.0000
  H   H165      1.0  0.22999  0.12201  0.68038  1.0000
  H   H166      1.0  0.21339  0.15416  0.67863  1.0000
  C   C96       1.0  0.39312  0.20069  0.66659  1.0000
  H   H167      1.0  0.34168  0.14280  0.66994  1.0000
  H   H168      1.0  0.34240  0.16741  0.67362  1.0000
  H   H169      1.0  0.35334  0.14784  0.63537  1.0000
  H   H170      1.0  0.35939  0.17195  0.63693  1.0000
  C   C97       1.0  0.21838  0.21099  0.73927  1.0000
  H   H171      1.0  0.36567  0.11945  0.65263  1.0000
  C   C98       1.0  0.20269  0.12045  0.66749  1.0000
  C   C99       1.0  0.16677  0.00660  0.61882  1.0000
  H   H172      1.0  0.32754  0.17094  0.62314  1.0000
  H   H173      1.0  0.31754  0.15955  0.64653  1.0000
  H   H174      1.0  0.32494  0.18403  0.64438  1.0000
  H   H175      1.0  0.40872  0.11510  0.63354  1.0000
  H   H176      1.0  0.21635  0.26673  0.67708  1.0000
  C   C100      1.0  0.35542  0.12693  0.72570  1.0000
  C   C101      1.0  0.19258  0.14296  0.63937  1.0000
  H   H177      1.0  0.10103  0.17481  0.50269  1.0000
  C   C102      1.0  0.46633  0.05030  0.73255  1.0000
  N   N5        1.0  0.13915  0.21458  0.61444  1.0000
  C   C103      1.0  0.13953  0.22616  0.63151  1.0000
  C   C104      1.0  0.12574  0.19875  0.62087  1.0000
  C   C105      1.0  0.15987  0.20605  0.60817  1.0000
  C   C106      1.0  0.13139  0.22736  0.59717  1.0000
  C   C107      1.0  0.11101  0.23923  0.60135  1.0000
  C   C108      1.0  0.16193  0.19122  0.59270  1.0000
  C   C109      1.0  0.13263  0.18266  0.63702  1.0000
  C   C110      1.0  0.11866  0.16673  0.64101  1.0000
  C   C111      1.0  0.10525  0.25230  0.58304  1.0000
  C   C112      1.0  0.18345  0.18327  0.58777  1.0000
  H   H178      1.0  0.12433  0.23078  0.63794  1.0000
  H   H179      1.0  0.11100  0.20526  0.62680  1.0000
  H   H180      1.0  0.12293  0.19156  0.60809  1.0000
  H   H181      1.0  0.12700  0.04405  0.54744  1.0000
  H   H182      1.0  0.14211  0.23771  0.59041  1.0000
  H   H183      1.0  0.12974  0.21829  0.58535  1.0000
  H   H184      1.0  0.11090  0.24885  0.61307  1.0000
  H   H185      1.0  0.09945  0.22923  0.60579  1.0000
  H   H186      1.0  0.15637  0.19820  0.57883  1.0000
  H   H187      1.0  0.15359  0.17857  0.59810  1.0000
  H   H188      1.0  0.14754  0.17545  0.63273  1.0000
  H   H189      1.0  0.13282  0.18899  0.65100  1.0000
  H   H190      1.0  0.10355  0.17306  0.64616  1.0000
  C   C113      1.0  0.00747  0.11977  0.58880  1.0000
  C   C114      1.0  0.19904  0.21958  0.73765  1.0000
  H   H191      1.0  0.11579  0.26337  0.57850  1.0000
  H   H192      1.0  0.10493  0.24339  0.57077  1.0000
  H   H193      1.0  0.09031  0.26007  0.58628  1.0000
  H   H194      1.0  0.18980  0.17585  0.60109  1.0000
  H   H195      1.0  0.00195  0.26482  0.74140  1.0000
  C   C115      1.0  0.00416  0.20717  0.53422  1.0000
  C   C116      1.0  0.01763  0.00494  0.62473  1.0000
  H   H196      1.0  0.09223  0.15385  0.51805  1.0000
  C   C117      1.0  0.07428  0.16582  0.49379  1.0000
  H   H197      1.0  0.12275  0.14479  0.49754  1.0000
  N   N6        1.0  0.13360  0.00300  0.53890  1.0000
  C   C118      1.0  0.21784  0.23610  0.68726  1.0000
  H   H198      1.0  0.48426  0.29765  0.67674  1.0000
  H   H199      1.0  0.47125  0.03628  0.72624  1.0000
  S   S34       1.0  0.16776  0.31682  0.68168  1.0000
  H   H200      1.0  0.11767  0.04114  0.52487  1.0000
  H   H201      1.0  0.36993  0.31890  0.67661  1.0000
  H   H202      1.0  0.99718  0.15484  0.64317  1.0000
  C   C119      1.0  0.01014  0.15871  0.67736  1.0000
  H   H203      1.0  0.45275  0.05709  0.72618  1.0000
  C   C120      1.0  0.12598  0.00418  0.56020  1.0000
  H   H204      1.0  0.17078  0.21587  0.72914  1.0000
  C   C121      1.0  0.40791  0.32357  0.66833  1.0000
  H   H205      1.0  0.04872  0.14705  0.68598  1.0000
  H   H206      1.0  0.40832  0.19441  0.66923  1.0000
  H   H207      1.0  0.36375  0.29200  0.59693  1.0000
  C   C122      1.0  0.22548  0.25603  0.68649  1.0000
  H   H208      1.0  0.20430  0.08942  0.69806  1.0000
  H   H209      1.0  0.23659  0.29081  0.67881  1.0000
  H   H210      1.0  0.24086  0.25499  0.67935  1.0000
  H   H211      1.0  0.22591  0.08666  0.68033  1.0000
  C   C123      1.0  0.32143  0.31141  0.73527  1.0000
  H   H212      1.0  0.34478  0.18364  0.73437  1.0000
  H   H213      1.0  0.47216  0.32403  0.69606  1.0000
  H   H214      1.0  0.20819  0.26796  0.71128  1.0000
  H   H215      1.0  0.02087  0.29226  0.72499  1.0000
  C   C124      1.0  0.00082  0.12008  0.66368  1.0000
  H   H216      1.0  0.09702  0.00128  0.59264  1.0000
  Fe  Fe20      1.0  0.44264  0.31206  0.54975  1.0000
  Fe  Fe21      1.0  0.42548  0.24983  0.73139  1.0000
  H   H217      1.0  0.22713  0.24979  0.71777  1.0000
  H   H218      1.0  0.23884  0.29871  0.73054  1.0000
  C   C125      1.0  0.19157  0.19027  0.72540  1.0000
  C   C126      1.0  0.33950  0.29930  0.67984  1.0000
  H   H219      1.0  0.05593  0.29988  0.72450  1.0000
  H   H220      1.0  0.15167  0.17348  0.69540  1.0000
  C   C127      1.0  0.08188  0.10920  0.61537  1.0000
  H   H221      1.0  0.10132  0.13016  0.60027  1.0000
  S   S35       1.0  0.21751  0.15741  0.72154  1.0000
  Fe  Fe22      1.0  0.03960  0.20757  0.57180  1.0000
  H   H222      1.0  0.03291  0.11255  0.62871  1.0000
  S   S36       1.0  0.39283  0.25503  0.74026  1.0000
  C   C128      1.0  0.34190  0.30538  0.65732  1.0000
  H   H223      1.0  0.15646  0.02156  0.54018  1.0000
  S   S37       1.0  0.06651  0.22264  0.57433  1.0000
  H   H224      1.0  0.40074  0.13947  0.66176  1.0000
  H   H225      1.0  0.08743  0.13763  0.62243  1.0000
  H   H226      1.0  0.08543  0.22649  0.53118  1.0000
  H   H227      1.0  0.02100  0.15307  0.66558  1.0000
  C   C129      1.0  0.07756  0.09933  0.59756  1.0000
  H   H228      1.0  0.47257  0.24901  0.69901  1.0000
  H   H229      1.0  0.15853  0.26787  0.64221  1.0000
  H   H230      1.0  0.00516  0.09468  0.68537  1.0000
  H   H231      1.0  0.08886  0.10347  0.58530  1.0000
  H   H232      1.0  0.10760  0.04801  0.58184  1.0000
  H   H233      1.0  0.34507  0.29119  0.65083  1.0000
  H   H234      1.0  0.18872  0.13527  0.60160  1.0000
  C   C130      1.0  0.99993  0.09837  0.67065  1.0000
  H   H235      1.0  0.06723  0.07753  0.63161  1.0000
  C   C131      1.0  0.23214  0.29544  0.69372  1.0000
  H   H236      1.0  0.13781  0.00748  0.56858  1.0000
  H   H237      1.0  0.38671  0.10919  0.66485  1.0000
  H   H238      1.0  0.14345  0.99867  0.64105  1.0000
  C   C132      1.0  0.12095  0.00444  0.50481  1.0000
  C   C133      1.0  0.14983  0.25513  0.64546  1.0000
  C   C134      1.0  0.09804  0.06816  0.60423  1.0000
  C   C135      1.0  0.10442  0.04731  0.59802  1.0000
  H   H239      1.0  0.06873  0.10991  0.62642  1.0000
  C   C136      1.0  0.15077  0.24459  0.62710  1.0000
  H   H240      1.0  0.14435  0.25519  0.61562  1.0000
  H   H241      1.0  0.13439  0.26060  0.65033  1.0000
  H   H242      1.0  0.17718  0.13411  0.70206  1.0000
  H   H243      1.0  0.36718  0.19254  0.65682  1.0000
  C   C137      1.0  0.48771  0.25176  0.70144  1.0000
  H   H244      1.0  0.12383  0.15537  0.65258  1.0000
  C   C138      1.0  0.47956  0.28527  0.68738  1.0000
  C   C139      1.0  0.12318  0.03835  0.60680  1.0000
  C   C140      1.0  0.08677  0.13018  0.60921  1.0000
  H   H245      1.0  0.10006  0.06776  0.62004  1.0000
  H   H246      1.0  0.48867  0.29484  0.71402  1.0000
  C   C141      1.0  0.32112  0.28877  0.68629  1.0000
  C   C142      1.0  0.38175  0.18518  0.66045  1.0000
  C   C143      1.0  0.12897  0.11908  0.56109  1.0000
  H   H247      1.0  0.04404  0.14903  0.71196  1.0000
  S   S38       1.0  0.20788  0.02391  0.53617  1.0000
  H   H248      1.0  0.07747  0.27153  0.70948  1.0000
  H   H249      1.0  0.11818  0.15965  0.62750  1.0000
  H   H250      1.0  0.09446  0.10103  0.62248  1.0000
  H   H251      1.0  0.13454  0.04875  0.60394  1.0000
  H   H252      1.0  0.07532  0.13863  0.60062  1.0000
  H   H253      1.0  0.16653  0.24054  0.62219  1.0000
  H   H254      1.0  0.15594  0.24517  0.65764  1.0000
  H   H255      1.0  0.16826  0.12095  0.60760  1.0000
  C   C144      1.0  0.11052  0.12875  0.55724  1.0000
  H   H256      1.0  0.01468  0.01610  0.59467  1.0000
  S   S39       1.0  0.37984  0.31264  0.71729  1.0000
  H   H257      1.0  0.38000  0.29942  0.66283  1.0000
  H   H258      1.0  0.16493  0.14626  0.61168  1.0000
  C   C145      1.0  0.15458  0.15818  0.70226  1.0000
  C   C146      1.0  0.18574  0.20933  0.73037  1.0000
  C   C147      1.0  0.07697  0.26314  0.72427  1.0000
  C   C148      1.0  0.19789  0.01716  0.51562  1.0000
  H   H259      1.0  0.39296  0.16435  0.68372  1.0000
  H   H260      1.0  0.23534  0.18385  0.65291  1.0000
  C   C149      1.0  0.00789  0.13994  0.58437  1.0000
  H   H261      1.0  0.06654  0.16675  0.53458  1.0000
  H   H262      1.0  0.20853  0.12475  0.69761  1.0000
  H   H263      1.0  0.19005  0.01027  0.59524  1.0000
  C   C150      1.0  0.35694  0.14336  0.70886  1.0000
  H   H264      1.0  0.32721  0.31176  0.65298  1.0000
  H   H265      1.0  0.25799  0.31079  0.69640  1.0000
  H   H266      1.0  0.39406  0.21306  0.65478  1.0000
  H   H267      1.0  0.21248  0.11393  0.65533  1.0000
  C   C151      1.0  0.21353  0.00661  0.65300  1.0000
  C   C152      1.0  0.07728  0.22352  0.51915  1.0000
  C   C153      1.0  0.36990  0.13609  0.69064  1.0000
  C   C154      1.0  0.14407  0.02080  0.53147  1.0000
  N   N7        1.0  0.23673  0.27865  0.70922  1.0000
  H   H268      1.0  0.36377  0.12265  0.68786  1.0000
  H   H269      1.0  0.08679  0.22592  0.50507  1.0000
  H   H270      1.0  0.16861  0.16145  0.66484  1.0000
  C   C155      1.0  0.05758  0.29226  0.73946  1.0000
  H   H271      1.0  0.38495  0.13125  0.69500  1.0000
  H   H272      1.0  0.48547  0.28717  0.64712  1.0000
  H   H273      1.0  0.04623  0.20694  0.50798  1.0000
  H   H274      1.0  0.06267  0.20098  0.53693  1.0000
  H   H275      1.0  0.25979  0.24026  0.70360  1.0000
  H   H276      1.0  0.26680  0.28089  0.71418  1.0000
  H   H277      1.0  0.14270  0.14957  0.69972  1.0000
  H   H278      1.0  0.34901  0.11445  0.72113  1.0000
  H   H279      1.0  0.37013  0.12173  0.73053  1.0000
  H   H280      1.0  0.22939  0.00682  0.64754  1.0000
  H   H281      1.0  0.01706  0.13477  0.70049  1.0000
  H   H282      1.0  0.12924  0.02479  0.60015  1.0000
  C   C156      1.0  0.37458  0.31532  0.66139  1.0000
  H   H283      1.0  0.01641  0.12295  0.66273  1.0000
  H   H284      1.0  0.47816  0.06012  0.72850  1.0000
  C   C157      1.0  0.10322  0.00082  0.49498  1.0000
  C   C158      1.0  0.21088  0.18162  0.72709  1.0000
  H   H285      1.0  0.33854  0.31183  0.68846  1.0000
  H   H286      1.0  0.46605  0.28360  0.71808  1.0000
  N   N8        1.0  0.05736  0.17648  0.50572  1.0000
  C   C159      1.0  0.25855  0.27183  0.70647  1.0000
  H   H287      1.0  0.35234  0.28909  0.68404  1.0000
  C   C160      1.0  0.99987  0.18782  0.53936  1.0000
  C   C161      1.0  0.49097  0.21668  0.71734  1.0000
  H   H288      1.0  0.47740  0.32106  0.58833  1.0000
  C   C162      1.0  0.23077  0.28612  0.72898  1.0000
  H   H289      1.0  0.37190  0.31573  0.58827  1.0000
  H   H290      1.0  0.00875  0.15836  0.70923  1.0000
  C   C163      1.0  0.24215  0.31426  0.69443  1.0000
  C   C164      1.0  0.47499  0.29339  0.70762  1.0000
  C   C165      1.0  0.46326  0.31359  0.70571  1.0000
  C   C166      1.0  0.35441  0.31932  0.72287  1.0000
  H   H291      1.0  0.25915  0.24545  0.72836  1.0000
  N   N9        1.0  0.35746  0.31890  0.64918  1.0000
  H   H292      1.0  0.48165  0.25532  0.66442  1.0000
  C   C167      1.0  0.09405  0.16118  0.50287  1.0000
  C   C168      1.0  0.34974  0.31553  0.61389  1.0000
  H   H293      1.0  0.29166  0.22998  0.71605  1.0000
  H   H294      1.0  0.02580  0.18241  0.50531  1.0000
  H   H295      1.0  0.01122  0.17474  0.67565  1.0000
  S   S40       1.0  0.99821  0.02119  0.63553  1.0000
  H   H296      1.0  0.00363  0.30934  0.73772  1.0000
  H   H297      1.0  0.12456  0.01949  0.49940  1.0000
  H   H298      1.0  0.47321  0.32242  0.62425  1.0000
  C   C169      1.0  0.35897  0.30794  0.59459  1.0000
  H   H299      1.0  0.03232  0.32382  0.73258  1.0000
  H   H300      1.0  0.00161  0.18840  0.64712  1.0000
  C   C170      1.0  0.48746  0.32386  0.61595  1.0000
  C   C171      1.0  0.48975  0.32333  0.59556  1.0000
  N   N10       1.0  0.49484  0.26771  0.68626  1.0000
  H   H301      1.0  0.99844  0.23321  0.51436  1.0000
  S   S41       1.0  0.13311  0.25265  0.74020  1.0000
  C   C172      1.0  0.49570  0.26112  0.66610  1.0000
  C   C173      1.0  0.05849  0.27007  0.73732  1.0000
  H   H302      1.0  0.04559  0.26709  0.73043  1.0000
  H   H303      1.0  0.09027  0.01134  0.49903  1.0000
  H   H304      1.0  0.49131  0.26016  0.51807  1.0000
  H   H305      1.0  0.23484  0.32233  0.70676  1.0000
  H   H306      1.0  0.03625  0.16099  0.49448  1.0000
  H   H307      1.0  0.17472  0.99363  0.54582  1.0000
  H   H308      1.0  0.27861  0.05797  0.74293  1.0000
  H   H309      1.0  0.07235  0.29523  0.74256  1.0000
  H   H310      1.0  0.31824  0.15995  0.85739  1.0000
  H   H311      1.0  0.38844  0.01352  0.87468  1.0000
  H   H312      1.0  0.45583  0.13091  0.78805  1.0000
  C   C174      1.0  0.17029  0.32120  0.77092  1.0000
  Fe  Fe23      1.0  0.48471  0.17709  0.87429  1.0000
  H   H313      1.0  0.27190  0.04943  0.81804  1.0000
  S   S42       1.0  0.45808  0.16234  0.88908  1.0000
  H   H314      1.0  0.28291  0.07120  0.84605  1.0000
  S   S43       1.0  0.48387  0.24016  0.83083  1.0000
  H   H315      1.0  0.43207  0.08352  0.88226  1.0000
  S   S44       1.0  0.19173  0.24304  0.74493  1.0000
  H   H316      1.0  0.39732  0.11290  0.76845  1.0000
  H   H317      1.0  0.22966  0.29388  0.76762  1.0000
  Fe  Fe24      1.0  0.38192  0.05641  0.84458  1.0000
  S   S45       1.0  0.35322  0.05315  0.86316  1.0000
  S   S46       1.0  0.39877  0.03243  0.82842  1.0000
  Fe  Fe25      1.0  0.38393  0.09838  0.85394  1.0000
  S   S47       1.0  0.35538  0.09792  0.87361  1.0000
  S   S48       1.0  0.39981  0.12537  0.84277  1.0000
  Fe  Fe26      1.0  0.36684  0.06705  0.88519  1.0000
  S   S49       1.0  0.37178  0.05377  0.91636  1.0000
  Fe  Fe27      1.0  0.34476  0.08389  0.84946  1.0000
  S   S50       1.0  0.31621  0.09487  0.83614  1.0000
  S   S51       1.0  0.39618  0.06874  0.86695  1.0000
  S   S52       1.0  0.37265  0.08586  0.82950  1.0000
  H   H318      1.0  0.05854  0.26093  0.75158  1.0000
  C   C175      1.0  0.39688  0.99953  0.87990  1.0000
  C   C176      1.0  0.36131  0.03355  0.93044  1.0000
  H   H319      1.0  0.41840  0.03660  0.78718  1.0000
  C   C177      1.0  0.28885  0.00113  0.79278  1.0000
  H   H320      1.0  0.38497  0.02741  0.94879  1.0000
  H   H321      1.0  0.33959  0.15450  0.76985  1.0000
  H   H322      1.0  0.31916  0.01636  0.86674  1.0000
  H   H323      1.0  0.32888  0.01045  0.78249  1.0000
  H   H324      1.0  0.29349  0.05309  0.86386  1.0000
  C   C178      1.0  0.39344  0.05647  0.77957  1.0000
  H   H325      1.0  0.49414  0.12971  0.90452  1.0000
  C   C179      1.0  0.22448  0.27963  0.76600  1.0000
  H   H326      1.0  0.27460  0.08328  0.74741  1.0000
  C   C180      1.0  0.29766  0.04470  0.83424  1.0000
  H   H327      1.0  0.44531  0.10432  0.87374  1.0000
  C   C181      1.0  0.10801  0.30499  0.78551  1.0000
  H   H328      1.0  0.31530  0.13421  0.85793  1.0000
  H   H329      1.0  0.47104  0.13232  0.92012  1.0000
  C   C182      1.0  0.11058  0.30934  0.82534  1.0000
  C   C183      1.0  0.12374  0.29563  0.81550  1.0000
  C   C184      1.0  0.12262  0.29360  0.79556  1.0000
  H   H330      1.0  0.31262  0.04964  0.83234  1.0000
  H   H331      1.0  0.31420  0.17949  0.78922  1.0000
  H   H332      1.0  0.13478  0.28653  0.82334  1.0000
  H   H333      1.0  0.13278  0.28299  0.78815  1.0000
  H   H334      1.0  0.49378  0.12562  0.93084  1.0000
  H   H335      1.0  0.25746  0.06666  0.75920  1.0000
  H   H336      1.0  0.33518  0.03644  0.91583  1.0000
  H   H337      1.0  0.35676  0.01081  0.88775  1.0000
  C   C185      1.0  0.41743  0.99874  0.86858  1.0000
  C   C186      1.0  0.03650  0.32199  0.74781  1.0000
  H   H338      1.0  0.35660  0.03119  0.83179  1.0000
  H   H339      1.0  0.45696  0.07338  0.92877  1.0000
  C   C187      1.0  0.47391  0.23849  0.80857  1.0000
  C   C188      1.0  0.45989  0.25337  0.80151  1.0000
  C   C189      1.0  0.45202  0.25247  0.78370  1.0000
  C   C190      1.0  0.45838  0.23680  0.77261  1.0000
  C   C191      1.0  0.47246  0.22202  0.77966  1.0000
  C   C192      1.0  0.48004  0.22276  0.79757  1.0000
  H   H340      1.0  0.45511  0.26569  0.80983  1.0000
  H   H341      1.0  0.44135  0.26407  0.77839  1.0000
  H   H342      1.0  0.47753  0.20988  0.77120  1.0000
  H   H343      1.0  0.49094  0.21131  0.80270  1.0000
  C   C193      1.0  0.44308  0.15029  0.87635  1.0000
  C   C194      1.0  0.44773  0.14776  0.85647  1.0000
  C   C195      1.0  0.43453  0.13974  0.84643  1.0000
  C   C196      1.0  0.41697  0.13339  0.85633  1.0000
  C   C197      1.0  0.41280  0.13498  0.87644  1.0000
  C   C198      1.0  0.42573  0.14353  0.88635  1.0000
  H   H344      1.0  0.46131  0.15232  0.84872  1.0000
  H   H345      1.0  0.43789  0.13846  0.83092  1.0000
  H   H346      1.0  0.39929  0.13022  0.88423  1.0000
  H   H347      1.0  0.42207  0.14523  0.90177  1.0000
  C   C199      1.0  0.31169  0.10462  0.76952  1.0000
  C   C200      1.0  0.29634  0.11196  0.78277  1.0000
  C   C201      1.0  0.29784  0.10871  0.80313  1.0000
  C   C202      1.0  0.31472  0.09824  0.81044  1.0000
  C   C203      1.0  0.32998  0.09080  0.79717  1.0000
  C   C204      1.0  0.32847  0.09400  0.77686  1.0000
  H   H348      1.0  0.28327  0.12003  0.77735  1.0000
  H   H349      1.0  0.28589  0.11444  0.81327  1.0000
  H   H350      1.0  0.34291  0.08245  0.80253  1.0000
  H   H351      1.0  0.34035  0.08812  0.76675  1.0000
  H   H352      1.0  0.38539  0.19060  0.78674  1.0000
  H   H353      1.0  0.03807  0.30678  0.78456  1.0000
  H   H354      1.0  0.41906  0.06757  0.80283  1.0000
  H   H355      1.0  0.20823  0.28159  0.76574  1.0000
  H   H356      1.0  0.04537  0.28488  0.81421  1.0000
  C   C205      1.0  0.36382  0.01777  0.82667  1.0000
  H   H357      1.0  0.47613  0.03882  0.76019  1.0000
  H   H358      1.0  0.30565  0.00853  0.81483  1.0000
  C   C206      1.0  0.41571  0.05122  0.77882  1.0000
  H   H359      1.0  0.43322  0.10580  0.78965  1.0000
  H   H360      1.0  0.47650  0.11241  0.79042  1.0000
  H   H361      1.0  0.31962  0.05409  0.78915  1.0000
  H   H362      1.0  0.31253  0.17544  0.75439  1.0000
  H   H363      1.0  0.34922  0.04698  0.76582  1.0000
  C   C207      1.0  0.33494  0.01257  0.93922  1.0000
  N   N11       1.0  0.41981  0.20567  0.83838  1.0000
  C   C208      1.0  0.40492  0.19094  0.84209  1.0000
  C   C209      1.0  0.43859  0.19649  0.82795  1.0000
  C   C210      1.0  0.42446  0.20997  0.85816  1.0000
  C   C211      1.0  0.41249  0.22466  0.82696  1.0000
  C   C212      1.0  0.39841  0.22335  0.81137  1.0000
  C   C213      1.0  0.38626  0.19647  0.85615  1.0000
  C   C214      1.0  0.44132  0.22299  0.85785  1.0000
  C   C215      1.0  0.43730  0.18945  0.80776  1.0000
  C   C216      1.0  0.45590  0.17641  0.80126  1.0000
  C   C217      1.0  0.39521  0.24278  0.79848  1.0000
  C   C218      1.0  0.37016  0.18344  0.85497  1.0000
  C   C219      1.0  0.44198  0.22966  0.87802  1.0000
  H   H364      1.0  0.41185  0.17661  0.84855  1.0000
  H   H365      1.0  0.39998  0.18779  0.82826  1.0000
  H   H366      1.0  0.44991  0.20695  0.82511  1.0000
  H   H367      1.0  0.44495  0.18394  0.83764  1.0000
  H   H368      1.0  0.42839  0.19604  0.86752  1.0000
  H   H369      1.0  0.41126  0.21752  0.86619  1.0000
  H   H370      1.0  0.40445  0.23508  0.83704  1.0000
  H   H371      1.0  0.42522  0.23222  0.81946  1.0000
  H   H372      1.0  0.38380  0.21976  0.81864  1.0000
  H   H373      1.0  0.40410  0.21201  0.80158  1.0000
  H   H374      1.0  0.38990  0.19433  0.87156  1.0000
  H   H375      1.0  0.38031  0.21198  0.85276  1.0000
  H   H376      1.0  0.43962  0.23621  0.84713  1.0000
  H   H377      1.0  0.45572  0.21455  0.85396  1.0000
  H   H378      1.0  0.42484  0.18075  0.80785  1.0000
  H   H379      1.0  0.43595  0.20230  0.79651  1.0000
  H   H380      1.0  0.45734  0.16260  0.81123  1.0000
  H   H381      1.0  0.45511  0.17272  0.78621  1.0000
  H   H382      1.0  0.46920  0.18398  0.80121  1.0000
  H   H383      1.0  0.38930  0.25480  0.80756  1.0000
  H   H384      1.0  0.40926  0.24642  0.78986  1.0000
  H   H385      1.0  0.38450  0.24163  0.78800  1.0000
  H   H386      1.0  0.36508  0.18588  0.84014  1.0000
  H   H387      1.0  0.37575  0.16775  0.85821  1.0000
  H   H388      1.0  0.35739  0.18699  0.86592  1.0000
  H   H389      1.0  0.45450  0.23853  0.87737  1.0000
  H   H390      1.0  0.42817  0.23884  0.88254  1.0000
  H   H391      1.0  0.44414  0.21679  0.88915  1.0000
  H   H392      1.0  0.36624  0.17136  0.76940  1.0000
  C   C220      1.0  0.31779  0.01453  0.88303  1.0000
  H   H393      1.0  0.03179  0.30943  0.91185  1.0000
  H   H394      1.0  0.38990  0.06995  0.76964  1.0000
  H   H395      1.0  0.42899  0.05288  0.94301  1.0000
  S   S53       1.0  0.48678  0.00376  0.78343  1.0000
  S   S54       1.0  0.10515  0.30278  0.76073  1.0000
  C   C221      1.0  0.48356  0.10213  0.91793  1.0000
  H   H396      1.0  0.47087  0.07756  0.79540  1.0000
  H   H397      1.0  0.48327  0.11244  0.84910  1.0000
  H   H398      1.0  0.47045  0.07269  0.76263  1.0000
  C   C222      1.0  0.28394  0.04264  0.78171  1.0000
  H   H399      1.0  0.44017  0.08565  0.91286  1.0000
  C   C223      1.0  0.42555  0.06677  0.78734  1.0000
  H   H400      1.0  0.22869  0.21886  0.74495  1.0000
  H   H401      1.0  0.32226  0.02772  0.88820  1.0000
  S   S55       1.0  0.11154  0.31157  0.85053  1.0000
  H   H402      1.0  0.48629  0.16461  0.76443  1.0000
  H   H403      1.0  0.35747  0.02809  0.78452  1.0000
  C   C224      1.0  0.37110  0.02315  0.94588  1.0000
  C   C225      1.0  0.28553  0.06374  0.77157  1.0000
  C   C226      1.0  0.28817  0.04949  0.81467  1.0000
  N   N12       1.0  0.46949  0.07820  0.89849  1.0000
  C   C227      1.0  0.32797  0.02628  0.77711  1.0000
  H   H404      1.0  0.30097  0.06576  0.76571  1.0000
  H   H405      1.0  0.41391  0.06399  0.92403  1.0000
  C   C228      1.0  0.09639  0.32098  0.81504  1.0000
  H   H406      1.0  0.28000  0.07484  0.78176  1.0000
  H   H407      1.0  0.32063  0.00887  0.93694  1.0000
  H   H408      1.0  0.16821  0.30730  0.78045  1.0000
  C   C229      1.0  0.49528  0.11482  0.83775  1.0000
  H   H409      1.0  0.02618  0.27466  0.76056  1.0000
  N   N13       1.0  0.29578  0.03630  0.79887  1.0000
  C   C230      1.0  0.44918  0.10134  0.78611  1.0000
  C   C231      1.0  0.05551  0.27851  0.78420  1.0000
  H   H410      1.0  0.29069  0.06494  0.80962  1.0000
  H   H411      1.0  0.30212  0.01329  0.88866  1.0000
  C   C232      1.0  0.23462  0.27152  0.74727  1.0000
  C   C233      1.0  0.38436  0.01489  0.82332  1.0000
  H   H412      1.0  0.46890  0.01437  0.82333  1.0000
  C   C234      1.0  0.34317  0.02814  0.92717  1.0000
  H   H413      1.0  0.42123  0.05036  0.76319  1.0000
  H   H414      1.0  0.48373  0.04852  0.90070  1.0000
  H   H415      1.0  0.06394  0.26427  0.81218  1.0000
  H   H416      1.0  0.44646  0.07547  0.75527  1.0000
  H   H417      1.0  0.45101  0.03595  0.75820  1.0000
  C   C235      1.0  0.45651  0.06561  0.76452  1.0000
  S   S56       1.0  0.49158  0.07853  0.82770  1.0000
  H   H418      1.0  0.46416  0.06122  0.87562  1.0000
  H   H419      1.0  0.32041  0.02903  0.76362  1.0000
  H   H420      1.0  0.44967  0.03222  0.79101  1.0000
  H   H421      1.0  0.36353  0.20748  0.79187  1.0000
  H   H422      1.0  0.41999  0.03790  0.92720  1.0000
  H   H423      1.0  0.33673  0.00527  0.82638  1.0000
  C   C236      1.0  0.45517  0.04465  0.79655  1.0000
  H   H424      1.0  0.36604  0.13401  0.76815  1.0000
  C   C237      1.0  0.48704  0.06354  0.90231  1.0000
  C   C238      1.0  0.45457  0.08007  0.79539  1.0000
  H   H425      1.0  0.45136  0.01991  0.84399  1.0000
  H   H426      1.0  0.45727  0.11482  0.81051  1.0000
  H   H427      1.0  0.34469  0.18805  0.77379  1.0000
  H   H428      1.0  0.32848  0.99453  0.90666  1.0000
  H   H429      1.0  0.46015  0.10916  0.89935  1.0000
  H   H430      1.0  0.29904  0.02884  0.83932  1.0000
  H   H431      1.0  0.47143  0.04218  0.79360  1.0000
  S   S57       1.0  0.44995  0.23493  0.74963  1.0000
  H   H432      1.0  0.33407  0.14167  0.87056  1.0000
  C   C239      1.0  0.45254  0.07370  0.91378  1.0000
  H   H433      1.0  0.39548  0.11129  0.79488  1.0000
  C   C240      1.0  0.42569  0.05214  0.92780  1.0000
  C   C241      1.0  0.28548  0.05523  0.85062  1.0000
  C   C242      1.0  0.38688  0.11322  0.78204  1.0000
  H   H434      1.0  0.40946  0.99543  0.81336  1.0000
  S   S58       1.0  0.31070  0.10774  0.74379  1.0000
  H   H435      1.0  0.37418  0.20538  0.76697  1.0000
  C   C243      1.0  0.37111  0.19708  0.78162  1.0000
  H   H436      1.0  0.45295  0.09383  0.84124  1.0000
  H   H437      1.0  0.38677  0.05865  0.79472  1.0000
  H   H438      1.0  0.06269  0.30699  0.77331  1.0000
  H   H439      1.0  0.44831  0.07979  0.81101  1.0000
  H   H440      1.0  0.44324  0.07057  0.84928  1.0000
  C   C244      1.0  0.36300  0.00734  0.95773  1.0000
  C   C245      1.0  0.05909  0.27922  0.80551  1.0000
  C   C246      1.0  0.47390  0.09887  0.89961  1.0000
  H   H441      1.0  0.37775  0.10089  0.78303  1.0000
  H   H442      1.0  0.44000  0.05237  0.89857  1.0000
  C   C247      1.0  0.31734  0.03846  0.79337  1.0000
  H   H443      1.0  0.47625  0.08208  0.86708  1.0000
  H   H444      1.0  0.28814  0.03292  0.76992  1.0000
  C   C248      1.0  0.35253  0.00329  0.82319  1.0000
  H   H445      1.0  0.27990  0.01517  0.81871  1.0000
  H   H446      1.0  0.42719  0.09291  0.84834  1.0000
  H   H447      1.0  0.07079  0.28870  0.80629  1.0000
  H   H448      1.0  0.29983  0.00117  0.77966  1.0000
  C   C249      1.0  0.44199  0.08626  0.85158  1.0000
  H   H449      1.0  0.47457  0.09720  0.93167  1.0000
  C   C250      1.0  0.45074  0.04235  0.81922  1.0000
  C   C251      1.0  0.04936  0.29924  0.77426  1.0000
  H   H450      1.0  0.46106  0.05028  0.82563  1.0000
  H   H451      1.0  0.43554  0.04829  0.82412  1.0000
  C   C252      1.0  0.44417  0.05393  0.91325  1.0000
  N   N14       1.0  0.04187  0.30057  0.75444  1.0000
  H   H452      1.0  0.45516  0.04145  0.91727  1.0000
  H   H453      1.0  0.42049  0.08106  0.77940  1.0000
  C   C253      1.0  0.44499  0.08856  0.87263  1.0000
  N   N15       1.0  0.34364  0.15085  0.80093  1.0000
  C   C254      1.0  0.33122  0.15097  0.78435  1.0000
  C   C255      1.0  0.35928  0.13358  0.80038  1.0000
  C   C256      1.0  0.33042  0.14777  0.81998  1.0000
  C   C257      1.0  0.35279  0.16971  0.80053  1.0000
  C   C258      1.0  0.35823  0.18098  0.78007  1.0000
  C   C259      1.0  0.31179  0.16491  0.78543  1.0000
  C   C260      1.0  0.34089  0.14360  0.83892  1.0000
  H   H454      1.0  0.06956  0.27233  0.77643  1.0000
  H   H455      1.0  0.27402  0.00534  0.78779  1.0000
  H   H456      1.0  0.38363  0.14442  0.78022  1.0000
  N   N16       1.0  0.44774  0.06398  0.78585  1.0000
  C   C261      1.0  0.32615  0.14499  0.85727  1.0000
  H   H457      1.0  0.32707  0.13602  0.78385  1.0000
  H   H458      1.0  0.04413  0.26847  0.78447  1.0000
  H   H459      1.0  0.36878  0.13309  0.81240  1.0000
  H   H460      1.0  0.35217  0.11974  0.80310  1.0000
  H   H461      1.0  0.32161  0.13535  0.81973  1.0000
  H   H462      1.0  0.31946  0.16079  0.82188  1.0000
  H   H463      1.0  0.34277  0.18040  0.80893  1.0000
  H   H464      1.0  0.36627  0.16692  0.80832  1.0000
  C   C262      1.0  0.37378  0.13269  0.78146  1.0000
  H   H465      1.0  0.44302  0.01240  0.82261  1.0000
  H   H466      1.0  0.30077  0.15860  0.79683  1.0000
  H   H467      1.0  0.45269  0.10293  0.76994  1.0000
  H   H468      1.0  0.35183  0.15404  0.83905  1.0000
  H   H469      1.0  0.34860  0.12853  0.83995  1.0000
  C   C263      1.0  0.45371  0.02091  0.82774  1.0000
  C   C264      1.0  0.46039  0.11573  0.79429  1.0000
  S   S59       1.0  0.49205  0.20619  0.88132  1.0000
  C   C265      1.0  0.02320  0.29067  0.75679  1.0000
  C   C266      1.0  0.46446  0.07676  0.87816  1.0000
  C   C267      1.0  0.30286  0.16762  0.76599  1.0000
  C   C268      1.0  0.09492  0.31859  0.79540  1.0000
  H   H470      1.0  0.22792  0.26915  0.77893  1.0000
  H   H471      1.0  0.99964  0.31132  0.83641  1.0000
  H   H472      1.0  0.27105  0.04932  0.85452  1.0000
  C   C269      1.0  0.48577  0.12377  0.91830  1.0000
  S   S60       1.0  0.48867  0.18470  0.84182  1.0000
  C   C270      1.0  0.29278  0.01541  0.80721  1.0000
  C   C271      1.0  0.39356  0.99768  0.81603  1.0000
  C   C272      1.0  0.34907  0.03129  0.77156  1.0000
  H   H473      1.0  0.30081  0.15321  0.76145  1.0000
  C   C273      1.0  0.46232  0.04629  0.75484  1.0000
  H   H474      1.0  0.32562  0.03410  0.80629  1.0000
  H   H475      1.0  0.28827  0.17645  0.76758  1.0000
  H   H476      1.0  0.48354  0.10421  0.88637  1.0000
  H   H477      1.0  0.49498  0.15841  0.78848  1.0000
  H   H478      1.0  0.26805  0.04123  0.78650  1.0000
  H   H479      1.0  0.35649  0.02222  0.76002  1.0000
  H   H480      1.0  0.38686  0.04432  0.77466  1.0000
  H   H481      1.0  0.35357  0.00040  0.86640  1.0000
  C   C274      1.0  0.27326  0.06806  0.75425  1.0000
  H   H482      1.0  0.01309  0.29580  0.76950  1.0000
  C   C275      1.0  0.33055  0.99613  0.89043  1.0000
  H   H483      1.0  0.49024  0.06291  0.91780  1.0000
  H   H484      1.0  0.25067  0.26903  0.74861  1.0000
  C   C276      1.0  0.35254  0.99738  0.88267  1.0000
  H   H485      1.0  0.42418  0.01215  0.87018  1.0000
  C   C277      1.0  0.34488  0.00189  0.95440  1.0000
  H   H486      1.0  0.37122  0.99378  0.91411  1.0000
  H   H487      1.0  0.22912  0.25727  0.74673  1.0000
  H   H488      1.0  0.14296  0.32123  0.75877  1.0000
  C   C278      1.0  0.01666  0.31712  0.91182  1.0000
  H   H489      1.0  0.41666  0.99803  0.85272  1.0000
  H   H490      1.0  0.44565  0.99829  0.78499  1.0000
  H   H491      1.0  0.03250  0.32273  0.81487  1.0000
  H   H492      1.0  0.37067  0.99951  0.96957  1.0000
  H   H493      1.0  0.17983  0.31767  0.75736  1.0000
  H   H494      1.0  0.39873  0.99979  0.89557  1.0000
  H   H495      1.0  0.00610  0.30602  0.91287  1.0000
  H   H496      1.0  0.49590  0.13982  0.77230  1.0000
  H   H497      1.0  0.01832  0.32201  0.88050  1.0000
  H   H498      1.0  0.01344  0.32536  0.92487  1.0000
  H   H499      1.0  0.02073  0.62993  0.03185  1.0000
  H   H500      1.0  0.00348  0.51745  0.05902  1.0000
  H   H501      1.0  0.03262  0.59168  0.19938  1.0000
  C   C279      1.0  0.04679  0.64253  0.05466  1.0000
  Fe  Fe28      1.0  0.22553  0.63005  0.02268  1.0000
  S   S61       1.0  0.19278  0.63765  0.02494  1.0000
  S   S62       1.0  0.24069  0.64499  0.04382  1.0000
  Fe  Fe29      1.0  0.19057  0.60544  0.02887  1.0000
  S   S63       1.0  0.17031  0.59050  0.05289  1.0000
  H   H502      1.0  0.99738  0.61233  0.22687  1.0000
  S   S64       1.0  0.22321  0.59745  0.02833  1.0000
  C   C280      1.0  0.09169  0.58800  0.20012  1.0000
  Fe  Fe30      1.0  0.03505  0.63665  0.14116  1.0000
  S   S65       1.0  0.04385  0.61939  0.16872  1.0000
  C   C281      1.0  0.03404  0.54972  0.21129  1.0000
  Fe  Fe31      1.0  0.07546  0.62836  0.11851  1.0000
  S   S66       1.0  0.08684  0.60942  0.14440  1.0000
  S   S67       1.0  0.09151  0.63730  0.08865  1.0000
  Fe  Fe32      1.0  0.05726  0.59693  0.14865  1.0000
  S   S68       1.0  0.05169  0.56444  0.15412  1.0000
  Fe  Fe33      1.0  0.07199  0.63391  0.16186  1.0000
  S   S69       1.0  0.08650  0.64557  0.18572  1.0000
  S   S70       1.0  0.04762  0.61404  0.12117  1.0000
  C   C282      1.0  0.02801  0.60372  0.06461  1.0000
  H   H503      1.0  0.99901  0.64002  0.04410  1.0000
  S   S71       1.0  0.00342  0.64910  0.14083  1.0000
  C   C283      1.0  0.18117  0.54114  0.00962  1.0000
  S   S72       1.0  0.06169  0.65311  0.13577  1.0000
  H   H504      1.0  0.05324  0.61866  0.03517  1.0000
  H   H505      1.0  0.02548  0.58729  0.09371  1.0000
  H   H506      1.0  0.21630  0.63800  0.11611  1.0000
  H   H507      1.0  0.22334  0.61184  0.10219  1.0000
  H   H508      1.0  0.00449  0.52712  0.08887  1.0000
  C   C284      1.0  0.07983  0.63151  0.03630  1.0000
  H   H509      1.0  0.08437  0.62137  0.04909  1.0000
  H   H510      1.0  0.01480  0.48089  0.06678  1.0000
  S   S73       1.0  0.43558  0.65483  0.23106  1.0000
  C   C285      1.0  0.14126  0.53932  0.99455  1.0000
  H   H511      1.0  0.00447  0.58766  0.08022  1.0000
  H   H512      1.0  0.06229  0.60103  0.20721  1.0000
  C   C286      1.0  0.16685  0.65475  0.07335  1.0000
  H   H513      1.0  0.11441  0.55991  0.02138  1.0000
  H   H514      1.0  0.05041  0.65795  0.05278  1.0000
  H   H515      1.0  0.09789  0.60155  0.20237  1.0000
  C   C287      1.0  0.00606  0.58402  0.21563  1.0000
  H   H516      1.0  0.06105  0.52977  0.20527  1.0000
  C   C288      1.0  0.17879  0.65916  0.08959  1.0000
  C   C289      1.0  0.14881  0.60397  0.06303  1.0000
  C   C290      1.0  0.13861  0.59625  0.08059  1.0000
  C   C291      1.0  0.12118  0.60643  0.08878  1.0000
  C   C292      1.0  0.11368  0.62428  0.07929  1.0000
  C   C293      1.0  0.12382  0.63193  0.06167  1.0000
  C   C294      1.0  0.14139  0.62189  0.05362  1.0000
  H   H517      1.0  0.14420  0.58232  0.08786  1.0000
  H   H518      1.0  0.11340  0.60034  0.10228  1.0000
  H   H519      1.0  0.11803  0.64566  0.05418  1.0000
  H   H520      1.0  0.14898  0.62786  0.03996  1.0000
  C   C295      1.0  0.20793  0.64963  0.10695  1.0000
  C   C296      1.0  0.21898  0.59472  0.07994  1.0000
  C   C297      1.0  0.01078  0.56446  0.16204  1.0000
  C   C298      1.0  0.02877  0.55411  0.15582  1.0000
  C   C299      1.0  0.02884  0.53438  0.15260  1.0000
  C   C300      1.0  0.01125  0.52517  0.15542  1.0000
  H   H521      1.0  0.01044  0.57949  0.16495  1.0000
  H   H522      1.0  0.04264  0.52606  0.14805  1.0000
  Fe  Fe34      1.0  0.22354  0.59698  0.99564  1.0000
  H   H523      1.0  0.00369  0.62387  0.07578  1.0000
  H   H524      1.0  0.04541  0.49931  0.20893  1.0000
  C   C301      1.0  0.17827  0.63329  0.11801  1.0000
  H   H525      1.0  0.10193  0.57516  0.20497  1.0000
  H   H526      1.0  0.09055  0.58819  0.18421  1.0000
  H   H527      1.0  0.14622  0.62249  0.14425  1.0000
  H   H528      1.0  0.01046  0.60718  0.13940  1.0000
  H   H529      1.0  0.99833  0.55308  0.08372  1.0000
  C   C302      1.0  0.12163  0.57350  0.01701  1.0000
  H   H530      1.0  0.17319  0.52807  0.01432  1.0000
  H   H531      1.0  0.04434  0.60184  0.06358  1.0000
  C   C303      1.0  0.16035  0.62338  0.11410  1.0000
  H   H532      1.0  0.16446  0.61269  0.10321  1.0000
  H   H533      1.0  0.03285  0.55332  0.19531  1.0000
  N   N17       1.0  0.02475  0.64177  0.05867  1.0000
  H   H534      1.0  0.08717  0.62564  0.02266  1.0000
  H   H535      1.0  0.20814  0.63374  0.07375  1.0000
  C   C304      1.0  0.05747  0.63336  0.03624  1.0000
  H   H536      1.0  0.12416  0.57784  0.04736  1.0000
  C   C305      1.0  0.02079  0.58684  0.07896  1.0000
  H   H537      1.0  0.14871  0.63464  0.10887  1.0000
  H   H538      1.0  0.14876  0.55884  0.02508  1.0000
  N   N18       1.0  0.04171  0.56644  0.21907  1.0000
  H   H539      1.0  0.07346  0.58716  0.22750  1.0000
  H   H540      1.0  0.18768  0.62254  0.12712  1.0000
  H   H541      1.0  0.06135  0.56957  0.19213  1.0000
  C   C306      1.0  0.07140  0.58729  0.21182  1.0000
  H   H542      1.0  0.10128  0.58834  0.03840  1.0000
  H   H543      1.0  0.22703  0.58129  0.08689  1.0000
  H   H544      1.0  0.04848  0.52509  0.22966  1.0000
  H   H545      1.0  0.22949  0.60217  0.06885  1.0000
  N   N19       1.0  0.19050  0.64200  0.10017  1.0000
  C   C307      1.0  0.19862  0.62690  0.08634  1.0000
  H   H546      1.0  0.02709  0.57268  0.07359  1.0000
  H   H547      1.0  0.18026  0.54993  0.02219  1.0000
  C   C308      1.0  0.14406  0.56825  0.01192  1.0000
  H   H548      1.0  0.01166  0.51000  0.15292  1.0000
  C   C309      1.0  0.21060  0.60827  0.09548  1.0000
  H   H549      1.0  0.03097  0.59634  0.22428  1.0000
  H   H550      1.0  0.02610  0.62323  0.08622  1.0000
  H   H551      1.0  0.02160  0.51225  0.21545  1.0000
  H   H552      1.0  0.20700  0.59032  0.07260  1.0000
  C   C310      1.0  0.01997  0.62364  0.07206  1.0000
  H   H553      1.0  0.12331  0.60000  0.03048  1.0000
  H   H554      1.0  0.16190  0.60040  0.13864  1.0000
  H   H555      1.0  0.18680  0.62155  0.07951  1.0000
  C   C311      1.0  0.02856  0.58524  0.21467  1.0000
  H   H556      1.0  0.03434  0.51707  0.19115  1.0000
  H   H557      1.0  0.21845  0.65411  0.09400  1.0000
  H   H558      1.0  0.00289  0.57690  0.20296  1.0000
  H   H559      1.0  0.20858  0.52482  0.01745  1.0000
  H   H560      1.0  0.00131  0.56931  0.01872  1.0000
  S   S74       1.0  0.19082  0.60270  0.99682  1.0000
  H   H561      1.0  0.17217  0.64476  0.12771  1.0000
  H   H562      1.0  0.00012  0.57546  0.22913  1.0000
  H   H563      1.0  0.20108  0.59989  0.10678  1.0000
  H   H564      1.0  0.15148  0.58185  0.01117  1.0000
  C   C312      1.0  0.06190  0.56893  0.20825  1.0000
  C   C313      1.0  0.11741  0.58565  0.03438  1.0000
  H   H565      1.0  0.07259  0.55608  0.21214  1.0000
  H   H566      1.0  0.13955  0.53242  0.01002  1.0000
  H   H567      1.0  0.10912  0.51771  0.00744  1.0000
  H   H568      1.0  0.02317  0.60230  0.05019  1.0000
  H   H569      1.0  0.13815  0.60579  0.12964  1.0000
  C   C314      1.0  0.03625  0.51362  0.20697  1.0000
  H   H570      1.0  0.01884  0.54760  0.21789  1.0000
  C   C315      1.0  0.15118  0.61237  0.13287  1.0000
  C   C316      1.0  0.04641  0.52951  0.21401  1.0000
  H   H571      1.0  0.99920  0.61312  0.20040  1.0000
  H   H572      1.0  0.00492  0.54537  0.11756  1.0000
  H   H573      1.0  0.05412  0.63556  0.06769  1.0000
  C   C317      1.0  0.01480  0.64240  0.04027  1.0000
  H   H574      1.0  0.01996  0.65686  0.01045  1.0000
  C   C318      1.0  0.04395  0.56245  0.24069  1.0000
  C   C319      1.0  0.01564  0.65920  0.06911  1.0000
  H   H575      1.0  0.01896  0.64932  0.10019  1.0000
  H   H576      1.0  0.15630  0.63009  0.99959  1.0000
  C   C320      1.0  0.99817  0.61281  0.13132  1.0000
  C   C321      1.0  0.20294  0.53414  0.00467  1.0000
  H   H577      1.0  0.15810  0.64236  0.07807  1.0000
  H   H578      1.0  0.21160  0.54688  0.00129  1.0000
  H   H579      1.0  0.99933  0.65908  0.07194  1.0000
  H   H580      1.0  0.05387  0.64277  0.02270  1.0000
  H   H581      1.0  0.99721  0.46512  0.07946  1.0000
  H   H582      1.0  0.17714  0.65103  0.06042  1.0000
  H   H583      1.0  0.08488  0.64602  0.03703  1.0000
  H   H584      1.0  0.12793  0.61290  0.99512  1.0000
  H   H585      1.0  0.11466  0.58208  0.00460  1.0000
  C   C322      1.0  0.99915  0.47796  0.06831  1.0000
  N   N20       1.0  0.15038  0.55828  0.99353  1.0000
  H   H586      1.0  0.38576  0.61113  0.24280  1.0000
  H   H587      1.0  0.33017  0.49533  0.47427  1.0000
  S   S75       1.0  0.27952  0.65859  0.38089  1.0000
  C   C323      1.0  0.45802  0.56680  0.34148  1.0000
  Fe  Fe35      1.0  0.44827  0.62460  0.29781  1.0000
  S   S76       1.0  0.43806  0.61120  0.27354  1.0000
  S   S77       1.0  0.43039  0.63299  0.32562  1.0000
  Fe  Fe36      1.0  0.46821  0.59377  0.27106  1.0000
  H   H588      1.0  0.30649  0.53923  0.38188  1.0000
  H   H589      1.0  0.38477  0.57369  0.42758  1.0000
  C   C324      1.0  0.34632  0.51629  0.44061  1.0000
  S   S78       1.0  0.48130  0.61648  0.24885  1.0000
  Fe  Fe37      1.0  0.31044  0.59900  0.42269  1.0000
  S   S79       1.0  0.30608  0.63087  0.42796  1.0000
  S   S80       1.0  0.29618  0.57414  0.44177  1.0000
  Fe  Fe38      1.0  0.33652  0.60700  0.38388  1.0000
  S   S81       1.0  0.33459  0.63926  0.38589  1.0000
  S   S82       1.0  0.35426  0.59177  0.35939  1.0000
  Fe  Fe39      1.0  0.33840  0.63003  0.41752  1.0000
  C   C325      1.0  0.49418  0.60046  0.37444  1.0000
  Fe  Fe40      1.0  0.30255  0.63748  0.39568  1.0000
  Fe  Fe41      1.0  0.48885  0.62840  0.27531  1.0000
  S   S83       1.0  0.34304  0.59794  0.41478  1.0000
  S   S84       1.0  0.30407  0.60560  0.39122  1.0000
  C   C326      1.0  0.36731  0.62494  0.45177  1.0000
  C   C327      1.0  0.38486  0.62564  0.45976  1.0000
  H   H590      1.0  0.39558  0.63413  0.28680  1.0000
  H   H591      1.0  0.36035  0.50763  0.44434  1.0000
  H   H592      1.0  0.31537  0.51061  0.44373  1.0000
  C   C328      1.0  0.35386  0.61217  0.46096  1.0000
  H   H593      1.0  0.42643  0.62581  0.40762  1.0000
  C   C329      1.0  0.47659  0.62928  0.35757  1.0000
  H   H594      1.0  0.37645  0.50514  0.37073  1.0000
  H   H595      1.0  0.34015  0.61178  0.45498  1.0000
  C   C330      1.0  0.33211  0.55185  0.48363  1.0000
  H   H596      1.0  0.45354  0.57510  0.37067  1.0000
  C   C331      1.0  0.33055  0.53496  0.41257  1.0000
  C   C332      1.0  0.40928  0.62129  0.33437  1.0000
  C   C333      1.0  0.40412  0.60584  0.32546  1.0000
  C   C334      1.0  0.38722  0.59672  0.33321  1.0000
  C   C335      1.0  0.37555  0.60299  0.34988  1.0000
  C   C336      1.0  0.38089  0.61834  0.35877  1.0000
  C   C337      1.0  0.39754  0.62761  0.35090  1.0000
  H   H597      1.0  0.41318  0.60081  0.31274  1.0000
  H   H598      1.0  0.38319  0.58480  0.32630  1.0000
  H   H599      1.0  0.37235  0.62295  0.37188  1.0000
  H   H600      1.0  0.40147  0.63955  0.35784  1.0000
  H   H601      1.0  0.39211  0.65583  0.31057  1.0000
  S   S85       1.0  0.36116  0.64174  0.43180  1.0000
  C   C338      1.0  0.35848  0.63878  0.30929  1.0000
  C   C339      1.0  0.33783  0.63268  0.31560  1.0000
  H   H602      1.0  0.33196  0.62739  0.30317  1.0000
  Fe  Fe42      1.0  0.45229  0.63541  0.25406  1.0000
  H   H603      1.0  0.47840  0.63888  0.36893  1.0000
  H   H604      1.0  0.35949  0.48843  0.41177  1.0000
  H   H605      1.0  0.36198  0.55654  0.41162  1.0000
  H   H606      1.0  0.45780  0.60470  0.34359  1.0000
  N   N21       1.0  0.47472  0.60858  0.36694  1.0000
  C   C340      1.0  0.30705  0.55924  0.46114  1.0000
  C   C341      1.0  0.32405  0.56376  0.46796  1.0000
  H   H607      1.0  0.01825  0.54567  0.24960  1.0000
  H   H608      1.0  0.33091  0.57651  0.46119  1.0000
  C   C342      1.0  0.31143  0.55294  0.38542  1.0000
  H   H609      1.0  0.37896  0.51458  0.41442  1.0000
  H   H610      1.0  0.33602  0.56321  0.39541  1.0000
  H   H611      1.0  0.34874  0.65406  0.28206  1.0000
  H   H612      1.0  0.41366  0.48947  0.48596  1.0000
  H   H613      1.0  0.48999  0.60294  0.45974  1.0000
  H   H614      1.0  0.40372  0.65027  0.26653  1.0000
  H   H615      1.0  0.31959  0.54223  0.42339  1.0000
  H   H616      1.0  0.03748  0.56184  0.28125  1.0000
  C   C343      1.0  0.37565  0.49377  0.38354  1.0000
  H   H617      1.0  0.38891  0.49040  0.47955  1.0000
  H   H618      1.0  0.45725  0.33558  0.43949  1.0000
  H   H619      1.0  0.36959  0.52964  0.39448  1.0000
  C   C344      1.0  0.33018  0.50212  0.44252  1.0000
  H   H620      1.0  0.28492  0.53915  0.46509  1.0000
  H   H621      1.0  0.34573  0.50311  0.39342  1.0000
  H   H622      1.0  0.46297  0.63559  0.35094  1.0000
  H   H623      1.0  0.49144  0.62442  0.32811  1.0000
  H   H624      1.0  0.39322  0.56264  0.45050  1.0000
  C   C345      1.0  0.48560  0.61854  0.45885  1.0000
  C   C346      1.0  0.46921  0.62581  0.47130  1.0000
  H   H625      1.0  0.32377  0.52204  0.40966  1.0000
  H   H626      1.0  0.34542  0.47784  0.45996  1.0000
  H   H627      1.0  0.46940  0.56657  0.32858  1.0000
  H   H628      1.0  0.04080  0.53674  0.27544  1.0000
  H   H629      1.0  0.34515  0.55690  0.43326  1.0000
  H   H630      1.0  0.48728  0.59178  0.40591  1.0000
  H   H631      1.0  0.34209  0.54242  0.38159  1.0000
  H   H632      1.0  0.04872  0.57540  0.24610  1.0000
  H   H633      1.0  0.37549  0.64526  0.24848  1.0000
  H   H634      1.0  0.40769  0.62278  0.39257  1.0000
  C   C347      1.0  0.37501  0.54496  0.43790  1.0000
  C   C348      1.0  0.46351  0.64595  0.47058  1.0000
  N   N22       1.0  0.34973  0.52908  0.42135  1.0000
  S   S86       1.0  0.44383  0.65596  0.48700  1.0000
  H   H635      1.0  0.40199  0.61527  0.48368  1.0000
  H   H636      1.0  0.37159  0.53666  0.45246  1.0000
  C   C349      1.0  0.38057  0.56479  0.44164  1.0000
  H   H637      1.0  0.39745  0.60665  0.26506  1.0000
  H   H638      1.0  0.45706  0.59504  0.39208  1.0000
  H   H639      1.0  0.46241  0.61887  0.39459  1.0000
  C   C350      1.0  0.35759  0.60079  0.47862  1.0000
  C   C351      1.0  0.43760  0.61755  0.37843  1.0000
  C   C352      1.0  0.38854  0.61436  0.47742  1.0000
  H   H640      1.0  0.46112  0.61583  0.48159  1.0000
  H   H641      1.0  0.34159  0.52555  0.45282  1.0000
  C   C353      1.0  0.33738  0.65799  0.48443  1.0000
  C   C354      1.0  0.47012  0.59683  0.35139  1.0000
  C   C355      1.0  0.46192  0.34562  0.42638  1.0000
  C   C356      1.0  0.35725  0.54760  0.42554  1.0000
  H   H642      1.0  0.38815  0.53717  0.43014  1.0000
  C   C357      1.0  0.33132  0.48754  0.46096  1.0000
  C   C358      1.0  0.37467  0.60231  0.48712  1.0000
  C   C359      1.0  0.48210  0.33759  0.41707  1.0000
  C   C360      1.0  0.33155  0.54887  0.39317  1.0000
  H   H643      1.0  0.36801  0.57295  0.44991  1.0000
  C   C361      1.0  0.36522  0.51914  0.40736  1.0000
  C   C362      1.0  0.45853  0.60962  0.38380  1.0000
  H   H644      1.0  0.43286  0.60860  0.36796  1.0000
  H   H645      1.0  0.33127  0.49367  0.42978  1.0000
  C   C363      1.0  0.46524  0.57570  0.35815  1.0000
  H   H646      1.0  0.48390  0.36606  0.40017  1.0000
  H   H647      1.0  0.43700  0.63301  0.37186  1.0000
  C   C364      1.0  0.29818  0.54268  0.47019  1.0000
  C   C365      1.0  0.35800  0.65669  0.29340  1.0000
  H   H648      1.0  0.34685  0.59158  0.48614  1.0000
  H   H649      1.0  0.37181  0.48019  0.37857  1.0000
  H   H650      1.0  0.36776  0.62586  0.30397  1.0000
  C   C366      1.0  0.39341  0.61800  0.25299  1.0000
  H   H651      1.0  0.31245  0.56335  0.37185  1.0000
  C   C367      1.0  0.48912  0.35058  0.39813  1.0000
  H   H652      1.0  0.28857  0.62312  0.48504  1.0000
  H   H653      1.0  0.46258  0.36023  0.43121  1.0000
  S   S87       1.0  0.47664  0.60535  0.29734  1.0000
  H   H654      1.0  0.47871  0.56639  0.36224  1.0000
  H   H655      1.0  0.42175  0.60153  0.40348  1.0000
  C   C368      1.0  0.35999  0.50056  0.39970  1.0000
  H   H656      1.0  0.30033  0.55964  0.39645  1.0000
  H   H657      1.0  0.39033  0.49060  0.38906  1.0000
  C   C369      1.0  0.42253  0.61684  0.39668  1.0000
  C   C370      1.0  0.03056  0.55045  0.27532  1.0000
  H   H658      1.0  0.45488  0.55152  0.34646  1.0000
  H   H659      1.0  0.44428  0.57535  0.33692  1.0000
  H   H660      1.0  0.28145  0.60605  0.47018  1.0000
  C   C371      1.0  0.39009  0.64531  0.27515  1.0000
  H   H661      1.0  0.32760  0.64505  0.32094  1.0000
  H   H662      1.0  0.30690  0.60548  0.47401  1.0000
  S   S88       1.0  0.47599  0.56069  0.27273  1.0000
  H   H663      1.0  0.34758  0.65147  0.47283  1.0000
  H   H664      1.0  0.39543  0.63522  0.45250  1.0000
  S   S89       1.0  0.46149  0.64918  0.27862  1.0000
  H   H665      1.0  0.31900  0.47829  0.46255  1.0000
  H   H666      1.0  0.36652  0.62866  0.26886  1.0000
  C   C372      1.0  0.49483  0.65345  0.33348  1.0000
  H   H667      1.0  0.49494  0.38579  0.37521  1.0000
  H   H668      1.0  0.33845  0.62057  0.32770  1.0000
  C   C373      1.0  0.29154  0.60790  0.48104  1.0000
  H   H669      1.0  0.48465  0.57297  0.39099  1.0000
  H   H670      1.0  0.34526  0.55554  0.48884  1.0000
  C   C374      1.0  0.49652  0.63123  0.44544  1.0000
  H   H671      1.0  0.01475  0.57073  0.25557  1.0000
  H   H672      1.0  0.01694  0.54744  0.28509  1.0000
  H   H673      1.0  0.36434  0.64240  0.32253  1.0000
  H   H674      1.0  0.48284  0.59543  0.33986  1.0000
  C   C375      1.0  0.47424  0.65865  0.45699  1.0000
  H   H675      1.0  0.41625  0.55953  0.48146  1.0000
  H   H676      1.0  0.48080  0.34725  0.38629  1.0000
  C   C376      1.0  0.30626  0.53071  0.48588  1.0000
  H   H677      1.0  0.45078  0.34677  0.41584  1.0000
  H   H678      1.0  0.44149  0.56027  0.48569  1.0000
  C   C377      1.0  0.49363  0.58477  0.39255  1.0000
  C   C378      1.0  0.37982  0.63491  0.26116  1.0000
  C   C379      1.0  0.49368  0.63184  0.34085  1.0000
  H   H679      1.0  0.49266  0.33626  0.42817  1.0000
  C   C380      1.0  0.49061  0.65137  0.44447  1.0000
  C   C381      1.0  0.02540  0.55743  0.25453  1.0000
  H   H680      1.0  0.40696  0.62334  0.24471  1.0000
  H   H681      1.0  0.29924  0.51809  0.49282  1.0000
  C   C382      1.0  0.32330  0.53527  0.49264  1.0000
  H   H682      1.0  0.39426  0.52077  0.49288  1.0000
  C   C383      1.0  0.39791  0.48974  0.49195  1.0000
  C   C384      1.0  0.42616  0.56007  0.49288  1.0000
  H   H683      1.0  0.05602  0.55051  0.24330  1.0000
  Fe  Fe43      1.0  0.33032  0.49234  0.53155  1.0000
  S   S90       1.0  0.35743  0.47083  0.52843  1.0000
  C   C385      1.0  0.27690  0.43058  0.55316  1.0000
  Fe  Fe44      1.0  0.31433  0.46930  0.57037  1.0000
  S   S91       1.0  0.34054  0.44693  0.57022  1.0000
  S   S92       1.0  0.28938  0.46691  0.59504  1.0000
  Fe  Fe45      1.0  0.35808  0.47202  0.56033  1.0000
  S   S93       1.0  0.38681  0.47512  0.57059  1.0000
  Fe  Fe46      1.0  0.33781  0.44718  0.53839  1.0000
  S   S94       1.0  0.34415  0.41668  0.52917  1.0000
  S   S95       1.0  0.33227  0.49475  0.56346  1.0000
  S   S96       1.0  0.31003  0.46832  0.53858  1.0000
  H   H684      1.0  0.31172  0.56886  0.73446  1.0000
  H   H685      1.0  0.36149  0.40124  0.58377  1.0000
  C   C386      1.0  0.11964  0.35737  0.71054  1.0000
  Fe  Fe47      1.0  0.44728  0.35409  0.53196  1.0000
  S   S97       1.0  0.43466  0.38585  0.53219  1.0000
  H   H686      1.0  0.48282  0.64349  0.50330  1.0000
  H   H687      1.0  0.39574  0.47598  0.50167  1.0000
  S   S98       1.0  0.25060  0.41872  0.70949  1.0000
  C   C387      1.0  0.47560  0.44575  0.69136  1.0000
  S   S99       1.0  0.27045  0.37567  0.69809  1.0000
  Fe  Fe48      1.0  0.28078  0.40486  0.69985  1.0000
  S   S100      1.0  0.30408  0.41646  0.67643  1.0000
  Fe  Fe49      1.0  0.24077  0.38877  0.71035  1.0000
  S   S101      1.0  0.21264  0.38741  0.69704  1.0000
  H   H688      1.0  0.42184  0.57383  0.49977  1.0000
  C   C388      1.0  0.32095  0.40241  0.59226  1.0000
  C   C389      1.0  0.33708  0.38852  0.60219  1.0000
  Fe  Fe50      1.0  0.23228  0.61627  0.71907  1.0000
  C   C390      1.0  0.29938  0.37745  0.58726  1.0000
  S   S102      1.0  0.23134  0.58480  0.71385  1.0000
  Fe  Fe51      1.0  0.39516  0.51140  0.69430  1.0000
  S   S103      1.0  0.38667  0.50774  0.66505  1.0000
  S   S104      1.0  0.37549  0.53340  0.71222  1.0000
  Fe  Fe52      1.0  0.43236  0.48138  0.68971  1.0000
  S   S105      1.0  0.42648  0.47651  0.65989  1.0000
  S   S106      1.0  0.45542  0.45939  0.70406  1.0000
  Fe  Fe53      1.0  0.41859  0.50886  0.65401  1.0000
  S   S107      1.0  0.42282  0.51949  0.62166  1.0000
  Fe  Fe54      1.0  0.39520  0.47588  0.67251  1.0000
  S   S108      1.0  0.37893  0.45370  0.66221  1.0000
  S   S109      1.0  0.42723  0.51449  0.68318  1.0000
  S   S110      1.0  0.40096  0.47890  0.70303  1.0000
  C   C391      1.0  0.42751  0.54282  0.61028  1.0000
  C   C392      1.0  0.41858  0.55001  0.59328  1.0000
  C   C393      1.0  0.42374  0.56735  0.58215  1.0000
  C   C394      1.0  0.43814  0.57742  0.58783  1.0000
  C   C395      1.0  0.44666  0.57055  0.60517  1.0000
  C   C396      1.0  0.44124  0.55334  0.61649  1.0000
  H   H689      1.0  0.40794  0.54185  0.58852  1.0000
  H   H690      1.0  0.41712  0.57252  0.56880  1.0000
  H   H691      1.0  0.44837  0.54772  0.62945  1.0000
  H   H692      1.0  0.22137  0.62161  0.67163  1.0000
  H   H693      1.0  0.47356  0.63924  0.52806  1.0000
  C   C397      1.0  0.28925  0.65633  0.59923  1.0000
  H   H694      1.0  0.30887  0.61109  0.56095  1.0000
  C   C398      1.0  0.30839  0.55079  0.71214  1.0000
  C   C399      1.0  0.31916  0.55865  0.72460  1.0000
  C   C400      1.0  0.33964  0.55316  0.72443  1.0000
  C   C401      1.0  0.34965  0.53987  0.71175  1.0000
  C   C402      1.0  0.33892  0.53224  0.69907  1.0000
  C   C403      1.0  0.31842  0.53754  0.69940  1.0000
  S   S111      1.0  0.39243  0.64233  0.51452  1.0000
  H   H695      1.0  0.34640  0.52226  0.68901  1.0000
  H   H696      1.0  0.31029  0.53148  0.68957  1.0000
  S   S112      1.0  0.28256  0.55712  0.71154  1.0000
  H   H697      1.0  0.31818  0.37035  0.65718  1.0000
  C   C404      1.0  0.34165  0.34876  0.66730  1.0000
  C   C405      1.0  0.35040  0.54266  0.56304  1.0000
  H   H698      1.0  0.31526  0.58515  0.65184  1.0000
  C   C406      1.0  0.15636  0.40161  0.70760  1.0000
  C   C407      1.0  0.43271  0.44235  0.57061  1.0000
  C   C408      1.0  0.38541  0.46793  0.59576  1.0000
  C   C409      1.0  0.37571  0.45179  0.60432  1.0000
  C   C410      1.0  0.37375  0.44713  0.62479  1.0000
  C   C411      1.0  0.38143  0.45873  0.63657  1.0000
  C   C412      1.0  0.39139  0.47453  0.62778  1.0000
  C   C413      1.0  0.39359  0.47899  0.60748  1.0000
  H   H699      1.0  0.36993  0.44283  0.59517  1.0000
  H   H700      1.0  0.36616  0.43479  0.63144  1.0000
  H   H701      1.0  0.39723  0.48375  0.63642  1.0000
  H   H702      1.0  0.40112  0.49146  0.60097  1.0000
  C   C414      1.0  0.29367  0.45364  0.61802  1.0000
  C   C415      1.0  0.27756  0.44908  0.63170  1.0000
  C   C416      1.0  0.28045  0.43789  0.64979  1.0000
  C   C417      1.0  0.29953  0.43121  0.65433  1.0000
  C   C418      1.0  0.31564  0.43602  0.64079  1.0000
  C   C419      1.0  0.31276  0.44719  0.62273  1.0000
  H   H703      1.0  0.26275  0.45405  0.62821  1.0000
  H   H704      1.0  0.26792  0.43432  0.66010  1.0000
  H   H705      1.0  0.33046  0.43109  0.64428  1.0000
  H   H706      1.0  0.32532  0.45087  0.61253  1.0000
  C   C420      1.0  0.36898  0.40727  0.53126  1.0000
  C   C421      1.0  0.37599  0.38823  0.52678  1.0000
  C   C422      1.0  0.39601  0.38111  0.52760  1.0000
  C   C423      1.0  0.40913  0.39316  0.53262  1.0000
  C   C424      1.0  0.40198  0.41195  0.53755  1.0000
  C   C425      1.0  0.38201  0.41888  0.53710  1.0000
  H   H707      1.0  0.36602  0.37911  0.52230  1.0000
  H   H708      1.0  0.40139  0.36659  0.52374  1.0000
  H   H709      1.0  0.22489  0.33157  0.67266  1.0000
  H   H710      1.0  0.36227  0.42641  0.71854  1.0000
  C   C426      1.0  0.39278  0.32635  0.65352  1.0000
  C   C427      1.0  0.28820  0.59313  0.49914  1.0000
  C   C428      1.0  0.21879  0.49251  0.74065  1.0000
  Fe  Fe55      1.0  0.26008  0.57897  0.72738  1.0000
  H   H711      1.0  0.47354  0.36420  0.67406  1.0000
  N   N23       1.0  0.29759  0.58454  0.53460  1.0000
  H   H712      1.0  0.35470  0.41128  0.60698  1.0000
  C   C429      1.0  0.44520  0.42708  0.58303  1.0000
  N   N24       1.0  0.42526  0.40802  0.67482  1.0000
  C   C430      1.0  0.42467  0.42019  0.69161  1.0000
  C   C431      1.0  0.43158  0.42016  0.65588  1.0000
  C   C432      1.0  0.40451  0.40343  0.67375  1.0000
  C   C433      1.0  0.43831  0.38880  0.67729  1.0000
  C   C434      1.0  0.45652  0.38819  0.68863  1.0000
  C   C435      1.0  0.41453  0.41162  0.71156  1.0000
  C   C436      1.0  0.40128  0.39401  0.65529  1.0000
  C   C437      1.0  0.45092  0.42975  0.65487  1.0000
  C   C438      1.0  0.45578  0.44140  0.63494  1.0000
  C   C439      1.0  0.46848  0.36810  0.68914  1.0000
  H   H713      1.0  0.04495  0.35539  0.72209  1.0000
  C   C440      1.0  0.38075  0.38731  0.65718  1.0000
  H   H714      1.0  0.41676  0.43501  0.68800  1.0000
  H   H715      1.0  0.43972  0.42305  0.69384  1.0000
  H   H716      1.0  0.43332  0.41129  0.64338  1.0000
  H   H717      1.0  0.41978  0.43230  0.65267  1.0000
  H   H718      1.0  0.39399  0.41687  0.67449  1.0000
  H   H719      1.0  0.39956  0.39333  0.68675  1.0000
  H   H720      1.0  0.42974  0.37702  0.68526  1.0000
  H   H721      1.0  0.44361  0.38363  0.66272  1.0000
  H   H722      1.0  0.45210  0.39111  0.70407  1.0000
  H   H723      1.0  0.46642  0.39900  0.68188  1.0000
  H   H724      1.0  0.39829  0.41374  0.71140  1.0000
  H   H725      1.0  0.41905  0.39571  0.71460  1.0000
  H   H726      1.0  0.41226  0.38113  0.65297  1.0000
  H   H727      1.0  0.40247  0.40483  0.64204  1.0000
  H   H728      1.0  0.44964  0.44002  0.66611  1.0000
  H   H729      1.0  0.46366  0.41878  0.65699  1.0000
  C   C441      1.0  0.31479  0.58431  0.54631  1.0000
  H   H730      1.0  0.41807  0.57594  0.64802  1.0000
  S   S113      1.0  0.42521  0.64507  0.54373  1.0000
  H   H731      1.0  0.26120  0.64723  0.65694  1.0000
  H   H732      1.0  0.24630  0.34216  0.67722  1.0000
  C   C442      1.0  0.28479  0.53052  0.54830  1.0000
  H   H733      1.0  0.33222  0.49096  0.73396  1.0000
  H   H734      1.0  0.10214  0.33360  0.70853  1.0000
  H   H735      1.0  0.36933  0.39998  0.65902  1.0000
  H   H736      1.0  0.37877  0.38093  0.64366  1.0000
  H   H737      1.0  0.37871  0.37603  0.66993  1.0000
  C   C443      1.0  0.20190  0.36636  0.69352  1.0000
  S   S114      1.0  0.44619  0.59817  0.57313  1.0000
  H   H738      1.0  0.42615  0.36849  0.57387  1.0000
  H   H739      1.0  0.34816  0.57345  0.67857  1.0000
  H   H740      1.0  0.34905  0.58865  0.63432  1.0000
  H   H741      1.0  0.26361  0.50833  0.72440  1.0000
  C   C444      1.0  0.40199  0.61799  0.61120  1.0000
  H   H742      1.0  0.28566  0.62469  0.54331  1.0000
  C   C445      1.0  0.42163  0.36949  0.58967  1.0000
  H   H743      1.0  0.41094  0.55827  0.69102  1.0000
  C   C446      1.0  0.40401  0.54264  0.51964  1.0000
  S   S115      1.0  0.42910  0.60671  0.51911  1.0000
  C   C447      1.0  0.27718  0.61883  0.65459  1.0000
  H   H744      1.0  0.32088  0.41721  0.59707  1.0000
  H   H745      1.0  0.33015  0.34055  0.67601  1.0000
  H   H746      1.0  0.39290  0.54681  0.50900  1.0000
  H   H747      1.0  0.12986  0.36597  0.70023  1.0000
  H   H748      1.0  0.23264  0.53358  0.71065  1.0000
  C   C448      1.0  0.32397  0.48678  0.65826  1.0000
  H   H749      1.0  0.33546  0.34188  0.63954  1.0000
  C   C449      1.0  0.39152  0.50757  0.50319  1.0000
  H   H750      1.0  0.43362  0.40464  0.56944  1.0000
  H   H751      1.0  0.33935  0.48354  0.65146  1.0000
  H   H752      1.0  0.40264  0.51404  0.56328  1.0000
  H   H753      1.0  0.42871  0.49273  0.54771  1.0000
  H   H754      1.0  0.27265  0.59570  0.50555  1.0000
  C   C450      1.0  0.20032  0.35013  0.70778  1.0000
  C   C451      1.0  0.30497  0.34028  0.58994  1.0000
  H   H755      1.0  0.43269  0.37614  0.61567  1.0000
  H   H756      1.0  0.47348  0.36692  0.57914  1.0000
  H   H757      1.0  0.30427  0.47598  0.68261  1.0000
  C   C452      1.0  0.39148  0.60782  0.62972  1.0000
  H   H758      1.0  0.34902  0.45376  0.73606  1.0000
  H   H759      1.0  0.32817  0.57633  0.53883  1.0000
  H   H760      1.0  0.35908  0.34961  0.63894  1.0000
  S   S116      1.0  0.37770  0.59100  0.51079  1.0000
  H   H761      1.0  0.35416  0.34877  0.67599  1.0000
  C   C453      1.0  0.35650  0.39768  0.59961  1.0000
  H   H762      1.0  0.19114  0.52067  0.72463  1.0000
  C   C454      1.0  0.33217  0.36986  0.66379  1.0000
  H   H763      1.0  0.29176  0.61233  0.64846  1.0000
  N   N25       1.0  0.33274  0.46066  0.71058  1.0000
  C   C455      1.0  0.33364  0.47531  0.69247  1.0000
  C   C456      1.0  0.34859  0.46423  0.72260  1.0000
  C   C457      1.0  0.33668  0.44028  0.70404  1.0000
  C   C458      1.0  0.31236  0.46374  0.72140  1.0000
  C   C459      1.0  0.34676  0.42380  0.71794  1.0000
  H   H764      1.0  0.32223  0.61455  0.53674  1.0000
  H   H765      1.0  0.10668  0.36754  0.71494  1.0000
  C   C460      1.0  0.34714  0.40380  0.71053  1.0000
  H   H766      1.0  0.34901  0.47493  0.68515  1.0000
  H   H767      1.0  0.32969  0.49051  0.69644  1.0000
  H   H768      1.0  0.15465  0.41378  0.71698  1.0000
  H   H769      1.0  0.36331  0.46125  0.71417  1.0000
  H   H770      1.0  0.34647  0.44038  0.68992  1.0000
  H   H771      1.0  0.32277  0.43531  0.70089  1.0000
  H   H772      1.0  0.30127  0.45943  0.71275  1.0000
  C   C461      1.0  0.48701  0.64293  0.51837  1.0000
  H   H773      1.0  0.28457  0.64482  0.72130  1.0000
  C   C462      1.0  0.27381  0.61645  0.54028  1.0000
  H   H774      1.0  0.35302  0.49517  0.71607  1.0000
  C   C463      1.0  0.29512  0.56347  0.53261  1.0000
  H   H775      1.0  0.34994  0.64482  0.63782  1.0000
  C   C464      1.0  0.32034  0.60437  0.55030  1.0000
  C   C465      1.0  0.34744  0.48518  0.72879  1.0000
  H   H776      1.0  0.31384  0.48484  0.64747  1.0000
  H   H777      1.0  0.40180  0.33050  0.68177  1.0000
  H   H778      1.0  0.48319  0.38151  0.53523  1.0000
  H   H779      1.0  0.46807  0.60894  0.53092  1.0000
  N   N26       1.0  0.30030  0.39645  0.59565  1.0000
  C   C466      1.0  0.29333  0.39565  0.61731  1.0000
  C   C467      1.0  0.34265  0.57445  0.66401  1.0000
  C   C468      1.0  0.28718  0.41244  0.58517  1.0000
  H   H780      1.0  0.35693  0.60000  0.65308  1.0000
  H   H781      1.0  0.33994  0.37471  0.59519  1.0000
  C   C469      1.0  0.27105  0.39378  0.62301  1.0000
  H   H782      1.0  0.40446  0.63299  0.61376  1.0000
  H   H783      1.0  0.30434  0.61011  0.51464  1.0000
  C   C470      1.0  0.22249  0.52521  0.72145  1.0000
  H   H784      1.0  0.31197  0.57615  0.56106  1.0000
  C   C471      1.0  0.26657  0.38704  0.64485  1.0000
  H   H785      1.0  0.32205  0.64731  0.51251  1.0000
  H   H786      1.0  0.29638  0.40914  0.62308  1.0000
  H   H787      1.0  0.30173  0.38365  0.62590  1.0000
  H   H788      1.0  0.31325  0.63237  0.62962  1.0000
  Fe  Fe56      1.0  0.42622  0.61249  0.55073  1.0000
  H   H789      1.0  0.28623  0.42624  0.59216  1.0000
  H   H790      1.0  0.27184  0.40849  0.58659  1.0000
  H   H791      1.0  0.28478  0.37719  0.58192  1.0000
  H   H792      1.0  0.44848  0.35866  0.60259  1.0000
  H   H793      1.0  0.28971  0.35688  0.61245  1.0000
  C   C472      1.0  0.29044  0.65838  0.72397  1.0000
  H   H794      1.0  0.26247  0.40830  0.61999  1.0000
  H   H795      1.0  0.26572  0.38333  0.61444  1.0000
  H   H796      1.0  0.36805  0.38726  0.60624  1.0000
  H   H797      1.0  0.46867  0.36492  0.62337  1.0000
  H   H798      1.0  0.34131  0.55945  0.66066  1.0000
  C   C473      1.0  0.18256  0.35170  0.67323  1.0000
  H   H799      1.0  0.25758  0.61451  0.68174  1.0000
  H   H800      1.0  0.45779  0.57833  0.60962  1.0000
  C   C474      1.0  0.43916  0.37297  0.60064  1.0000
  H   H801      1.0  0.27180  0.39715  0.65390  1.0000
  H   H802      1.0  0.25042  0.38694  0.64869  1.0000
  H   H803      1.0  0.27379  0.37203  0.64849  1.0000
  H   H804      1.0  0.48167  0.36821  0.69688  1.0000
  H   H805      1.0  0.28190  0.43439  0.53740  1.0000
  C   C475      1.0  0.29328  0.41750  0.56290  1.0000
  N   N27       1.0  0.23242  0.50495  0.72712  1.0000
  C   C476      1.0  0.44233  0.50863  0.56607  1.0000
  H   H806      1.0  0.25212  0.63993  0.54973  1.0000
  C   C477      1.0  0.23806  0.49526  0.70843  1.0000
  C   C478      1.0  0.29132  0.54995  0.55206  1.0000
  H   H807      1.0  0.28295  0.52085  0.56233  1.0000
  N   N28       1.0  0.45163  0.38890  0.59114  1.0000
  C   C479      1.0  0.25177  0.47565  0.71008  1.0000
  H   H808      1.0  0.41681  0.44170  0.57558  1.0000
  N   N29       1.0  0.28749  0.65222  0.63736  1.0000
  H   H809      1.0  0.30839  0.55656  0.52408  1.0000
  C   C480      1.0  0.22084  0.64111  0.64463  1.0000
  C   C481      1.0  0.25749  0.46824  0.68996  1.0000
  C   C482      1.0  0.13776  0.38038  0.73456  1.0000
  C   C483      1.0  0.41274  0.35072  0.59848  1.0000
  H   H810      1.0  0.34572  0.64043  0.61336  1.0000
  H   H811      1.0  0.30654  0.32675  0.60031  1.0000
  H   H812      1.0  0.24556  0.50546  0.69695  1.0000
  H   H813      1.0  0.22478  0.49195  0.70233  1.0000
  H   H814      1.0  0.27051  0.53297  0.54197  1.0000
  H   H815      1.0  0.27826  0.63654  0.58205  1.0000
  C   C484      1.0  0.34693  0.33907  0.71941  1.0000
  C   C485      1.0  0.25480  0.62372  0.55241  1.0000
  H   H816      1.0  0.38850  0.34227  0.65033  1.0000
  H   H817      1.0  0.25574  0.61962  0.56834  1.0000
  H   H818      1.0  0.24439  0.46414  0.71985  1.0000
  H   H819      1.0  0.26568  0.47738  0.71586  1.0000
  C   C486      1.0  0.43801  0.40653  0.58406  1.0000
  H   H820      1.0  0.27970  0.55693  0.56237  1.0000
  C   C487      1.0  0.27220  0.60838  0.67510  1.0000
  S   S117      1.0  0.26182  0.61071  0.73072  1.0000
  H   H821      1.0  0.34950  0.52912  0.57337  1.0000
  H   H822      1.0  0.48608  0.59451  0.54478  1.0000
  H   H823      1.0  0.37684  0.43340  0.54093  1.0000
  H   H824      1.0  0.34340  0.61665  0.56207  1.0000
  C   C488      1.0  0.46345  0.39397  0.60642  1.0000
  C   C489      1.0  0.30259  0.35824  0.60121  1.0000
  H   H825      1.0  0.24432  0.46442  0.68405  1.0000
  H   H826      1.0  0.26454  0.47945  0.67942  1.0000
  H   H827      1.0  0.26824  0.45495  0.69129  1.0000
  H   H828      1.0  0.33921  0.42303  0.73305  1.0000
  H   H829      1.0  0.16986  0.38036  0.72857  1.0000
  H   H830      1.0  0.31574  0.35773  0.60903  1.0000
  H   H831      1.0  0.19357  0.37966  0.66554  1.0000
  H   H832      1.0  0.41763  0.58264  0.68257  1.0000
  Fe  Fe57      1.0  0.48263  0.32726  0.54586  1.0000
  H   H833      1.0  0.30794  0.47957  0.72273  1.0000
  H   H834      1.0  0.34213  0.37917  0.65403  1.0000
  H   H835      1.0  0.20540  0.55323  0.69360  1.0000
  N   N30       1.0  0.37696  0.57548  0.64384  1.0000
  H   H836      1.0  0.44357  0.43165  0.59804  1.0000
  C   C490      1.0  0.37656  0.55490  0.63900  1.0000
  C   C491      1.0  0.40965  0.56691  0.65970  1.0000
  H   H837      1.0  0.20696  0.34969  0.72125  1.0000
  C   C492      1.0  0.36440  0.55252  0.62213  1.0000
  C   C493      1.0  0.36448  0.53089  0.61945  1.0000
  C   C494      1.0  0.41864  0.56739  0.67877  1.0000
  C   C495      1.0  0.20244  0.52618  0.71306  1.0000
  Fe  Fe58      1.0  0.27619  0.36927  0.72958  1.0000
  H   H838      1.0  0.40168  0.57871  0.62139  1.0000
  H   H839      1.0  0.39172  0.54821  0.63474  1.0000
  H   H840      1.0  0.37112  0.54549  0.65224  1.0000
  H   H841      1.0  0.29398  0.65702  0.73937  1.0000
  H   H842      1.0  0.41188  0.55155  0.65614  1.0000
  H   H843      1.0  0.42391  0.33776  0.59751  1.0000
  H   H844      1.0  0.31752  0.58802  0.50796  1.0000
  H   H845      1.0  0.34882  0.55861  0.62516  1.0000
  H   H846      1.0  0.37075  0.55993  0.60802  1.0000
  H   H847      1.0  0.35568  0.52944  0.60741  1.0000
  H   H848      1.0  0.37974  0.52411  0.61564  1.0000
  H   H849      1.0  0.35794  0.52274  0.63306  1.0000
  H   H850      1.0  0.43441  0.56146  0.67698  1.0000
  H   H851      1.0  0.40092  0.60740  0.64169  1.0000
  H   H852      1.0  0.40048  0.34852  0.59020  1.0000
  H   H853      1.0  0.40963  0.38169  0.59077  1.0000
  H   H854      1.0  0.01171  0.56181  0.73672  1.0000
  C   C496      1.0  0.38741  0.57452  0.66195  1.0000
  C   C497      1.0  0.48217  0.42676  0.69941  1.0000
  C   C498      1.0  0.30937  0.64598  0.63699  1.0000
  Fe  Fe59      1.0  0.39226  0.64475  0.54661  1.0000
  H   H855      1.0  0.47462  0.42059  0.71299  1.0000
  H   H856      1.0  0.45326  0.40012  0.61838  1.0000
  C   C499      1.0  0.27874  0.59394  0.54485  1.0000
  H   H857      1.0  0.17579  0.35247  0.65978  1.0000
  H   H858      1.0  0.20348  0.51751  0.70047  1.0000
  H   H859      1.0  0.24204  0.61741  0.54818  1.0000
  H   H860      1.0  0.21868  0.62980  0.63585  1.0000
  C   C500      1.0  0.35640  0.58546  0.64800  1.0000
  C   C501      1.0  0.22504  0.65109  0.67628  1.0000
  H   H861      1.0  0.32867  0.37612  0.67805  1.0000
  H   H862      1.0  0.26596  0.61594  0.64532  1.0000
  S   S118      1.0  0.33384  0.52153  0.51280  1.0000
  H   H863      1.0  0.32218  0.45778  0.67243  1.0000
  H   H864      1.0  0.47698  0.39022  0.64303  1.0000
  H   H865      1.0  0.28349  0.60993  0.68483  1.0000
  H   H866      1.0  0.12529  0.38764  0.72671  1.0000
  C   C502      1.0  0.31996  0.47280  0.67685  1.0000
  H   H867      1.0  0.48079  0.46818  0.66749  1.0000
  H   H868      1.0  0.38572  0.58908  0.66762  1.0000
  H   H869      1.0  0.27146  0.62050  0.52466  1.0000
  H   H870      1.0  0.32157  0.50222  0.66165  1.0000
  H   H871      1.0  0.45942  0.35686  0.69715  1.0000
  H   H872      1.0  0.39851  0.49334  0.53153  1.0000
  H   H873      1.0  0.35194  0.59545  0.54943  1.0000
  H   H874      1.0  0.26348  0.42292  0.55423  1.0000
  C   C503      1.0  0.19278  0.36706  0.67643  1.0000
  C   C504      1.0  0.30279  0.59445  0.51425  1.0000
  H   H875      1.0  0.40247  0.55529  0.52844  1.0000
  H   H876      1.0  0.19339  0.55673  0.71788  1.0000
  C   C505      1.0  0.47936  0.39466  0.56260  1.0000
  H   H877      1.0  0.05751  0.36622  0.73871  1.0000
  S   S119      1.0  0.47807  0.34639  0.51787  1.0000
  H   H878      1.0  0.31354  0.64191  0.65215  1.0000
  H   H879      1.0  0.47291  0.40564  0.60045  1.0000
  H   H880      1.0  0.28301  0.64337  0.66867  1.0000
  H   H881      1.0  0.27174  0.59253  0.67422  1.0000
  C   C506      1.0  0.47703  0.58031  0.52212  1.0000
  H   H882      1.0  0.34390  0.33104  0.61036  1.0000
  S   S120      1.0  0.45323  0.33737  0.56082  1.0000
  H   H883      1.0  0.39299  0.61923  0.59873  1.0000
  H   H884      1.0  0.32215  0.60047  0.66895  1.0000
  H   H885      1.0  0.37874  0.58870  0.61372  1.0000
  H   H886      1.0  0.38045  0.56463  0.67409  1.0000
  H   H887      1.0  0.41149  0.41596  0.74245  1.0000
  C   C507      1.0  0.27970  0.64732  0.61923  1.0000
  C   C508      1.0  0.46487  0.38095  0.57423  1.0000
  H   H888      1.0  0.35507  0.40375  0.69552  1.0000
  H   H889      1.0  0.41653  0.60979  0.60723  1.0000
  H   H890      1.0  0.20622  0.48985  0.73297  1.0000
  H   H891      1.0  0.15908  0.37014  0.71033  1.0000
  C   C509      1.0  0.34861  0.34002  0.64772  1.0000
  Fe  Fe60      1.0  0.39608  0.60992  0.52336  1.0000
  C   C510      1.0  0.38743  0.58693  0.62649  1.0000
  C   C511      1.0  0.33973  0.60205  0.55946  1.0000
  H   H892      1.0  0.26580  0.58734  0.54126  1.0000
  C   C512      1.0  0.22234  0.63645  0.66487  1.0000
  H   H893      1.0  0.42402  0.40774  0.59406  1.0000
  S   S121      1.0  0.28880  0.33826  0.73880  1.0000
  H   H894      1.0  0.43584  0.54287  0.51859  1.0000
  H   H895      1.0  0.34034  0.54260  0.55165  1.0000
  C   C513      1.0  0.43123  0.50821  0.54829  1.0000
  H   H896      1.0  0.46077  0.42759  0.57698  1.0000
  C   C514      1.0  0.32190  0.58519  0.66568  1.0000
  H   H897      1.0  0.31831  0.34039  0.57909  1.0000
  H   H898      1.0  0.33191  0.40015  0.71020  1.0000
  H   H899      1.0  0.30642  0.42569  0.56060  1.0000
  C   C515      1.0  0.37150  0.54370  0.55349  1.0000
  S   S122      1.0  0.39345  0.61243  0.55559  1.0000
  C   C516      1.0  0.04635  0.35619  0.73781  1.0000
  C   C517      1.0  0.11273  0.34250  0.69903  1.0000
  C   C518      1.0  0.18074  0.33555  0.68731  1.0000
  H   H900      1.0  0.27867  0.59066  0.56105  1.0000
  H   H901      1.0  0.48922  0.39936  0.57224  1.0000
  H   H902      1.0  0.43552  0.43974  0.55492  1.0000
  C   C519      1.0  0.41937  0.42195  0.72842  1.0000
  H   H903      1.0  0.46512  0.57382  0.53225  1.0000
  H   H904      1.0  0.33298  0.38525  0.61815  1.0000
  S   S123      1.0  0.28870  0.39767  0.73089  1.0000
  H   H905      1.0  0.32638  0.40373  0.57635  1.0000
  C   C520      1.0  0.40272  0.50642  0.52153  1.0000
  H   H906      1.0  0.44253  0.45034  0.62970  1.0000
  H   H907      1.0  0.31251  0.57761  0.67775  1.0000
  C   C521      1.0  0.19504  0.54723  0.70583  1.0000
  C   C522      1.0  0.47712  0.37691  0.61596  1.0000
  H   H908      1.0  0.44585  0.52369  0.56710  1.0000
  N   N31       1.0  0.39943  0.52426  0.53264  1.0000
  C   C523      1.0  0.48771  0.38396  0.63152  1.0000
  H   H909      1.0  0.37351  0.51295  0.54877  1.0000
  C   C524      1.0  0.34466  0.65165  0.62376  1.0000
  C   C525      1.0  0.15685  0.38186  0.72021  1.0000
  H   H910      1.0  0.29600  0.52287  0.53808  1.0000
  H   H911      1.0  0.18040  0.54760  0.70051  1.0000
  H   H912      1.0  0.28178  0.63130  0.61826  1.0000
  H   H913      1.0  0.37204  0.55811  0.54452  1.0000
  H   H914      1.0  0.12743  0.57562  0.73978  1.0000
  H   H915      1.0  0.43337  0.50347  0.57982  1.0000
  H   H916      1.0  0.30498  0.54635  0.55935  1.0000
  H   H917      1.0  0.34777  0.55922  0.73426  1.0000
  H   H918      1.0  0.35476  0.39230  0.72046  1.0000
  H   H919      1.0  0.25088  0.53720  0.73941  1.0000
  H   H920      1.0  0.10528  0.35025  0.68647  1.0000
  H   H921      1.0  0.28258  0.56272  0.52410  1.0000
  H   H922      1.0  0.45632  0.49883  0.56469  1.0000
  H   H923      1.0  0.41475  0.43792  0.72598  1.0000
  H   H924      1.0  0.34564  0.55544  0.57138  1.0000
  H   H925      1.0  0.41851  0.50281  0.51653  1.0000
  C   C526      1.0  0.42484  0.54230  0.50827  1.0000
  H   H926      1.0  0.45589  0.37709  0.56339  1.0000
  C   C527      1.0  0.41121  0.52118  0.55014  1.0000
  H   H927      1.0  0.31021  0.37634  0.57393  1.0000
  H   H928      1.0  0.44079  0.51303  0.53494  1.0000
  H   H929      1.0  0.33856  0.59268  0.57370  1.0000
  H   H930      1.0  0.49670  0.37138  0.63871  1.0000
  H   H931      1.0  0.12552  0.33273  0.69312  1.0000
  H   H932      1.0  0.37755  0.61709  0.63342  1.0000
  H   H933      1.0  0.32114  0.36026  0.72126  1.0000
  H   H934      1.0  0.29185  0.33996  0.58213  1.0000
  H   H935      1.0  0.43545  0.41968  0.72969  1.0000
  H   H936      1.0  0.14409  0.40345  0.69826  1.0000
  S   S124      1.0  0.43479  0.32942  0.52132  1.0000
  H   H937      1.0  0.43639  0.45727  0.57201  1.0000
  H   H938      1.0  0.41402  0.53553  0.55434  1.0000
  C   C528      1.0  0.48178  0.59881  0.52977  1.0000
  H   H939      1.0  0.41197  0.42137  0.54145  1.0000
  H   H940      1.0  0.38098  0.54317  0.56544  1.0000
  H   H941      1.0  0.40693  0.35171  0.61408  1.0000
  S   S125      1.0  0.22814  0.64615  0.70145  1.0000
  C   C529      1.0  0.27690  0.64120  0.65499  1.0000
  H   H942      1.0  0.47111  0.40761  0.55511  1.0000
  H   H943      1.0  0.37547  0.50780  0.50753  1.0000
  H   H944      1.0  0.27325  0.44437  0.56022  1.0000
  H   H945      1.0  0.36855  0.52996  0.52810  1.0000
  H   H946      1.0  0.29677  0.40412  0.55523  1.0000
  H   H947      1.0  0.17035  0.40239  0.69779  1.0000
  H   H948      1.0  0.06686  0.33003  0.74051  1.0000
  C   C530      1.0  0.37789  0.52684  0.54035  1.0000
  H   H949      1.0  0.14422  0.33939  0.72177  1.0000
  C   C531      1.0  0.48555  0.45355  0.67381  1.0000
  H   H950      1.0  0.21946  0.53394  0.73409  1.0000
  C   C532      1.0  0.25115  0.50618  0.73614  1.0000
  H   H951      1.0  0.46689  0.45143  0.63618  1.0000
  C   C533      1.0  0.49234  0.38445  0.54647  1.0000
  H   H952      1.0  0.49020  0.56932  0.52134  1.0000
  H   H953      1.0  0.48855  0.37084  0.60486  1.0000
  Fe  Fe61      1.0  0.42567  0.63935  0.51222  1.0000
  C   C534      1.0  0.32675  0.34499  0.72379  1.0000
  H   H954      1.0  0.46226  0.43140  0.62395  1.0000
  H   H955      1.0  0.12160  0.33508  0.73550  1.0000
  C   C535      1.0  0.33296  0.64169  0.50077  1.0000
  H   H956      1.0  0.35681  0.34987  0.71349  1.0000
  C   C536      1.0  0.13021  0.34711  0.72829  1.0000
  C   C537      1.0  0.18955  0.33476  0.70475  1.0000
  H   H957      1.0  0.34666  0.63514  0.50711  1.0000
  H   H958      1.0  0.30463  0.64952  0.59630  1.0000
  C   C538      1.0  0.31398  0.33120  0.73202  1.0000
  H   H959      1.0  0.26347  0.65159  0.62010  1.0000
  C   C539      1.0  0.27816  0.65250  0.58249  1.0000
  H   H960      1.0  0.30933  0.43651  0.74076  1.0000
  C   C540      1.0  0.30903  0.45235  0.74202  1.0000
  H   H961      1.0  0.47190  0.58383  0.50733  1.0000
  H   H962      1.0  0.32680  0.63001  0.49457  1.0000
  H   H963      1.0  0.26269  0.65943  0.58433  1.0000
  H   H964      1.0  0.49340  0.62592  0.55253  1.0000
  H   H965      1.0  0.37562  0.47999  0.74108  1.0000
  H   H966      1.0  0.16281  0.58062  0.73859  1.0000
  H   H967      1.0  0.42884  0.52914  0.50039  1.0000
  H   H968      1.0  0.49343  0.61067  0.50109  1.0000
  Fe  Fe62      1.0  0.25742  0.40955  0.74063  1.0000
  H   H969      1.0  0.28537  0.65886  0.56827  1.0000
  H   H970      1.0  0.42131  0.33047  0.66182  1.0000
  C   C541      1.0  0.24051  0.32820  0.67562  1.0000
  H   H971      1.0  0.34702  0.65912  0.53680  1.0000
  S   S126      1.0  0.24548  0.38043  0.74186  1.0000
  H   H972      1.0  0.16483  0.34816  0.74127  1.0000
  H   H973      1.0  0.29038  0.57832  0.49413  1.0000
  H   H974      1.0  0.18445  0.63386  0.93610  1.0000
  Fe  Fe63      1.0  0.19614  0.49499  0.86077  1.0000
  S   S127      1.0  0.22648  0.50165  0.86348  1.0000
  S   S128      1.0  0.17887  0.51201  0.83797  1.0000
  Fe  Fe64      1.0  0.19682  0.46130  0.89316  1.0000
  S   S129      1.0  0.22741  0.46584  0.89885  1.0000
  S   S130      1.0  0.17972  0.43713  0.90966  1.0000
  Fe  Fe65      1.0  0.21717  0.49854  0.89618  1.0000
  S   S131      1.0  0.21362  0.52587  0.91302  1.0000
  Fe  Fe66      1.0  0.23367  0.46888  0.86555  1.0000
  S   S132      1.0  0.25804  0.45194  0.84675  1.0000
  S   S133      1.0  0.18621  0.49316  0.89278  1.0000
  S   S134      1.0  0.20372  0.46282  0.86056  1.0000
  C   C542      1.0  0.00769  0.37391  0.93887  1.0000
  S   S135      1.0  0.24479  0.43289  0.76114  1.0000
  H   H975      1.0  0.11314  0.35179  0.92664  1.0000
  S   S136      1.0  0.19492  0.55855  0.75953  1.0000
  S   S137      1.0  0.03890  0.37316  0.90995  1.0000
  S   S138      1.0  0.10682  0.61268  0.96158  1.0000
  Fe  Fe67      1.0  0.05119  0.50010  0.79125  1.0000
  S   S139      1.0  0.04880  0.50043  0.82385  1.0000
  S   S140      1.0  0.03397  0.48109  0.77548  1.0000
  Fe  Fe68      1.0  0.08407  0.52874  0.78439  1.0000
  S   S141      1.0  0.08378  0.53045  0.81662  1.0000
  S   S142      1.0  0.10338  0.54721  0.76166  1.0000
  Fe  Fe69      1.0  0.08158  0.49823  0.81974  1.0000
  S   S143      1.0  0.09755  0.47880  0.84217  1.0000
  Fe  Fe70      1.0  0.05099  0.53279  0.81821  1.0000
  S   S144      1.0  0.03315  0.55214  0.83967  1.0000
  S   S145      1.0  0.08450  0.49593  0.78738  1.0000
  S   S146      1.0  0.05075  0.53319  0.78558  1.0000
  C   C543      1.0  0.99979  0.64387  0.90245  1.0000
  C   C544      1.0  0.19283  0.48997  0.77016  1.0000
  C   C545      1.0  0.24004  0.38052  0.79701  1.0000
  S   S147      1.0  0.12409  0.40339  0.85857  1.0000
  Fe  Fe71      1.0  0.24403  0.60547  0.76005  1.0000
  S   S148      1.0  0.24414  0.61674  0.78948  1.0000
  H   H976      1.0  0.22503  0.50325  0.81433  1.0000
  H   H977      1.0  0.05450  0.33789  0.76332  1.0000
  H   H978      1.0  0.22524  0.38699  0.88050  1.0000
  H   H979      1.0  0.07609  0.45275  0.88687  1.0000
  H   H980      1.0  0.02408  0.63008  0.88245  1.0000
  C   C546      1.0  0.15402  0.56604  0.95574  1.0000
  C   C547      1.0  0.15226  0.35092  0.75275  1.0000
  H   H981      1.0  0.24567  0.54014  0.79921  1.0000
  C   C548      1.0  0.12870  0.55069  0.76173  1.0000
  C   C549      1.0  0.14106  0.53825  0.77354  1.0000
  H   H982      1.0  0.03018  0.39695  0.85144  1.0000
  H   H983      1.0  0.03937  0.58179  0.93110  1.0000
  H   H984      1.0  0.11348  0.37729  0.94821  1.0000
  Fe  Fe72      1.0  0.06924  0.37332  0.84297  1.0000
  H   H985      1.0  0.13509  0.52629  0.78300  1.0000
  H   H986      1.0  0.17056  0.53120  0.78193  1.0000
  C   C550      1.0  0.14630  0.43020  0.86719  1.0000
  H   H987      1.0  0.08105  0.45024  0.76053  1.0000
  C   C551      1.0  0.06808  0.59673  0.86054  1.0000
  C   C552      1.0  0.07291  0.59043  0.84183  1.0000
  C   C553      1.0  0.06243  0.57662  0.83551  1.0000
  C   C554      1.0  0.04687  0.56902  0.84780  1.0000
  C   C555      1.0  0.04210  0.57511  0.86665  1.0000
  C   C556      1.0  0.05270  0.58892  0.87306  1.0000
  H   H988      1.0  0.06618  0.57220  0.82091  1.0000
  H   H989      1.0  0.03038  0.56888  0.87635  1.0000
  H   H990      1.0  0.04911  0.59341  0.88762  1.0000
  C   C557      1.0  0.15736  0.64615  0.97080  1.0000
  C   C558      1.0  0.00978  0.59630  0.93825  1.0000
  C   C559      1.0  0.13217  0.64073  0.95113  1.0000
  C   C560      1.0  0.12528  0.62659  0.96578  1.0000
  C   C561      1.0  0.13366  0.62320  0.98347  1.0000
  C   C562      1.0  0.14306  0.57723  0.93917  1.0000
  H   H991      1.0  0.10292  0.43020  0.89989  1.0000
  H   H992      1.0  0.12571  0.64371  0.93752  1.0000
  H   H993      1.0  0.16571  0.45066  0.87224  1.0000
  C   C563      1.0  0.22086  0.53735  0.93240  1.0000
  C   C564      1.0  0.20890  0.55385  0.93874  1.0000
  C   C565      1.0  0.21401  0.56401  0.95361  1.0000
  C   C566      1.0  0.23170  0.55830  0.96182  1.0000
  H   H994      1.0  0.16993  0.43112  0.80604  1.0000
  C   C567      1.0  0.23825  0.53123  0.94104  1.0000
  H   H995      1.0  0.19566  0.55884  0.93186  1.0000
  H   H996      1.0  0.20454  0.57658  0.95834  1.0000
  H   H997      1.0  0.24772  0.51864  0.93631  1.0000
  C   C568      1.0  0.15722  0.50123  0.83847  1.0000
  C   C569      1.0  0.15080  0.48863  0.85475  1.0000
  C   C570      1.0  0.13261  0.48125  0.85571  1.0000
  C   C571      1.0  0.12093  0.48652  0.84037  1.0000
  C   C572      1.0  0.12758  0.49877  0.82390  1.0000
  C   C573      1.0  0.14575  0.50609  0.82298  1.0000
  H   H998      1.0  0.15955  0.48503  0.86685  1.0000
  H   H999      1.0  0.12742  0.47183  0.86849  1.0000
  H   H1000     1.0  0.11876  0.50264  0.81184  1.0000
  H   H1001     1.0  0.15087  0.51574  0.81045  1.0000
  C   C574      1.0  0.24879  0.43725  0.78518  1.0000
  C   C575      1.0  0.26400  0.42699  0.79524  1.0000
  C   C576      1.0  0.26673  0.43160  0.81405  1.0000
  C   C577      1.0  0.25411  0.44624  0.82316  1.0000
  C   C578      1.0  0.23880  0.45627  0.81316  1.0000
  C   C579      1.0  0.23631  0.45193  0.79428  1.0000
  H   H1002     1.0  0.27383  0.41572  0.78844  1.0000
  H   H1003     1.0  0.27868  0.42378  0.82161  1.0000
  H   H1004     1.0  0.22894  0.46752  0.81992  1.0000
  H   H1005     1.0  0.22452  0.45995  0.78673  1.0000
  C   C580      1.0  0.14129  0.40370  0.89285  1.0000
  C   C581      1.0  0.15398  0.41128  0.90388  1.0000
  C   C582      1.0  0.16304  0.42818  0.89637  1.0000
  H   H1006     1.0  0.13502  0.39024  0.89827  1.0000
  H   H1007     1.0  0.15724  0.40375  0.91795  1.0000
  C   C583      1.0  0.01110  0.45602  0.76303  1.0000
  C   C584      1.0  0.01717  0.46260  0.77955  1.0000
  H   H1008     1.0  0.14106  0.41581  0.79009  1.0000
  C   C585      1.0  0.13763  0.41312  0.87434  1.0000
  H   H1009     1.0  0.26439  0.61705  0.87672  1.0000
  H   H1010     1.0  0.15090  0.45827  0.77378  1.0000
  C   C586      1.0  0.21050  0.50034  0.76043  1.0000
  C   C587      1.0  0.11278  0.44651  0.78404  1.0000
  C   C588      1.0  0.00553  0.35280  0.96983  1.0000
  H   H1011     1.0  0.05426  0.34485  0.82454  1.0000
  H   H1012     1.0  0.12301  0.54341  0.96999  1.0000
  H   H1013     1.0  0.18039  0.41561  0.84596  1.0000
  H   H1014     1.0  0.18003  0.49424  0.76161  1.0000
  C   C589      1.0  0.17824  0.44037  0.81337  1.0000
  C   C590      1.0  0.15900  0.43762  0.87808  1.0000
  H   H1015     1.0  0.10148  0.52604  0.85426  1.0000
  H   H1016     1.0  0.10226  0.54741  0.91590  1.0000
  H   H1017     1.0  0.20239  0.41737  0.86765  1.0000
  H   H1018     1.0  0.17772  0.33066  0.77889  1.0000
  C   C591      1.0  0.13605  0.56412  0.82417  1.0000
  C   C592      1.0  0.05053  0.39996  0.95089  1.0000
  C   C593      1.0  0.06113  0.42909  0.75897  1.0000
  H   H1019     1.0  0.08483  0.59632  0.83208  1.0000
  H   H1020     1.0  0.10389  0.45896  0.77649  1.0000
  H   H1021     1.0  0.01129  0.59534  0.89208  1.0000
  C   C594      1.0  0.23889  0.58760  0.90712  1.0000
  H   H1022     1.0  0.12225  0.43960  0.77197  1.0000
  C   C595      1.0  0.14064  0.46775  0.78322  1.0000
  C   C596      1.0  0.24372  0.54180  0.95544  1.0000
  S   S149      1.0  0.17972  0.65527  0.97218  1.0000
  H   H1023     1.0  0.22567  0.61584  0.88323  1.0000
  C   C597      1.0  0.18137  0.36162  0.88154  1.0000
  H   H1024     1.0  0.15703  0.36126  0.76195  1.0000
  H   H1025     1.0  0.00267  0.58564  0.93152  1.0000
  C   C598      1.0  0.04143  0.37047  0.80794  1.0000
  H   H1026     1.0  0.26092  0.58525  0.93885  1.0000
  H   H1027     1.0  0.25967  0.63978  0.88738  1.0000
  H   H1028     1.0  0.08027  0.52324  0.89615  1.0000
  C   C599      1.0  0.09406  0.55757  0.90533  1.0000
  H   H1029     1.0  0.22191  0.60266  0.93995  1.0000
  H   H1030     1.0  0.13369  0.52189  0.92809  1.0000
  H   H1031     1.0  0.08048  0.58761  0.90455  1.0000
  S   S150      1.0  0.23993  0.57179  0.97919  1.0000
  C   C600      1.0  0.01023  0.62806  0.98457  1.0000
  H   H1032     1.0  0.24479  0.39623  0.86343  1.0000
  C   C601      1.0  0.25592  0.58032  0.89211  1.0000
  C   C602      1.0  0.23435  0.41359  0.88697  1.0000
  Fe  Fe73      1.0  0.06500  0.36407  0.88764  1.0000
  H   H1033     1.0  0.02861  0.54616  0.75112  1.0000
  C   C603      1.0  0.20237  0.37980  0.85410  1.0000
  S   S151      1.0  0.06530  0.62210  0.92558  1.0000
  H   H1034     1.0  0.02322  0.32794  0.75696  1.0000
  H   H1035     1.0  0.22231  0.42376  0.85034  1.0000
  C   C604      1.0  0.07543  0.42064  0.91692  1.0000
  H   H1036     1.0  0.25506  0.62859  0.92131  1.0000
  H   H1037     1.0  0.26946  0.61004  0.90893  1.0000
  H   H1038     1.0  0.23856  0.38556  0.83611  1.0000
  S   S152      1.0  0.05558  0.38649  0.81602  1.0000
  H   H1039     1.0  0.19631  0.37179  0.84359  1.0000
  H   H1040     1.0  0.20448  0.43848  0.82739  1.0000
  C   C605      1.0  0.12787  0.54639  0.85806  1.0000
  H   H1041     1.0  0.08842  0.37923  0.78384  1.0000
  C   C606      1.0  0.09599  0.53376  0.86746  1.0000
  H   H1042     1.0  0.07967  0.55239  0.90428  1.0000
  H   H1043     1.0  0.12743  0.57416  0.94112  1.0000
  H   H1044     1.0  0.23003  0.64338  0.81761  1.0000
  N   N32       1.0  0.20899  0.39882  0.84396  1.0000
  H   H1045     1.0  0.13973  0.54669  0.90020  1.0000
  H   H1046     1.0  0.23946  0.57769  0.92098  1.0000
  C   C607      1.0  0.12286  0.52578  0.88902  1.0000
  N   N33       1.0  0.11288  0.54144  0.87529  1.0000
  S   S153      1.0  0.06184  0.34661  0.86285  1.0000
  C   C608      1.0  0.19191  0.41035  0.83450  1.0000
  H   H1047     1.0  0.09351  0.50431  0.88261  1.0000
  H   H1048     1.0  0.22009  0.62778  0.93049  1.0000
  H   H1049     1.0  0.19015  0.39004  0.88278  1.0000
  H   H1050     1.0  0.16868  0.44619  0.82599  1.0000
  C   C609      1.0  0.08436  0.51871  0.88128  1.0000
  H   H1051     1.0  0.02694  0.57271  0.95435  1.0000
  H   H1052     1.0  0.21897  0.36762  0.81843  1.0000
  C   C610      1.0  0.15024  0.33134  0.76601  1.0000
  Fe  Fe74      1.0  0.09335  0.62875  0.93555  1.0000
  H   H1053     1.0  0.29253  0.59999  0.93381  1.0000
  H   H1054     1.0  0.14336  0.43764  0.85297  1.0000
  H   H1055     1.0  0.16894  0.61670  0.93040  1.0000
  N   N34       1.0  0.21820  0.56208  0.82546  1.0000
  C   C611      1.0  0.23548  0.57344  0.81799  1.0000
  C   C612      1.0  0.20231  0.56793  0.81198  1.0000
  C   C613      1.0  0.21111  0.56664  0.84613  1.0000
  C   C614      1.0  0.22406  0.54041  0.82572  1.0000
  C   C615      1.0  0.23245  0.53301  0.80575  1.0000
  C   C616      1.0  0.25486  0.56660  0.82743  1.0000
  C   C617      1.0  0.19259  0.55715  0.85612  1.0000
  C   C618      1.0  0.19170  0.58895  0.81272  1.0000
  C   C619      1.0  0.17789  0.59403  0.79668  1.0000
  C   C620      1.0  0.23814  0.51088  0.80835  1.0000
  C   C621      1.0  0.00184  0.38587  0.85164  1.0000
  C   C622      1.0  0.18536  0.56523  0.87569  1.0000
  H   H1056     1.0  0.23159  0.58909  0.82036  1.0000
  H   H1057     1.0  0.23897  0.57342  0.80184  1.0000
  H   H1058     1.0  0.20860  0.56691  0.79646  1.0000
  H   H1059     1.0  0.19090  0.55748  0.81471  1.0000
  H   H1060     1.0  0.20833  0.58276  0.84668  1.0000
  H   H1061     1.0  0.22275  0.56158  0.85596  1.0000
  H   H1062     1.0  0.23478  0.53536  0.83654  1.0000
  H   H1063     1.0  0.21113  0.53238  0.83091  1.0000
  H   H1064     1.0  0.10357  0.58346  0.91507  1.0000
  H   H1065     1.0  0.22124  0.53592  0.79519  1.0000
  H   H1066     1.0  0.25252  0.56633  0.84360  1.0000
  H   H1067     1.0  0.11612  0.57619  0.84706  1.0000
  H   H1068     1.0  0.19613  0.54109  0.85933  1.0000
  H   H1069     1.0  0.18031  0.55984  0.84684  1.0000
  H   H1070     1.0  0.18270  0.59036  0.82704  1.0000
  H   H1071     1.0  0.20241  0.59998  0.81049  1.0000
  H   H1072     1.0  0.18648  0.59464  0.78197  1.0000
  H   H1073     1.0  0.16736  0.58293  0.79754  1.0000
  H   H1074     1.0  0.16944  0.60856  0.79828  1.0000
  H   H1075     1.0  0.09801  0.52209  0.98480  1.0000
  H   H1076     1.0  0.25743  0.53716  0.96166  1.0000
  H   H1077     1.0  0.24391  0.50558  0.79404  1.0000
  H   H1078     1.0  0.00414  0.37112  0.77989  1.0000
  S   S154      1.0  0.10147  0.36499  0.83977  1.0000
  C   C623      1.0  0.22217  0.38263  0.81235  1.0000
  H   H1079     1.0  0.19710  0.56238  0.88570  1.0000
  H   H1080     1.0  0.18082  0.58122  0.87336  1.0000
  H   H1081     1.0  0.17249  0.55790  0.88287  1.0000
  C   C624      1.0  0.01359  0.55417  0.75157  1.0000
  H   H1082     1.0  0.19751  0.61842  0.90569  1.0000
  H   H1083     1.0  0.23728  0.37077  0.78625  1.0000
  C   C625      1.0  0.12591  0.45575  0.79634  1.0000
  H   H1084     1.0  0.06879  0.43533  0.92090  1.0000
  H   H1085     1.0  0.19825  0.59473  0.91962  1.0000
  H   H1086     1.0  0.14941  0.47456  0.79249  1.0000
  Fe  Fe75      1.0  0.10231  0.38094  0.86578  1.0000
  H   H1087     1.0  0.20642  0.42427  0.80697  1.0000
  C   C626      1.0  0.12022  0.56166  0.84157  1.0000
  S   S155      1.0  0.07022  0.39136  0.86727  1.0000
  S   S156      1.0  0.08263  0.61344  0.86768  1.0000
  H   H1088     1.0  0.18234  0.45300  0.80278  1.0000
  H   H1089     1.0  0.15973  0.52165  0.92054  1.0000
  N   N35       1.0  0.09955  0.43229  0.79549  1.0000
  C   C627      1.0  0.08824  0.42437  0.78140  1.0000
  C   C628      1.0  0.08587  0.44286  0.81052  1.0000
  C   C629      1.0  0.11134  0.41528  0.80604  1.0000
  C   C630      1.0  0.12950  0.40568  0.79359  1.0000
  C   C631      1.0  0.06903  0.43156  0.82156  1.0000
  C   C632      1.0  0.07332  0.43935  0.77082  1.0000
  C   C633      1.0  0.02401  0.34303  0.96362  1.0000
  C   C634      1.0  0.13876  0.38698  0.80451  1.0000
  C   C635      1.0  0.05540  0.44428  0.83524  1.0000
  H   H1090     1.0  0.09846  0.41778  0.76967  1.0000
  H   H1091     1.0  0.08012  0.41219  0.78903  1.0000
  H   H1092     1.0  0.07919  0.45711  0.80379  1.0000
  H   H1093     1.0  0.09430  0.44656  0.82205  1.0000
  H   H1094     1.0  0.11669  0.41974  0.81923  1.0000
  H   H1095     1.0  0.10173  0.40361  0.81201  1.0000
  H   H1096     1.0  0.06872  0.51116  0.85815  1.0000
  H   H1097     1.0  0.12546  0.40185  0.77963  1.0000
  H   H1098     1.0  0.11660  0.46582  0.80581  1.0000
  H   H1099     1.0  0.13423  0.44459  0.80593  1.0000
  H   H1100     1.0  0.07522  0.41834  0.83044  1.0000
  H   H1101     1.0  0.05966  0.42714  0.81132  1.0000
  H   H1102     1.0  0.05518  0.52937  0.87275  1.0000
  C   C636      1.0  0.03131  0.33799  0.80903  1.0000
  H   H1103     1.0  0.02433  0.61051  0.91200  1.0000
  H   H1104     1.0  0.27045  0.58269  0.89619  1.0000
  H   H1105     1.0  0.14211  0.38975  0.81919  1.0000
  H   H1106     1.0  0.12867  0.37540  0.80625  1.0000
  H   H1107     1.0  0.15269  0.38157  0.79601  1.0000
  H   H1108     1.0  0.04470  0.43525  0.84438  1.0000
  H   H1109     1.0  0.06390  0.45069  0.84502  1.0000
  H   H1110     1.0  0.04707  0.45631  0.82651  1.0000
  C   C637      1.0  0.14132  0.53124  0.89708  1.0000
  C   C638      1.0  0.10587  0.55995  0.88479  1.0000
  H   H1111     1.0  0.24970  0.50699  0.81848  1.0000
  H   H1112     1.0  0.14063  0.55223  0.86287  1.0000
  Fe  Fe76      1.0  0.08034  0.62907  0.89510  1.0000
  H   H1113     1.0  0.28773  0.47486  0.75431  1.0000
  C   C639      1.0  0.23051  0.40035  0.87203  1.0000
  C   C640      1.0  0.06542  0.51567  0.87318  1.0000
  C   C641      1.0  0.25319  0.63828  0.79426  1.0000
  H   H1114     1.0  0.26568  0.59532  0.82395  1.0000
  H   H1115     1.0  0.13405  0.53287  0.85130  1.0000
  C   C642      1.0  0.24779  0.63999  0.86020  1.0000
  H   H1116     1.0  0.05803  0.50398  0.88266  1.0000
  H   H1117     1.0  0.24191  0.62996  0.85154  1.0000
  S   S157      1.0  0.10948  0.63227  0.90532  1.0000
  H   H1118     1.0  0.18446  0.40088  0.82649  1.0000
  C   C643      1.0  0.25618  0.55838  0.89086  1.0000
  H   H1119     1.0  0.21510  0.36980  0.85917  1.0000
  C   C644      1.0  0.18599  0.38170  0.87149  1.0000
  C   C645      1.0  0.22048  0.61268  0.92625  1.0000
  H   H1120     1.0  0.00066  0.60006  0.95195  1.0000
  H   H1121     1.0  0.22543  0.63627  0.89645  1.0000
  H   H1122     1.0  0.02016  0.36415  0.86781  1.0000
  C   C646      1.0  0.25301  0.62934  0.87981  1.0000
  H   H1123     1.0  0.06895  0.38327  0.76807  1.0000
  H   H1124     1.0  0.04855  0.34114  0.94076  1.0000
  H   H1125     1.0  0.14651  0.50277  0.91414  1.0000
  H   H1126     1.0  0.17227  0.38922  0.86604  1.0000
  H   H1127     1.0  0.00318  0.53989  0.78788  1.0000
  C   C647      1.0  0.08973  0.57713  0.91394  1.0000
  H   H1128     1.0  0.20954  0.38983  0.80470  1.0000
  H   H1129     1.0  0.12753  0.51236  0.88148  1.0000
  C   C648      1.0  0.23448  0.62243  0.89270  1.0000
  C   C649      1.0  0.14552  0.51856  0.91613  1.0000
  H   H1130     1.0  0.24187  0.55499  0.88695  1.0000
  S   S158      1.0  0.24482  0.57325  0.75792  1.0000
  H   H1131     1.0  0.24016  0.42712  0.87942  1.0000
  H   H1132     1.0  0.03679  0.59591  0.95187  1.0000
  H   H1133     1.0  0.00951  0.41163  0.86304  1.0000
  H   H1134     1.0  0.08163  0.57506  0.92884  1.0000
  H   H1135     1.0  0.22521  0.58490  0.90133  1.0000
  N   N36       1.0  0.23785  0.60867  0.91110  1.0000
  C   C650      1.0  0.07936  0.43782  0.88216  1.0000
  C   C651      1.0  0.19686  0.42860  0.82022  1.0000
  H   H1136     1.0  0.15435  0.52893  0.88604  1.0000
  H   H1137     1.0  0.11245  0.52095  0.90172  1.0000
  C   C652      1.0  0.19993  0.61037  0.92021  1.0000
  C   C653      1.0  0.01527  0.33100  0.89295  1.0000
  S   S159      1.0  0.99981  0.33068  0.79175  1.0000
  H   H1138     1.0  0.26096  0.55174  0.82378  1.0000
  H   H1139     1.0  0.18453  0.60990  0.94985  1.0000
  C   C654      1.0  0.21536  0.41095  0.85832  1.0000
  H   H1140     1.0  0.01332  0.41220  0.83663  1.0000
  C   C655      1.0  0.18351  0.61813  0.93510  1.0000
  C   C656      1.0  0.09730  0.37188  0.75388  1.0000
  H   H1141     1.0  0.08526  0.54608  0.86222  1.0000
  C   C657      1.0  0.00871  0.45532  0.79818  1.0000
  H   H1142     1.0  0.23243  0.40804  0.82214  1.0000
  H   H1143     1.0  0.15005  0.57267  0.92485  1.0000
  H   H1144     1.0  0.15106  0.58677  0.97690  1.0000
  H   H1145     1.0  0.06547  0.43253  0.87938  1.0000
  C   C658      1.0  0.22627  0.39433  0.82893  1.0000
  H   H1146     1.0  0.00079  0.61466  0.87510  1.0000
  H   H1147     1.0  0.01215  0.56533  0.76208  1.0000
  H   H1148     1.0  0.08786  0.34836  0.93614  1.0000
  S   S160      1.0  0.09787  0.35459  0.88771  1.0000
  H   H1149     1.0  0.22059  0.41764  0.89647  1.0000
  H   H1150     1.0  0.14934  0.56902  0.82886  1.0000
  H   H1151     1.0  0.10719  0.55725  0.83598  1.0000
  H   H1152     1.0  0.03545  0.63049  0.96277  1.0000
  C   C659      1.0  0.27055  0.64472  0.78421  1.0000
  H   H1153     1.0  0.25533  0.49213  0.74511  1.0000
  H   H1154     1.0  0.27376  0.58095  0.80368  1.0000
  H   H1155     1.0  0.14021  0.55011  0.81764  1.0000
  C   C660      1.0  0.24343  0.64831  0.80974  1.0000
  H   H1156     1.0  0.19638  0.47383  0.77122  1.0000
  H   H1157     1.0  0.24272  0.39498  0.78896  1.0000
  H   H1158     1.0  0.25912  0.54992  0.90512  1.0000
  H   H1159     1.0  0.24541  0.40585  0.89643  1.0000
  H   H1160     1.0  0.03219  0.41656  0.97263  1.0000
  H   H1161     1.0  0.27835  0.63690  0.77246  1.0000
  C   C661      1.0  0.11715  0.36105  0.75952  1.0000
  C   C662      1.0  0.01449  0.40269  0.85070  1.0000
  C   C663      1.0  0.26051  0.60125  0.93927  1.0000
  H   H1162     1.0  0.26800  0.55358  0.87946  1.0000
  C   C664      1.0  0.27061  0.58030  0.81990  1.0000
  H   H1163     1.0  0.09739  0.42641  0.96745  1.0000
  H   H1164     1.0  0.13030  0.57524  0.81269  1.0000
  H   H1165     1.0  0.09635  0.57005  0.87530  1.0000
  H   H1166     1.0  0.12143  0.36803  0.77184  1.0000
  H   H1167     1.0  0.18858  0.49435  0.78519  1.0000
  C   C665      1.0  0.00476  0.37111  0.87014  1.0000
  H   H1168     1.0  0.17628  0.35292  0.87102  1.0000
  H   H1169     1.0  0.25342  0.37404  0.80395  1.0000
  H   H1170     1.0  0.11845  0.56835  0.88579  1.0000
  H   H1171     1.0  0.20711  0.65719  0.77041  1.0000
  H   H1172     1.0  0.01963  0.62512  0.93152  1.0000
  C   C666      1.0  0.05253  0.33589  0.74799  1.0000
  H   H1173     1.0  0.13201  0.42396  0.97373  1.0000
  H   H1174     1.0  0.01297  0.51852  0.77737  1.0000
  H   H1175     1.0  0.12929  0.57617  0.97605  1.0000
  H   H1176     1.0  0.04220  0.40717  0.93874  1.0000
  H   H1177     1.0  0.08622  0.33152  0.82244  1.0000
  H   H1178     1.0  0.00628  0.37842  0.83817  1.0000
  H   H1179     1.0  0.24929  0.60593  0.95122  1.0000
  C   C667      1.0  0.06943  0.40981  0.95184  1.0000
  C   C668      1.0  0.02623  0.36427  0.93275  1.0000
  S   S161      1.0  0.21465  0.61253  0.74872  1.0000
  C   C669      1.0  0.08220  0.37342  0.77194  1.0000
  H   H1180     1.0  0.12844  0.43983  0.95145  1.0000
  H   H1181     1.0  0.07562  0.40274  0.96534  1.0000
  H   H1182     1.0  0.28443  0.57489  0.82650  1.0000
  H   H1183     1.0  0.09398  0.40975  0.89152  1.0000
  H   H1184     1.0  0.11562  0.41317  0.92757  1.0000
  C   C670      1.0  0.09062  0.38842  0.92907  1.0000
  H   H1185     1.0  0.23183  0.65204  0.95022  1.0000
  C   C671      1.0  0.25143  0.52305  0.74890  1.0000
  H   H1186     1.0  0.14731  0.65537  0.90449  1.0000
  H   H1187     1.0  0.00449  0.37932  0.88309  1.0000
  C   C672      1.0  0.12846  0.42448  0.95841  1.0000
  H   H1188     1.0  0.28699  0.45077  0.76721  1.0000
  H   H1189     1.0  0.07738  0.35892  0.77758  1.0000
  H   H1190     1.0  0.19458  0.35352  0.88768  1.0000
  C   C673      1.0  0.01413  0.65575  0.95964  1.0000
  C   C674      1.0  0.28041  0.60509  0.94479  1.0000
  H   H1191     1.0  0.35427  0.47722  0.75891  1.0000
  H   H1192     1.0  0.28072  0.62093  0.94582  1.0000
  H   H1193     1.0  0.05423  0.38424  0.94889  1.0000
  H   H1194     1.0  0.15129  0.52841  0.98643  1.0000
  C   C675      1.0  0.16117  0.54101  0.77276  1.0000
  H   H1195     1.0  0.16944  0.36351  0.89376  1.0000
  C   C676      1.0  0.10193  0.35283  0.93959  1.0000
  H   H1196     1.0  0.14356  0.59323  0.93895  1.0000
  C   C677      1.0  0.16925  0.55630  0.76019  1.0000
  C   C678      1.0  0.04347  0.35056  0.81473  1.0000
  H   H1197     1.0  0.13282  0.47967  0.77387  1.0000
  C   C679      1.0  0.25610  0.61278  0.91933  1.0000
  H   H1198     1.0  0.07807  0.38244  0.92392  1.0000
  H   H1199     1.0  0.06484  0.42533  0.95459  1.0000
  H   H1200     1.0  0.02708  0.34073  0.89192  1.0000
  C   C680      1.0  0.02760  0.37778  0.79496  1.0000
  H   H1201     1.0  0.10909  0.40201  0.96568  1.0000
  H   H1202     1.0  0.02591  0.39322  0.78975  1.0000
  H   H1203     1.0  0.03047  0.33110  0.97323  1.0000
  H   H1204     1.0  0.08934  0.43871  0.86822  1.0000
  H   H1205     1.0  0.10025  0.43481  0.93268  1.0000
  C   C681      1.0  0.14974  0.63292  0.98597  1.0000
  H   H1206     1.0  0.08328  0.32707  0.78798  1.0000
  H   H1207     1.0  0.06315  0.41330  0.91299  1.0000
  C   C682      1.0  0.08945  0.42385  0.89765  1.0000
  Fe  Fe77      1.0  0.19618  0.63427  0.99298  1.0000
  C   C683      1.0  0.01699  0.34545  0.79664  1.0000
  H   H1208     1.0  0.10221  0.38825  0.91637  1.0000
  H   H1209     1.0  0.01586  0.61378  0.99106  1.0000
  C   C684      1.0  0.27047  0.52089  0.75865  1.0000
  C   C685      1.0  0.10837  0.41716  0.95839  1.0000
  H   H1210     1.0  0.08881  0.37340  0.95930  1.0000
  C   C686      1.0  0.01280  0.61492  0.92377  1.0000
  C   C687      1.0  0.02139  0.63751  0.96852  1.0000
  C   C688      1.0  0.03430  0.34868  0.94519  1.0000
  H   H1211     1.0  0.28287  0.59694  0.95932  1.0000
  H   H1212     1.0  0.22206  0.49761  0.77060  1.0000
  H   H1213     1.0  0.15372  0.55013  0.95522  1.0000
  C   C689      1.0  0.11214  0.52105  0.99128  1.0000
  H   H1214     1.0  0.06286  0.44729  0.78137  1.0000
  H   H1215     1.0  0.27698  0.45623  0.74406  1.0000
  Fe  Fe78      1.0  0.09476  0.33930  0.86110  1.0000
  C   C690      1.0  0.13679  0.56595  0.74909  1.0000
  H   H1216     1.0  0.18377  0.65288  0.90301  1.0000
  C   C691      1.0  0.02947  0.58610  0.94419  1.0000
  H   H1217     1.0  0.16954  0.56927  0.95286  1.0000
  S   S162      1.0  0.22919  0.62889  0.98981  1.0000
  N   N37       1.0  0.08465  0.40906  0.93413  1.0000
  H   H1218     1.0  0.25391  0.58788  0.87727  1.0000
  C   C692      1.0  0.01526  0.36528  0.78943  1.0000
  Fe  Fe79      1.0  0.05709  0.65453  0.92521  1.0000
  H   H1219     1.0  0.02327  0.39408  0.96883  1.0000
  H   H1220     1.0  0.09883  0.38700  0.74702  1.0000
  C   C693      1.0  0.10249  0.41874  0.93723  1.0000
  C   C694      1.0  0.15689  0.56883  0.74839  1.0000
  H   H1221     1.0  0.01728  0.46152  0.74854  1.0000
  H   H1222     1.0  0.05175  0.41927  0.76893  1.0000
  C   C695      1.0  0.09888  0.37363  0.94549  1.0000
  H   H1223     1.0  0.28344  0.52133  0.74735  1.0000
  H   H1224     1.0  0.23669  0.65282  0.86247  1.0000
  C   C696      1.0  0.14541  0.57252  0.97604  1.0000
  H   H1225     1.0  0.03193  0.64289  0.90053  1.0000
  C   C697      1.0  0.14805  0.65066  0.95372  1.0000
  H   H1226     1.0  0.14018  0.41511  0.95032  1.0000
  H   H1227     1.0  0.23882  0.52382  0.76046  1.0000
  H   H1228     1.0  0.27196  0.50693  0.76840  1.0000
  H   H1229     1.0  0.05135  0.44021  0.75072  1.0000
  H   H1230     1.0  0.00132  0.38605  0.92945  1.0000
  H   H1231     1.0  0.01314  0.46007  0.81115  1.0000
  H   H1232     1.0  0.07080  0.42047  0.74830  1.0000
  H   H1233     1.0  0.11028  0.55209  0.99186  1.0000
  C   C698      1.0  0.03671  0.40109  0.96992  1.0000
  H   H1234     1.0  0.20548  0.51617  0.75871  1.0000
  H   H1235     1.0  0.10725  0.34247  0.95188  1.0000
  H   H1236     1.0  0.32007  0.45465  0.75165  1.0000
  H   H1237     1.0  0.26125  0.64531  0.85172  1.0000
  H   H1238     1.0  0.27033  0.53318  0.76761  1.0000
  H   H1239     1.0  0.13863  0.38974  0.74639  1.0000
  C   C699      1.0  0.28892  0.45905  0.75243  1.0000
  H   H1240     1.0  0.04394  0.39319  0.98256  1.0000
  H   H1241     1.0  0.17785  0.54575  0.97878  1.0000
  C   C700      1.0  0.12112  0.54041  0.98622  1.0000
  H   H1242     1.0  0.11374  0.34610  0.76582  1.0000
  C   C701      1.0  0.02048  0.64315  0.89047  1.0000
  H   H1243     1.0  0.14125  0.33402  0.78013  1.0000
  C   C702      1.0  0.17255  0.55369  0.99183  1.0000
  H   H1244     1.0  0.99936  0.65630  0.91143  1.0000
  H   H1245     1.0  0.25772  0.65474  0.94881  1.0000
  H   H1246     1.0  0.00898  0.49007  0.83542  1.0000
  H   H1247     1.0  0.03205  0.36244  0.74508  1.0000
  C   C703      1.0  0.99736  0.36818  0.95721  1.0000
  H   H1248     1.0  0.00906  0.33902  0.85299  1.0000
  Fe  Fe80      1.0  0.21610  0.58061  0.74480  1.0000
  H   H1249     1.0  0.17978  0.56740  0.98922  1.0000
  H   H1250     1.0  0.12224  0.50890  0.98527  1.0000
  H   H1251     1.0  0.36001  0.50126  0.74833  1.0000
  C   C704      1.0  0.99763  0.50192  0.84005  1.0000
  H   H1252     1.0  0.22641  0.47767  0.74455  1.0000
  C   C705      1.0  0.36014  0.48584  0.74529  1.0000
  H   H1253     1.0  0.00590  0.52475  0.81770  1.0000
  C   C706      1.0  0.99744  0.60325  0.88738  1.0000
  H   H1254     1.0  0.00335  0.50940  0.85118  1.0000
  C   C707      1.0  0.99807  0.53989  0.75739  1.0000
  N   N38       1.0  0.13407  0.35994  0.74337  1.0000
  C   C708      1.0  0.99961  0.52930  0.77838  1.0000
  H   H1255     1.0  0.99956  0.49518  0.80202  1.0000
  H   H1256     1.0  0.00055  0.52895  0.74657  1.0000
  H   H1257     1.0  0.20517  0.52547  0.99191  1.0000
  H   H1258     1.0  0.09110  0.36354  0.74386  1.0000
  C   C709      1.0  0.47265  0.79737  0.19139  1.0000
  Fe  Fe81      1.0  0.15503  0.77898  0.20280  1.0000
  S   S163      1.0  0.12248  0.78248  0.19969  1.0000
  S   S164      1.0  0.18236  0.79091  0.18623  1.0000
  C   C710      1.0  0.24758  0.83331  0.02623  1.0000
  H   H1259     1.0  0.26841  0.81993  0.12969  1.0000
  Fe  Fe82      1.0  0.12412  0.74982  0.20953  1.0000
  H   H1260     1.0  0.27242  0.73780  0.17340  1.0000
  H   H1261     1.0  0.11575  0.84010  0.23416  1.0000
  S   S165      1.0  0.15694  0.74650  0.21099  1.0000
  Fe  Fe83      1.0  0.26740  0.75215  0.06342  1.0000
  S   S166      1.0  0.25445  0.78306  0.05488  1.0000
  H   H1262     1.0  0.37253  0.82545  0.14133  1.0000
  Fe  Fe84      1.0  0.27905  0.76398  0.10181  1.0000
  S   S167      1.0  0.26657  0.79535  0.09585  1.0000
  S   S168      1.0  0.28998  0.75550  0.13163  1.0000
  Fe  Fe85      1.0  0.24127  0.78243  0.08642  1.0000
  S   S169      1.0  0.20888  0.79133  0.09486  1.0000
  Fe  Fe86      1.0  0.28098  0.79319  0.06508  1.0000
  S   S170      1.0  0.30228  0.81349  0.04751  1.0000
  S   S171      1.0  0.25266  0.75112  0.09441  1.0000
  S   S172      1.0  0.29509  0.76224  0.07158  1.0000
  H   H1263     1.0  0.24206  0.74723  0.21272  1.0000
  H   H1264     1.0  0.43459  0.87661  0.07691  1.0000
  Fe  Fe87      1.0  0.33280  0.92199  0.01871  1.0000
  S   S173      1.0  0.36316  0.91287  0.02729  1.0000
  S   S174      1.0  0.30608  0.90588  0.03164  1.0000
  Fe  Fe88      1.0  0.36486  0.94459  0.03017  1.0000
  S   S175      1.0  0.37531  0.94819  0.05940  1.0000
  C   C711      1.0  0.36102  0.72268  0.99952  1.0000
  S   S176      1.0  0.33347  0.95354  0.02359  1.0000
  C   C712      1.0  0.46659  0.81056  0.04574  1.0000
  H   H1265     1.0  0.24899  0.85278  0.99944  1.0000
  H   H1266     1.0  0.16522  0.69665  0.16694  1.0000
  Fe  Fe89      1.0  0.46920  0.96168  0.10515  1.0000
  S   S177      1.0  0.46332  0.96897  0.13648  1.0000
  S   S178      1.0  0.45552  0.97573  0.07782  1.0000
  C   C713      1.0  0.20313  0.66713  0.11949  1.0000
  H   H1267     1.0  0.30479  0.69575  0.01992  1.0000
  Fe  Fe90      1.0  0.46366  0.93601  0.14403  1.0000
  S   S179      1.0  0.43824  0.92161  0.16274  1.0000
  C   C714      1.0  0.06254  0.77739  0.23133  1.0000
  S   S180      1.0  0.46799  0.92954  0.11273  1.0000
  Fe  Fe91      1.0  0.37858  0.78524  0.17632  1.0000
  S   S181      1.0  0.37251  0.81595  0.18439  1.0000
  S   S182      1.0  0.37246  0.78027  0.14596  1.0000
  Fe  Fe92      1.0  0.39641  0.76966  0.21429  1.0000
  S   S183      1.0  0.39134  0.79953  0.22515  1.0000
  H   H1268     1.0  0.99976  0.78164  0.23639  1.0000
  Fe  Fe93      1.0  0.36173  0.80157  0.21420  1.0000
  Fe  Fe94      1.0  0.40265  0.81144  0.19449  1.0000
  S   S184      1.0  0.42785  0.83097  0.18768  1.0000
  S   S185      1.0  0.36584  0.77103  0.20536  1.0000
  S   S186      1.0  0.40965  0.78136  0.18441  1.0000
  C   C715      1.0  0.43572  0.89607  0.16738  1.0000
  C   C716      1.0  0.41675  0.88977  0.17047  1.0000
  C   C717      1.0  0.41405  0.86985  0.17598  1.0000
  C   C718      1.0  0.43027  0.85606  0.17920  1.0000
  C   C719      1.0  0.44923  0.86231  0.17584  1.0000
  C   C720      1.0  0.45198  0.88210  0.16970  1.0000
  H   H1269     1.0  0.40407  0.90044  0.16865  1.0000
  H   H1270     1.0  0.39944  0.86525  0.17802  1.0000
  H   H1271     1.0  0.46193  0.85188  0.17831  1.0000
  H   H1272     1.0  0.46663  0.88669  0.16757  1.0000
  C   C721      1.0  0.39773  0.95603  0.06391  1.0000
  C   C722      1.0  0.40948  0.96663  0.04942  1.0000
  C   C723      1.0  0.42712  0.97267  0.05387  1.0000
  C   C724      1.0  0.43328  0.96795  0.07270  1.0000
  C   C725      1.0  0.42172  0.95704  0.08704  1.0000
  C   C726      1.0  0.40394  0.95132  0.08271  1.0000
  H   H1273     1.0  0.40479  0.97046  0.03494  1.0000
  H   H1274     1.0  0.45375  0.83450  0.99824  1.0000
  H   H1275     1.0  0.42625  0.95336  0.10161  1.0000
  H   H1276     1.0  0.39494  0.94317  0.09402  1.0000
  C   C727      1.0  0.31313  0.76190  0.13554  1.0000
  C   C728      1.0  0.32778  0.76502  0.11994  1.0000
  C   C729      1.0  0.34612  0.77002  0.12351  1.0000
  C   C730      1.0  0.34969  0.77267  0.14251  1.0000
  C   C731      1.0  0.33504  0.76957  0.15813  1.0000
  C   C732      1.0  0.31694  0.76386  0.15467  1.0000
  H   H1277     1.0  0.32508  0.76328  0.10519  1.0000
  H   H1278     1.0  0.35755  0.77206  0.11146  1.0000
  H   H1279     1.0  0.33772  0.77137  0.17286  1.0000
  H   H1280     1.0  0.30584  0.76102  0.16682  1.0000
  C   C733      1.0  0.30308  0.83926  0.04437  1.0000
  C   C734      1.0  0.28735  0.85241  0.05109  1.0000
  C   C735      1.0  0.28850  0.87278  0.04723  1.0000
  C   C736      1.0  0.30553  0.88019  0.03711  1.0000
  C   C737      1.0  0.32144  0.86702  0.03103  1.0000
  C   C738      1.0  0.32006  0.84671  0.03423  1.0000
  H   H1281     1.0  0.27416  0.84695  0.05889  1.0000
  H   H1282     1.0  0.27610  0.88289  0.05206  1.0000
  H   H1283     1.0  0.33455  0.87263  0.02333  1.0000
  H   H1284     1.0  0.33221  0.83668  0.02873  1.0000
  H   H1285     1.0  0.23055  0.68010  0.10989  1.0000
  C   C739      1.0  0.41272  0.71164  0.21839  1.0000
  H   H1286     1.0  0.40430  0.71991  0.20732  1.0000
  C   C740      1.0  0.18918  0.79076  0.16077  1.0000
  C   C741      1.0  0.20922  0.78994  0.15369  1.0000
  C   C742      1.0  0.21538  0.78970  0.13358  1.0000
  C   C743      1.0  0.20145  0.79124  0.12024  1.0000
  C   C744      1.0  0.18132  0.79272  0.12720  1.0000
  C   C745      1.0  0.17519  0.79220  0.14747  1.0000
  H   H1287     1.0  0.22006  0.78959  0.16376  1.0000
  H   H1288     1.0  0.23091  0.78876  0.12836  1.0000
  H   H1289     1.0  0.17049  0.79430  0.11688  1.0000
  H   H1290     1.0  0.15971  0.79340  0.15280  1.0000
  H   H1291     1.0  0.27877  0.82527  0.15105  1.0000
  C   C746      1.0  0.42910  0.68038  0.23211  1.0000
  C   C747      1.0  0.47699  0.75595  0.12060  1.0000
  H   H1292     1.0  0.27686  0.80026  0.14722  1.0000
  H   H1293     1.0  0.48742  0.79081  0.12334  1.0000
  H   H1294     1.0  0.44652  0.79153  0.03954  1.0000
  H   H1295     1.0  0.14109  0.74740  0.11862  1.0000
  C   C748      1.0  0.43090  0.88311  0.10703  1.0000
  C   C749      1.0  0.19888  0.69977  0.00571  1.0000
  H   H1296     1.0  0.41398  0.68415  0.20615  1.0000
  H   H1297     1.0  0.13950  0.67800  0.14246  1.0000
  H   H1298     1.0  0.18622  0.71426  0.12491  1.0000
  C   C750      1.0  0.13078  0.75685  0.14717  1.0000
  H   H1299     1.0  0.19187  0.71443  0.00921  1.0000
  H   H1300     1.0  0.36763  0.89762  0.20132  1.0000
  H   H1301     1.0  0.38128  0.77486  0.03943  1.0000
  H   H1302     1.0  0.99843  0.68714  0.01403  1.0000
  H   H1303     1.0  0.48817  0.88951  0.12132  1.0000
  H   H1304     1.0  0.31039  0.89042  0.07637  1.0000
  H   H1305     1.0  0.22784  0.76676  0.23801  1.0000
  H   H1306     1.0  0.45796  0.77107  0.14219  1.0000
  H   H1307     1.0  0.44403  0.78917  0.20486  1.0000
  H   H1308     1.0  0.36035  0.84257  0.21679  1.0000
  H   H1309     1.0  0.40660  0.93412  0.02596  1.0000
  H   H1310     1.0  0.04036  0.69460  0.17405  1.0000
  C   C751      1.0  0.44948  0.81062  0.14038  1.0000
  H   H1311     1.0  0.28727  0.82825  0.01130  1.0000
  C   C752      1.0  0.17515  0.72660  0.12087  1.0000
  C   C753      1.0  0.46339  0.89009  0.04667  1.0000
  H   H1312     1.0  0.43556  0.84040  0.14328  1.0000
  C   C754      1.0  0.02901  0.68419  0.17742  1.0000
  H   H1313     1.0  0.03891  0.82034  0.22099  1.0000
  H   H1314     1.0  0.13962  0.71361  0.13393  1.0000
  C   C755      1.0  0.44910  0.90303  0.07869  1.0000
  C   C756      1.0  0.14871  0.71579  0.14563  1.0000
  C   C757      1.0  0.33165  0.78258  0.01525  1.0000
  H   H1315     1.0  0.10842  0.78127  0.15153  1.0000
  H   H1316     1.0  0.46031  0.93685  0.06033  1.0000
  H   H1317     1.0  0.01822  0.67305  0.05973  1.0000
  H   H1318     1.0  0.46790  0.74353  0.12219  1.0000
  H   H1319     1.0  0.39096  0.92177  0.20073  1.0000
  C   C758      1.0  0.31861  0.69886  0.02511  1.0000
  H   H1320     1.0  0.02049  0.68145  0.11091  1.0000
  H   H1321     1.0  0.16682  0.72110  0.11019  1.0000
  H   H1322     1.0  0.07028  0.78931  0.22271  1.0000
  H   H1323     1.0  0.39581  0.79710  0.99996  1.0000
  H   H1324     1.0  0.42744  0.92740  0.05646  1.0000
  S   S187      1.0  0.48945  0.82754  0.09382  1.0000
  H   H1325     1.0  0.20107  0.81852  0.20530  1.0000
  H   H1326     1.0  0.43065  0.83972  0.23282  1.0000
  H   H1327     1.0  0.33259  0.72349  0.03078  1.0000
  H   H1328     1.0  0.45886  0.80442  0.01822  1.0000
  H   H1329     1.0  0.47323  0.82394  0.03911  1.0000
  H   H1330     1.0  0.14132  0.67605  0.07890  1.0000
  C   C759      1.0  0.25528  0.70031  0.02420  1.0000
  C   C760      1.0  0.32230  0.75284  0.00158  1.0000
  N   N39       1.0  0.41847  0.81935  0.01948  1.0000
  C   C761      1.0  0.48816  0.77282  0.00974  1.0000
  C   C762      1.0  0.25503  0.69616  0.05944  1.0000
  C   C763      1.0  0.36644  0.88696  0.23283  1.0000
  H   H1331     1.0  0.42140  0.78772  0.02355  1.0000
  H   H1332     1.0  0.27119  0.82001  0.99666  1.0000
  C   C764      1.0  0.47371  0.78652  0.17283  1.0000
  C   C765      1.0  0.43771  0.92381  0.02614  1.0000
  H   H1333     1.0  0.49108  0.66146  0.23215  1.0000
  S   S188      1.0  0.37774  0.95204  0.99882  1.0000
  H   H1334     1.0  0.39238  0.83606  0.00902  1.0000
  H   H1335     1.0  0.00803  0.70520  0.19124  1.0000
  C   C766      1.0  0.26947  0.78461  0.21378  1.0000
  C   C767      1.0  0.27797  0.79311  0.19316  1.0000
  C   C768      1.0  0.04005  0.78350  0.23485  1.0000
  H   H1336     1.0  0.48721  0.91287  0.07649  1.0000
  C   C769      1.0  0.45261  0.76448  0.99664  1.0000
  H   H1337     1.0  0.00665  0.70495  0.16563  1.0000
  C   C770      1.0  0.29742  0.80141  0.19397  1.0000
  H   H1338     1.0  0.42529  0.90399  0.04960  1.0000
  H   H1339     1.0  0.48246  0.67838  0.21230  1.0000
  H   H1340     1.0  0.32908  0.86059  0.21297  1.0000
  H   H1341     1.0  0.16845  0.66722  0.10032  1.0000
  H   H1342     1.0  0.26747  0.74974  0.20640  1.0000
  C   C771      1.0  0.04554  0.85459  0.23335  1.0000
  H   H1343     1.0  0.16105  0.68541  0.06172  1.0000
  H   H1344     1.0  0.14548  0.66917  0.05429  1.0000
  H   H1345     1.0  0.43661  0.80453  0.99659  1.0000
  H   H1346     1.0  0.28098  0.77316  0.21905  1.0000
  H   H1347     1.0  0.26770  0.80509  0.18677  1.0000
  H   H1348     1.0  0.28113  0.78145  0.18327  1.0000
  H   H1349     1.0  0.02831  0.66964  0.02797  1.0000
  H   H1350     1.0  0.40077  0.84902  0.21686  1.0000
  C   C772      1.0  0.38357  0.91582  0.21506  1.0000
  H   H1351     1.0  0.23242  0.76187  0.18243  1.0000
  H   H1352     1.0  0.34422  0.85699  0.99362  1.0000
  H   H1353     1.0  0.25554  0.77131  0.17407  1.0000
  H   H1354     1.0  0.41357  0.91038  0.01732  1.0000
  H   H1355     1.0  0.18879  0.66991  0.08194  1.0000
  H   H1356     1.0  0.39804  0.76463  0.02018  1.0000
  H   H1357     1.0  0.29521  0.81360  0.20337  1.0000
  H   H1358     1.0  0.30850  0.78986  0.19986  1.0000
  H   H1359     1.0  0.30341  0.80709  0.17897  1.0000
  S   S189      1.0  0.10889  0.73244  0.19033  1.0000
  H   H1360     1.0  0.21553  0.72317  0.17685  1.0000
  H   H1361     1.0  0.30680  0.75985  0.00191  1.0000
  H   H1362     1.0  0.33639  0.88997  0.07849  1.0000
  C   C773      1.0  0.34356  0.86604  0.18383  1.0000
  H   H1363     1.0  0.25737  0.70162  0.07289  1.0000
  H   H1364     1.0  0.37924  0.80742  0.01919  1.0000
  H   H1365     1.0  0.34462  0.85040  0.18137  1.0000
  H   H1366     1.0  0.33018  0.87369  0.17767  1.0000
  H   H1367     1.0  0.31843  0.90363  0.09424  1.0000
  C   C774      1.0  0.39209  0.79649  0.01609  1.0000
  H   H1368     1.0  0.17184  0.69095  0.14197  1.0000
  C   C775      1.0  0.47381  0.76589  0.13948  1.0000
  H   H1369     1.0  0.41841  0.87416  0.11131  1.0000
  C   C776      1.0  0.43349  0.82181  0.03291  1.0000
  N   N40       1.0  0.32293  0.73084  0.00172  1.0000
  H   H1370     1.0  0.36367  0.85170  0.02846  1.0000
  H   H1371     1.0  0.21263  0.83884  0.21088  1.0000
  H   H1372     1.0  0.43597  0.98113  0.04271  1.0000
  N   N41       1.0  0.32513  0.83411  0.10574  1.0000
  C   C777      1.0  0.32502  0.85293  0.09215  1.0000
  C   C778      1.0  0.32964  0.81675  0.09397  1.0000
  C   C779      1.0  0.30459  0.83331  0.11634  1.0000
  C   C780      1.0  0.33921  0.83310  0.12106  1.0000
  C   C781      1.0  0.36093  0.83590  0.11358  1.0000
  C   C782      1.0  0.32035  0.87213  0.10207  1.0000
  C   C783      1.0  0.30038  0.81350  0.12845  1.0000
  C   C784      1.0  0.34508  0.81837  0.07567  1.0000
  C   C785      1.0  0.35061  0.79863  0.06758  1.0000
  C   C786      1.0  0.37244  0.83863  0.13043  1.0000
  C   C787      1.0  0.32150  0.89005  0.08683  1.0000
  C   C788      1.0  0.27983  0.81494  0.13978  1.0000
  H   H1373     1.0  0.31414  0.85311  0.08140  1.0000
  H   H1374     1.0  0.33933  0.85401  0.08303  1.0000
  H   H1375     1.0  0.33436  0.80346  0.10360  1.0000
  H   H1376     1.0  0.31605  0.81356  0.08820  1.0000
  H   H1377     1.0  0.29342  0.83670  0.10564  1.0000
  H   H1378     1.0  0.30122  0.84466  0.12671  1.0000
  H   H1379     1.0  0.33376  0.84391  0.13170  1.0000
  H   H1380     1.0  0.33977  0.81863  0.13008  1.0000
  H   H1381     1.0  0.36231  0.84884  0.10259  1.0000
  H   H1382     1.0  0.36821  0.82255  0.10723  1.0000
  H   H1383     1.0  0.30525  0.87324  0.10988  1.0000
  H   H1384     1.0  0.33104  0.87296  0.11264  1.0000
  H   H1385     1.0  0.31107  0.80876  0.13928  1.0000
  H   H1386     1.0  0.30107  0.80181  0.11867  1.0000
  H   H1387     1.0  0.33879  0.82869  0.06398  1.0000
  H   H1388     1.0  0.35872  0.82383  0.07855  1.0000
  H   H1389     1.0  0.33723  0.79192  0.06558  1.0000
  H   H1390     1.0  0.35942  0.80078  0.05310  1.0000
  H   H1391     1.0  0.35945  0.78847  0.07767  1.0000
  H   H1392     1.0  0.36592  0.85170  0.13777  1.0000
  H   H1393     1.0  0.38793  0.84068  0.12468  1.0000
  H   H1394     1.0  0.45860  0.78317  0.17148  1.0000
  H   H1395     1.0  0.21475  0.72591  0.10320  1.0000
  H   H1396     1.0  0.41999  0.93212  0.00197  1.0000
  H   H1397     1.0  0.45197  0.80115  0.12830  1.0000
  H   H1398     1.0  0.40931  0.85049  0.01576  1.0000
  H   H1399     1.0  0.19794  0.72651  0.08481  1.0000
  H   H1400     1.0  0.31688  0.79061  0.01373  1.0000
  C   C789      1.0  0.24305  0.77121  0.23646  1.0000
  H   H1401     1.0  0.33742  0.78760  0.02787  1.0000
  H   H1402     1.0  0.21042  0.74757  0.08635  1.0000
  H   H1403     1.0  0.13621  0.75785  0.16145  1.0000
  H   H1404     1.0  0.19256  0.75167  0.11944  1.0000
  H   H1405     1.0  0.47522  0.85831  0.11810  1.0000
  H   H1406     1.0  0.99845  0.68112  0.09942  1.0000
  H   H1407     1.0  0.22357  0.80855  0.23091  1.0000
  H   H1408     1.0  0.44229  0.93883  0.02462  1.0000
  H   H1409     1.0  0.44426  0.91687  0.08549  1.0000
  H   H1410     1.0  0.03967  0.66065  0.08732  1.0000
  H   H1411     1.0  0.42359  0.82658  0.12871  1.0000
  H   H1412     1.0  0.35919  0.88711  0.99676  1.0000
  H   H1413     1.0  0.11460  0.69531  0.21622  1.0000
  C   C790      1.0  0.23434  0.79089  0.20644  1.0000
  H   H1414     1.0  0.42841  0.89598  0.11556  1.0000
  H   H1415     1.0  0.34173  0.78623  0.00182  1.0000
  H   H1416     1.0  0.21817  0.68697  0.13297  1.0000
  H   H1417     1.0  0.34494  0.75325  0.02191  1.0000
  C   C791      1.0  0.34194  0.86805  0.20577  1.0000
  C   C792      1.0  0.45137  0.80588  0.03317  1.0000
  H   H1418     1.0  0.35662  0.87266  0.17593  1.0000
  N   N42       1.0  0.45425  0.90765  0.05686  1.0000
  S   S190      1.0  0.26636  0.73152  0.03991  1.0000
  H   H1419     1.0  0.44461  0.87411  0.11087  1.0000
  N   N43       1.0  0.25001  0.77629  0.21502  1.0000
  C   C793      1.0  0.24856  0.75927  0.18327  1.0000
  C   C794      1.0  0.20022  0.73017  0.17617  1.0000
  C   C795      1.0  0.20341  0.73520  0.09510  1.0000
  H   H1420     1.0  0.19090  0.72395  0.18915  1.0000
  C   C796      1.0  0.18648  0.74325  0.10938  1.0000
  H   H1421     1.0  0.15634  0.76272  0.12726  1.0000
  H   H1422     1.0  0.17397  0.75289  0.15326  1.0000
  H   H1423     1.0  0.17646  0.75361  0.10059  1.0000
  H   H1424     1.0  0.20010  0.74617  0.17671  1.0000
  H   H1425     1.0  0.11426  0.77639  0.12629  1.0000
  H   H1426     1.0  0.25197  0.74160  0.15898  1.0000
  C   C797      1.0  0.41825  0.92517  0.01735  1.0000
  H   H1427     1.0  0.08956  0.71604  0.16263  1.0000
  C   C798      1.0  0.17195  0.73706  0.15496  1.0000
  C   C799      1.0  0.19279  0.72617  0.15725  1.0000
  C   C800      1.0  0.12057  0.77691  0.14023  1.0000
  H   H1428     1.0  0.13105  0.78817  0.13801  1.0000
  H   H1429     1.0  0.16268  0.73470  0.16928  1.0000
  H   H1430     1.0  0.38392  0.82514  0.04633  1.0000
  C   C801      1.0  0.40273  0.83650  0.02011  1.0000
  H   H1431     1.0  0.24756  0.67571  0.01115  1.0000
  C   C802      1.0  0.14782  0.74997  0.13183  1.0000
  H   H1432     1.0  0.25774  0.70914  0.01028  1.0000
  C   C803      1.0  0.43544  0.91556  0.04813  1.0000
  H   H1433     1.0  0.39988  0.84240  0.05103  1.0000
  C   C804      1.0  0.10723  0.69269  0.20399  1.0000
  H   H1434     1.0  0.11937  0.74652  0.14939  1.0000
  C   C805      1.0  0.10272  0.70815  0.18965  1.0000
  H   H1435     1.0  0.15575  0.83292  0.23082  1.0000
  C   C806      1.0  0.22196  0.67467  0.12376  1.0000
  N   N44       1.0  0.16135  0.73218  0.13854  1.0000
  C   C807      1.0  0.37381  0.85518  0.03850  1.0000
  H   H1436     1.0  0.37375  0.86111  0.20420  1.0000
  C   C808      1.0  0.09257  0.66986  0.18675  1.0000
  H   H1437     1.0  0.26425  0.85748  0.01745  1.0000
  H   H1438     1.0  0.20354  0.73125  0.14493  1.0000
  H   H1439     1.0  0.19308  0.71015  0.15748  1.0000
  H   H1440     1.0  0.47801  0.75717  0.03722  1.0000
  C   C809      1.0  0.36081  0.85873  0.21507  1.0000
  C   C810      1.0  0.48874  0.86200  0.10954  1.0000
  C   C811      1.0  0.09314  0.70428  0.17385  1.0000
  H   H1441     1.0  0.30490  0.69805  0.05534  1.0000
  H   H1442     1.0  0.13805  0.71963  0.15839  1.0000
  C   C812      1.0  0.41819  0.69136  0.21779  1.0000
  H   H1443     1.0  0.40550  0.86820  0.23075  1.0000
  H   H1444     1.0  0.43893  0.83647  0.02945  1.0000
  H   H1445     1.0  0.37966  0.86926  0.03268  1.0000
  H   H1446     1.0  0.36389  0.73785  0.00057  1.0000
  C   C813      1.0  0.25808  0.70787  0.04157  1.0000
  S   S191      1.0  0.33166  0.81292  0.22840  1.0000
  H   H1447     1.0  0.36539  0.85690  0.05307  1.0000
  H   H1448     1.0  0.42661  0.82141  0.04836  1.0000
  C   C814      1.0  0.39054  0.83870  0.04031  1.0000
  S   S192      1.0  0.49611  0.93247  0.14727  1.0000
  H   H1449     1.0  0.33874  0.88381  0.20779  1.0000
  C   C815      1.0  0.46770  0.92372  0.05346  1.0000
  H   H1450     1.0  0.01896  0.69313  0.08628  1.0000
  H   H1451     1.0  0.41792  0.89796  0.08208  1.0000
  H   H1452     1.0  0.44638  0.83618  0.11876  1.0000
  H   H1453     1.0  0.21426  0.69779  0.00943  1.0000
  C   C816      1.0  0.40069  0.85337  0.23174  1.0000
  H   H1454     1.0  0.47239  0.89503  0.03282  1.0000
  C   C817      1.0  0.15954  0.69575  0.15274  1.0000
  C   C818      1.0  0.48825  0.91862  0.06079  1.0000
  H   H1455     1.0  0.47739  0.75450  0.15168  1.0000
  C   C819      1.0  0.38581  0.77619  0.02339  1.0000
  C   C820      1.0  0.40998  0.80024  0.02620  1.0000
  H   H1456     1.0  0.45185  0.88229  0.04193  1.0000
  C   C821      1.0  0.01475  0.68046  0.09676  1.0000
  H   H1457     1.0  0.45989  0.81252  0.06094  1.0000
  S   S193      1.0  0.41102  0.74631  0.23571  1.0000
  H   H1458     1.0  0.40579  0.79867  0.04235  1.0000
  C   C822      1.0  0.41805  0.72110  0.23343  1.0000
  H   H1459     1.0  0.35213  0.89632  0.23478  1.0000
  C   C823      1.0  0.42762  0.81877  0.99852  1.0000
  C   C824      1.0  0.31780  0.69066  0.04672  1.0000
  C   C825      1.0  0.25610  0.74036  0.17417  1.0000
  H   H1460     1.0  0.13333  0.68336  0.16759  1.0000
  H   H1461     1.0  0.44877  0.91454  0.01729  1.0000
  C   C826      1.0  0.43234  0.88972  0.08501  1.0000
  H   H1462     1.0  0.46213  0.89634  0.08601  1.0000
  H   H1463     1.0  0.26854  0.79614  0.22388  1.0000
  H   H1464     1.0  0.47859  0.79830  0.04643  1.0000
  C   C827      1.0  0.01626  0.66123  0.02555  1.0000
  H   H1465     1.0  0.08078  0.68270  0.16014  1.0000
  C   C828      1.0  0.47637  0.87412  0.05843  1.0000
  C   C829      1.0  0.08812  0.68532  0.17238  1.0000
  H   H1466     1.0  0.47680  0.82266  0.13382  1.0000
  C   C830      1.0  0.47470  0.76237  0.02246  1.0000
  H   H1467     1.0  0.49112  0.94822  0.06689  1.0000
  H   H1468     1.0  0.37327  0.77363  0.01578  1.0000
  H   H1469     1.0  0.04092  0.85688  0.21833  1.0000
  C   C831      1.0  0.43810  0.82966  0.13233  1.0000
  C   C832      1.0  0.21532  0.82475  0.20433  1.0000
  H   H1470     1.0  0.48756  0.79664  0.19621  1.0000
  C   C833      1.0  0.24663  0.66955  0.04248  1.0000
  H   H1471     1.0  0.44711  0.74971  0.02579  1.0000
  H   H1472     1.0  0.30370  0.85783  0.99984  1.0000
  H   H1473     1.0  0.46476  0.77232  0.21208  1.0000
  C   C834      1.0  0.23006  0.81067  0.21541  1.0000
  C   C835      1.0  0.10216  0.67373  0.20254  1.0000
  H   H1474     1.0  0.46616  0.82495  0.15795  1.0000
  H   H1475     1.0  0.46694  0.86478  0.06887  1.0000
  C   C836      1.0  0.32038  0.72117  0.02255  1.0000
  Fe  Fe95      1.0  0.11773  0.78692  0.23194  1.0000
  C   C837      1.0  0.14563  0.67975  0.15621  1.0000
  H   H1476     1.0  0.03336  0.77008  0.24133  1.0000
  H   H1477     1.0  0.32007  0.75795  0.03257  1.0000
  H   H1478     1.0  0.30693  0.72828  0.03059  1.0000
  N   N45       1.0  0.48267  0.79671  0.15380  1.0000
  H   H1479     1.0  0.06184  0.85164  0.23238  1.0000
  H   H1480     1.0  0.44003  0.80379  0.15288  1.0000
  H   H1481     1.0  0.47607  0.68394  0.23720  1.0000
  H   H1482     1.0  0.08301  0.75571  0.21730  1.0000
  H   H1483     1.0  0.24963  0.72765  0.18283  1.0000
  C   C838      1.0  0.45716  0.75812  0.01589  1.0000
  C   C839      1.0  0.15285  0.67251  0.06673  1.0000
  H   H1484     1.0  0.22017  0.78425  0.20784  1.0000
  H   H1485     1.0  0.45941  0.79575  0.22165  1.0000
  H   H1486     1.0  0.23524  0.84262  0.03356  1.0000
  H   H1487     1.0  0.47071  0.92863  0.03758  1.0000
  C   C840      1.0  0.46932  0.81445  0.14677  1.0000
  C   C841      1.0  0.24957  0.67707  0.05984  1.0000
  C   C842      1.0  0.45943  0.78800  0.20850  1.0000
  H   H1488     1.0  0.39419  0.91463  0.22614  1.0000
  H   H1489     1.0  0.03449  0.78721  0.22022  1.0000
  H   H1490     1.0  0.37056  0.92619  0.21927  1.0000
  H   H1491     1.0  0.25725  0.82643  0.03749  1.0000
  C   C843      1.0  0.24944  0.68137  0.02465  1.0000
  C   C844      1.0  0.48790  0.67722  0.22693  1.0000
  C   C845      1.0  0.02338  0.66117  0.08889  1.0000
  C   C846      1.0  0.25248  0.75760  0.20511  1.0000
  H   H1492     1.0  0.03046  0.67480  0.16527  1.0000
  H   H1493     1.0  0.33134  0.69082  0.01697  1.0000
  H   H1494     1.0  0.48612  0.88026  0.06708  1.0000
  H   H1495     1.0  0.23810  0.79465  0.19049  1.0000
  H   H1496     1.0  0.46699  0.81298  0.18862  1.0000
  C   C847      1.0  0.48938  0.86101  0.04464  1.0000
  H   H1497     1.0  0.24138  0.82167  0.01997  1.0000
  H   H1498     1.0  0.36066  0.71422  0.01423  1.0000
  H   H1499     1.0  0.49271  0.75020  0.11743  1.0000
  C   C848      1.0  0.48728  0.78260  0.13828  1.0000
  H   H1500     1.0  0.22105  0.82773  0.18863  1.0000
  H   H1501     1.0  0.39070  0.88634  0.20829  1.0000
  C   C849      1.0  0.33026  0.76055  0.01897  1.0000
  H   H1502     1.0  0.33150  0.69270  0.05285  1.0000
  H   H1503     1.0  0.24366  0.81793  0.21471  1.0000
  Fe  Fe96      1.0  0.49668  0.96491  0.13690  1.0000
  C   C850      1.0  0.37735  0.89573  0.21323  1.0000
  C   C851      1.0  0.25917  0.84585  0.01018  1.0000
  C   C852      1.0  0.00847  0.69550  0.17950  1.0000
  H   H1504     1.0  0.06120  0.76292  0.20519  1.0000
  H   H1505     1.0  0.19432  0.67963  0.11193  1.0000
  H   H1506     1.0  0.24785  0.66797  0.07367  1.0000
  H   H1507     1.0  0.03192  0.67485  0.19124  1.0000
  H   H1508     1.0  0.15371  0.66558  0.16143  1.0000
  S   S194      1.0  0.14984  0.78636  0.23388  1.0000
  C   C853      1.0  0.04240  0.81810  0.23650  1.0000
  H   H1509     1.0  0.11117  0.87451  0.24228  1.0000
  H   H1510     1.0  0.05870  0.81608  0.23571  1.0000
  H   H1511     1.0  0.06021  0.74680  0.22797  1.0000
  H   H1512     1.0  0.17687  0.84528  0.23284  1.0000
  C   C854      1.0  0.49606  0.87965  0.11134  1.0000
  H   H1513     1.0  0.49610  0.84789  0.05326  1.0000
  H   H1514     1.0  0.19487  0.66254  0.13380  1.0000
  Fe  Fe97      1.0  0.37354  0.92094  0.99571  1.0000
  C   C855      1.0  0.27696  0.83339  0.00007  1.0000
  H   H1515     1.0  0.29159  0.73090  0.00072  1.0000
  S   S195      1.0  0.11721  0.75460  0.24152  1.0000
  C   C856      1.0  0.06686  0.75963  0.21974  1.0000
  H   H1516     1.0  0.19071  0.68844  0.01494  1.0000
  H   H1517     1.0  0.48063  0.85613  0.03404  1.0000
  H   H1518     1.0  0.47249  0.76648  0.10807  1.0000
  H   H1519     1.0  0.48243  0.77213  0.17628  1.0000
  H   H1520     1.0  0.00677  0.81437  0.23612  1.0000
  N   N46       1.0  0.36325  0.86552  0.23450  1.0000
  H   H1521     1.0  0.10571  0.66196  0.21377  1.0000
  H   H1522     1.0  0.25829  0.74107  0.24054  1.0000
  H   H1523     1.0  0.31620  0.67476  0.04820  1.0000
  H   H1524     1.0  0.17827  0.81902  0.23792  1.0000
  C   C857      1.0  0.16847  0.83289  0.23929  1.0000
  Fe  Fe98      1.0  0.14991  0.75419  0.24196  1.0000
  H   H1525     1.0  0.23127  0.66288  0.13181  1.0000
  H   H1526     1.0  0.39238  0.71414  0.99331  1.0000
  H   H1527     1.0  0.33192  0.87220  0.24267  1.0000
  C   C858      1.0  0.41622  0.83951  0.24200  1.0000
  H   H1528     1.0  0.04110  0.86825  0.24046  1.0000
  H   H1529     1.0  0.02367  0.84959  0.28993  1.0000
  H   H1530     1.0  0.10690  0.77323  0.28767  1.0000
  Fe  Fe99      1.0  0.18873  0.93498  0.42490  1.0000
  S   S196      1.0  0.15863  0.92730  0.42213  1.0000
  S   S197      1.0  0.21620  0.91804  0.41082  1.0000
  Fe  Fe100     1.0  0.17263  0.97091  0.44749  1.0000
  S   S198      1.0  0.14128  0.96553  0.44581  1.0000
  N   N47       1.0  0.24130  0.97631  0.44004  1.0000
  Fe  Fe101     1.0  0.15225  0.93396  0.45346  1.0000
  H   H1531     1.0  0.30612  0.77050  0.30409  1.0000
  Fe  Fe102     1.0  0.15085  0.95942  0.41462  1.0000
  S   S199      1.0  0.13653  0.97109  0.38713  1.0000
  S   S200      1.0  0.18300  0.93946  0.45703  1.0000
  S   S201      1.0  0.18144  0.96707  0.41546  1.0000
  Fe  Fe103     1.0  0.02508  0.91175  0.32084  1.0000
  S   S202      1.0  0.03181  0.92285  0.28919  1.0000
  C   C859      1.0  0.03607  0.81612  0.33885  1.0000
  Fe  Fe104     1.0  0.06131  0.92506  0.33327  1.0000
  S   S203      1.0  0.07082  0.93821  0.30268  1.0000
  S   S204      1.0  0.07532  0.92040  0.36164  1.0000
  Fe  Fe105     1.0  0.03860  0.94960  0.30141  1.0000
  S   S205      1.0  0.02521  0.97899  0.28737  1.0000
  Fe  Fe106     1.0  0.06309  0.91021  0.29305  1.0000
  H   H1532     1.0  0.02305  0.88141  0.30297  1.0000
  S   S206      1.0  0.03012  0.93894  0.33283  1.0000
  S   S207      1.0  0.05544  0.89665  0.32375  1.0000
  Fe  Fe107     1.0  0.23626  0.79455  0.32357  1.0000
  S   S208      1.0  0.24569  0.82393  0.32670  1.0000
  S   S209      1.0  0.22075  0.79687  0.29617  1.0000
  Fe  Fe108     1.0  0.25629  0.77462  0.35931  1.0000
  S   S210      1.0  0.26639  0.80295  0.36475  1.0000
  S   S211      1.0  0.26854  0.75055  0.38156  1.0000
  Fe  Fe109     1.0  0.23626  0.81720  0.35896  1.0000
  S   S212      1.0  0.21390  0.83571  0.37850  1.0000
  Fe  Fe110     1.0  0.27484  0.80685  0.33211  1.0000
  S   S213      1.0  0.30610  0.81235  0.31997  1.0000
  S   S214      1.0  0.22531  0.78848  0.35555  1.0000
  S   S215      1.0  0.26610  0.77801  0.32695  1.0000
  H   H1533     1.0  0.14112  0.78057  0.27727  1.0000
  H   H1534     1.0  0.29537  0.73648  0.31887  1.0000
  C   C860      1.0  0.37034  0.76205  0.30298  1.0000
  H   H1535     1.0  0.31790  0.67992  0.35510  1.0000
  H   H1536     1.0  0.35102  0.87899  0.27124  1.0000
  C   C861      1.0  0.31081  0.73855  0.31256  1.0000
  H   H1537     1.0  0.20971  0.77947  0.47080  1.0000
  C   C862      1.0  0.31315  0.81105  0.29464  1.0000
  C   C863      1.0  0.29907  0.81210  0.28150  1.0000
  C   C864      1.0  0.30500  0.81220  0.26126  1.0000
  H   H1538     1.0  0.32437  0.78629  0.35862  1.0000
  C   C865      1.0  0.33919  0.80882  0.26727  1.0000
  C   C866      1.0  0.33323  0.80939  0.28746  1.0000
  H   H1539     1.0  0.28356  0.81343  0.28686  1.0000
  H   H1540     1.0  0.30279  0.77715  0.37269  1.0000
  H   H1541     1.0  0.23148  0.77329  0.39684  1.0000
  H   H1542     1.0  0.34420  0.80868  0.29754  1.0000
  C   C867      1.0  0.15164  0.86675  0.44860  1.0000
  C   C868      1.0  0.15196  0.88488  0.45559  1.0000
  C   C869      1.0  0.13747  0.89113  0.47021  1.0000
  H   H1543     1.0  0.37452  0.77723  0.30032  1.0000
  H   H1544     1.0  0.16255  0.86216  0.43695  1.0000
  H   H1545     1.0  0.16332  0.89404  0.44955  1.0000
  C   C870      1.0  0.21510  0.89557  0.40113  1.0000
  C   C871      1.0  0.23181  0.88702  0.39013  1.0000
  C   C872      1.0  0.23166  0.86889  0.38277  1.0000
  C   C873      1.0  0.21479  0.85901  0.38651  1.0000
  C   C874      1.0  0.19803  0.86764  0.39736  1.0000
  C   C875      1.0  0.19812  0.88584  0.40454  1.0000
  H   H1546     1.0  0.24502  0.89439  0.38739  1.0000
  H   H1547     1.0  0.24467  0.86242  0.37447  1.0000
  H   H1548     1.0  0.18494  0.86009  0.40047  1.0000
  H   H1549     1.0  0.18524  0.89201  0.41320  1.0000
  C   C876      1.0  0.11935  0.95714  0.38015  1.0000
  C   C877      1.0  0.11400  0.96048  0.36097  1.0000
  C   C878      1.0  0.10014  0.94964  0.35511  1.0000
  C   C879      1.0  0.09187  0.93518  0.36839  1.0000
  C   C880      1.0  0.09735  0.93176  0.38751  1.0000
  C   C881      1.0  0.11097  0.94277  0.39342  1.0000
  H   H1550     1.0  0.12073  0.97138  0.35059  1.0000
  H   H1551     1.0  0.09616  0.95218  0.34028  1.0000
  H   H1552     1.0  0.09106  0.92052  0.39781  1.0000
  H   H1553     1.0  0.11502  0.94009  0.40823  1.0000
  C   C882      1.0  0.18218  0.75557  0.27571  1.0000
  C   C883      1.0  0.18832  0.75162  0.29460  1.0000
  C   C884      1.0  0.20050  0.76389  0.30117  1.0000
  C   C885      1.0  0.20635  0.78025  0.28889  1.0000
  C   C886      1.0  0.20040  0.78397  0.27001  1.0000
  C   C887      1.0  0.18873  0.77151  0.26333  1.0000
  H   H1554     1.0  0.18348  0.73917  0.30421  1.0000
  H   H1555     1.0  0.20511  0.76085  0.31574  1.0000
  H   H1556     1.0  0.20490  0.79657  0.26046  1.0000
  C   C888      1.0  0.27894  0.68432  0.37897  1.0000
  C   C889      1.0  0.13524  0.78155  0.29280  1.0000
  C   C890      1.0  0.12745  0.80290  0.29659  1.0000
  H   H1557     1.0  0.35399  0.85271  0.27717  1.0000
  H   H1558     1.0  0.20817  0.93849  0.36785  1.0000
  H   H1559     1.0  0.15905  0.80437  0.26746  1.0000
  H   H1560     1.0  0.41934  0.66516  0.28684  1.0000
  H   H1561     1.0  0.07037  0.77865  0.42269  1.0000
  H   H1562     1.0  0.10539  0.87007  0.30366  1.0000
  H   H1563     1.0  0.33761  0.66934  0.33876  1.0000
  C   C891      1.0  0.29517  0.75597  0.28286  1.0000
  H   H1564     1.0  0.21477  0.96983  0.45894  1.0000
  H   H1565     1.0  0.07508  0.93657  0.48565  1.0000
  H   H1566     1.0  0.20378  0.83295  0.43223  1.0000
  C   C892      1.0  0.33220  0.68249  0.34636  1.0000
  H   H1567     1.0  0.40663  0.68882  0.28009  1.0000
  H   H1568     1.0  0.24564  0.76270  0.27706  1.0000
  C   C893      1.0  0.00949  0.73591  0.44189  1.0000
  N   N48       1.0  0.19296  0.80796  0.46951  1.0000
  C   C894      1.0  0.02406  0.87940  0.37286  1.0000
  H   H1569     1.0  0.14457  0.80139  0.33148  1.0000
  H   H1570     1.0  0.31594  0.72605  0.30389  1.0000
  C   C895      1.0  0.40975  0.67448  0.44843  1.0000
  H   H1571     1.0  0.40654  0.69840  0.31305  1.0000
  H   H1572     1.0  0.18501  0.77416  0.24847  1.0000
  C   C896      1.0  0.03661  0.83972  0.36411  1.0000
  H   H1573     1.0  0.03848  0.69605  0.46988  1.0000
  H   H1574     1.0  0.00653  0.81317  0.26182  1.0000
  H   H1575     1.0  0.08970  0.71942  0.47976  1.0000
  C   C897      1.0  0.03036  0.73396  0.44786  1.0000
  C   C898      1.0  0.99937  0.84240  0.39411  1.0000
  C   C899      1.0  0.31469  0.75449  0.34151  1.0000
  H   H1576     1.0  0.36405  0.70133  0.43446  1.0000
  H   H1577     1.0  0.19295  0.90819  0.36679  1.0000
  H   H1578     1.0  0.29873  0.75319  0.34587  1.0000
  C   C900      1.0  0.16926  0.88532  0.35089  1.0000
  S   S216      1.0  0.13517  0.83326  0.44616  1.0000
  H   H1579     1.0  0.32590  0.77378  0.38297  1.0000
  H   H1580     1.0  0.23172  0.92156  0.48752  1.0000
  H   H1581     1.0  0.35494  0.73296  0.33125  1.0000
  C   C901      1.0  0.40828  0.67691  0.29216  1.0000
  C   C902      1.0  0.38851  0.66851  0.29958  1.0000
  H   H1582     1.0  0.01995  0.77916  0.28569  1.0000
  C   C903      1.0  0.37449  0.67870  0.26779  1.0000
  H   H1583     1.0  0.06485  0.97017  0.47165  1.0000
  H   H1584     1.0  0.22102  0.96410  0.38859  1.0000
  H   H1585     1.0  0.40411  0.67040  0.43526  1.0000
  H   H1586     1.0  0.12252  0.86659  0.32199  1.0000
  C   C904      1.0  0.07913  0.83648  0.27177  1.0000
  H   H1587     1.0  0.18661  0.81308  0.32969  1.0000
  H   H1588     1.0  0.06473  0.98304  0.36773  1.0000
  H   H1589     1.0  0.28921  0.68616  0.45812  1.0000
  C   C905      1.0  0.13212  0.83805  0.29526  1.0000
  H   H1590     1.0  0.18848  0.78104  0.48833  1.0000
  H   H1591     1.0  0.05665  0.81711  0.39245  1.0000
  C   C906      1.0  0.19713  0.93836  0.35742  1.0000
  C   C907      1.0  0.01188  0.85417  0.30079  1.0000
  H   H1592     1.0  0.03727  0.71905  0.44556  1.0000
  H   H1593     1.0  0.41455  0.66096  0.45780  1.0000
  H   H1594     1.0  0.20509  0.93548  0.34290  1.0000
  H   H1595     1.0  0.32975  0.70288  0.46783  1.0000
  C   C908      1.0  0.43443  0.68995  0.24702  1.0000
  C   C909      1.0  0.31897  0.77419  0.36922  1.0000
  H   H1596     1.0  0.25756  0.68895  0.35809  1.0000
  H   H1597     1.0  0.05201  0.80972  0.36380  1.0000
  H   H1598     1.0  0.23009  0.66603  0.41916  1.0000
  H   H1599     1.0  0.31869  0.69766  0.32178  1.0000
  H   H1600     1.0  0.34308  0.68429  0.35644  1.0000
  H   H1601     1.0  0.06531  0.86037  0.28796  1.0000
  H   H1602     1.0  0.29992  0.68459  0.39954  1.0000
  H   H1603     1.0  0.43306  0.71725  0.25942  1.0000
  C   C910      1.0  0.18372  0.92243  0.36509  1.0000
  H   H1604     1.0  0.19809  0.89438  0.33808  1.0000
  Fe  Fe111     1.0  0.11313  0.81672  0.46582  1.0000
  H   H1605     1.0  0.11914  0.89245  0.37813  1.0000
  H   H1606     1.0  0.12475  0.84483  0.28221  1.0000
  H   H1607     1.0  0.18118  0.89517  0.32033  1.0000
  H   H1608     1.0  0.41232  0.82427  0.24412  1.0000
  C   C911      1.0  0.27377  0.72543  0.37862  1.0000
  H   H1609     1.0  0.12476  0.75306  0.29437  1.0000
  C   C912      1.0  0.23619  0.94461  0.46366  1.0000
  C   C913      1.0  0.16842  0.78804  0.45671  1.0000
  H   H1610     1.0  0.17457  0.92375  0.33601  1.0000
  C   C914      1.0  0.03024  0.73882  0.46926  1.0000
  C   C915      1.0  0.28359  0.69958  0.44907  1.0000
  H   H1611     1.0  0.24020  0.98886  0.39889  1.0000
  H   H1612     1.0  0.22697  0.79011  0.41512  1.0000
  H   H1613     1.0  0.12499  0.89690  0.41217  1.0000
  H   H1614     1.0  0.14446  0.87686  0.41119  1.0000
  H   H1615     1.0  0.16608  0.82781  0.47200  1.0000
  H   H1616     1.0  0.34035  0.75149  0.35856  1.0000
  H   H1617     1.0  0.99935  0.78261  0.41384  1.0000
  H   H1618     1.0  0.12907  0.92022  0.34826  1.0000
  H   H1619     1.0  0.41802  0.67442  0.32137  1.0000
  H   H1620     1.0  0.37419  0.70439  0.28409  1.0000
  C   C916      1.0  0.13042  0.88312  0.40555  1.0000
  C   C917      1.0  0.18617  0.88686  0.33383  1.0000
  N   N49       1.0  0.14210  0.81785  0.29176  1.0000
  H   H1621     1.0  0.17656  0.87856  0.36399  1.0000
  C   C918      1.0  0.12368  0.87855  0.47889  1.0000
  H   H1622     1.0  0.20127  0.85794  0.34181  1.0000
  H   H1623     1.0  0.18838  0.95296  0.35617  1.0000
  H   H1624     1.0  0.11300  0.88286  0.49072  1.0000
  H   H1625     1.0  0.02803  0.96169  0.36854  1.0000
  C   C919      1.0  0.04079  0.78702  0.43519  1.0000
  H   H1626     1.0  0.02563  0.81065  0.36915  1.0000
  C   C920      1.0  0.20501  0.83778  0.44677  1.0000
  C   C921      1.0  0.28726  0.71390  0.39012  1.0000
  C   C922      1.0  0.08785  0.86993  0.26566  1.0000
  N   N50       1.0  0.23079  0.72200  0.43688  1.0000
  C   C923      1.0  0.25279  0.71946  0.43759  1.0000
  C   C924      1.0  0.22573  0.73922  0.42208  1.0000
  C   C925      1.0  0.22084  0.72522  0.45714  1.0000
  C   C926      1.0  0.22380  0.70406  0.43072  1.0000
  C   C927      1.0  0.23445  0.69683  0.41136  1.0000
  C   C928      1.0  0.26118  0.70072  0.44992  1.0000
  C   C929      1.0  0.19826  0.73119  0.45872  1.0000
  C   C930      1.0  0.23021  0.75943  0.42693  1.0000
  H   H1627     1.0  0.00553  0.97764  0.32736  1.0000
  C   C931      1.0  0.22356  0.77579  0.41145  1.0000
  H   H1628     1.0  0.36473  0.67456  0.25763  1.0000
  H   H1629     1.0  0.05753  0.66464  0.47871  1.0000
  H   H1630     1.0  0.25743  0.73203  0.44382  1.0000
  H   H1631     1.0  0.26064  0.71991  0.42251  1.0000
  H   H1632     1.0  0.23408  0.73704  0.40752  1.0000
  H   H1633     1.0  0.20996  0.74028  0.41950  1.0000
  H   H1634     1.0  0.22772  0.73643  0.46347  1.0000
  H   H1635     1.0  0.22318  0.71164  0.46737  1.0000
  H   H1636     1.0  0.22479  0.69164  0.44255  1.0000
  H   H1637     1.0  0.20791  0.70682  0.42857  1.0000
  H   H1638     1.0  0.25053  0.69367  0.41196  1.0000
  H   H1639     1.0  0.23182  0.70791  0.39869  1.0000
  H   H1640     1.0  0.25506  0.70065  0.46554  1.0000
  H   H1641     1.0  0.25774  0.68724  0.44447  1.0000
  H   H1642     1.0  0.19053  0.72009  0.45336  1.0000
  H   H1643     1.0  0.19467  0.74547  0.45007  1.0000
  H   H1644     1.0  0.22260  0.76300  0.44132  1.0000
  H   H1645     1.0  0.24628  0.75967  0.42712  1.0000
  H   H1646     1.0  0.03680  0.90544  0.37799  1.0000
  H   H1647     1.0  0.06033  0.96767  0.34957  1.0000
  H   H1648     1.0  0.29398  0.81373  0.25113  1.0000
  C   C932      1.0  0.34369  0.69542  0.46088  1.0000
  H   H1649     1.0  0.44282  0.68188  0.25809  1.0000
  H   H1650     1.0  0.15445  0.79717  0.42988  1.0000
  H   H1651     1.0  0.04633  0.96157  0.49040  1.0000
  H   H1652     1.0  0.07360  0.98337  0.32277  1.0000
  H   H1653     1.0  0.34810  0.71436  0.49036  1.0000
  C   C933      1.0  0.22697  0.67797  0.40732  1.0000
  H   H1654     1.0  0.33052  0.70445  0.42400  1.0000
  H   H1655     1.0  0.28016  0.75584  0.29081  1.0000
  C   C934      1.0  0.22845  0.93770  0.48476  1.0000
  S   S217      1.0  0.13564  0.91499  0.47683  1.0000
  C   C935      1.0  0.08236  0.98984  0.28455  1.0000
  C   C936      1.0  0.41643  0.68548  0.30846  1.0000
  C   C937      1.0  0.03666  0.86507  0.38667  1.0000
  C   C938      1.0  0.10991  0.86075  0.31695  1.0000
  H   H1656     1.0  0.00173  0.75061  0.44424  1.0000
  C   C939      1.0  0.10490  0.84437  0.24602  1.0000
  S   S218      1.0  0.99940  0.81818  0.30115  1.0000
  H   H1657     1.0  0.32499  0.86663  0.29667  1.0000
  C   C940      1.0  0.12321  0.86055  0.47179  1.0000
  H   H1658     1.0  0.06732  0.72753  0.45154  1.0000
  H   H1659     1.0  0.19665  0.79549  0.44183  1.0000
  H   H1660     1.0  0.19094  0.84631  0.45156  1.0000
  H   H1661     1.0  0.13671  0.81834  0.26145  1.0000
  C   C941      1.0  0.05638  0.83330  0.39157  1.0000
  H   H1662     1.0  0.02563  0.75491  0.46852  1.0000
  C   C942      1.0  0.28994  0.69342  0.39022  1.0000
  H   H1663     1.0  0.38089  0.66396  0.47823  1.0000
  C   C943      1.0  0.06149  0.83739  0.41190  1.0000
  S   S219      1.0  0.02210  0.76564  0.38020  1.0000
  C   C944      1.0  0.32410  0.75459  0.36080  1.0000
  N   N51       1.0  0.15652  0.90403  0.35521  1.0000
  H   H1664     1.0  0.32477  0.75745  0.28829  1.0000
  C   C945      1.0  0.23691  0.96548  0.42363  1.0000
  C   C946      1.0  0.34460  0.86226  0.24795  1.0000
  H   H1665     1.0  0.17789  0.81543  0.44331  1.0000
  H   H1666     1.0  0.06119  0.85327  0.41299  1.0000
  S   S220      1.0  0.16606  0.74078  0.26793  1.0000
  H   H1667     1.0  0.07008  0.82592  0.28005  1.0000
  C   C947      1.0  0.11876  0.76820  0.29727  1.0000
  C   C948      1.0  0.99748  0.84177  0.30814  1.0000
  H   H1668     1.0  0.04828  0.82252  0.32912  1.0000
  C   C949      1.0  0.14936  0.81803  0.27018  1.0000
  C   C950      1.0  0.02061  0.83484  0.39866  1.0000
  H   H1669     1.0  0.11465  0.80747  0.28800  1.0000
  H   H1670     1.0  0.23552  0.84355  0.43811  1.0000
  C   C951      1.0  0.01483  0.78217  0.41547  1.0000
  C   C952      1.0  0.32505  0.81061  0.25406  1.0000
  H   H1671     1.0  0.21758  0.86414  0.43336  1.0000
  H   H1672     1.0  0.03127  0.87968  0.35757  1.0000
  S   S221      1.0  0.10760  0.78664  0.46053  1.0000
  C   C953      1.0  0.42889  0.71011  0.24771  1.0000
  H   H1673     1.0  0.15002  0.89636  0.31542  1.0000
  C   C954      1.0  0.06666  0.73701  0.46347  1.0000
  H   H1674     1.0  0.24312  0.94986  0.42559  1.0000
  H   H1675     1.0  0.10210  0.83406  0.30869  1.0000
  C   C955      1.0  0.32251  0.71923  0.34160  1.0000
  C   C956      1.0  0.05339  0.97821  0.35988  1.0000
  H   H1676     1.0  0.08308  0.81178  0.41585  1.0000
  H   H1677     1.0  0.11809  0.73391  0.45992  1.0000
  H   H1678     1.0  0.39016  0.70087  0.45032  1.0000
  C   C957      1.0  0.17468  0.80363  0.33508  1.0000
  H   H1679     1.0  0.09337  0.83367  0.40398  1.0000
  C   C958      1.0  0.36196  0.70503  0.48601  1.0000
  S   S222      1.0  0.08509  0.89482  0.27067  1.0000
  H   H1680     1.0  0.34072  0.84717  0.24761  1.0000
  H   H1681     1.0  0.37084  0.71491  0.47566  1.0000
  H   H1682     1.0  0.23461  0.97381  0.47169  1.0000
  H   H1683     1.0  0.02312  0.84723  0.35809  1.0000
  H   H1684     1.0  0.11945  0.87245  0.41001  1.0000
  H   H1685     1.0  0.38217  0.75250  0.31015  1.0000
  H   H1686     1.0  0.15993  0.87416  0.34797  1.0000
  H   H1687     1.0  0.15307  0.92192  0.31591  1.0000
  H   H1688     1.0  0.43116  0.69018  0.30298  1.0000
  C   C959      1.0  0.10363  0.73487  0.45407  1.0000
  N   N52       1.0  0.03710  0.84339  0.38517  1.0000
  H   H1689     1.0  0.08890  0.99194  0.34717  1.0000
  H   H1690     1.0  0.11249  0.76794  0.31288  1.0000
  H   H1691     1.0  0.00909  0.87522  0.37281  1.0000
  C   C960      1.0  0.07638  0.85603  0.27631  1.0000
  C   C961      1.0  0.32422  0.86580  0.28083  1.0000
  C   C962      1.0  0.26611  0.69593  0.36683  1.0000
  C   C963      1.0  0.24671  0.74983  0.26868  1.0000
  C   C964      1.0  0.24485  0.97308  0.40248  1.0000
  H   H1692     1.0  0.41780  0.84418  0.25649  1.0000
  H   H1693     1.0  0.22923  0.93654  0.45387  1.0000
  H   H1694     1.0  0.35016  0.69741  0.28236  1.0000
  H   H1695     1.0  0.22308  0.85684  0.45802  1.0000
  H   H1696     1.0  0.05076  0.76284  0.48653  1.0000
  C   C965      1.0  0.03778  0.81793  0.36032  1.0000
  C   C966      1.0  0.06154  0.96588  0.48764  1.0000
  H   H1697     1.0  0.05180  0.86970  0.38324  1.0000
  C   C967      1.0  0.32967  0.70049  0.33131  1.0000
  H   H1698     1.0  0.00094  0.72454  0.45051  1.0000
  H   H1699     1.0  0.10383  0.72252  0.44515  1.0000
  H   H1700     1.0  0.37206  0.66889  0.45516  1.0000
  C   C968      1.0  0.26319  0.97446  0.44158  1.0000
  H   H1701     1.0  0.06487  0.75224  0.45604  1.0000
  C   C969      1.0  0.35072  0.76177  0.31600  1.0000
  H   H1702     1.0  0.34224  0.72654  0.41712  1.0000
  C   C970      1.0  0.29728  0.98427  0.42890  1.0000
  H   H1703     1.0  0.17407  0.77382  0.46427  1.0000
  H   H1704     1.0  0.31504  0.76922  0.33323  1.0000
  H   H1705     1.0  0.48073  0.66013  0.32805  1.0000
  H   H1706     1.0  0.22072  0.96529  0.42413  1.0000
  H   H1707     1.0  0.04898  0.84629  0.35465  1.0000
  C   C971      1.0  0.03981  0.96712  0.37538  1.0000
  H   H1708     1.0  0.24257  0.94635  0.38948  1.0000
  H   H1709     1.0  0.00968  0.79352  0.44361  1.0000
  H   H1710     1.0  0.25233  0.94045  0.46178  1.0000
  H   H1711     1.0  0.11203  0.85130  0.47814  1.0000
  C   C972      1.0  0.05252  0.69638  0.47611  1.0000
  H   H1712     1.0  0.33972  0.77186  0.30842  1.0000
  H   H1713     1.0  0.99744  0.84226  0.37845  1.0000
  C   C973      1.0  0.39391  0.68731  0.45997  1.0000
  H   H1714     1.0  0.42281  0.68254  0.44361  1.0000
  H   H1715     1.0  0.20747  0.77658  0.41061  1.0000
  C   C974      1.0  0.11550  0.83954  0.31259  1.0000
  H   H1716     1.0  0.34844  0.73306  0.30727  1.0000
  H   H1717     1.0  0.16748  0.80878  0.49127  1.0000
  H   H1718     1.0  0.03300  0.97668  0.38672  1.0000
  H   H1719     1.0  0.09124  0.95371  0.49018  1.0000
  C   C975      1.0  0.16760  0.92190  0.35136  1.0000
  C   C976      1.0  0.34468  0.74062  0.32080  1.0000
  H   H1720     1.0  0.11958  0.83083  0.32626  1.0000
  C   C977      1.0  0.13369  0.88693  0.38325  1.0000
  S   S223      1.0  0.08130  0.82746  0.47297  1.0000
  H   H1721     1.0  0.03173  0.86828  0.40204  1.0000
  H   H1722     1.0  0.24211  0.78418  0.24473  1.0000
  C   C978      1.0  0.34491  0.86519  0.26980  1.0000
  C   C979      1.0  0.04122  0.79625  0.26709  1.0000
  C   C980      1.0  0.03578  0.77739  0.27998  1.0000
  H   H1723     1.0  0.24304  0.96810  0.37234  1.0000
  H   H1724     1.0  0.09500  0.98234  0.29210  1.0000
  C   C981      1.0  0.13678  0.85496  0.45618  1.0000
  C   C982      1.0  0.04738  0.77353  0.29780  1.0000
  H   H1725     1.0  0.34401  0.70179  0.32226  1.0000
  H   H1726     1.0  0.22225  0.81044  0.45470  1.0000
  H   H1727     1.0  0.15118  0.82615  0.33014  1.0000
  H   H1728     1.0  0.15715  0.93542  0.35297  1.0000
  H   H1729     1.0  0.31470  0.87881  0.27505  1.0000
  Fe  Fe112     1.0  0.07581  0.79663  0.47003  1.0000
  C   C983      1.0  0.01160  0.87210  0.30831  1.0000
  H   H1730     1.0  0.35239  0.76799  0.32969  1.0000
  H   H1731     1.0  0.21579  0.82537  0.47405  1.0000
  H   H1732     1.0  0.03565  0.80838  0.27612  1.0000
  H   H1733     1.0  0.03901  0.76430  0.27192  1.0000
  C   C984      1.0  0.38005  0.85280  0.24339  1.0000
  H   H1734     1.0  0.16094  0.89822  0.38598  1.0000
  N   N53       1.0  0.35737  0.68798  0.47630  1.0000
  H   H1735     1.0  0.05748  0.79612  0.26556  1.0000
  C   C985      1.0  0.33597  0.71686  0.42977  1.0000
  C   C986      1.0  0.08722  0.73388  0.47110  1.0000
  H   H1736     1.0  0.36908  0.75705  0.28853  1.0000
  C   C987      1.0  0.31022  0.75679  0.29716  1.0000
  H   H1737     1.0  0.04456  0.78622  0.30653  1.0000
  H   H1738     1.0  0.04269  0.76041  0.30730  1.0000
  H   H1739     1.0  0.06343  0.77088  0.29311  1.0000
  H   H1740     1.0  0.14699  0.77558  0.30222  1.0000
  C   C988      1.0  0.15589  0.81132  0.32561  1.0000
  H   H1741     1.0  0.09733  0.86152  0.32866  1.0000
  H   H1742     1.0  0.25587  0.73757  0.27621  1.0000
  H   H1743     1.0  0.18425  0.85852  0.32369  1.0000
  H   H1744     1.0  0.33158  0.71857  0.35397  1.0000
  C   C989      1.0  0.15978  0.81251  0.30302  1.0000
  C   C990      1.0  0.02889  0.77487  0.40104  1.0000
  H   H1745     1.0  0.06470  0.69757  0.46411  1.0000
  H   H1746     1.0  0.02247  0.81866  0.39918  1.0000
  H   H1747     1.0  0.11356  0.90524  0.31604  1.0000
  H   H1748     1.0  0.30154  0.97066  0.42168  1.0000
  C   C991      1.0  0.04896  0.77376  0.40377  1.0000
  C   C992      1.0  0.16139  0.83510  0.26084  1.0000
  C   C993      1.0  0.02207  0.90024  0.37862  1.0000
  H   H1749     1.0  0.16781  0.79836  0.29907  1.0000
  N   N54       1.0  0.32350  0.73858  0.32890  1.0000
  H   H1750     1.0  0.17179  0.80354  0.35126  1.0000
  C   C994      1.0  0.02075  0.78821  0.43241  1.0000
  H   H1751     1.0  0.17979  0.78845  0.33168  1.0000
  H   H1752     1.0  0.29052  0.69885  0.43375  1.0000
  C   C995      1.0  0.18464  0.80223  0.45201  1.0000
  H   H1753     1.0  0.17462  0.83543  0.26840  1.0000
  C   C996      1.0  0.16102  0.78356  0.43795  1.0000
  C   C997      1.0  0.19532  0.86658  0.32880  1.0000
  C   C998      1.0  0.01153  0.80465  0.24916  1.0000
  H   H1754     1.0  0.21090  0.68027  0.40607  1.0000
  H   H1755     1.0  0.28797  0.71251  0.45486  1.0000
  H   H1756     1.0  0.12120  0.80218  0.31218  1.0000
  H   H1757     1.0  0.25315  0.72516  0.35768  1.0000
  H   H1758     1.0  0.29523  0.72081  0.39944  1.0000
  H   H1759     1.0  0.03878  0.74433  0.43760  1.0000
  H   H1760     1.0  0.33942  0.68302  0.45405  1.0000
  H   H1761     1.0  0.17323  0.77657  0.42824  1.0000
  H   H1762     1.0  0.14953  0.77335  0.44174  1.0000
  H   H1763     1.0  0.06881  0.83734  0.38045  1.0000
  S   S224      1.0  0.04707  0.79357  0.45756  1.0000
  C   C999      1.0  0.14863  0.90217  0.37669  1.0000
  H   H1764     1.0  0.20767  0.86806  0.31694  1.0000
  H   H1765     1.0  0.13899  0.87277  0.37739  1.0000
  H   H1766     1.0  0.13013  0.89473  0.34653  1.0000
  H   H1767     1.0  0.05995  0.76789  0.39280  1.0000
  H   H1768     1.0  0.37888  0.67932  0.30812  1.0000
  H   H1769     1.0  0.11721  0.93070  0.31558  1.0000
  H   H1770     1.0  0.14332  0.84789  0.29698  1.0000
  H   H1771     1.0  0.17066  0.82329  0.29872  1.0000
  H   H1772     1.0  0.31837  0.74315  0.37204  1.0000
  C   C1000     1.0  0.26362  0.71644  0.36653  1.0000
  C   C1001     1.0  0.08218  0.82793  0.41553  1.0000
  H   H1773     1.0  0.17364  0.73760  0.48074  1.0000
  N   N55       1.0  0.03371  0.80019  0.24720  1.0000
  C   C1002     1.0  0.12418  0.91624  0.31143  1.0000
  C   C1003     1.0  0.17654  0.81912  0.48162  1.0000
  H   H1774     1.0  0.12736  0.91734  0.29520  1.0000
  C   C1004     1.0  0.05492  0.77989  0.42068  1.0000
  H   H1775     1.0  0.14136  0.91652  0.38096  1.0000
  H   H1776     1.0  0.17680  0.92575  0.37987  1.0000
  C   C1005     1.0  0.13901  0.90736  0.34353  1.0000
  H   H1777     1.0  0.05102  0.83120  0.42390  1.0000
  H   H1778     1.0  0.02181  0.82365  0.33472  1.0000
  H   H1779     1.0  0.05045  0.98501  0.31431  1.0000
  H   H1780     1.0  0.35468  0.80770  0.26187  1.0000
  C   C1006     1.0  0.09326  0.83055  0.25649  1.0000
  H   H1781     1.0  0.08573  0.83138  0.42987  1.0000
  H   H1782     1.0  0.07324  0.89021  0.48434  1.0000
  C   C1007     1.0  0.36503  0.69871  0.27441  1.0000
  C   C1008     1.0  0.37564  0.67623  0.46752  1.0000
  C   C1009     1.0  0.14328  0.91032  0.32092  1.0000
  C   C1010     1.0  0.20978  0.81986  0.46186  1.0000
  C   C1011     1.0  0.36278  0.71410  0.25676  1.0000
  H   H1783     1.0  0.15567  0.79449  0.46618  1.0000
  C   C1012     1.0  0.22134  0.85132  0.44396  1.0000
  H   H1784     1.0  0.30714  0.71782  0.34849  1.0000
  H   H1785     1.0  0.19668  0.74429  0.48620  1.0000
  H   H1786     1.0  0.38179  0.85708  0.25801  1.0000
  H   H1787     1.0  0.15236  0.84948  0.26135  1.0000
  H   H1788     1.0  0.03652  0.80042  0.33675  1.0000
  H   H1789     1.0  0.29526  0.76915  0.27193  1.0000
  H   H1790     1.0  0.31741  0.85236  0.27939  1.0000
  H   H1791     1.0  0.40064  0.69144  0.47244  1.0000
  H   H1792     1.0  0.35714  0.72224  0.44825  1.0000
  C   C1013     1.0  0.05666  0.67662  0.48822  1.0000
  H   H1793     1.0  0.18799  0.84669  0.48509  1.0000
  H   H1794     1.0  0.32337  0.66367  0.47824  1.0000
  C   C1014     1.0  0.34635  0.67483  0.49185  1.0000
  C   C1015     1.0  0.23109  0.96702  0.45893  1.0000
  H   H1795     1.0  0.37673  0.83725  0.24588  1.0000
  C   C1016     1.0  0.25611  0.75477  0.24772  1.0000
  H   H1796     1.0  0.01339  0.91025  0.36829  1.0000
  H   H1797     1.0  0.27077  0.75948  0.24865  1.0000
  N   N56       1.0  0.04925  0.73385  0.47864  1.0000
  H   H1798     1.0  0.00446  0.77467  0.26130  1.0000
  H   H1799     1.0  0.04850  0.95429  0.38266  1.0000
  H   H1800     1.0  0.01806  0.73177  0.47850  1.0000
  H   H1801     1.0  0.32342  0.72541  0.43768  1.0000
  C   C1017     1.0  0.03585  0.83767  0.24553  1.0000
  H   H1802     1.0  0.10155  0.74890  0.44449  1.0000
  H   H1803     1.0  0.21225  0.94145  0.48730  1.0000
  S   S225      1.0  0.99711  0.89941  0.33320  1.0000
  H   H1804     1.0  0.37741  0.71647  0.24863  1.0000
  C   C1018     1.0  0.35185  0.70934  0.44335  1.0000
  H   H1805     1.0  0.23466  0.67328  0.39327  1.0000
  S   S226      1.0  0.09521  0.80593  0.25083  1.0000
  H   H1806     1.0  0.38852  0.68110  0.25833  1.0000
  C   C1019     1.0  0.23737  0.96222  0.38737  1.0000
  H   H1807     1.0  0.01967  0.84150  0.24630  1.0000
  H   H1808     1.0  0.23176  0.74531  0.26869  1.0000
  H   H1809     1.0  0.02134  0.83768  0.41403  1.0000
  H   H1810     1.0  0.04023  0.83682  0.26052  1.0000
  H   H1811     1.0  0.07320  0.97877  0.28121  1.0000
  H   H1812     1.0  0.47001  0.67427  0.45630  1.0000
  C   C1020     1.0  0.20080  0.78923  0.48104  1.0000
  C   C1021     1.0  0.10221  0.86391  0.25061  1.0000
  H   H1813     1.0  0.27010  0.95984  0.43769  1.0000
  H   H1814     1.0  0.26606  0.97483  0.45705  1.0000
  H   H1815     1.0  0.06897  0.77336  0.24541  1.0000
  H   H1816     1.0  0.29881  0.74276  0.27491  1.0000
  H   H1817     1.0  0.35595  0.72826  0.26179  1.0000
  C   C1022     1.0  0.99891  0.99027  0.31882  1.0000
  H   H1818     1.0  0.26114  0.97030  0.40052  1.0000
  C   C1023     1.0  0.05053  0.71336  0.48908  1.0000
  H   H1819     1.0  0.37452  0.88970  0.24507  1.0000
  H   H1820     1.0  0.08882  0.74549  0.48037  1.0000
  C   C1024     1.0  0.18975  0.73310  0.48001  1.0000
  H   H1821     1.0  0.01434  0.90086  0.39365  1.0000
  H   H1822     1.0  0.30161  0.98186  0.44406  1.0000
  Fe  Fe113     1.0  0.11150  0.77937  0.49268  1.0000
  C   C1025     1.0  0.99914  0.78708  0.25098  1.0000
  H   H1823     1.0  0.34958  0.66902  0.30073  1.0000
  H   H1824     1.0  0.01016  0.73405  0.42606  1.0000
  H   H1825     1.0  0.19209  0.71889  0.48924  1.0000
  H   H1826     1.0  0.19576  0.97628  0.49269  1.0000
  N   N57       1.0  0.37779  0.66231  0.28400  1.0000
  S   S227      1.0  0.99772  0.76819  0.33257  1.0000
  H   H1827     1.0  0.02900  0.99073  0.34385  1.0000
  C   C1026     1.0  0.27514  0.99028  0.42925  1.0000
  H   H1828     1.0  0.22592  0.79992  0.49251  1.0000
  H   H1829     1.0  0.35332  0.70949  0.24663  1.0000
  H   H1830     1.0  0.19081  0.96097  0.55417  1.0000
  Fe  Fe114     1.0  0.26675  0.85000  0.72609  1.0000
  H   H1831     1.0  0.44624  0.96678  0.72796  1.0000
  Fe  Fe115     1.0  0.26618  0.82731  0.69034  1.0000
  S   S228      1.0  0.23385  0.82520  0.69613  1.0000
  S   S229      1.0  0.28224  0.81434  0.66336  1.0000
  Fe  Fe116     1.0  0.23089  0.85660  0.70175  1.0000
  S   S230      1.0  0.21167  0.87988  0.68401  1.0000
  Fe  Fe117     1.0  0.23960  0.81773  0.72759  1.0000
  S   S231      1.0  0.26335  0.85942  0.69415  1.0000
  S   S232      1.0  0.27239  0.81800  0.72151  1.0000
  H   H1832     1.0  0.37061  0.72926  0.51251  1.0000
  H   H1833     1.0  0.23561  0.94458  0.49534  1.0000
  H   H1834     1.0  0.09630  0.89541  0.52096  1.0000
  H   H1835     1.0  0.05268  0.93946  0.55395  1.0000
  H   H1836     1.0  0.31351  0.67492  0.53031  1.0000
  C   C1027     1.0  0.16414  0.78716  0.60508  1.0000
  C   C1028     1.0  0.22306  0.77075  0.50531  1.0000
  H   H1837     1.0  0.40610  0.89090  0.73427  1.0000
  Fe  Fe118     1.0  0.09044  0.93707  0.60956  1.0000
  S   S233      1.0  0.11406  0.93316  0.58410  1.0000
  S   S234      1.0  0.06546  0.95937  0.59820  1.0000
  Fe  Fe119     1.0  0.11499  0.90776  0.63686  1.0000
  S   S235      1.0  0.13917  0.90244  0.61303  1.0000
  S   S236      1.0  0.12184  0.89036  0.66585  1.0000
  Fe  Fe120     1.0  0.13538  0.93467  0.60554  1.0000
  S   S237      1.0  0.16343  0.94826  0.59620  1.0000
  Fe  Fe121     1.0  0.11585  0.90101  0.59373  1.0000
  S   S238      1.0  0.12637  0.87876  0.57214  1.0000
  S   S239      1.0  0.11226  0.94072  0.63051  1.0000
  S   S240      1.0  0.09108  0.90412  0.61803  1.0000
  C   C1029     1.0  0.16513  0.98166  0.54911  1.0000
  H   H1838     1.0  0.37327  0.92075  0.70147  1.0000
  H   H1839     1.0  0.45878  0.67467  0.52185  1.0000
  H   H1840     1.0  0.38425  0.68700  0.50306  1.0000
  C   C1030     1.0  0.10907  0.98906  0.59221  1.0000
  H   H1841     1.0  0.16929  0.94978  0.55117  1.0000
  H   H1842     1.0  0.03021  0.73497  0.51892  1.0000
  S   S241      1.0  0.07252  0.83356  0.52924  1.0000
  H   H1843     1.0  0.47107  0.90199  0.73103  1.0000
  C   C1031     1.0  0.14792  0.98497  0.53622  1.0000
  H   H1844     1.0  0.24653  0.89869  0.66536  1.0000
  C   C1032     1.0  0.15785  0.95318  0.68089  1.0000
  Fe  Fe122     1.0  0.26132  0.71402  0.57092  1.0000
  S   S242      1.0  0.23229  0.70535  0.56510  1.0000
  S   S243      1.0  0.28658  0.70330  0.54897  1.0000
  Fe  Fe123     1.0  0.24267  0.73318  0.60772  1.0000
  S   S244      1.0  0.21259  0.72534  0.60437  1.0000
  S   S245      1.0  0.24226  0.74516  0.63694  1.0000
  Fe  Fe124     1.0  0.22833  0.69618  0.59761  1.0000
  C   C1033     1.0  0.06905  0.88383  0.49961  1.0000
  Fe  Fe125     1.0  0.21930  0.73541  0.57229  1.0000
  S   S246      1.0  0.19915  0.75895  0.55583  1.0000
  S   S247      1.0  0.25786  0.70329  0.60292  1.0000
  S   S248      1.0  0.24877  0.74496  0.57594  1.0000
  C   C1034     1.0  0.14966  0.75343  0.51817  1.0000
  C   C1035     1.0  0.15869  0.73655  0.52839  1.0000
  C   C1036     1.0  0.17405  0.73780  0.53988  1.0000
  C   C1037     1.0  0.18050  0.75597  0.54118  1.0000
  C   C1038     1.0  0.17179  0.77267  0.53053  1.0000
  C   C1039     1.0  0.15656  0.77140  0.51910  1.0000
  H   H1845     1.0  0.15360  0.72250  0.52768  1.0000
  H   H1846     1.0  0.18068  0.72477  0.54792  1.0000
  H   H1847     1.0  0.17680  0.78674  0.53115  1.0000
  H   H1848     1.0  0.05521  0.91097  0.50901  1.0000
  C   C1040     1.0  0.11075  0.86728  0.55996  1.0000
  C   C1041     1.0  0.11866  0.85860  0.54299  1.0000
  C   C1042     1.0  0.10700  0.84846  0.53330  1.0000
  C   C1043     1.0  0.08737  0.84675  0.54067  1.0000
  C   C1044     1.0  0.07940  0.85558  0.55757  1.0000
  C   C1045     1.0  0.09108  0.86578  0.56725  1.0000
  H   H1849     1.0  0.13385  0.85984  0.53726  1.0000
  H   H1850     1.0  0.11319  0.84205  0.52012  1.0000
  H   H1851     1.0  0.06421  0.85430  0.56333  1.0000
  H   H1852     1.0  0.08501  0.87217  0.58052  1.0000
  C   C1046     1.0  0.34763  0.67377  0.56233  1.0000
  C   C1047     1.0  0.33679  0.68642  0.57516  1.0000
  C   C1048     1.0  0.31767  0.69494  0.57180  1.0000
  C   C1049     1.0  0.30940  0.69111  0.55536  1.0000
  C   C1050     1.0  0.32003  0.67804  0.54286  1.0000
  H   H1853     1.0  0.18345  0.96779  0.68153  1.0000
  H   H1854     1.0  0.34340  0.69004  0.58748  1.0000
  H   H1855     1.0  0.30968  0.70508  0.58146  1.0000
  S   S249      1.0  0.22882  0.78921  0.74200  1.0000
  H   H1856     1.0  0.04594  0.76149  0.53055  1.0000
  H   H1857     1.0  0.21422  0.71446  0.68312  1.0000
  H   H1858     1.0  0.08045  0.87177  0.50375  1.0000
  C   C1051     1.0  0.47336  0.67874  0.51489  1.0000
  C   C1052     1.0  0.22487  0.67490  0.64714  1.0000
  C   C1053     1.0  0.22625  0.67029  0.66731  1.0000
  H   H1859     1.0  0.22586  0.68977  0.64044  1.0000
  H   H1860     1.0  0.22852  0.68166  0.67589  1.0000
  C   C1054     1.0  0.27205  0.79445  0.65610  1.0000
  C   C1055     1.0  0.27809  0.78801  0.63754  1.0000
  C   C1056     1.0  0.26931  0.77275  0.63133  1.0000
  C   C1057     1.0  0.25446  0.76391  0.64371  1.0000
  C   C1058     1.0  0.24872  0.77020  0.66231  1.0000
  C   C1059     1.0  0.25749  0.78529  0.66850  1.0000
  H   H1861     1.0  0.28944  0.79496  0.62790  1.0000
  H   H1862     1.0  0.27395  0.76792  0.61700  1.0000
  H   H1863     1.0  0.23731  0.76345  0.67202  1.0000
  H   H1864     1.0  0.25309  0.78968  0.68301  1.0000
  C   C1060     1.0  0.18658  0.88178  0.67949  1.0000
  C   C1061     1.0  0.17249  0.87131  0.69126  1.0000
  C   C1062     1.0  0.15267  0.87396  0.68702  1.0000
  C   C1063     1.0  0.14680  0.88710  0.67104  1.0000
  C   C1064     1.0  0.16096  0.89750  0.65939  1.0000
  C   C1065     1.0  0.18065  0.89472  0.66352  1.0000
  H   H1865     1.0  0.17677  0.86141  0.70374  1.0000
  H   H1866     1.0  0.21665  0.67767  0.73997  1.0000
  H   H1867     1.0  0.15674  0.90786  0.64725  1.0000
  H   H1868     1.0  0.19144  0.90231  0.65392  1.0000
  C   C1066     1.0  0.24332  0.93021  0.65703  1.0000
  H   H1869     1.0  0.09947  0.98563  0.49936  1.0000
  H   H1870     1.0  0.20547  0.96136  0.62092  1.0000
  H   H1871     1.0  0.46341  0.87811  0.73267  1.0000
  C   C1067     1.0  0.28520  0.68079  0.65884  1.0000
  H   H1872     1.0  0.03264  0.77942  0.51429  1.0000
  H   H1873     1.0  0.32342  0.67294  0.63681  1.0000
  H   H1874     1.0  0.05681  0.93947  0.51915  1.0000
  S   S250      1.0  0.22092  0.66587  0.61024  1.0000
  H   H1875     1.0  0.15344  0.91438  0.53551  1.0000
  H   H1876     1.0  0.48955  0.66466  0.53809  1.0000
  C   C1068     1.0  0.44956  0.95835  0.74211  1.0000
  C   C1069     1.0  0.16483  0.97034  0.60556  1.0000
  C   C1070     1.0  0.10593  0.78609  0.55018  1.0000
  H   H1877     1.0  0.14156  0.96661  0.62912  1.0000
  C   C1071     1.0  0.17782  0.96236  0.54583  1.0000
  C   C1072     1.0  0.08660  0.90779  0.51420  1.0000
  H   H1878     1.0  0.39701  0.93420  0.71868  1.0000
  H   H1879     1.0  0.23254  0.97022  0.65015  1.0000
  H   H1880     1.0  0.13484  0.77793  0.55881  1.0000
  H   H1881     1.0  0.35443  0.66295  0.61718  1.0000
  H   H1882     1.0  0.11745  0.81020  0.62040  1.0000
  H   H1883     1.0  0.09354  0.91077  0.49887  1.0000
  C   C1073     1.0  0.40795  0.90652  0.73509  1.0000
  H   H1884     1.0  0.43553  0.88916  0.71446  1.0000
  C   C1074     1.0  0.03243  0.76479  0.52292  1.0000
  H   H1885     1.0  0.01942  0.76533  0.53416  1.0000
  H   H1886     1.0  0.20732  0.99004  0.63080  1.0000
  S   S251      1.0  0.37204  0.66439  0.56642  1.0000
  H   H1887     1.0  0.15235  0.95540  0.69634  1.0000
  H   H1888     1.0  0.23007  0.95243  0.62405  1.0000
  N   N58       1.0  0.21731  0.82792  0.63464  1.0000
  C   C1075     1.0  0.23265  0.83743  0.64287  1.0000
  C   C1076     1.0  0.20497  0.81763  0.65148  1.0000
  C   C1077     1.0  0.22801  0.81242  0.62241  1.0000
  C   C1078     1.0  0.20460  0.84221  0.62188  1.0000
  C   C1079     1.0  0.20087  0.86365  0.62704  1.0000
  C   C1080     1.0  0.24888  0.84565  0.62754  1.0000
  C   C1081     1.0  0.21487  0.79898  0.61467  1.0000
  C   C1082     1.0  0.19216  0.83073  0.66584  1.0000
  C   C1083     1.0  0.18227  0.81828  0.68323  1.0000
  C   C1084     1.0  0.18532  0.87556  0.61524  1.0000
  C   C1085     1.0  0.25890  0.86105  0.63556  1.0000
  C   C1086     1.0  0.22588  0.78828  0.59785  1.0000
  H   H1889     1.0  0.24044  0.82668  0.65342  1.0000
  H   H1890     1.0  0.22582  0.84928  0.65177  1.0000
  H   H1891     1.0  0.19435  0.80932  0.64599  1.0000
  H   H1892     1.0  0.21462  0.80659  0.66014  1.0000
  H   H1893     1.0  0.23870  0.80273  0.63099  1.0000
  H   H1894     1.0  0.23698  0.81924  0.60945  1.0000
  H   H1895     1.0  0.21113  0.84315  0.60625  1.0000
  H   H1896     1.0  0.19000  0.83681  0.62188  1.0000
  H   H1897     1.0  0.21449  0.87104  0.62368  1.0000
  H   H1898     1.0  0.19584  0.86434  0.64274  1.0000
  H   H1899     1.0  0.26036  0.83353  0.62377  1.0000
  H   H1900     1.0  0.24289  0.85232  0.61379  1.0000
  H   H1901     1.0  0.20150  0.80745  0.60933  1.0000
  H   H1902     1.0  0.21030  0.78762  0.62661  1.0000
  H   H1903     1.0  0.20095  0.84048  0.67185  1.0000
  H   H1904     1.0  0.18023  0.83975  0.65836  1.0000
  H   H1905     1.0  0.17282  0.80845  0.67812  1.0000
  H   H1906     1.0  0.19351  0.80934  0.69176  1.0000
  H   H1907     1.0  0.17286  0.82794  0.69314  1.0000
  H   H1908     1.0  0.18975  0.87545  0.59924  1.0000
  H   H1909     1.0  0.17094  0.86953  0.61914  1.0000
  H   H1910     1.0  0.18350  0.89098  0.61868  1.0000
  H   H1911     1.0  0.26538  0.85477  0.64920  1.0000
  H   H1912     1.0  0.27092  0.86606  0.62458  1.0000
  H   H1913     1.0  0.24815  0.87388  0.63880  1.0000
  H   H1914     1.0  0.23944  0.77955  0.60257  1.0000
  H   H1915     1.0  0.21636  0.77812  0.59336  1.0000
  H   H1916     1.0  0.22990  0.79882  0.58496  1.0000
  S   S252      1.0  0.23382  0.84917  0.73414  1.0000
  H   H1917     1.0  0.28224  0.68947  0.72161  1.0000
  H   H1918     1.0  0.14756  0.77583  0.58587  1.0000
  C   C1087     1.0  0.25587  0.67455  0.73353  1.0000
  C   C1088     1.0  0.07999  0.92072  0.54670  1.0000
  C   C1089     1.0  0.39923  0.91832  0.71697  1.0000
  H   H1919     1.0  0.27262  0.67672  0.70439  1.0000
  H   H1920     1.0  0.12803  0.97284  0.57155  1.0000
  C   C1090     1.0  0.04317  0.97714  0.62932  1.0000
  C   C1091     1.0  0.48994  0.66391  0.52210  1.0000
  C   C1092     1.0  0.43056  0.93038  0.73761  1.0000
  H   H1921     1.0  0.27360  0.67583  0.67037  1.0000
  H   H1922     1.0  0.06294  0.91997  0.58501  1.0000
  H   H1923     1.0  0.04857  0.91710  0.54512  1.0000
  C   C1093     1.0  0.18019  0.95351  0.67772  1.0000
  C   C1094     1.0  0.32348  0.66118  0.62722  1.0000
  H   H1924     1.0  0.20893  0.94277  0.59151  1.0000
  C   C1095     1.0  0.47602  0.88881  0.70410  1.0000
  C   C1096     1.0  0.10640  0.93197  0.52249  1.0000
  C   C1097     1.0  0.21081  0.93016  0.62182  1.0000
  H   H1925     1.0  0.20448  0.79711  0.51009  1.0000
  H   H1926     1.0  0.04058  0.99161  0.58092  1.0000
  C   C1098     1.0  0.23745  0.70029  0.71391  1.0000
  H   H1927     1.0  0.42683  0.93882  0.72358  1.0000
  C   C1099     1.0  0.22213  0.66035  0.63572  1.0000
  H   H1928     1.0  0.21599  0.96969  0.67185  1.0000
  C   C1100     1.0  0.28337  0.70312  0.65757  1.0000
  H   H1929     1.0  0.07294  0.95560  0.52448  1.0000
  C   C1101     1.0  0.37906  0.91230  0.71464  1.0000
  H   H1930     1.0  0.23108  0.77210  0.51801  1.0000
  C   C1102     1.0  0.28212  0.67379  0.63907  1.0000
  H   H1931     1.0  0.03713  0.71139  0.49956  1.0000
  Fe  Fe126     1.0  0.08661  0.81680  0.50403  1.0000
  H   H1932     1.0  0.03804  0.91782  0.58080  1.0000
  S   S253      1.0  0.07909  0.78647  0.50197  1.0000
  C   C1103     1.0  0.25223  0.91198  0.66900  1.0000
  H   H1933     1.0  0.26621  0.67783  0.63730  1.0000
  C   C1104     1.0  0.07239  0.94257  0.51660  1.0000
  C   C1105     1.0  0.05377  0.91426  0.57531  1.0000
  H   H1934     1.0  0.06239  0.74387  0.50215  1.0000
  H   H1935     1.0  0.29978  0.67480  0.66354  1.0000
  H   H1936     1.0  0.26850  0.91028  0.66554  1.0000
  H   H1937     1.0  0.44302  0.91274  0.70736  1.0000
  H   H1938     1.0  0.06192  0.89239  0.52857  1.0000
  H   H1939     1.0  0.16884  0.85247  0.51677  1.0000
  H   H1940     1.0  0.05703  0.89810  0.57609  1.0000
  H   H1941     1.0  0.14696  0.93153  0.51488  1.0000
  H   H1942     1.0  0.38009  0.89645  0.71290  1.0000
  C   C1106     1.0  0.32279  0.86485  0.73923  1.0000
  N   N59       1.0  0.08591  0.92559  0.52495  1.0000
  H   H1943     1.0  0.28508  0.70773  0.67205  1.0000
  H   H1944     1.0  0.29491  0.70906  0.64655  1.0000
  H   H1945     1.0  0.26864  0.70947  0.65340  1.0000
  N   N60       1.0  0.21008  0.95079  0.65093  1.0000
  H   H1946     1.0  0.08578  0.90540  0.55156  1.0000
  H   H1947     1.0  0.25105  0.70319  0.70405  1.0000
  H   H1948     1.0  0.38871  0.71220  0.52415  1.0000
  H   H1949     1.0  0.26057  0.71718  0.73006  1.0000
  C   C1107     1.0  0.38194  0.71662  0.51027  1.0000
  H   H1950     1.0  0.15008  0.78438  0.51111  1.0000
  C   C1108     1.0  0.33896  0.66920  0.54645  1.0000
  H   H1951     1.0  0.05094  0.96630  0.63907  1.0000
  H   H1952     1.0  0.49102  0.88211  0.70707  1.0000
  H   H1953     1.0  0.32177  0.85683  0.72698  1.0000
  H   H1954     1.0  0.08690  0.93003  0.55540  1.0000
  H   H1955     1.0  0.20817  0.71737  0.71843  1.0000
  H   H1956     1.0  0.14007  0.97162  0.53888  1.0000
  N   N61       1.0  0.13974  0.80722  0.58233  1.0000
  C   C1109     1.0  0.13449  0.82424  0.59443  1.0000
  C   C1110     1.0  0.15620  0.81170  0.56637  1.0000
  C   C1111     1.0  0.11593  0.82336  0.60958  1.0000
  C   C1112     1.0  0.17210  0.82397  0.57128  1.0000
  C   C1113     1.0  0.19068  0.82193  0.55676  1.0000
  C   C1114     1.0  0.11261  0.84137  0.62090  1.0000
  H   H1957     1.0  0.13205  0.83797  0.58446  1.0000
  H   H1958     1.0  0.14677  0.82636  0.60264  1.0000
  H   H1959     1.0  0.16367  0.79781  0.56114  1.0000
  H   H1960     1.0  0.15011  0.82044  0.55341  1.0000
  H   H1961     1.0  0.11457  0.81909  0.56684  1.0000
  H   H1962     1.0  0.16350  0.79920  0.61442  1.0000
  H   H1963     1.0  0.17719  0.78759  0.59392  1.0000
  H   H1964     1.0  0.16618  0.83971  0.57043  1.0000
  H   H1965     1.0  0.17657  0.81977  0.58615  1.0000
  H   H1966     1.0  0.19755  0.80650  0.55780  1.0000
  H   H1967     1.0  0.18712  0.82653  0.54154  1.0000
  H   H1968     1.0  0.20148  0.83134  0.56020  1.0000
  H   H1969     1.0  0.12534  0.84221  0.62909  1.0000
  H   H1970     1.0  0.11044  0.85497  0.61071  1.0000
  H   H1971     1.0  0.09922  0.84054  0.63159  1.0000
  C   C1115     1.0  0.46352  0.89240  0.72345  1.0000
  H   H1972     1.0  0.15050  0.96505  0.67110  1.0000
  C   C1116     1.0  0.22319  0.71939  0.71120  1.0000
  H   H1973     1.0  0.15484  0.76646  0.62998  1.0000
  H   H1974     1.0  0.18111  0.76717  0.62504  1.0000
  H   H1975     1.0  0.10442  0.98244  0.56383  1.0000
  H   H1976     1.0  0.15817  0.82976  0.51769  1.0000
  H   H1977     1.0  0.47743  0.90283  0.69460  1.0000
  H   H1978     1.0  0.46177  0.93323  0.72800  1.0000
  C   C1117     1.0  0.17883  0.98249  0.59641  1.0000
  H   H1979     1.0  0.28931  0.67235  0.59863  1.0000
  H   H1980     1.0  0.36183  0.69489  0.51742  1.0000
  H   H1981     1.0  0.09863  0.77693  0.56262  1.0000
  C   C1118     1.0  0.14521  0.78835  0.59484  1.0000
  C   C1119     1.0  0.16725  0.76782  0.61816  1.0000
  H   H1982     1.0  0.14183  0.86590  0.69622  1.0000
  H   H1983     1.0  0.13235  0.79984  0.54213  1.0000
  H   H1984     1.0  0.25063  0.94280  0.66001  1.0000
  H   H1985     1.0  0.47372  0.67949  0.49869  1.0000
  C   C1120     1.0  0.21675  0.96947  0.65569  1.0000
  H   H1986     1.0  0.18668  0.94167  0.68808  1.0000
  H   H1987     1.0  0.19489  0.92821  0.62428  1.0000
  C   C1121     1.0  0.12174  0.80460  0.57273  1.0000
  H   H1988     1.0  0.24704  0.92796  0.64134  1.0000
  H   H1989     1.0  0.10251  0.82321  0.60221  1.0000
  H   H1990     1.0  0.16854  0.75523  0.60934  1.0000
  H   H1991     1.0  0.22864  0.73163  0.71720  1.0000
  H   H1992     1.0  0.18891  0.97801  0.58408  1.0000
  H   H1993     1.0  0.21158  0.73970  0.68778  1.0000
  H   H1994     1.0  0.15958  0.98095  0.56480  1.0000
  H   H1995     1.0  0.11181  0.93513  0.50675  1.0000
  C   C1122     1.0  0.02815  0.99081  0.63708  1.0000
  C   C1123     1.0  0.15214  0.97608  0.62175  1.0000
  C   C1124     1.0  0.12527  0.79167  0.55544  1.0000
  H   H1996     1.0  0.18312  0.96174  0.53006  1.0000
  C   C1125     1.0  0.06681  0.89949  0.51378  1.0000
  H   H1997     1.0  0.13284  0.78483  0.60616  1.0000
  H   H1998     1.0  0.17992  0.96139  0.64635  1.0000
  C   C1126     1.0  0.21460  0.94957  0.62915  1.0000
  H   H1999     1.0  0.14022  0.93774  0.53982  1.0000
  H   H2000     1.0  0.21353  0.91651  0.59486  1.0000
  H   H2001     1.0  0.46934  0.87867  0.69621  1.0000
  H   H2002     1.0  0.11048  0.79813  0.58379  1.0000
  H   H2003     1.0  0.10891  0.77755  0.53732  1.0000
  H   H2004     1.0  0.23312  0.93117  0.59650  1.0000
  H   H2005     1.0  0.18368  0.93617  0.65369  1.0000
  H   H2006     1.0  0.21433  0.91999  0.66176  1.0000
  C   C1127     1.0  0.04770  0.97718  0.60901  1.0000
  H   H2007     1.0  0.31926  0.66833  0.61295  1.0000
  H   H2008     1.0  0.21854  0.93576  0.67848  1.0000
  H   H2009     1.0  0.09586  0.79939  0.54634  1.0000
  C   C1128     1.0  0.14197  0.92582  0.53020  1.0000
  H   H2010     1.0  0.12556  0.90396  0.52286  1.0000
  H   H2011     1.0  0.10623  0.94586  0.52917  1.0000
  H   H2012     1.0  0.21910  0.91727  0.62934  1.0000
  C   C1129     1.0  0.18820  0.95041  0.65623  1.0000
  H   H2013     1.0  0.29002  0.68292  0.62706  1.0000
  C   C1130     1.0  0.05773  0.92356  0.55418  1.0000
  H   H2014     1.0  0.24869  0.91308  0.68499  1.0000
  H   H2015     1.0  0.23569  0.72757  0.68105  1.0000
  C   C1131     1.0  0.12258  0.91696  0.53116  1.0000
  H   H2016     1.0  0.11818  0.91209  0.54671  1.0000
  C   C1132     1.0  0.22111  0.72559  0.68947  1.0000
  H   H2017     1.0  0.23107  0.68858  0.70780  1.0000
  C   C1133     1.0  0.21704  0.93023  0.59982  1.0000
  C   C1134     1.0  0.22073  0.93378  0.66260  1.0000
  C   C1135     1.0  0.03113  0.74908  0.50952  1.0000
  C   C1136     1.0  0.21365  0.79093  0.49755  1.0000
  C   C1137     1.0  0.37260  0.69940  0.50482  1.0000
  H   H2018     1.0  0.15381  0.93884  0.67790  1.0000
  C   C1138     1.0  0.16445  0.84185  0.50775  1.0000
  N   N62       1.0  0.42915  0.90882  0.73722  1.0000
  H   H2019     1.0  0.15487  0.98533  0.52079  1.0000
  N   N63       1.0  0.24231  0.69335  0.73457  1.0000
  C   C1139     1.0  0.44217  0.90107  0.71996  1.0000
  C   C1140     1.0  0.27545  0.67613  0.71991  1.0000
  H   H2020     1.0  0.40906  0.91599  0.70329  1.0000
  H   H2021     1.0  0.35441  0.86488  0.73375  1.0000
  H   H2022     1.0  0.35628  0.66794  0.50287  1.0000
  H   H2023     1.0  0.20865  0.98673  0.52145  1.0000
  S   S254      1.0  0.13001  0.75172  0.50420  1.0000
  H   H2024     1.0  0.10310  0.97562  0.59978  1.0000
  H   H2025     1.0  0.47519  0.69350  0.51868  1.0000
  H   H2026     1.0  0.23369  0.76432  0.49377  1.0000
  H   H2027     1.0  0.24823  0.66314  0.72838  1.0000
  H   H2028     1.0  0.21169  0.76064  0.51036  1.0000
  H   H2029     1.0  0.06289  0.71091  0.49838  1.0000
  H   H2030     1.0  0.30423  0.66003  0.71403  1.0000
  C   C1141     1.0  0.45083  0.93635  0.74069  1.0000
  H   H2031     1.0  0.19384  0.82741  0.50378  1.0000
  H   H2032     1.0  0.33409  0.68356  0.50008  1.0000
  H   H2033     1.0  0.02458  0.99032  0.65281  1.0000
  H   H2034     1.0  0.01721  0.75297  0.50269  1.0000
  H   H2035     1.0  0.11048  0.98762  0.53154  1.0000
  C   C1142     1.0  0.03727  0.99141  0.59664  1.0000
  H   H2036     1.0  0.36844  0.91539  0.72766  1.0000
  C   C1143     1.0  0.19349  0.99148  0.49537  1.0000
  C   C1144     1.0  0.20556  0.98880  0.64705  1.0000
  H   H2037     1.0  0.05490  0.87749  0.50015  1.0000
  C   C1145     1.0  0.11692  0.98585  0.57106  1.0000
  H   H2038     1.0  0.18962  0.98977  0.65230  1.0000
  S   S255      1.0  0.11903  0.80894  0.49708  1.0000
  H   H2039     1.0  0.12104  0.99222  0.60031  1.0000
  H   H2040     1.0  0.39364  0.72108  0.49860  1.0000
  C   C1146     1.0  0.34133  0.86945  0.74314  1.0000
  H   H2041     1.0  0.15290  0.84954  0.49883  1.0000
  C   C1147     1.0  0.04935  0.74779  0.49385  1.0000
  H   H2042     1.0  0.04469  0.67437  0.50035  1.0000
  H   H2043     1.0  0.06242  0.97875  0.49553  1.0000
  C   C1148     1.0  0.25146  0.70928  0.74226  1.0000
  C   C1149     1.0  0.07639  0.94882  0.49422  1.0000
  C   C1150     1.0  0.18233  0.83394  0.49445  1.0000
  H   H2044     1.0  0.07092  0.67574  0.49446  1.0000
  H   H2045     1.0  0.22389  0.69485  0.77694  1.0000
  C   C1151     1.0  0.36718  0.87622  0.98802  1.0000
  C   C1152     1.0  0.36574  0.81681  0.85008  1.0000
  Fe  Fe127     1.0  0.40830  0.92176  0.80164  1.0000
  S   S256      1.0  0.38918  0.93010  0.82865  1.0000
  Fe  Fe128     1.0  0.37432  0.90322  0.78689  1.0000
  S   S257      1.0  0.35309  0.91114  0.81268  1.0000
  Fe  Fe129     1.0  0.36609  0.93973  0.80827  1.0000
  S   S258      1.0  0.34729  0.96829  0.81142  1.0000
  Fe  Fe130     1.0  0.37808  0.90068  0.83074  1.0000
  S   S259      1.0  0.36997  0.88423  0.86040  1.0000
  S   S260      1.0  0.38562  0.93307  0.78088  1.0000
  S   S261      1.0  0.39891  0.89105  0.80533  1.0000
  Fe  Fe131     1.0  0.41217  0.76980  0.96355  1.0000
  S   S262      1.0  0.40997  0.80137  0.95150  1.0000
  Fe  Fe132     1.0  0.37725  0.76190  0.94134  1.0000
  S   S263      1.0  0.37217  0.79312  0.92878  1.0000
  S   S264      1.0  0.35934  0.73849  0.93401  1.0000
  Fe  Fe133     1.0  0.40505  0.79146  0.92292  1.0000
  S   S265      1.0  0.41792  0.80569  0.89373  1.0000
  Fe  Fe134     1.0  0.37739  0.80069  0.95814  1.0000
  S   S266      1.0  0.35767  0.82399  0.97299  1.0000
  S   S267      1.0  0.41034  0.75942  0.93398  1.0000
  S   S268      1.0  0.37934  0.76959  0.97171  1.0000
  C   C1153     1.0  0.34163  0.72259  0.99037  1.0000
  H   H2046     1.0  0.35519  0.77963  0.84074  1.0000
  S   S269      1.0  0.11823  0.68829  0.89346  1.0000
  H   H2047     1.0  0.43660  0.84964  0.77912  1.0000
  C   C1154     1.0  0.15761  0.71322  0.93402  1.0000
  H   H2048     1.0  0.23759  0.67205  0.77167  1.0000
  H   H2049     1.0  0.19441  0.72564  0.92547  1.0000
  H   H2050     1.0  0.37471  0.87459  0.92703  1.0000
  H   H2051     1.0  0.36842  0.95987  0.85362  1.0000
  H   H2052     1.0  0.28851  0.83360  0.94057  1.0000
  Fe  Fe135     1.0  0.23138  0.70260  0.87358  1.0000
  S   S270      1.0  0.23029  0.70990  0.84125  1.0000
  S   S271      1.0  0.21204  0.68033  0.89045  1.0000
  Fe  Fe136     1.0  0.26509  0.72846  0.87440  1.0000
  S   S272      1.0  0.26644  0.73693  0.84172  1.0000
  S   S273      1.0  0.27999  0.74703  0.89258  1.0000
  Fe  Fe137     1.0  0.23356  0.74053  0.84642  1.0000
  S   S274      1.0  0.21559  0.76747  0.83388  1.0000
  Fe  Fe138     1.0  0.26313  0.70535  0.83917  1.0000
  S   S275      1.0  0.27930  0.68990  0.81371  1.0000
  S   S276      1.0  0.23188  0.73379  0.87910  1.0000
  S   S277      1.0  0.26455  0.69625  0.87154  1.0000
  H   H2053     1.0  0.40612  0.86719  0.92537  1.0000
  H   H2054     1.0  0.31528  0.80795  0.76679  1.0000
  C   C1155     1.0  0.21998  0.77360  0.80842  1.0000
  C   C1156     1.0  0.21361  0.79249  0.80022  1.0000
  C   C1157     1.0  0.21679  0.79769  0.77986  1.0000
  C   C1158     1.0  0.22586  0.78380  0.76763  1.0000
  C   C1159     1.0  0.23171  0.76476  0.77581  1.0000
  C   C1160     1.0  0.22923  0.75976  0.79621  1.0000
  H   H2055     1.0  0.20622  0.80317  0.80962  1.0000
  H   H2056     1.0  0.21174  0.81224  0.77357  1.0000
  H   H2057     1.0  0.23811  0.75391  0.76626  1.0000
  H   H2058     1.0  0.23400  0.74509  0.80241  1.0000
  C   C1161     1.0  0.44294  0.96742  0.79223  1.0000
  H   H2059     1.0  0.41032  0.86633  0.89966  1.0000
  H   H2060     1.0  0.24470  0.66197  0.92745  1.0000
  H   H2061     1.0  0.24782  0.78531  0.84729  1.0000
  C   C1162     1.0  0.14435  0.68562  0.89254  1.0000
  C   C1163     1.0  0.15502  0.66792  0.89877  1.0000
  C   C1164     1.0  0.17572  0.66652  0.89787  1.0000
  C   C1165     1.0  0.18603  0.68265  0.89053  1.0000
  C   C1166     1.0  0.17540  0.70034  0.88420  1.0000
  C   C1167     1.0  0.15467  0.70181  0.88535  1.0000
  H   H2062     1.0  0.20724  0.66691  0.79332  1.0000
  H   H2063     1.0  0.29214  0.66522  0.78278  1.0000
  H   H2064     1.0  0.18310  0.71300  0.87895  1.0000
  H   H2065     1.0  0.14647  0.71566  0.88103  1.0000
  H   H2066     1.0  0.34306  0.89170  0.93753  1.0000
  C   C1168     1.0  0.33793  0.74156  0.92136  1.0000
  C   C1169     1.0  0.32602  0.75941  0.91934  1.0000
  C   C1170     1.0  0.30841  0.76077  0.91046  1.0000
  C   C1171     1.0  0.30268  0.74447  0.90309  1.0000
  C   C1172     1.0  0.31479  0.72674  0.90477  1.0000
  C   C1173     1.0  0.33218  0.72528  0.91403  1.0000
  H   H2067     1.0  0.33017  0.77202  0.92500  1.0000
  H   H2068     1.0  0.29911  0.77453  0.90934  1.0000
  H   H2069     1.0  0.31060  0.71405  0.89926  1.0000
  H   H2070     1.0  0.34121  0.71137  0.91558  1.0000
  H   H2071     1.0  0.23978  0.72062  0.74757  1.0000
  H   H2072     1.0  0.30350  0.75328  0.97024  1.0000
  H   H2073     1.0  0.32688  0.89381  0.78317  1.0000
  C   C1174     1.0  0.38371  0.86252  0.86920  1.0000
  C   C1175     1.0  0.37722  0.85299  0.88752  1.0000
  C   C1176     1.0  0.38790  0.83585  0.89532  1.0000
  C   C1177     1.0  0.40488  0.82777  0.88462  1.0000
  H   H2074     1.0  0.26006  0.79739  0.86320  1.0000
  H   H2075     1.0  0.27968  0.76818  0.78592  1.0000
  H   H2076     1.0  0.36399  0.85901  0.89585  1.0000
  H   H2077     1.0  0.38304  0.82904  0.90969  1.0000
  H   H2078     1.0  0.41595  0.81950  0.98859  1.0000
  H   H2079     1.0  0.17743  0.73313  0.75862  1.0000
  C   C1178     1.0  0.38597  0.87899  0.97861  1.0000
  C   C1179     1.0  0.39624  0.86470  0.96749  1.0000
  C   C1180     1.0  0.38741  0.84807  0.96517  1.0000
  C   C1181     1.0  0.36873  0.84514  0.97477  1.0000
  H   H2080     1.0  0.26583  0.73241  0.76691  1.0000
  H   H2081     1.0  0.30572  0.83242  0.77120  1.0000
  H   H2082     1.0  0.41082  0.86669  0.96032  1.0000
  H   H2083     1.0  0.39491  0.83785  0.95558  1.0000
  N   N64       1.0  0.35978  0.79836  0.86227  1.0000
  C   C1182     1.0  0.43894  0.91928  0.94216  1.0000
  C   C1183     1.0  0.26871  0.67052  0.80587  1.0000
  S   S278      1.0  0.07031  0.66132  0.89381  1.0000
  H   H2084     1.0  0.23833  0.82240  0.80433  1.0000
  C   C1184     1.0  0.35482  0.95963  0.86402  1.0000
  H   H2085     1.0  0.42469  0.83127  0.85804  1.0000
  C   C1185     1.0  0.22424  0.68193  0.76876  1.0000
  C   C1186     1.0  0.30613  0.87435  0.97117  1.0000
  C   C1187     1.0  0.28735  0.77242  0.75478  1.0000
  H   H2086     1.0  0.15011  0.72246  0.94537  1.0000
  C   C1188     1.0  0.41146  0.83735  0.86632  1.0000
  H   H2087     1.0  0.38941  0.97014  0.80643  1.0000
  H   H2088     1.0  0.45716  0.86362  0.77118  1.0000
  C   C1189     1.0  0.38223  0.98331  0.81225  1.0000
  H   H2089     1.0  0.20683  0.75271  0.93517  1.0000
  H   H2090     1.0  0.41035  0.93391  0.89211  1.0000
  C   C1190     1.0  0.33314  0.82250  0.78252  1.0000
  C   C1191     1.0  0.26484  0.70299  0.75904  1.0000
  H   H2091     1.0  0.15374  0.66107  0.94207  1.0000
  C   C1192     1.0  0.38625  0.98189  0.87657  1.0000
  C   C1193     1.0  0.37612  0.76539  0.87861  1.0000
  C   C1194     1.0  0.25094  0.66454  0.81528  1.0000
  H   H2092     1.0  0.41361  0.87551  0.76482  1.0000
  C   C1195     1.0  0.31845  0.79808  0.96037  1.0000
  C   C1196     1.0  0.23861  0.68204  0.94984  1.0000
  H   H2093     1.0  0.42960  0.83672  0.92511  1.0000
  H   H2094     1.0  0.45541  0.83929  0.91846  1.0000
  C   C1197     1.0  0.45285  0.94873  0.79629  1.0000
  H   H2095     1.0  0.41626  0.89320  0.87719  1.0000
  C   C1198     1.0  0.24349  0.66140  0.94370  1.0000
  H   H2096     1.0  0.16874  0.75843  0.76199  1.0000
  H   H2097     1.0  0.27339  0.77773  0.85068  1.0000
  C   C1199     1.0  0.20664  0.67094  0.77735  1.0000
  Fe  Fe139     1.0  0.09877  0.66408  0.90589  1.0000
  H   H2098     1.0  0.34316  0.93961  0.84766  1.0000
  H   H2099     1.0  0.36783  0.76765  0.89309  1.0000
  H   H2100     1.0  0.15958  0.72237  0.91970  1.0000
  C   C1200     1.0  0.35949  0.96101  0.88516  1.0000
  H   H2101     1.0  0.44657  0.90131  0.91868  1.0000
  H   H2102     1.0  0.28165  0.80940  0.76307  1.0000
  C   C1201     1.0  0.34618  0.94051  0.86293  1.0000
  H   H2103     1.0  0.25072  0.69053  0.94277  1.0000
  C   C1202     1.0  0.44066  0.83529  0.99017  1.0000
  H   H2104     1.0  0.27111  0.83730  0.80556  1.0000
  H   H2105     1.0  0.32040  0.90107  0.96723  1.0000
  H   H2106     1.0  0.34992  0.91459  0.92482  1.0000
  H   H2107     1.0  0.40495  0.75086  0.86867  1.0000
  H   H2108     1.0  0.42835  0.92201  0.85148  1.0000
  H   H2109     1.0  0.45364  0.92474  0.94030  1.0000
  H   H2110     1.0  0.39376  0.80827  0.83280  1.0000
  C   C1203     1.0  0.22328  0.68886  0.74669  1.0000
  H   H2111     1.0  0.42521  0.90546  0.76892  1.0000
  C   C1204     1.0  0.37928  0.83346  0.81713  1.0000
  H   H2112     1.0  0.25957  0.66804  0.74822  1.0000
  H   H2113     1.0  0.34126  0.80893  0.78912  1.0000
  C   C1205     1.0  0.30563  0.87075  0.75114  1.0000
  H   H2114     1.0  0.18266  0.69971  0.98144  1.0000
  H   H2115     1.0  0.32480  0.98353  0.88546  1.0000
  H   H2116     1.0  0.24082  0.72101  0.94492  1.0000
  C   C1206     1.0  0.28358  0.84863  0.94442  1.0000
  C   C1207     1.0  0.26884  0.85789  0.93023  1.0000
  H   H2117     1.0  0.26520  0.86251  0.96799  1.0000
  H   H2118     1.0  0.29665  0.85680  0.94150  1.0000
  H   H2119     1.0  0.25573  0.84965  0.93210  1.0000
  H   H2120     1.0  0.26408  0.87338  0.93277  1.0000
  H   H2121     1.0  0.27583  0.85759  0.91489  1.0000
  N   N65       1.0  0.16613  0.73275  0.82052  1.0000
  C   C1208     1.0  0.16517  0.73579  0.79860  1.0000
  C   C1209     1.0  0.14935  0.72161  0.83010  1.0000
  C   C1210     1.0  0.16497  0.75263  0.82775  1.0000
  C   C1211     1.0  0.18511  0.72111  0.82564  1.0000
  C   C1212     1.0  0.18968  0.70051  0.81813  1.0000
  C   C1213     1.0  0.18394  0.74247  0.78596  1.0000
  C   C1214     1.0  0.16366  0.75290  0.85031  1.0000
  C   C1215     1.0  0.12841  0.73244  0.82883  1.0000
  C   C1216     1.0  0.11281  0.71979  0.83948  1.0000
  C   C1217     1.0  0.18723  0.68371  0.83457  1.0000
  H   H2122     1.0  0.30404  0.97489  0.80736  1.0000
  C   C1218     1.0  0.16076  0.77389  0.85574  1.0000
  H   H2123     1.0  0.15271  0.74698  0.79502  1.0000
  H   H2124     1.0  0.16159  0.72237  0.79304  1.0000
  H   H2125     1.0  0.14965  0.70769  0.82349  1.0000
  H   H2126     1.0  0.15112  0.71690  0.84581  1.0000
  H   H2127     1.0  0.15231  0.76248  0.82231  1.0000
  H   H2128     1.0  0.17814  0.76005  0.82147  1.0000
  H   H2129     1.0  0.19777  0.72966  0.82026  1.0000
  H   H2130     1.0  0.18550  0.71905  0.84179  1.0000
  H   H2131     1.0  0.20526  0.69884  0.81146  1.0000
  H   H2132     1.0  0.18069  0.69848  0.80648  1.0000
  H   H2133     1.0  0.18797  0.75610  0.79059  1.0000
  H   H2134     1.0  0.19660  0.73100  0.78720  1.0000
  H   H2135     1.0  0.17746  0.74577  0.85601  1.0000
  H   H2136     1.0  0.15115  0.74539  0.85807  1.0000
  H   H2137     1.0  0.12658  0.74626  0.83577  1.0000
  H   H2138     1.0  0.12539  0.73590  0.81330  1.0000
  H   H2139     1.0  0.09790  0.72770  0.83831  1.0000
  H   H2140     1.0  0.11362  0.70579  0.83295  1.0000
  H   H2141     1.0  0.11489  0.71651  0.85530  1.0000
  S   S279      1.0  0.33408  0.98181  0.96841  1.0000
  H   H2142     1.0  0.30147  0.81984  0.80827  1.0000
  H   H2143     1.0  0.19750  0.68409  0.84569  1.0000
  C   C1219     1.0  0.43385  0.89802  0.75669  1.0000
  H   H2144     1.0  0.43821  0.87181  0.78982  1.0000
  H   H2145     1.0  0.39044  0.97859  0.94261  1.0000
  H   H2146     1.0  0.16038  0.77370  0.87188  1.0000
  H   H2147     1.0  0.17312  0.78209  0.84859  1.0000
  H   H2148     1.0  0.14666  0.78158  0.85118  1.0000
  C   C1220     1.0  0.37840  0.78490  0.86536  1.0000
  H   H2149     1.0  0.25610  0.69856  0.77303  1.0000
  C   C1221     1.0  0.47317  0.94723  0.79813  1.0000
  C   C1222     1.0  0.30130  0.80868  0.97256  1.0000
  H   H2150     1.0  0.20461  0.68237  0.98177  1.0000
  H   H2151     1.0  0.39417  0.74091  0.89238  1.0000
  C   C1223     1.0  0.37840  0.81402  0.83021  1.0000
  H   H2152     1.0  0.45624  0.92877  0.75438  1.0000
  H   H2153     1.0  0.40622  0.86217  0.84463  1.0000
  C   C1224     1.0  0.27610  0.71971  0.76253  1.0000
  H   H2154     1.0  0.19067  0.66946  0.82839  1.0000
  H   H2155     1.0  0.34409  0.97186  0.85888  1.0000
  H   H2156     1.0  0.43562  0.83473  0.95975  1.0000
  S   S280      1.0  0.39625  0.90068  0.97979  1.0000
  H   H2157     1.0  0.41200  0.89618  0.93891  1.0000
  H   H2158     1.0  0.23881  0.85808  0.80610  1.0000
  C   C1225     1.0  0.35215  0.89844  0.92465  1.0000
  H   H2159     1.0  0.29432  0.88574  0.77642  1.0000
  C   C1226     1.0  0.42634  0.93171  0.86343  1.0000
  S   S281      1.0  0.36686  0.88553  0.76317  1.0000
  C   C1227     1.0  0.44111  0.86467  0.77604  1.0000
  C   C1228     1.0  0.18088  0.74653  0.76425  1.0000
  H   H2160     1.0  0.18360  0.69341  0.92881  1.0000
  H   H2161     1.0  0.17195  0.68451  0.84198  1.0000
  H   H2162     1.0  0.40335  0.91897  0.92710  1.0000
  C   C1229     1.0  0.30438  0.73718  0.97054  1.0000
  H   H2163     1.0  0.42050  0.94657  0.85731  1.0000
  H   H2164     1.0  0.37238  0.80368  0.82205  1.0000
  H   H2165     1.0  0.42769  0.93121  0.94684  1.0000
  H   H2166     1.0  0.43508  0.90121  0.88829  1.0000
  C   C1230     1.0  0.43473  0.91280  0.92285  1.0000
  C   C1231     1.0  0.31291  0.81850  0.77794  1.0000
  H   H2167     1.0  0.26105  0.79847  0.77532  1.0000
  H   H2168     1.0  0.31967  0.86599  0.96478  1.0000
  H   H2169     1.0  0.37699  0.69795  0.98543  1.0000
  H   H2170     1.0  0.17455  0.69447  0.95403  1.0000
  H   H2171     1.0  0.38520  0.84435  0.82471  1.0000
  C   C1232     1.0  0.41395  0.90574  0.92483  1.0000
  S   S282      1.0  0.02636  0.66672  0.93762  1.0000
  H   H2172     1.0  0.35669  0.92769  0.86729  1.0000
  H   H2173     1.0  0.38299  0.89251  0.89466  1.0000
  C   C1233     1.0  0.35022  0.80400  0.88192  1.0000
  C   C1234     1.0  0.34630  0.78909  0.85126  1.0000
  C   C1235     1.0  0.33081  0.77674  0.86360  1.0000
  C   C1236     1.0  0.33328  0.82094  0.88132  1.0000
  C   C1237     1.0  0.32057  0.76593  0.85042  1.0000
  C   C1238     1.0  0.32179  0.82238  0.90158  1.0000
  H   H2174     1.0  0.36144  0.80864  0.89018  1.0000
  H   H2175     1.0  0.34451  0.79128  0.89127  1.0000
  H   H2176     1.0  0.35248  0.82695  0.84665  1.0000
  H   H2177     1.0  0.33768  0.80048  0.84197  1.0000
  H   H2178     1.0  0.31924  0.78629  0.87162  1.0000
  H   H2179     1.0  0.33942  0.83514  0.87674  1.0000
  H   H2180     1.0  0.32293  0.81902  0.87079  1.0000
  H   H2181     1.0  0.31305  0.77643  0.83953  1.0000
  H   H2182     1.0  0.33137  0.75544  0.84264  1.0000
  H   H2183     1.0  0.30935  0.75749  0.85948  1.0000
  H   H2184     1.0  0.31009  0.83491  0.90083  1.0000
  H   H2185     1.0  0.31475  0.80878  0.90672  1.0000
  H   H2186     1.0  0.33179  0.82480  0.91232  1.0000
  C   C1239     1.0  0.34305  0.87999  0.75896  1.0000
  H   H2187     1.0  0.28555  0.74004  0.94715  1.0000
  C   C1240     1.0  0.41196  0.92397  0.88046  1.0000
  C   C1241     1.0  0.31228  0.89204  0.97919  1.0000
  H   H2188     1.0  0.30292  0.77768  0.77827  1.0000
  H   H2189     1.0  0.33158  0.83400  0.79267  1.0000
  H   H2190     1.0  0.25701  0.81822  0.83217  1.0000
  H   H2191     1.0  0.28788  0.80926  0.96505  1.0000
  C   C1242     1.0  0.21843  0.69126  0.94339  1.0000
  H   H2192     1.0  0.28604  0.97031  0.79217  1.0000
  C   C1243     1.0  0.40099  0.85479  0.85867  1.0000
  H   H2193     1.0  0.29480  0.75732  0.75432  1.0000
  C   C1244     1.0  0.37380  0.89081  0.92583  1.0000
  H   H2194     1.0  0.22089  0.85338  0.79076  1.0000
  H   H2195     1.0  0.37415  0.82494  0.85857  1.0000
  H   H2196     1.0  0.27202  0.77266  0.75117  1.0000
  H   H2197     1.0  0.30783  0.79577  0.80191  1.0000
  H   H2198     1.0  0.48109  0.93292  0.80121  1.0000
  C   C1245     1.0  0.41446  0.87357  0.91184  1.0000
  H   H2199     1.0  0.44087  0.93264  0.86848  1.0000
  H   H2200     1.0  0.43939  0.84013  0.89960  1.0000
  C   C1246     1.0  0.48351  0.96400  0.79559  1.0000
  H   H2201     1.0  0.38908  0.83118  0.80339  1.0000
  H   H2202     1.0  0.27461  0.83821  0.77985  1.0000
  H   H2203     1.0  0.43886  0.90678  0.95391  1.0000
  H   H2204     1.0  0.38214  0.91479  0.90505  1.0000
  H   H2205     1.0  0.24383  0.86186  0.77961  1.0000
  S   S283      1.0  0.44106  0.92679  0.79760  1.0000
  N   N66       1.0  0.40897  0.89541  0.90830  1.0000
  H   H2206     1.0  0.22935  0.72309  0.92297  1.0000
  C   C1247     1.0  0.19189  0.71881  0.94093  1.0000
  C   C1248     1.0  0.32592  0.88572  0.77094  1.0000
  H   H2207     1.0  0.43975  0.87021  0.92873  1.0000
  C   C1249     1.0  0.39622  0.75465  0.88257  1.0000
  H   H2208     1.0  0.23294  0.77482  0.93142  1.0000
  N   N67       1.0  0.36666  0.97989  0.88868  1.0000
  C   C1250     1.0  0.36842  0.97925  0.91034  1.0000
  H   H2209     1.0  0.28659  0.71652  0.96154  1.0000
  C   C1251     1.0  0.44817  0.83354  0.96863  1.0000
  H   H2210     1.0  0.37994  0.72164  0.97176  1.0000
  H   H2211     1.0  0.34377  0.73093  0.97560  1.0000
  C   C1252     1.0  0.38427  0.96349  0.91857  1.0000
  H   H2212     1.0  0.37815  0.89522  0.93944  1.0000
  H   H2213     1.0  0.29868  0.79961  0.98683  1.0000
  C   C1253     1.0  0.30575  0.72681  0.99166  1.0000
  H   H2214     1.0  0.22509  0.71120  0.97550  1.0000
  C   C1254     1.0  0.38538  0.96449  0.94034  1.0000
  H   H2215     1.0  0.25144  0.75425  0.93461  1.0000
  H   H2216     1.0  0.35415  0.97642  0.91909  1.0000
  H   H2217     1.0  0.31454  0.83574  0.96284  1.0000
  C   C1255     1.0  0.23680  0.75910  0.92941  1.0000
  N   N68       1.0  0.28783  0.84328  0.98189  1.0000
  H   H2218     1.0  0.33738  0.76575  0.87459  1.0000
  C   C1256     1.0  0.22106  0.74712  0.94089  1.0000
  H   H2219     1.0  0.18381  0.73057  0.94939  1.0000
  H   H2220     1.0  0.34712  0.89455  0.91108  1.0000
  H   H2221     1.0  0.42737  0.96894  0.79068  1.0000
  C   C1257     1.0  0.30568  0.82943  0.97607  1.0000
  H   H2222     1.0  0.38068  0.94861  0.91711  1.0000
  H   H2223     1.0  0.39913  0.96541  0.91089  1.0000
  H   H2224     1.0  0.34628  0.95787  0.89560  1.0000
  C   C1258     1.0  0.41886  0.90263  0.88843  1.0000
  C   C1259     1.0  0.17744  0.70345  0.93992  1.0000
  H   H2225     1.0  0.36867  0.75552  0.87118  1.0000
  H   H2226     1.0  0.24300  0.82643  0.77793  1.0000
  C   C1260     1.0  0.28926  0.98012  0.80268  1.0000
  S   S284      1.0  0.08434  0.66076  0.93703  1.0000
  H   H2227     1.0  0.22002  0.74997  0.95646  1.0000
  H   H2228     1.0  0.21932  0.69128  0.92719  1.0000
  H   H2229     1.0  0.32215  0.80685  0.94613  1.0000
  H   H2230     1.0  0.41955  0.93616  0.74933  1.0000
  C   C1261     1.0  0.21008  0.71266  0.97065  1.0000
  H   H2231     1.0  0.14802  0.70178  0.93254  1.0000
  C   C1262     1.0  0.37859  0.71351  0.98668  1.0000
  H   H2232     1.0  0.27804  0.97913  0.81567  1.0000
  C   C1263     1.0  0.30741  0.88110  0.76707  1.0000
  H   H2233     1.0  0.34188  0.82789  0.76873  1.0000
  H   H2234     1.0  0.43580  0.92551  0.91147  1.0000
  H   H2235     1.0  0.46281  0.78002  0.96912  1.0000
  C   C1264     1.0  0.44035  0.84433  0.91444  1.0000
  H   H2236     1.0  0.39643  0.96826  0.87876  1.0000
  H   H2237     1.0  0.38605  0.78059  0.85115  1.0000
  H   H2238     1.0  0.27251  0.73764  0.97149  1.0000
  C   C1265     1.0  0.22643  0.72494  0.93892  1.0000
  C   C1266     1.0  0.28740  0.77878  0.77518  1.0000
  H   H2239     1.0  0.39745  0.92446  0.87480  1.0000
  H   H2240     1.0  0.28245  0.80998  0.83493  1.0000
  H   H2241     1.0  0.19257  0.68016  0.77505  1.0000
  H   H2242     1.0  0.20314  0.72731  0.97434  1.0000
  C   C1267     1.0  0.28609  0.73252  0.96226  1.0000
  H   H2243     1.0  0.40456  0.76384  0.88994  1.0000
  C   C1268     1.0  0.27407  0.84815  0.96610  1.0000
  C   C1269     1.0  0.38696  0.89886  0.90744  1.0000
  H   H2244     1.0  0.36440  0.83946  0.81314  1.0000
  H   H2245     1.0  0.33014  0.75929  0.98765  1.0000
  H   H2246     1.0  0.37073  0.94849  0.88834  1.0000
  H   H2247     1.0  0.38893  0.79283  0.87161  1.0000
  C   C1270     1.0  0.43628  0.86654  0.91441  1.0000
  H   H2248     1.0  0.44647  0.87311  0.90244  1.0000
  H   H2249     1.0  0.29665  0.88034  0.95952  1.0000
  N   N69       1.0  0.27894  0.80894  0.79465  1.0000
  C   C1271     1.0  0.27029  0.79646  0.81231  1.0000
  C   C1272     1.0  0.27679  0.79976  0.77645  1.0000
  C   C1273     1.0  0.30033  0.81030  0.79671  1.0000
  C   C1274     1.0  0.26846  0.82944  0.79317  1.0000
  C   C1275     1.0  0.24598  0.83122  0.79191  1.0000
  C   C1276     1.0  0.26830  0.80533  0.83212  1.0000
  H   H2250     1.0  0.33210  0.93984  0.87263  1.0000
  H   H2251     1.0  0.26298  0.83743  0.96773  1.0000
  C   C1277     1.0  0.23689  0.85246  0.79215  1.0000
  C   C1278     1.0  0.26201  0.79049  0.84930  1.0000
  H   H2252     1.0  0.39602  0.95243  0.94605  1.0000
  H   H2253     1.0  0.27942  0.78208  0.81426  1.0000
  H   H2254     1.0  0.25552  0.79271  0.81001  1.0000
  H   H2255     1.0  0.20765  0.68083  0.94955  1.0000
  H   H2256     1.0  0.23850  0.68106  0.96601  1.0000
  N   N70       1.0  0.21144  0.71160  0.94881  1.0000
  H   H2257     1.0  0.23780  0.75754  0.91349  1.0000
  H   H2258     1.0  0.49397  0.78702  0.98040  1.0000
  H   H2259     1.0  0.45742  0.84550  0.96291  1.0000
  H   H2260     1.0  0.43792  0.96275  0.75383  1.0000
  H   H2261     1.0  0.24332  0.67199  0.82733  1.0000
  H   H2262     1.0  0.19456  0.75133  0.75569  1.0000
  H   H2263     1.0  0.37081  0.96290  0.94890  1.0000
  H   H2264     1.0  0.45723  0.81929  0.96704  1.0000
  C   C1279     1.0  0.45340  0.98412  0.78904  1.0000
  H   H2265     1.0  0.42698  0.98577  0.87438  1.0000
  H   H2266     1.0  0.28580  0.72429  0.74910  1.0000
  H   H2267     1.0  0.31588  0.82732  0.98772  1.0000
  H   H2268     1.0  0.33165  0.79530  0.96844  1.0000
  S   S285      1.0  0.34315  0.92777  0.98655  1.0000
  C   C1280     1.0  0.35865  0.85924  0.98620  1.0000
  H   H2269     1.0  0.31735  0.73221  0.96048  1.0000
  C   C1281     1.0  0.19834  0.69753  0.98405  1.0000
  H   H2270     1.0  0.38443  0.98365  0.86063  1.0000
  H   H2271     1.0  0.03712  0.66026  0.86725  1.0000
  C   C1282     1.0  0.48362  0.77913  0.99047  1.0000
  H   H2272     1.0  0.31442  0.78382  0.95734  1.0000
  C   C1283     1.0  0.47379  0.98260  0.79064  1.0000
  C   C1284     1.0  0.42957  0.87628  0.76009  1.0000
  C   C1285     1.0  0.46592  0.77519  0.98401  1.0000
  C   C1286     1.0  0.36169  0.98614  0.81583  1.0000
  H   H2273     1.0  0.44940  0.89864  0.75904  1.0000
  H   H2274     1.0  0.28549  0.71476  0.77456  1.0000
  H   H2275     1.0  0.39819  0.91068  0.74834  1.0000
  H   H2276     1.0  0.27617  0.69075  0.75569  1.0000
  C   C1287     1.0  0.02222  0.66123  0.87557  1.0000
  H   H2277     1.0  0.43326  0.86895  0.74649  1.0000
  S   S286      1.0  0.28168  0.86532  0.74730  1.0000
  C   C1288     1.0  0.29452  0.86164  0.98749  1.0000
  H   H2278     1.0  0.34051  0.70732  0.98747  1.0000
  H   H2279     1.0  0.02010  0.67470  0.88318  1.0000
  H   H2280     1.0  0.29920  0.90133  0.98532  1.0000
  H   H2281     1.0  0.43230  0.84995  0.99100  1.0000
  H   H2282     1.0  0.21227  0.70196  0.74655  1.0000
  H   H2283     1.0  0.01117  0.66221  0.86496  1.0000
  H   H2284     1.0  0.30624  0.71091  0.99030  1.0000
  S   S287      1.0  0.43033  0.75834  0.98920  1.0000
  H   H2285     1.0  0.32203  0.88735  0.99092  1.0000
  C   C1289     1.0  0.27836  0.66070  0.79013  1.0000
  H   H2286     1.0  0.28173  0.87171  0.99289  1.0000
  Fe  Fe140     1.0  0.34632  0.95868  0.99184  1.0000
  H   H2287     1.0  0.29542  0.78224  0.74351  1.0000
  H   H2288     1.0  0.46383  0.96211  0.74577  1.0000
  Fe  Fe141     1.0  0.64537  0.04673  0.13837  1.0000
  S   S288      1.0  0.62375  0.05494  0.16398  1.0000
  S   S289      1.0  0.66665  0.01938  0.13776  1.0000
  Fe  Fe142     1.0  0.63163  0.08266  0.11113  1.0000
  S   S290      1.0  0.60907  0.09322  0.13478  1.0000
  S   S291      1.0  0.63732  0.09507  0.07916  1.0000
  Fe  Fe143     1.0  0.63339  0.08529  0.15472  1.0000
  S   S292      1.0  0.64171  0.10876  0.17219  1.0000
  Fe  Fe144     1.0  0.60167  0.06176  0.14150  1.0000
  S   S293      1.0  0.56955  0.05464  0.14093  1.0000
  S   S294      1.0  0.65608  0.07623  0.13040  1.0000
  S   S295      1.0  0.62324  0.05203  0.11664  1.0000
  Fe  Fe145     1.0  0.63024  0.19287  0.01333  1.0000
  S   S296      1.0  0.62553  0.22481  0.00228  1.0000
  S   S297      1.0  0.61385  0.18235  0.04251  1.0000
  H   H2289     1.0  0.75162  0.32428  0.01673  1.0000
  H   H2290     1.0  0.57413  0.07852  0.10050  1.0000
  Fe  Fe146     1.0  0.65872  0.22306  0.99752  1.0000
  H   H2291     1.0  0.77426  0.30948  0.13242  1.0000
  H   H2292     1.0  0.79410  0.22323  0.01569  1.0000
  H   H2293     1.0  0.62674  0.01075  0.14156  1.0000
  S   S298      1.0  0.66319  0.19163  0.01007  1.0000
  H   H2294     1.0  0.54028  0.08593  0.08775  1.0000
  Fe  Fe147     1.0  0.73650  0.13089  0.22481  1.0000
  S   S299      1.0  0.73571  0.16244  0.21250  1.0000
  S   S300      1.0  0.71550  0.10857  0.22085  1.0000
  H   H2295     1.0  0.65553  0.05574  0.07988  1.0000
  S   S301      1.0  0.78068  0.16216  0.22521  1.0000
  H   H2296     1.0  0.60894  0.05686  0.07518  1.0000
  C   C1290     1.0  0.73585  0.31408  0.19192  1.0000
  Fe  Fe148     1.0  0.76670  0.15452  0.19964  1.0000
  S   S302      1.0  0.77077  0.16315  0.16680  1.0000
  S   S303      1.0  0.76731  0.12264  0.21118  1.0000
  C   C1291     1.0  0.63760  0.22398  0.05591  1.0000
  Fe  Fe149     1.0  0.76695  0.30288  0.09203  1.0000
  S   S304      1.0  0.79831  0.29344  0.09709  1.0000
  H   H2297     1.0  0.69487  0.99861  0.02010  1.0000
  Fe  Fe150     1.0  0.76344  0.26729  0.07034  1.0000
  S   S305      1.0  0.79515  0.25566  0.07384  1.0000
  S   S306      1.0  0.74660  0.24634  0.05685  1.0000
  Fe  Fe151     1.0  0.78815  0.26343  0.10478  1.0000
  S   S307      1.0  0.79781  0.24627  0.13269  1.0000
  Fe  Fe152     1.0  0.80249  0.28675  0.06588  1.0000
  S   S308      1.0  0.82692  0.29708  0.04273  1.0000
  S   S309      1.0  0.75629  0.27342  0.10197  1.0000
  S   S310      1.0  0.77131  0.29787  0.06001  1.0000
  H   H2298     1.0  0.88628  0.30219  0.00336  1.0000
  H   H2299     1.0  0.71613  0.16241  0.17946  1.0000
  C   C1292     1.0  0.74742  0.23542  0.20692  1.0000
  C   C1293     1.0  0.93315  0.28579  0.04571  1.0000
  H   H2300     1.0  0.59727  0.08553  0.09098  1.0000
  H   H2301     1.0  0.56022  0.10987  0.07647  1.0000
  C   C1294     1.0  0.56446  0.01453  0.15014  1.0000
  H   H2302     1.0  0.74176  0.09882  0.18376  1.0000
  H   H2303     1.0  0.68626  0.03069  0.01029  1.0000
  H   H2304     1.0  0.75727  0.08690  0.16476  1.0000
  H   H2305     1.0  0.63984  0.19274  0.08640  1.0000
  C   C1295     1.0  0.73608  0.11032  0.15393  1.0000
  H   H2306     1.0  0.81596  0.28259  0.15390  1.0000
  H   H2307     1.0  0.73843  0.27166  0.99517  1.0000
  H   H2308     1.0  0.87715  0.31376  0.08169  1.0000
  H   H2309     1.0  0.90703  0.24916  0.00777  1.0000
  C   C1296     1.0  0.87172  0.31547  0.06747  1.0000
  C   C1297     1.0  0.84753  0.30877  0.04686  1.0000
  C   C1298     1.0  0.85428  0.30742  0.06532  1.0000
  C   C1299     1.0  0.55468  0.99854  0.09421  1.0000
  C   C1300     1.0  0.66838  0.99759  0.04100  1.0000
  H   H2310     1.0  0.81188  0.29641  0.17480  1.0000
  H   H2311     1.0  0.57982  0.20805  0.00713  1.0000
  H   H2312     1.0  0.84646  0.29961  0.07783  1.0000
  H   H2313     1.0  0.59223  0.01218  0.10466  1.0000
  H   H2314     1.0  0.71052  0.24323  0.09820  1.0000
  H   H2315     1.0  0.86397  0.04611  0.23297  1.0000
  C   C1301     1.0  0.77724  0.18679  0.15795  1.0000
  C   C1302     1.0  0.78795  0.19678  0.16868  1.0000
  C   C1303     1.0  0.79403  0.21505  0.16077  1.0000
  C   C1304     1.0  0.78919  0.22364  0.14225  1.0000
  C   C1305     1.0  0.77806  0.21387  0.13171  1.0000
  C   C1306     1.0  0.77228  0.19540  0.13947  1.0000
  H   H2316     1.0  0.79205  0.19015  0.18280  1.0000
  H   H2317     1.0  0.80284  0.22239  0.16889  1.0000
  H   H2318     1.0  0.77432  0.22034  0.11741  1.0000
  H   H2319     1.0  0.76409  0.18771  0.13107  1.0000
  C   C1307     1.0  0.59266  0.08632  0.05220  1.0000
  C   C1308     1.0  0.78264  0.25391  0.01702  1.0000
  H   H2320     1.0  0.54092  0.00672  0.08934  1.0000
  H   H2321     1.0  0.62569  0.25392  0.06078  1.0000
  H   H2322     1.0  0.65657  0.01114  0.00742  1.0000
  H   H2323     1.0  0.57055  0.03708  0.08662  1.0000
  H   H2324     1.0  0.58437  0.10090  0.04870  1.0000
  H   H2325     1.0  0.54993  0.06162  0.09539  1.0000
  C   C1309     1.0  0.69457  0.24707  0.02010  1.0000
  C   C1310     1.0  0.69975  0.26472  0.02521  1.0000
  C   C1311     1.0  0.71562  0.26489  0.03634  1.0000
  C   C1312     1.0  0.72660  0.24735  0.04249  1.0000
  C   C1313     1.0  0.72155  0.22972  0.03722  1.0000
  C   C1314     1.0  0.70566  0.22955  0.02614  1.0000
  H   H2326     1.0  0.62525  0.21333  0.13395  1.0000
  H   H2327     1.0  0.71929  0.27857  0.04024  1.0000
  H   H2328     1.0  0.73003  0.21608  0.04175  1.0000
  H   H2329     1.0  0.92696  0.28122  0.06097  1.0000
  H   H2330     1.0  0.69010  0.23946  0.07270  1.0000
  C   C1315     1.0  0.66307  0.10865  0.18458  1.0000
  C   C1316     1.0  0.67599  0.09171  0.18824  1.0000
  C   C1317     1.0  0.69203  0.09206  0.19912  1.0000
  C   C1318     1.0  0.69574  0.10939  0.20611  1.0000
  C   C1319     1.0  0.68320  0.12651  0.20188  1.0000
  C   C1320     1.0  0.66691  0.12606  0.19135  1.0000
  H   H2331     1.0  0.67326  0.07818  0.18323  1.0000
  H   H2332     1.0  0.70152  0.07870  0.20234  1.0000
  H   H2333     1.0  0.68567  0.13992  0.20730  1.0000
  H   H2334     1.0  0.65698  0.13923  0.18874  1.0000
  C   C1321     1.0  0.63118  0.11967  0.06974  1.0000
  C   C1322     1.0  0.63706  0.12544  0.04990  1.0000
  C   C1323     1.0  0.63210  0.14470  0.04158  1.0000
  C   C1324     1.0  0.62092  0.15830  0.05294  1.0000
  C   C1325     1.0  0.61497  0.15256  0.07279  1.0000
  C   C1326     1.0  0.62022  0.13334  0.08124  1.0000
  H   H2335     1.0  0.64553  0.11497  0.04088  1.0000
  H   H2336     1.0  0.63673  0.14895  0.02630  1.0000
  H   H2337     1.0  0.60627  0.16300  0.08168  1.0000
  H   H2338     1.0  0.61559  0.12903  0.09653  1.0000
  H   H2339     1.0  0.73885  0.31365  0.17580  1.0000
  C   C1327     1.0  0.53528  0.19368  0.04925  1.0000
  C   C1328     1.0  0.92544  0.29213  0.01028  1.0000
  H   H2340     1.0  0.92679  0.21837  0.00004  1.0000
  H   H2341     1.0  0.82492  0.27198  0.17669  1.0000
  H   H2342     1.0  0.75315  0.17232  0.10145  1.0000
  N   N71       1.0  0.58192  0.07497  0.06950  1.0000
  C   C1329     1.0  0.52723  0.01859  0.13644  1.0000
  H   H2343     1.0  0.54865  0.23494  0.00266  1.0000
  C   C1330     1.0  0.59830  0.02149  0.09167  1.0000
  C   C1331     1.0  0.54251  0.19548  0.01208  1.0000
  C   C1332     1.0  0.54502  0.07135  0.08261  1.0000
  N   N72       1.0  0.91470  0.28759  0.99377  1.0000
  C   C1333     1.0  0.54995  0.19917  0.03155  1.0000
  C   C1334     1.0  0.76541  0.26192  0.22858  1.0000
  H   H2344     1.0  0.56659  0.99961  0.08188  1.0000
  C   C1335     1.0  0.85807  0.31887  0.03082  1.0000
  H   H2345     1.0  0.64723  0.02193  0.07922  1.0000
  C   C1336     1.0  0.67134  0.03712  0.00715  1.0000
  C   C1337     1.0  0.53428  0.00030  0.14556  1.0000
  H   H2346     1.0  0.62323  0.00600  0.01834  1.0000
  H   H2347     1.0  0.55175  0.21489  0.03144  1.0000
  H   H2348     1.0  0.69166  0.14262  0.05623  1.0000
  H   H2349     1.0  0.69409  0.17150  0.07314  1.0000
  H   H2350     1.0  0.65575  0.18779  0.05506  1.0000
  H   H2351     1.0  0.59881  0.01360  0.07862  1.0000
  H   H2352     1.0  0.68978  0.19736  0.09314  1.0000
  C   C1338     1.0  0.65281  0.19799  0.09153  1.0000
  H   H2353     1.0  0.66022  0.18478  0.09956  1.0000
  C   C1339     1.0  0.59266  0.14831  0.00119  1.0000
  C   C1340     1.0  0.79461  0.23519  0.02491  1.0000
  C   C1341     1.0  0.68009  0.17032  0.06716  1.0000
  H   H2354     1.0  0.85528  0.27588  0.00780  1.0000
  C   C1342     1.0  0.70820  0.22821  0.09553  1.0000
  C   C1343     1.0  0.60382  0.09081  0.01570  1.0000
  H   H2355     1.0  0.67021  0.16270  0.07876  1.0000
  H   H2356     1.0  0.67687  0.23461  0.09651  1.0000
  H   H2357     1.0  0.81016  0.23780  0.02534  1.0000
  H   H2358     1.0  0.60815  0.06400  0.03397  1.0000
  H   H2359     1.0  0.81465  0.09610  0.22090  1.0000
  H   H2360     1.0  0.58289  0.07128  0.02924  1.0000
  H   H2361     1.0  0.71019  0.19805  0.17870  1.0000
  H   H2362     1.0  0.60723  0.08938  0.05588  1.0000
  H   H2363     1.0  0.89003  0.27787  0.01420  1.0000
  C   C1344     1.0  0.66142  0.02614  0.07149  1.0000
  C   C1345     1.0  0.91835  0.28375  0.03151  1.0000
  H   H2364     1.0  0.58359  0.04699  0.10365  1.0000
  H   H2365     1.0  0.84153  0.06934  0.21703  1.0000
  C   C1346     1.0  0.58197  0.08587  0.08716  1.0000
  H   H2366     1.0  0.78325  0.26513  0.02709  1.0000
  C   C1347     1.0  0.57335  0.10774  0.08461  1.0000
  H   H2367     1.0  0.52087  0.07326  0.06449  1.0000
  C   C1348     1.0  0.56753  0.11596  0.10428  1.0000
  C   C1349     1.0  0.56135  0.07301  0.06491  1.0000
  H   H2368     1.0  0.75158  0.27889  0.18258  1.0000
  H   H2369     1.0  0.57864  0.01279  0.15574  1.0000
  C   C1350     1.0  0.59648  0.07653  0.03285  1.0000
  H   H2370     1.0  0.58071  0.11589  0.11202  1.0000
  H   H2371     1.0  0.56079  0.13133  0.10180  1.0000
  H   H2372     1.0  0.55670  0.10725  0.11368  1.0000
  H   H2373     1.0  0.52928  0.20627  0.01031  1.0000
  H   H2374     1.0  0.94713  0.27642  0.04226  1.0000
  H   H2375     1.0  0.76162  0.11094  0.16957  1.0000
  N   N73       1.0  0.65502  0.01642  0.03790  1.0000
  C   C1351     1.0  0.66002  0.03211  0.04929  1.0000
  C   C1352     1.0  0.63520  0.00212  0.13074  1.0000
  C   C1353     1.0  0.63423  0.01216  0.04557  1.0000
  C   C1354     1.0  0.82644  0.06534  0.22189  1.0000
  H   H2376     1.0  0.56947  0.26166  0.99812  1.0000
  H   H2377     1.0  0.62435  0.02609  0.04635  1.0000
  H   H2378     1.0  0.80582  0.26550  0.99761  1.0000
  H   H2379     1.0  0.59146  0.17707  0.01005  1.0000
  H   H2380     1.0  0.58094  0.24163  0.01344  1.0000
  H   H2381     1.0  0.55854  0.00536  0.10674  1.0000
  C   C1355     1.0  0.57672  0.24641  0.99845  1.0000
  H   H2382     1.0  0.80740  0.19374  0.23452  1.0000
  H   H2383     1.0  0.64903  0.04530  0.04769  1.0000
  H   H2384     1.0  0.67429  0.03750  0.04332  1.0000
  C   C1356     1.0  0.75163  0.27926  0.19864  1.0000
  H   H2385     1.0  0.53669  0.18095  0.01438  1.0000
  H   H2386     1.0  0.93632  0.30125  0.04488  1.0000
  H   H2387     1.0  0.74961  0.21664  0.18335  1.0000
  H   H2388     1.0  0.72097  0.30956  0.19702  1.0000
  N   N74       1.0  0.55705  0.19672  0.99377  1.0000
  H   H2389     1.0  0.76586  0.30652  0.19731  1.0000
  H   H2390     1.0  0.77929  0.23469  0.20273  1.0000
  H   H2391     1.0  0.63366  0.00473  0.06084  1.0000
  C   C1357     1.0  0.81203  0.08261  0.21486  1.0000
  C   C1358     1.0  0.92212  0.24992  0.00020  1.0000
  C   C1359     1.0  0.77596  0.27531  0.23945  1.0000
  H   H2392     1.0  0.66825  0.05159  0.01296  1.0000
  H   H2393     1.0  0.79026  0.28486  0.20382  1.0000
  H   H2394     1.0  0.59274  0.10366  0.01335  1.0000
  H   H2395     1.0  0.79954  0.25986  0.20507  1.0000
  H   H2396     1.0  0.79655  0.07960  0.21949  1.0000
  C   C1360     1.0  0.78805  0.27076  0.19879  1.0000
  H   H2397     1.0  0.73790  0.16114  0.08735  1.0000
  H   H2398     1.0  0.56162  0.06015  0.05659  1.0000
  H   H2399     1.0  0.93256  0.24923  0.01137  1.0000
  H   H2400     1.0  0.68735  0.18787  0.17836  1.0000
  H   H2401     1.0  0.89880  0.03819  0.24014  1.0000
  H   H2402     1.0  0.56435  0.19085  0.03401  1.0000
  H   H2403     1.0  0.53060  0.04850  0.07282  1.0000
  C   C1361     1.0  0.69079  0.99895  0.03615  1.0000
  H   H2404     1.0  0.73700  0.27499  0.20522  1.0000
  H   H2405     1.0  0.77973  0.29705  0.00724  1.0000
  C   C1362     1.0  0.75003  0.10124  0.16896  1.0000
  H   H2406     1.0  0.77123  0.24673  0.23402  1.0000
  C   C1363     1.0  0.79105  0.26122  0.99589  1.0000
  C   C1364     1.0  0.65532  0.02373  0.01630  1.0000
  H   H2407     1.0  0.75854  0.28453  0.01037  1.0000
  H   H2408     1.0  0.83343  0.12425  0.23503  1.0000
  H   H2409     1.0  0.73447  0.20869  0.20537  1.0000
  H   H2410     1.0  0.70755  0.21880  0.10975  1.0000
  Fe  Fe153     1.0  0.74949  0.16783  0.23899  1.0000
  H   H2411     1.0  0.74538  0.23324  0.22318  1.0000
  H   H2412     1.0  0.68140  0.04755  0.07451  1.0000
  C   C1365     1.0  0.89290  0.28728  0.00022  1.0000
  C   C1366     1.0  0.55701  0.03304  0.14184  1.0000
  H   H2413     1.0  0.74949  0.26334  0.23427  1.0000
  C   C1367     1.0  0.66692  0.04304  0.08125  1.0000
  H   H2414     1.0  0.69829  0.20552  0.06861  1.0000
  H   H2415     1.0  0.59441  0.00976  0.04430  1.0000
  H   H2416     1.0  0.72101  0.22255  0.08561  1.0000
  H   H2417     1.0  0.73618  0.13821  0.16468  1.0000
  C   C1368     1.0  0.72503  0.13000  0.15980  1.0000
  H   H2418     1.0  0.71479  0.12647  0.17314  1.0000
  H   H2419     1.0  0.51278  0.02048  0.13140  1.0000
  H   H2420     1.0  0.73420  0.24437  0.20175  1.0000
  H   H2421     1.0  0.84063  0.02661  0.22968  1.0000
  C   C1369     1.0  0.58505  0.04076  0.08956  1.0000
  H   H2422     1.0  0.76720  0.25088  0.01772  1.0000
  H   H2423     1.0  0.74488  0.11236  0.13941  1.0000
  H   H2424     1.0  0.74318  0.15099  0.13328  1.0000
  H   H2425     1.0  0.81749  0.32418  0.00502  1.0000
  C   C1370     1.0  0.68622  0.20837  0.08061  1.0000
  C   C1371     1.0  0.76638  0.24531  0.19906  1.0000
  H   H2426     1.0  0.72540  0.09962  0.15340  1.0000
  H   H2427     1.0  0.60645  0.08334  0.00215  1.0000
  H   H2428     1.0  0.67894  0.19649  0.04628  1.0000
  C   C1372     1.0  0.68912  0.22884  0.08614  1.0000
  H   H2429     1.0  0.65766  0.21511  0.11479  1.0000
  H   H2430     1.0  0.68984  0.15342  0.16443  1.0000
  C   C1373     1.0  0.60375  0.99564  0.04291  1.0000
  H   H2431     1.0  0.63965  0.21518  0.04331  1.0000
  H   H2432     1.0  0.72355  0.18154  0.12445  1.0000
  C   C1374     1.0  0.65544  0.00307  0.12652  1.0000
  H   H2433     1.0  0.69528  0.16376  0.03868  1.0000
  C   C1375     1.0  0.68483  0.15724  0.05053  1.0000
  C   C1376     1.0  0.66991  0.19070  0.05978  1.0000
  H   H2434     1.0  0.69075  0.12358  0.15018  1.0000
  H   H2435     1.0  0.61789  0.09582  0.01843  1.0000
  H   H2436     1.0  0.67118  0.15522  0.04430  1.0000
  N   N75       1.0  0.66644  0.20573  0.07430  1.0000
  S   S311      1.0  0.67416  0.24776  0.00631  1.0000
  N   N76       1.0  0.71406  0.14249  0.14423  1.0000
  N   N77       1.0  0.76786  0.26478  0.20633  1.0000
  C   C1377     1.0  0.70192  0.15912  0.15381  1.0000
  C   C1378     1.0  0.70032  0.12996  0.13733  1.0000
  C   C1379     1.0  0.52687  0.06364  0.07693  1.0000
  H   H2437     1.0  0.76690  0.24685  0.18277  1.0000
  C   C1380     1.0  0.53835  0.03480  0.13488  1.0000
  C   C1381     1.0  0.81271  0.28150  0.17014  1.0000
  H   H2438     1.0  0.66807  0.22969  0.05121  1.0000
  C   C1382     1.0  0.72899  0.14937  0.12765  1.0000
  H   H2439     1.0  0.73285  0.13802  0.11728  1.0000
  H   H2440     1.0  0.70875  0.11728  0.13055  1.0000
  H   H2441     1.0  0.66229  0.12264  0.13170  1.0000
  H   H2442     1.0  0.82413  0.05266  0.21437  1.0000
  H   H2443     1.0  0.78830  0.23043  0.04008  1.0000
  H   H2444     1.0  0.53361  0.17779  0.05064  1.0000
  H   H2445     1.0  0.58261  0.13756  0.99901  1.0000
  C   C1383     1.0  0.88240  0.32530  0.05131  1.0000
  H   H2446     1.0  0.69927  0.20001  0.15604  1.0000
  C   C1384     1.0  0.65759  0.22462  0.06390  1.0000
  C   C1385     1.0  0.62875  0.24451  0.04860  1.0000
  H   H2447     1.0  0.60185  0.14184  0.01299  1.0000
  C   C1386     1.0  0.76874  0.29194  0.99894  1.0000
  H   H2448     1.0  0.65538  0.23659  0.07349  1.0000
  C   C1387     1.0  0.59354  0.05512  0.07272  1.0000
  H   H2449     1.0  0.55590  0.08578  0.05483  1.0000
  H   H2450     1.0  0.85309  0.31996  0.01649  1.0000
  H   H2451     1.0  0.78218  0.31783  0.16414  1.0000
  C   C1388     1.0  0.67210  0.12635  0.11806  1.0000
  H   H2452     1.0  0.67988  0.11262  0.11282  1.0000
  C   C1389     1.0  0.68684  0.13996  0.12179  1.0000
  H   H2453     1.0  0.67817  0.15347  0.12647  1.0000
  H   H2454     1.0  0.69133  0.27838  0.02058  1.0000
  H   H2455     1.0  0.61347  0.02388  0.09378  1.0000
  H   H2456     1.0  0.62668  0.21767  0.06733  1.0000
  H   H2457     1.0  0.66276  0.13364  0.10669  1.0000
  H   H2458     1.0  0.66792  0.03846  0.09708  1.0000
  C   C1390     1.0  0.64527  0.21214  0.10715  1.0000
  H   H2459     1.0  0.79494  0.25823  0.17081  1.0000
  H   H2460     1.0  0.53218  0.04896  0.12863  1.0000
  H   H2461     1.0  0.69547  0.01236  0.04050  1.0000
  H   H2462     1.0  0.90417  0.29202  0.03662  1.0000
  H   H2463     1.0  0.91594  0.26815  0.03270  1.0000
  H   H2464     1.0  0.63895  0.25138  0.03674  1.0000
  H   H2465     1.0  0.54075  0.19694  0.06285  1.0000
  C   C1391     1.0  0.79321  0.27281  0.17620  1.0000
  H   H2466     1.0  0.69584  0.14341  0.10761  1.0000
  C   C1392     1.0  0.75156  0.30082  0.20251  1.0000
  H   H2467     1.0  0.58456  0.11664  0.07611  1.0000
  H   H2468     1.0  0.63695  0.18914  0.13019  1.0000
  H   H2469     1.0  0.61468  0.24358  0.04261  1.0000
  H   H2470     1.0  0.59457  0.04720  0.05955  1.0000
  H   H2471     1.0  0.70853  0.17025  0.11077  1.0000
  H   H2472     1.0  0.63792  0.22611  0.10060  1.0000
  C   C1393     1.0  0.55307  0.99847  0.15227  1.0000
  H   H2473     1.0  0.51529  0.06327  0.08966  1.0000
  H   H2474     1.0  0.57133  0.16334  0.02073  1.0000
  C   C1394     1.0  0.72337  0.16927  0.11555  1.0000
  H   H2475     1.0  0.69427  0.16952  0.14301  1.0000
  H   H2476     1.0  0.73400  0.18709  0.08918  1.0000
  C   C1395     1.0  0.71341  0.17100  0.16527  1.0000
  H   H2477     1.0  0.67297  0.01372  0.07381  1.0000
  H   H2478     1.0  0.94150  0.28743  0.00739  1.0000
  H   H2479     1.0  0.61722  0.20015  0.11600  1.0000
  C   C1396     1.0  0.63027  0.20307  0.12273  1.0000
  H   H2480     1.0  0.78170  0.28232  0.16861  1.0000
  H   H2481     1.0  0.70209  0.21589  0.02212  1.0000
  H   H2482     1.0  0.52069  0.20224  0.04786  1.0000
  C   C1397     1.0  0.70174  0.19043  0.16981  1.0000
  H   H2483     1.0  0.77316  0.29097  0.23399  1.0000
  C   C1398     1.0  0.62452  0.99911  0.03356  1.0000
  C   C1399     1.0  0.57161  0.21131  0.99406  1.0000
  C   C1400     1.0  0.73802  0.17258  0.09728  1.0000
  H   H2484     1.0  0.72786  0.17401  0.15716  1.0000
  H   H2485     1.0  0.76081  0.20540  0.20500  1.0000
  H   H2486     1.0  0.81414  0.08531  0.19860  1.0000
  C   C1401     1.0  0.77018  0.32415  0.13647  1.0000
  H   H2487     1.0  0.92431  0.30825  0.01096  1.0000
  C   C1402     1.0  0.74822  0.21534  0.19964  1.0000
  C   C1403     1.0  0.58089  0.16730  0.00704  1.0000
  H   H2488     1.0  0.74792  0.30224  0.21839  1.0000
  H   H2489     1.0  0.64113  0.03263  0.01341  1.0000
  H   H2490     1.0  0.79215  0.27119  0.23744  1.0000
  H   H2491     1.0  0.73162  0.31150  0.01198  1.0000
  H   H2492     1.0  0.86886  0.11725  0.24040  1.0000
  C   C1404     1.0  0.74318  0.32087  0.00514  1.0000
  H   H2493     1.0  0.63619  0.99630  0.17670  1.0000
  Fe  Fe154     1.0  0.77820  0.13093  0.23820  1.0000
  H   H2494     1.0  0.75147  0.24748  0.99360  1.0000
  C   C1405     1.0  0.80960  0.03568  0.30626  1.0000
  H   H2495     1.0  0.75066  0.32365  0.48634  1.0000
  Fe  Fe155     1.0  0.90209  0.17345  0.47220  1.0000
  S   S312      1.0  0.91150  0.20178  0.47805  1.0000
  H   H2496     1.0  0.93364  0.01111  0.26056  1.0000
  Fe  Fe156     1.0  0.93396  0.16755  0.43839  1.0000
  S   S313      1.0  0.94649  0.19529  0.44199  1.0000
  S   S314      1.0  0.94772  0.14785  0.41524  1.0000
  Fe  Fe157     1.0  0.94247  0.18634  0.47491  1.0000
  H   H2497     1.0  0.82015  0.02334  0.31166  1.0000
  Fe  Fe158     1.0  0.91445  0.20824  0.44501  1.0000
  S   S315      1.0  0.90145  0.23527  0.42665  1.0000
  S   S316      1.0  0.93228  0.15753  0.47056  1.0000
  S   S317      1.0  0.90267  0.18101  0.43969  1.0000
  Fe  Fe159     1.0  0.90364  0.08954  0.34245  1.0000
  S   S318      1.0  0.92494  0.08952  0.31490  1.0000
  S   S319      1.0  0.89331  0.11206  0.36398  1.0000
  Fe  Fe160     1.0  0.88881  0.05140  0.33507  1.0000
  S   S320      1.0  0.90866  0.04828  0.30714  1.0000
  S   S321      1.0  0.86790  0.03054  0.35036  1.0000
  Fe  Fe161     1.0  0.93193  0.05686  0.32371  1.0000
  C   C1406     1.0  0.80765  0.16252  0.48262  1.0000
  Fe  Fe162     1.0  0.89976  0.08078  0.30065  1.0000
  S   S322      1.0  0.91213  0.05798  0.35221  1.0000
  S   S323      1.0  0.87848  0.08294  0.32749  1.0000
  Fe  Fe163     1.0  0.77204  0.23614  0.34392  1.0000
  S   S324      1.0  0.77009  0.24050  0.37568  1.0000
  S   S325      1.0  0.76326  0.20757  0.33656  1.0000
  Fe  Fe164     1.0  0.78889  0.27464  0.33161  1.0000
  S   S326      1.0  0.78856  0.28198  0.36274  1.0000
  S   S327      1.0  0.79998  0.28983  0.30203  1.0000
  Fe  Fe165     1.0  0.80040  0.25028  0.36965  1.0000
  S   S328      1.0  0.81873  0.23445  0.39364  1.0000
  Fe  Fe166     1.0  0.75835  0.27149  0.36694  1.0000
  S   S329      1.0  0.73326  0.28368  0.38821  1.0000
  S   S330      1.0  0.80308  0.24369  0.33824  1.0000
  S   S331      1.0  0.75789  0.26640  0.33549  1.0000
  C   C1407     1.0  0.96391  0.10223  0.45898  1.0000
  N   N78       1.0  0.88563  0.19123  0.37261  1.0000
  S   S332      1.0  0.82324  0.05104  0.48079  1.0000
  S   S333      1.0  0.64576  0.30907  0.36740  1.0000
  C   C1408     1.0  0.72718  0.29464  0.46938  1.0000
  C   C1409     1.0  0.85731  0.17530  0.39531  1.0000
  C   C1410     1.0  0.82297  0.06042  0.24452  1.0000
  C   C1411     1.0  0.53661  0.30728  0.44368  1.0000
  H   H2498     1.0  0.77731  0.28271  0.26885  1.0000
  C   C1412     1.0  0.90054  0.17863  0.33948  1.0000
  H   H2499     1.0  0.83368  0.08125  0.33079  1.0000
  C   C1413     1.0  0.79317  0.31463  0.29352  1.0000
  H   H2500     1.0  0.60745  0.28479  0.47963  1.0000
  H   H2501     1.0  0.97567  0.03648  0.28857  1.0000
  H   H2502     1.0  0.85009  0.12066  0.38602  1.0000
  S   S334      1.0  0.83932  0.00155  0.45625  1.0000
  H   H2503     1.0  0.89367  0.06907  0.42382  1.0000
  H   H2504     1.0  0.84313  0.03265  0.28307  1.0000
  Fe  Fe167     1.0  0.84398  0.02332  0.47781  1.0000
  H   H2505     1.0  0.75895  0.26974  0.44472  1.0000
  C   C1414     1.0  0.86062  0.01406  0.33616  1.0000
  C   C1415     1.0  0.70910  0.29080  0.38202  1.0000
  C   C1416     1.0  0.70494  0.29417  0.36253  1.0000
  C   C1417     1.0  0.68545  0.29983  0.35825  1.0000
  C   C1418     1.0  0.67008  0.30257  0.37339  1.0000
  C   C1419     1.0  0.67429  0.29940  0.39285  1.0000
  C   C1420     1.0  0.69372  0.29344  0.39713  1.0000
  H   H2506     1.0  0.71675  0.29258  0.35078  1.0000
  H   H2507     1.0  0.68228  0.30225  0.34313  1.0000
  H   H2508     1.0  0.66252  0.30124  0.40461  1.0000
  H   H2509     1.0  0.69685  0.29083  0.41225  1.0000
  C   C1421     1.0  0.83722  0.07516  0.36182  1.0000
  H   H2510     1.0  0.76046  0.01098  0.27296  1.0000
  C   C1422     1.0  0.81921  0.18740  0.33989  1.0000
  H   H2511     1.0  0.79143  0.28446  0.41361  1.0000
  Fe  Fe168     1.0  0.85045  0.06621  0.47402  1.0000
  H   H2512     1.0  0.83008  0.18569  0.26744  1.0000
  H   H2513     1.0  0.92539  0.00799  0.28642  1.0000
  C   C1423     1.0  0.85696  0.11205  0.46228  1.0000
  H   H2514     1.0  0.82048  0.19746  0.48198  1.0000
  H   H2515     1.0  0.85432  0.24982  0.48639  1.0000
  C   C1424     1.0  0.86952  0.14170  0.48041  1.0000
  C   C1425     1.0  0.87650  0.13900  0.46095  1.0000
  C   C1426     1.0  0.86986  0.12453  0.45174  1.0000
  H   H2516     1.0  0.86227  0.00762  0.25289  1.0000
  H   H2517     1.0  0.88731  0.14773  0.45305  1.0000
  H   H2518     1.0  0.87549  0.12241  0.43676  1.0000
  C   C1427     1.0  0.87816  0.23560  0.41781  1.0000
  C   C1428     1.0  0.86464  0.22275  0.42657  1.0000
  C   C1429     1.0  0.84639  0.22308  0.41922  1.0000
  C   C1430     1.0  0.84136  0.23617  0.40295  1.0000
  C   C1431     1.0  0.85474  0.24924  0.39427  1.0000
  C   C1432     1.0  0.87301  0.24900  0.40175  1.0000
  H   H2519     1.0  0.86832  0.21244  0.43895  1.0000
  H   H2520     1.0  0.83615  0.21295  0.42606  1.0000
  H   H2521     1.0  0.85111  0.25941  0.38173  1.0000
  H   H2522     1.0  0.88328  0.25912  0.39494  1.0000
  C   C1433     1.0  0.93264  0.13710  0.40159  1.0000
  C   C1434     1.0  0.94119  0.12740  0.38539  1.0000
  C   C1435     1.0  0.92941  0.11912  0.37400  1.0000
  C   C1436     1.0  0.90897  0.12069  0.37865  1.0000
  C   C1437     1.0  0.90049  0.13012  0.39502  1.0000
  C   C1438     1.0  0.91228  0.13804  0.40660  1.0000
  H   H2523     1.0  0.95696  0.12648  0.38150  1.0000
  H   H2524     1.0  0.93609  0.11192  0.36139  1.0000
  H   H2525     1.0  0.88470  0.13129  0.39875  1.0000
  H   H2526     1.0  0.90561  0.14501  0.41931  1.0000
  C   C1439     1.0  0.74839  0.19947  0.27536  1.0000
  C   C1440     1.0  0.75114  0.21816  0.27981  1.0000
  C   C1441     1.0  0.75630  0.22079  0.29833  1.0000
  C   C1442     1.0  0.75812  0.20482  0.31271  1.0000
  C   C1443     1.0  0.75523  0.18618  0.30831  1.0000
  C   C1444     1.0  0.75060  0.18346  0.28963  1.0000
  H   H2527     1.0  0.80844  0.02481  0.27870  1.0000
  H   H2528     1.0  0.75857  0.23520  0.30158  1.0000
  H   H2529     1.0  0.75652  0.17379  0.31941  1.0000
  H   H2530     1.0  0.74835  0.16905  0.28638  1.0000
  C   C1445     1.0  0.81170  0.03851  0.28384  1.0000
  C   C1446     1.0  0.79688  0.32083  0.27339  1.0000
  H   H2531     1.0  0.85299  0.08598  0.29652  1.0000
  H   H2532     1.0  0.81777  0.09298  0.29126  1.0000
  C   C1447     1.0  0.86576  0.03917  0.41469  1.0000
  H   H2533     1.0  0.77732  0.10609  0.45630  1.0000
  H   H2534     1.0  0.98054  0.11652  0.43336  1.0000
  H   H2535     1.0  0.76556  0.28657  0.41039  1.0000
  H   H2536     1.0  0.85564  0.17632  0.28986  1.0000
  C   C1448     1.0  0.86797  0.01358  0.31640  1.0000
  C   C1449     1.0  0.84989  0.11470  0.48173  1.0000
  H   H2537     1.0  0.87824  0.02360  0.30957  1.0000
  H   H2538     1.0  0.76847  0.01485  0.24709  1.0000
  C   C1450     1.0  0.80198  0.15191  0.29363  1.0000
  C   C1451     1.0  0.79959  0.13871  0.31332  1.0000
  C   C1452     1.0  0.78313  0.12566  0.31364  1.0000
  H   H2539     1.0  0.78765  0.16106  0.29293  1.0000
  H   H2540     1.0  0.80324  0.14247  0.28150  1.0000
  H   H2541     1.0  0.80013  0.18350  0.30968  1.0000
  H   H2542     1.0  0.82254  0.15824  0.33168  1.0000
  C   C1453     1.0  0.85800  0.23337  0.33938  1.0000
  C   C1454     1.0  0.82307  0.10927  0.26283  1.0000
  H   H2543     1.0  0.81322  0.12894  0.31594  1.0000
  H   H2544     1.0  0.79533  0.14788  0.32557  1.0000
  H   H2545     1.0  0.76893  0.13469  0.31142  1.0000
  H   H2546     1.0  0.78667  0.11572  0.30194  1.0000
  H   H2547     1.0  0.78141  0.11658  0.32802  1.0000
  H   H2548     1.0  0.82272  0.20232  0.33380  1.0000
  H   H2549     1.0  0.88949  0.09502  0.41661  1.0000
  C   C1455     1.0  0.72061  0.11825  0.46725  1.0000
  H   H2550     1.0  0.86253  0.15427  0.42068  1.0000
  H   H2551     1.0  0.79529  0.02006  0.43577  1.0000
  H   H2552     1.0  0.89835  0.21402  0.38389  1.0000
  H   H2553     1.0  0.77305  0.25772  0.26792  1.0000
  H   H2554     1.0  0.86016  0.21278  0.37569  1.0000
  C   C1456     1.0  0.77738  0.27799  0.41836  1.0000
  C   C1457     1.0  0.99651  0.01040  0.28795  1.0000
  H   H2555     1.0  0.72862  0.29404  0.45331  1.0000
  N   N79       1.0  0.69712  0.23629  0.34510  1.0000
  C   C1458     1.0  0.67997  0.24907  0.35427  1.0000
  C   C1459     1.0  0.71104  0.24928  0.33277  1.0000
  C   C1460     1.0  0.68936  0.22296  0.33286  1.0000
  C   C1461     1.0  0.70821  0.22388  0.36054  1.0000
  C   C1462     1.0  0.71489  0.23501  0.37635  1.0000
  C   C1463     1.0  0.66514  0.23839  0.36932  1.0000
  C   C1464     1.0  0.70514  0.21062  0.32008  1.0000
  C   C1465     1.0  0.70302  0.26152  0.31451  1.0000
  C   C1466     1.0  0.71865  0.27358  0.30295  1.0000
  C   C1467     1.0  0.72508  0.22078  0.39159  1.0000
  C   C1468     1.0  0.64946  0.25309  0.37866  1.0000
  C   C1469     1.0  0.69556  0.19799  0.30811  1.0000
  H   H2556     1.0  0.67122  0.25724  0.34279  1.0000
  H   H2557     1.0  0.68529  0.26056  0.36153  1.0000
  H   H2558     1.0  0.71535  0.25997  0.34176  1.0000
  H   H2559     1.0  0.72512  0.24060  0.32788  1.0000
  H   H2560     1.0  0.67887  0.23143  0.32310  1.0000
  H   H2561     1.0  0.68056  0.21233  0.34245  1.0000
  H   H2562     1.0  0.69948  0.21210  0.36811  1.0000
  H   H2563     1.0  0.72185  0.21601  0.35358  1.0000
  H   H2564     1.0  0.70231  0.24337  0.38436  1.0000
  H   H2565     1.0  0.72549  0.24539  0.36957  1.0000
  H   H2566     1.0  0.65747  0.22857  0.36202  1.0000
  H   H2567     1.0  0.67250  0.22958  0.38137  1.0000
  H   H2568     1.0  0.71498  0.20067  0.32937  1.0000
  H   H2569     1.0  0.71430  0.22006  0.30954  1.0000
  H   H2570     1.0  0.69856  0.25206  0.30438  1.0000
  H   H2571     1.0  0.69015  0.27193  0.31894  1.0000
  H   H2572     1.0  0.73192  0.26389  0.29795  1.0000
  H   H2573     1.0  0.71269  0.28197  0.28983  1.0000
  H   H2574     1.0  0.72294  0.28415  0.31211  1.0000
  H   H2575     1.0  0.71469  0.21073  0.39963  1.0000
  H   H2576     1.0  0.73801  0.21205  0.38443  1.0000
  H   H2577     1.0  0.73029  0.22915  0.40232  1.0000
  H   H2578     1.0  0.65633  0.26263  0.38708  1.0000
  H   H2579     1.0  0.64149  0.26245  0.36727  1.0000
  H   H2580     1.0  0.63861  0.24520  0.38891  1.0000
  H   H2581     1.0  0.68668  0.18763  0.31791  1.0000
  H   H2582     1.0  0.68600  0.20732  0.29803  1.0000
  H   H2583     1.0  0.70717  0.18938  0.29909  1.0000
  H   H2584     1.0  0.54843  0.32593  0.39125  1.0000
  C   C1470     1.0  0.84742  0.00093  0.34499  1.0000
  C   C1471     1.0  0.78900  0.10681  0.46580  1.0000
  H   H2585     1.0  0.82439  0.05019  0.37744  1.0000
  H   H2586     1.0  0.91771  0.05062  0.45425  1.0000
  H   H2587     1.0  0.91276  0.18787  0.33848  1.0000
  S   S335      1.0  0.85106  0.09228  0.45154  1.0000
  H   H2588     1.0  0.82796  0.05731  0.34149  1.0000
  H   H2589     1.0  0.81227  0.07290  0.38394  1.0000
  H   H2590     1.0  0.85269  0.06883  0.35915  1.0000
  C   C1472     1.0  0.92416  0.09376  0.47859  1.0000
  C   C1473     1.0  0.90040  0.08188  0.41577  1.0000
  H   H2591     1.0  0.82648  0.02541  0.41623  1.0000
  H   H2592     1.0  0.87845  0.16619  0.35997  1.0000
  C   C1474     1.0  0.82714  0.06486  0.38091  1.0000
  C   C1475     1.0  0.91899  0.08461  0.42466  1.0000
  H   H2593     1.0  0.88806  0.17133  0.39913  1.0000
  H   H2594     1.0  0.83824  0.13981  0.28096  1.0000
  Fe  Fe169     1.0  0.62129  0.32419  0.38736  1.0000
  H   H2595     1.0  0.83066  0.13111  0.40288  1.0000
  H   H2596     1.0  0.69563  0.31675  0.44661  1.0000
  H   H2597     1.0  0.81094  0.07876  0.34638  1.0000
  H   H2598     1.0  0.82096  0.10152  0.39180  1.0000
  H   H2599     1.0  0.85494  0.07970  0.41370  1.0000
  H   H2600     1.0  0.78845  0.04605  0.43618  1.0000
  H   H2601     1.0  0.85217  0.11737  0.41209  1.0000
  H   H2602     1.0  0.79301  0.19693  0.27818  1.0000
  H   H2603     1.0  0.86672  0.05204  0.38445  1.0000
  C   C1476     1.0  0.78016  0.11158  0.48666  1.0000
  H   H2604     1.0  0.83464  0.05775  0.28067  1.0000
  H   H2605     1.0  0.59065  0.26863  0.47428  1.0000
  C   C1477     1.0  0.86044  0.23723  0.47817  1.0000
  C   C1478     1.0  0.84180  0.11832  0.40082  1.0000
  H   H2606     1.0  0.86271  0.24596  0.32905  1.0000
  H   H2607     1.0  0.83943  0.14335  0.30547  1.0000
  H   H2608     1.0  0.79515  0.29946  0.46970  1.0000
  C   C1479     1.0  0.84885  0.09462  0.28328  1.0000
  H   H2609     1.0  0.71760  0.26537  0.47535  1.0000
  H   H2610     1.0  0.86832  0.05110  0.42297  1.0000
  C   C1480     1.0  0.77215  0.27774  0.44054  1.0000
  H   H2611     1.0  0.88669  0.21717  0.33668  1.0000
  H   H2612     1.0  0.78217  0.32380  0.32185  1.0000
  S   S336      1.0  0.96088  0.03832  0.33000  1.0000
  H   H2613     1.0  0.85896  0.16436  0.26787  1.0000
  H   H2614     1.0  0.96808  0.13294  0.45051  1.0000
  H   H2615     1.0  0.87065  0.05274  0.27485  1.0000
  H   H2616     1.0  0.84681  0.23913  0.35089  1.0000
  H   H2617     1.0  0.88375  0.01534  0.40093  1.0000
  H   H2618     1.0  0.54041  0.29137  0.39921  1.0000
  H   H2619     1.0  0.55301  0.28959  0.48428  1.0000
  C   C1481     1.0  0.92091  0.18920  0.38312  1.0000
  C   C1482     1.0  0.89140  0.17405  0.36086  1.0000
  H   H2620     1.0  0.83717  0.09104  0.36282  1.0000
  H   H2621     1.0  0.81140  0.21300  0.24872  1.0000
  H   H2622     1.0  0.86849  0.99891  0.29054  1.0000
  H   H2623     1.0  0.90910  0.20903  0.36021  1.0000
  C   C1483     1.0  0.85180  0.16690  0.41651  1.0000
  H   H2624     1.0  0.88836  0.15711  0.28568  1.0000
  H   H2625     1.0  0.87706  0.13514  0.28490  1.0000
  C   C1484     1.0  0.54289  0.29800  0.38378  1.0000
  H   H2626     1.0  0.92109  0.05129  0.47960  1.0000
  H   H2627     1.0  0.93774  0.11701  0.44660  1.0000
  C   C1485     1.0  0.93834  0.00589  0.27528  1.0000
  N   N80       1.0  0.93103  0.08781  0.45820  1.0000
  H   H2628     1.0  0.52779  0.28103  0.43520  1.0000
  H   H2629     1.0  0.93134  0.01873  0.46916  1.0000
  C   C1486     1.0  0.81611  0.17917  0.30555  1.0000
  C   C1487     1.0  0.82591  0.17289  0.32480  1.0000
  C   C1488     1.0  0.91397  0.08989  0.44605  1.0000
  H   H2630     1.0  0.80309  0.18778  0.34422  1.0000
  C   C1489     1.0  0.86345  0.10118  0.26894  1.0000
  C   C1490     1.0  0.92872  0.05040  0.46474  1.0000
  C   C1491     1.0  0.93699  0.20183  0.38557  1.0000
  N   N81       1.0  0.81873  0.16455  0.29055  1.0000
  H   H2631     1.0  0.78766  0.17839  0.26396  1.0000
  C   C1492     1.0  0.85677  0.16188  0.28416  1.0000
  H   H2632     1.0  0.83200  0.05682  0.43023  1.0000
  C   C1493     1.0  0.81845  0.17554  0.27024  1.0000
  H   H2633     1.0  0.84216  0.17240  0.32182  1.0000
  H   H2634     1.0  0.80881  0.03386  0.44880  1.0000
  C   C1494     1.0  0.52335  0.29358  0.44329  1.0000
  C   C1495     1.0  0.79883  0.18805  0.26600  1.0000
  H   H2635     1.0  0.85939  0.19705  0.35746  1.0000
  H   H2636     1.0  0.87390  0.14690  0.30721  1.0000
  C   C1496     1.0  0.97635  0.11828  0.44916  1.0000
  H   H2637     1.0  0.83969  0.10523  0.48970  1.0000
  H   H2638     1.0  0.89221  0.02133  0.42296  1.0000
  C   C1497     1.0  0.80104  0.03441  0.43559  1.0000
  S   S337      1.0  0.88891  0.09547  0.27188  1.0000
  H   H2639     1.0  0.88239  0.23297  0.35591  1.0000
  H   H2640     1.0  0.82195  0.16514  0.25884  1.0000
  H   H2641     1.0  0.82205  0.19311  0.29911  1.0000
  H   H2642     1.0  0.82683  0.18293  0.35325  1.0000
  H   H2643     1.0  0.95194  0.02918  0.47584  1.0000
  C   C1498     1.0  0.83760  0.11621  0.24859  1.0000
  C   C1499     1.0  0.75953  0.32222  0.47184  1.0000
  H   H2644     1.0  0.50719  0.32088  0.38044  1.0000
  H   H2645     1.0  0.79445  0.03230  0.31194  1.0000
  H   H2646     1.0  0.98999  0.11754  0.45641  1.0000
  C   C1500     1.0  0.98178  0.02343  0.29700  1.0000
  S   S338      1.0  0.61364  0.32122  0.42012  1.0000
  H   H2647     1.0  0.85749  0.06715  0.24562  1.0000
  H   H2648     1.0  0.79753  0.15111  0.48729  1.0000
  H   H2649     1.0  0.94901  0.02856  0.45016  1.0000
  H   H2650     1.0  0.85121  0.22366  0.33112  1.0000
  C   C1501     1.0  0.83794  0.15147  0.29079  1.0000
  H   H2651     1.0  0.89730  0.14968  0.33147  1.0000
  C   C1502     1.0  0.82884  0.09862  0.28023  1.0000
  H   H2652     1.0  0.92895  0.07086  0.42375  1.0000
  Fe  Fe170     1.0  0.58178  0.32289  0.41459  1.0000
  H   H2653     1.0  0.87407  0.02852  0.26756  1.0000
  H   H2654     1.0  0.82291  0.07419  0.25124  1.0000
  C   C1503     1.0  0.50439  0.29573  0.45338  1.0000
  H   H2655     1.0  0.75179  0.09231  0.47212  1.0000
  C   C1504     1.0  0.82453  0.05748  0.41670  1.0000
  C   C1505     1.0  0.85770  0.11211  0.25163  1.0000
  C   C1506     1.0  0.81512  0.03815  0.41698  1.0000
  H   H2656     1.0  0.85660  0.02940  0.42484  1.0000
  S   S339      1.0  0.56084  0.30229  0.43190  1.0000
  H   H2657     1.0  0.82194  0.15541  0.47619  1.0000
  C   C1507     1.0  0.88563  0.02754  0.40935  1.0000
  N   N82       1.0  0.83838  0.06268  0.39865  1.0000
  H   H2658     1.0  0.92454  0.10982  0.47875  1.0000
  H   H2659     1.0  0.95989  0.10497  0.47451  1.0000
  C   C1508     1.0  0.94113  0.03054  0.46493  1.0000
  C   C1509     1.0  0.94537  0.10182  0.44833  1.0000
  H   H2660     1.0  0.81235  0.04922  0.31213  1.0000
  H   H2661     1.0  0.78474  0.26931  0.44735  1.0000
  H   H2662     1.0  0.80842  0.11861  0.44117  1.0000
  C   C1510     1.0  0.80178  0.12253  0.45580  1.0000
  H   H2663     1.0  0.93126  0.21286  0.39587  1.0000
  H   H2664     1.0  0.82316  0.09828  0.41763  1.0000
  C   C1511     1.0  0.87510  0.14947  0.29095  1.0000
  C   C1512     1.0  0.90312  0.20186  0.37454  1.0000
  C   C1513     1.0  0.76793  0.29890  0.44652  1.0000
  H   H2665     1.0  0.80041  0.05058  0.27945  1.0000
  C   C1514     1.0  0.53063  0.32332  0.45451  1.0000
  H   H2666     1.0  0.89587  0.03720  0.40038  1.0000
  C   C1515     1.0  0.84677  0.08140  0.40066  1.0000
  C   C1516     1.0  0.87770  0.18336  0.39305  1.0000
  H   H2667     1.0  0.74937  0.23060  0.26884  1.0000
  H   H2668     1.0  0.84547  0.18700  0.39146  1.0000
  H   H2669     1.0  0.85811  0.08483  0.38813  1.0000
  H   H2670     1.0  0.85739  0.16340  0.38591  1.0000
  H   H2671     1.0  0.81205  0.06917  0.41827  1.0000
  H   H2672     1.0  0.83693  0.16185  0.41807  1.0000
  C   C1517     1.0  0.51155  0.32531  0.46501  1.0000
  C   C1518     1.0  0.83157  0.09966  0.40287  1.0000
  H   H2673     1.0  0.80643  0.03872  0.40439  1.0000
  C   C1519     1.0  0.85531  0.04682  0.39613  1.0000
  H   H2674     1.0  0.90515  0.04396  0.26316  1.0000
  C   C1520     1.0  0.78219  0.29247  0.47755  1.0000
  S   S340      1.0  0.74168  0.19674  0.25208  1.0000
  H   H2675     1.0  0.87652  0.19488  0.40313  1.0000
  H   H2676     1.0  0.75339  0.27737  0.26449  1.0000
  C   C1521     1.0  0.98459  0.00357  0.32797  1.0000
  H   H2677     1.0  0.85049  0.03381  0.39080  1.0000
  H   H2678     1.0  0.92623  0.09647  0.41537  1.0000
  H   H2679     1.0  0.75545  0.30587  0.43848  1.0000
  H   H2680     1.0  0.75151  0.27340  0.47755  1.0000
  H   H2681     1.0  0.98047  0.00116  0.34363  1.0000
  H   H2682     1.0  0.79285  0.13696  0.45381  1.0000
  H   H2683     1.0  0.53348  0.29175  0.37472  1.0000
  H   H2684     1.0  0.58624  0.29472  0.46734  1.0000
  H   H2685     1.0  0.92753  0.17807  0.37326  1.0000
  H   H2686     1.0  0.90415  0.07927  0.40012  1.0000
  C   C1522     1.0  0.82672  0.07296  0.34408  1.0000
  H   H2687     1.0  0.94251  0.20941  0.37121  1.0000
  H   H2688     1.0  0.79852  0.09264  0.46656  1.0000
  S   S341      1.0  0.87095  0.03916  0.46950  1.0000
  H   H2689     1.0  0.90694  0.10526  0.44518  1.0000
  H   H2690     1.0  0.90225  0.08086  0.45319  1.0000
  H   H2691     1.0  0.85167  0.17814  0.42672  1.0000
  C   C1523     1.0  0.90886  0.15975  0.33059  1.0000
  H   H2692     1.0  0.77923  0.26280  0.41422  1.0000
  H   H2693     1.0  0.95242  0.06556  0.47040  1.0000
  H   H2694     1.0  0.84125  0.00483  0.27123  1.0000
  H   H2695     1.0  0.97337  0.08808  0.45857  1.0000
  H   H2696     1.0  0.95086  0.06486  0.44524  1.0000
  C   C1524     1.0  0.86950  0.20524  0.36394  1.0000
  C   C1525     1.0  0.87375  0.04416  0.26199  1.0000
  C   C1526     1.0  0.87578  0.22229  0.34860  1.0000
  S   S342      1.0  0.79777  0.11155  0.25912  1.0000
  C   C1527     1.0  0.53842  0.32027  0.38244  1.0000
  C   C1528     1.0  0.76946  0.27306  0.26151  1.0000
  C   C1529     1.0  0.94170  0.06739  0.45933  1.0000
  H   H2697     1.0  0.92120  0.15212  0.33852  1.0000
  H   H2698     1.0  0.72770  0.11343  0.45305  1.0000
  N   N83       1.0  0.76376  0.30083  0.46824  1.0000
  H   H2699     1.0  0.94949  0.19239  0.39173  1.0000
  H   H2700     1.0  0.74780  0.00118  0.25546  1.0000
  H   H2701     1.0  0.84179  0.00118  0.36031  1.0000
  H   H2702     1.0  0.61743  0.31665  0.48640  1.0000
  H   H2703     1.0  0.95089  0.09835  0.43319  1.0000
  H   H2704     1.0  0.90179  0.16302  0.36846  1.0000
  C   C1530     1.0  0.59171  0.28331  0.47876  1.0000
  H   H2705     1.0  0.71229  0.13288  0.46427  1.0000
  C   C1531     1.0  0.97595  0.02026  0.31715  1.0000
  H   H2706     1.0  0.88904  0.18613  0.33042  1.0000
  C   C1532     1.0  0.76239  0.00421  0.25897  1.0000
  H   H2707     1.0  0.91663  0.18163  0.39776  1.0000
  H   H2708     1.0  0.91450  0.16319  0.31494  1.0000
  C   C1533     1.0  0.86222  0.99982  0.30555  1.0000
  C   C1534     1.0  0.73612  0.11952  0.48097  1.0000
  C   C1535     1.0  0.74752  0.09922  0.48597  1.0000
  H   H2709     1.0  0.81391  0.12369  0.46463  1.0000
  H   H2710     1.0  0.86213  0.24250  0.46227  1.0000
  H   H2711     1.0  0.85307  0.20925  0.47284  1.0000
  H   H2712     1.0  0.90001  0.07480  0.48775  1.0000
  H   H2713     1.0  0.51421  0.31771  0.40472  1.0000
  C   C1536     1.0  0.71237  0.28053  0.47875  1.0000
  C   C1537     1.0  0.84616  0.00702  0.25533  1.0000
  C   C1538     1.0  0.83267  0.04357  0.27552  1.0000
  S   S343      1.0  0.59003  0.32254  0.38200  1.0000
  N   N84       1.0  0.83745  0.04473  0.25351  1.0000
  H   H2714     1.0  0.72079  0.30947  0.47280  1.0000
  H   H2715     1.0  0.55856  0.29407  0.37830  1.0000
  H   H2716     1.0  0.78547  0.27655  0.47625  1.0000
  H   H2717     1.0  0.77782  0.07241  0.48394  1.0000
  H   H2718     1.0  0.78071  0.30700  0.44019  1.0000
  H   H2719     1.0  0.94980  0.01488  0.27804  1.0000
  C   C1539     1.0  0.74716  0.28940  0.47783  1.0000
  S   S344      1.0  0.74728  0.13699  0.25296  1.0000
  H   H2720     1.0  0.80114  0.17331  0.47129  1.0000
  H   H2721     1.0  0.71000  0.10783  0.47407  1.0000
  H   H2722     1.0  0.80330  0.31033  0.26340  1.0000
  C   C1540     1.0  0.89438  0.04760  0.25220  1.0000
  C   C1541     1.0  0.90298  0.09012  0.48769  1.0000
  H   H2723     1.0  0.81942  0.02353  0.24650  1.0000
  C   C1542     1.0  0.49851  0.31122  0.46477  1.0000
  H   H2724     1.0  0.89210  0.09960  0.47928  1.0000
  H   H2725     1.0  0.74594  0.13036  0.47357  1.0000
  C   C1543     1.0  0.84671  0.22108  0.48204  1.0000
  H   H2726     1.0  0.87525  0.23163  0.48254  1.0000
  H   H2727     1.0  0.69798  0.28497  0.47289  1.0000
  H   H2728     1.0  0.52293  0.27668  0.48701  1.0000
  H   H2729     1.0  0.83244  0.22719  0.47688  1.0000
  H   H2730     1.0  0.93440  0.08658  0.48923  1.0000
  H   H2731     1.0  0.77403  0.12717  0.48531  1.0000
  H   H2732     1.0  0.89490  0.06319  0.24620  1.0000
  H   H2733     1.0  0.80767  0.05638  0.24770  1.0000
  H   H2734     1.0  0.79572  0.21838  0.49132  1.0000
  C   C1544     1.0  0.80139  0.20199  0.24715  1.0000
  H   H2735     1.0  0.54177  0.32586  0.36679  1.0000
  C   C1545     1.0  0.85600  0.12965  0.49078  1.0000
  H   H2736     1.0  0.83966  0.17988  0.48931  1.0000
  C   C1546     1.0  0.83526  0.02582  0.24559  1.0000
  S   S345      1.0  0.87786  0.15987  0.49185  1.0000
  C   C1547     1.0  0.85798  0.05085  0.24757  1.0000
  H   H2737     1.0  0.85559  0.99567  0.41547  1.0000
  H   H2738     1.0  0.78683  0.20982  0.24407  1.0000
  Fe  Fe171     1.0  0.97754  0.08713  0.59822  1.0000
  S   S346      1.0  0.98567  0.07846  0.62884  1.0000
  Fe  Fe172     1.0  0.94165  0.06579  0.60498  1.0000
  S   S347      1.0  0.94715  0.05510  0.63607  1.0000
  S   S348      1.0  0.91283  0.06122  0.59472  1.0000
  Fe  Fe173     1.0  0.95345  0.08591  0.63821  1.0000
  S   S349      1.0  0.94084  0.10123  0.66532  1.0000
  Fe  Fe174     1.0  0.97899  0.04856  0.62376  1.0000
  H   H2739     1.0  0.95002  0.23035  0.64395  1.0000
  S   S350      1.0  0.94597  0.09682  0.60793  1.0000
  S   S351      1.0  0.97274  0.05702  0.59244  1.0000
  H   H2740     1.0  0.74431  0.29244  0.58897  1.0000
  H   H2741     1.0  0.81608  0.16085  0.51147  1.0000
  H   H2742     1.0  0.54549  0.25790  0.54997  1.0000
  Fe  Fe175     1.0  0.82993  0.04921  0.51219  1.0000
  S   S352      1.0  0.85587  0.06639  0.50522  1.0000
  S   S353      1.0  0.80808  0.05835  0.53810  1.0000
  S   S354      1.0  0.74271  0.31910  0.53115  1.0000
  H   H2743     1.0  0.79960  0.15668  0.65536  1.0000
  Fe  Fe176     1.0  0.87355  0.03751  0.50185  1.0000
  S   S355      1.0  0.90353  0.03179  0.51318  1.0000
  C   C1548     1.0  0.94842  0.14393  0.56622  1.0000
  S   S356      1.0  0.84796  0.01964  0.51035  1.0000
  Fe  Fe177     1.0  0.89443  0.24556  0.71837  1.0000
  C   C1549     1.0  0.95961  0.27953  0.64562  1.0000
  H   H2744     1.0  0.87778  0.12138  0.56945  1.0000
  Fe  Fe178     1.0  0.85981  0.23072  0.70205  1.0000
  S   S357      1.0  0.87082  0.19904  0.70838  1.0000
  S   S358      1.0  0.83026  0.23597  0.68996  1.0000
  H   H2745     1.0  0.73866  0.12255  0.61841  1.0000
  Fe  Fe179     1.0  0.90039  0.20811  0.69603  1.0000
  S   S359      1.0  0.92075  0.19275  0.67242  1.0000
  H   H2746     1.0  0.67357  0.14674  0.68028  1.0000
  S   S360      1.0  0.88908  0.23973  0.68796  1.0000
  Fe  Fe180     1.0  0.78143  0.16779  0.57642  1.0000
  S   S361      1.0  0.78906  0.19875  0.56852  1.0000
  S   S362      1.0  0.79465  0.14884  0.55201  1.0000
  Fe  Fe181     1.0  0.75793  0.17908  0.61506  1.0000
  S   S363      1.0  0.76399  0.21055  0.60954  1.0000
  S   S364      1.0  0.74206  0.16941  0.64475  1.0000
  Fe  Fe182     1.0  0.75764  0.20844  0.57874  1.0000
  S   S365      1.0  0.73655  0.22930  0.56105  1.0000
  Fe  Fe183     1.0  0.79485  0.19803  0.59995  1.0000
  S   S366      1.0  0.82335  0.20778  0.60689  1.0000
  S   S367      1.0  0.74936  0.17756  0.58492  1.0000
  S   S368      1.0  0.78939  0.16653  0.60721  1.0000
  Fe  Fe184     1.0  0.63976  0.18738  0.69957  1.0000
  S   S369      1.0  0.60735  0.19053  0.71083  1.0000
  S   S370      1.0  0.65041  0.18776  0.66725  1.0000
  C   C1550     1.0  0.92401  0.23327  0.62940  1.0000
  H   H2747     1.0  0.96473  0.13843  0.60180  1.0000
  S   S371      1.0  0.64801  0.20987  0.71717  1.0000
  H   H2748     1.0  0.65670  0.10912  0.67290  1.0000
  H   H2749     1.0  0.71604  0.27663  0.58095  1.0000
  C   C1551     1.0  0.91241  0.31007  0.68246  1.0000
  C   C1552     1.0  0.77995  0.23548  0.51322  1.0000
  C   C1553     1.0  0.71703  0.17806  0.65025  1.0000
  C   C1554     1.0  0.70416  0.18140  0.63573  1.0000
  C   C1555     1.0  0.68374  0.18501  0.64102  1.0000
  C   C1556     1.0  0.67613  0.18558  0.66078  1.0000
  C   C1557     1.0  0.68910  0.18331  0.67516  1.0000
  C   C1558     1.0  0.70947  0.17954  0.66989  1.0000
  H   H2750     1.0  0.70984  0.18039  0.62054  1.0000
  H   H2751     1.0  0.67378  0.18688  0.62982  1.0000
  H   H2752     1.0  0.68340  0.18393  0.69040  1.0000
  H   H2753     1.0  0.71938  0.17720  0.68115  1.0000
  C   C1559     1.0  0.73924  0.25401  0.55241  1.0000
  C   C1560     1.0  0.72458  0.26477  0.54184  1.0000
  H   H2754     1.0  0.63409  0.12700  0.69734  1.0000
  C   C1561     1.0  0.75516  0.26328  0.55610  1.0000
  H   H2755     1.0  0.71239  0.25762  0.53870  1.0000
  C   C1562     1.0  0.59340  0.26829  0.71210  1.0000
  H   H2756     1.0  0.76655  0.25512  0.56421  1.0000
  C   C1563     1.0  0.82853  0.22775  0.66701  1.0000
  C   C1564     1.0  0.81045  0.22268  0.66281  1.0000
  C   C1565     1.0  0.80861  0.21655  0.64446  1.0000
  C   C1566     1.0  0.82474  0.21588  0.63000  1.0000
  C   C1567     1.0  0.84264  0.22144  0.63405  1.0000
  C   C1568     1.0  0.84469  0.22691  0.65260  1.0000
  H   H2757     1.0  0.79784  0.22345  0.67380  1.0000
  H   H2758     1.0  0.79468  0.21247  0.64148  1.0000
  H   H2759     1.0  0.85495  0.22165  0.62272  1.0000
  H   H2760     1.0  0.85858  0.23111  0.65554  1.0000
  C   C1569     1.0  0.79933  0.12326  0.54987  1.0000
  C   C1570     1.0  0.81006  0.11729  0.53256  1.0000
  C   C1571     1.0  0.81314  0.09746  0.52928  1.0000
  C   C1572     1.0  0.80553  0.08318  0.54314  1.0000
  C   C1573     1.0  0.79483  0.08900  0.56058  1.0000
  C   C1574     1.0  0.79187  0.10895  0.56402  1.0000
  H   H2761     1.0  0.81587  0.12804  0.52144  1.0000
  H   H2762     1.0  0.82102  0.09317  0.51579  1.0000
  H   H2763     1.0  0.78876  0.07805  0.57140  1.0000
  H   H2764     1.0  0.78350  0.11328  0.57739  1.0000
  H   H2765     1.0  0.81096  0.17525  0.63882  1.0000
  S   S372      1.0  0.99395  0.10710  0.57581  1.0000
  C   C1575     1.0  0.68825  0.08989  0.70119  1.0000
  H   H2766     1.0  0.77104  0.28503  0.50841  1.0000
  C   C1576     1.0  0.93405  0.12665  0.66672  1.0000
  C   C1577     1.0  0.93627  0.14047  0.65030  1.0000
  C   C1578     1.0  0.93159  0.16061  0.65226  1.0000
  C   C1579     1.0  0.92437  0.16717  0.67052  1.0000
  C   C1580     1.0  0.92171  0.15333  0.68686  1.0000
  C   C1581     1.0  0.92668  0.13321  0.68497  1.0000
  H   H2767     1.0  0.94193  0.13558  0.63623  1.0000
  H   H2768     1.0  0.93378  0.17124  0.63962  1.0000
  H   H2769     1.0  0.91630  0.15812  0.70106  1.0000
  H   H2770     1.0  0.92497  0.12264  0.69779  1.0000
  C   C1582     1.0  0.91074  0.05436  0.57135  1.0000
  C   C1583     1.0  0.89190  0.05372  0.56585  1.0000
  C   C1584     1.0  0.88955  0.04733  0.54781  1.0000
  C   C1585     1.0  0.90607  0.04118  0.53528  1.0000
  C   C1586     1.0  0.92496  0.04205  0.54067  1.0000
  C   C1587     1.0  0.92730  0.04882  0.55857  1.0000
  H   H2771     1.0  0.87900  0.05799  0.57566  1.0000
  H   H2772     1.0  0.87493  0.04669  0.54385  1.0000
  H   H2773     1.0  0.93780  0.03737  0.53100  1.0000
  H   H2774     1.0  0.94184  0.04948  0.56262  1.0000
  H   H2775     1.0  0.97959  0.14779  0.71641  1.0000
  H   H2776     1.0  0.66937  0.12739  0.69881  1.0000
  H   H2777     1.0  0.56501  0.25958  0.68214  1.0000
  H   H2778     1.0  0.52871  0.17921  0.72419  1.0000
  H   H2779     1.0  0.76486  0.03099  0.52012  1.0000
  H   H2780     1.0  0.77123  0.03831  0.49439  1.0000
  C   C1588     1.0  0.57311  0.29334  0.73848  1.0000
  N   N85       1.0  0.98964  0.15474  0.67464  1.0000
  H   H2781     1.0  0.55735  0.32430  0.52074  1.0000
  C   C1589     1.0  0.67266  0.28111  0.56140  1.0000
  H   H2782     1.0  0.87922  0.01368  0.63374  1.0000
  C   C1590     1.0  0.98599  0.16205  0.65374  1.0000
  H   H2783     1.0  0.77251  0.24588  0.50222  1.0000
  H   H2784     1.0  0.72831  0.14950  0.70925  1.0000
  H   H2785     1.0  0.78272  0.24372  0.52526  1.0000
  H   H2786     1.0  0.83513  0.17065  0.56753  1.0000
  H   H2787     1.0  0.94804  0.16015  0.73493  1.0000
  C   C1591     1.0  0.91215  0.29026  0.73663  1.0000
  H   H2788     1.0  0.96387  0.18807  0.62766  1.0000
  H   H2789     1.0  0.53555  0.26706  0.66493  1.0000
  C   C1592     1.0  0.70239  0.13449  0.70838  1.0000
  C   C1593     1.0  0.94739  0.00989  0.59671  1.0000
  H   H2790     1.0  0.59061  0.29366  0.69031  1.0000
  H   H2791     1.0  0.52728  0.31066  0.49748  1.0000
  H   H2792     1.0  0.96436  0.29142  0.65291  1.0000
  C   C1594     1.0  0.51428  0.27349  0.69047  1.0000
  H   H2793     1.0  0.72146  0.18063  0.72469  1.0000
  C   C1595     1.0  0.73225  0.20208  0.74011  1.0000
  H   H2794     1.0  0.62480  0.12952  0.67379  1.0000
  H   H2795     1.0  0.95086  0.28715  0.63383  1.0000
  H   H2796     1.0  0.94595  0.09916  0.51664  1.0000
  H   H2797     1.0  0.96926  0.24183  0.66175  1.0000
  H   H2798     1.0  0.67846  0.06370  0.69247  1.0000
  C   C1596     1.0  0.92015  0.00815  0.62319  1.0000
  H   H2799     1.0  0.92958  0.14677  0.59422  1.0000
  H   H2800     1.0  0.74964  0.13586  0.50955  1.0000
  H   H2801     1.0  0.89344  0.19314  0.54199  1.0000
  C   C1597     1.0  0.88459  0.02106  0.61923  1.0000
  H   H2802     1.0  0.65505  0.28893  0.59947  1.0000
  H   H2803     1.0  0.88228  0.10004  0.55632  1.0000
  C   C1598     1.0  0.84483  0.21261  0.50400  1.0000
  N   N86       1.0  0.86988  0.15090  0.64539  1.0000
  C   C1599     1.0  0.86981  0.13016  0.64060  1.0000
  C   C1600     1.0  0.84980  0.16237  0.64382  1.0000
  C   C1601     1.0  0.88452  0.16050  0.63024  1.0000
  C   C1602     1.0  0.87635  0.15145  0.66536  1.0000
  C   C1603     1.0  0.86329  0.14216  0.68303  1.0000
  C   C1604     1.0  0.88959  0.11669  0.64145  1.0000
  C   C1605     1.0  0.88563  0.18264  0.63103  1.0000
  C   C1606     1.0  0.83144  0.15102  0.64965  1.0000
  C   C1607     1.0  0.87291  0.14082  0.70200  1.0000
  C   C1608     1.0  0.88763  0.09629  0.63608  1.0000
  C   C1609     1.0  0.89830  0.19135  0.61313  1.0000
  H   H2804     1.0  0.86519  0.13044  0.62564  1.0000
  H   H2805     1.0  0.85875  0.12236  0.65056  1.0000
  H   H2806     1.0  0.84807  0.17511  0.65260  1.0000
  H   H2807     1.0  0.84835  0.16896  0.62842  1.0000
  H   H2808     1.0  0.88126  0.15858  0.61521  1.0000
  H   H2809     1.0  0.89973  0.15348  0.63164  1.0000
  H   H2810     1.0  0.89171  0.14455  0.66585  1.0000
  H   H2811     1.0  0.87679  0.16683  0.66831  1.0000
  H   H2812     1.0  0.86056  0.12714  0.68099  1.0000
  H   H2813     1.0  0.84904  0.15146  0.68518  1.0000
  H   H2814     1.0  0.90157  0.12251  0.63100  1.0000
  H   H2815     1.0  0.89423  0.11484  0.65645  1.0000
  H   H2816     1.0  0.89217  0.18510  0.64430  1.0000
  H   H2817     1.0  0.87091  0.19096  0.63128  1.0000
  H   H2818     1.0  0.82990  0.14191  0.63785  1.0000
  H   H2819     1.0  0.83234  0.14120  0.66345  1.0000
  H   H2820     1.0  0.81296  0.17369  0.66479  1.0000
  H   H2821     1.0  0.87675  0.15536  0.70452  1.0000
  H   H2822     1.0  0.86256  0.13558  0.71463  1.0000
  H   H2823     1.0  0.88643  0.13029  0.70138  1.0000
  H   H2824     1.0  0.87627  0.08918  0.64641  1.0000
  H   H2825     1.0  0.88370  0.09710  0.62085  1.0000
  H   H2826     1.0  0.90192  0.08700  0.63694  1.0000
  H   H2827     1.0  0.91361  0.18404  0.61252  1.0000
  H   H2828     1.0  0.89199  0.18981  0.59943  1.0000
  H   H2829     1.0  0.89866  0.20719  0.61411  1.0000
  H   H2830     1.0  0.93636  0.16979  0.58148  1.0000
  H   H2831     1.0  0.90700  0.01665  0.59531  1.0000
  C   C1610     1.0  0.75624  0.28322  0.54938  1.0000
  H   H2832     1.0  0.90634  0.13894  0.57348  1.0000
  H   H2833     1.0  0.93330  0.30858  0.65686  1.0000
  H   H2834     1.0  0.97718  0.25553  0.63028  1.0000
  H   H2835     1.0  0.97037  0.16194  0.58908  1.0000
  H   H2836     1.0  0.75394  0.12062  0.55269  1.0000
  C   C1611     1.0  0.72128  0.19675  0.72391  1.0000
  C   C1612     1.0  0.97912  0.26942  0.63579  1.0000
  C   C1613     1.0  0.54833  0.32518  0.50841  1.0000
  C   C1614     1.0  0.55874  0.26496  0.54324  1.0000
  H   H2837     1.0  0.95335  0.16090  0.61086  1.0000
  C   C1615     1.0  0.81262  0.16505  0.65233  1.0000
  C   C1616     1.0  0.81825  0.18761  0.72324  1.0000
  H   H2838     1.0  0.96082  0.17074  0.68109  1.0000
  C   C1617     1.0  0.60918  0.30692  0.54882  1.0000
  H   H2839     1.0  0.97288  0.22960  0.70535  1.0000
  H   H2840     1.0  0.69832  0.09288  0.71154  1.0000
  H   H2841     1.0  0.95484  0.21237  0.70835  1.0000
  H   H2842     1.0  0.51939  0.25913  0.62960  1.0000
  C   C1618     1.0  0.81053  0.17248  0.50043  1.0000
  H   H2843     1.0  0.76986  0.22432  0.51935  1.0000
  C   C1619     1.0  0.57701  0.30068  0.71879  1.0000
  H   H2844     1.0  0.56645  0.25606  0.53171  1.0000
  H   H2845     1.0  0.97160  0.15798  0.65076  1.0000
  H   H2846     1.0  0.80654  0.27208  0.50434  1.0000
  H   H2847     1.0  0.56834  0.18078  0.74007  1.0000
  H   H2848     1.0  0.79037  0.17616  0.72464  1.0000
  H   H2849     1.0  0.70150  0.29844  0.57411  1.0000
  H   H2850     1.0  0.56534  0.27393  0.57074  1.0000
  H   H2851     1.0  0.92279  0.31409  0.69205  1.0000
  H   H2852     1.0  0.66779  0.25882  0.58595  1.0000
  H   H2853     1.0  0.98871  0.18188  0.61639  1.0000
  C   C1620     1.0  0.71371  0.29896  0.60087  1.0000
  H   H2854     1.0  0.97228  0.21363  0.68658  1.0000
  C   C1621     1.0  0.66958  0.29371  0.60122  1.0000
  H   H2855     1.0  0.78846  0.03944  0.51185  1.0000
  H   H2856     1.0  0.52222  0.31244  0.52289  1.0000
  H   H2857     1.0  0.91466  0.22645  0.64204  1.0000
  H   H2858     1.0  0.93795  0.00969  0.58485  1.0000
  H   H2859     1.0  0.54179  0.29302  0.54601  1.0000
  H   H2860     1.0  0.56538  0.29458  0.53326  1.0000
  C   C1622     1.0  0.70922  0.12806  0.68762  1.0000
  N   N87       1.0  0.54348  0.28815  0.51548  1.0000
  C   C1623     1.0  0.99525  0.28028  0.74089  1.0000
  H   H2861     1.0  0.88756  0.03611  0.62104  1.0000
  H   H2862     1.0  0.82675  0.17483  0.71673  1.0000
  H   H2863     1.0  0.93854  0.22958  0.68075  1.0000
  H   H2864     1.0  0.71394  0.29294  0.52759  1.0000
  H   H2865     1.0  0.79272  0.11092  0.49557  1.0000
  H   H2866     1.0  0.87282  0.02222  0.60937  1.0000
  H   H2867     1.0  0.92456  0.11876  0.57542  1.0000
  C   C1624     1.0  0.97955  0.19042  0.62749  1.0000
  C   C1625     1.0  0.72012  0.11996  0.64620  1.0000
  H   H2868     1.0  0.66091  0.29280  0.56552  1.0000
  H   H2869     1.0  0.91291  0.19542  0.52195  1.0000
  H   H2870     1.0  0.93190  0.13181  0.52497  1.0000
  H   H2871     1.0  0.97023  0.09011  0.52311  1.0000
  C   C1626     1.0  0.84826  0.17814  0.56122  1.0000
  H   H2872     1.0  0.57482  0.24919  0.56646  1.0000
  H   H2873     1.0  0.78764  0.21189  0.73414  1.0000
  H   H2874     1.0  0.58130  0.30068  0.50228  1.0000
  H   H2875     1.0  0.95824  0.14317  0.70598  1.0000
  H   H2876     1.0  0.96308  0.17952  0.72569  1.0000
  C   C1627     1.0  0.95969  0.25140  0.67160  1.0000
  C   C1628     1.0  0.96909  0.00367  0.58879  1.0000
  H   H2877     1.0  0.78979  0.07724  0.50387  1.0000
  H   H2878     1.0  0.89912  0.99455  0.60925  1.0000
  H   H2879     1.0  0.98463  0.09453  0.67134  1.0000
  S   S373      1.0  0.59528  0.23642  0.74162  1.0000
  C   C1629     1.0  0.80996  0.21126  0.51866  1.0000
  C   C1630     1.0  0.90666  0.11780  0.55250  1.0000
  H   H2880     1.0  0.53317  0.24640  0.68281  1.0000
  H   H2881     1.0  0.83141  0.20475  0.55151  1.0000
  H   H2882     1.0  0.59702  0.30065  0.54348  1.0000
  H   H2883     1.0  0.74754  0.14564  0.54322  1.0000
  C   C1631     1.0  0.65672  0.12518  0.67230  1.0000
  H   H2884     1.0  0.71301  0.12145  0.61605  1.0000
  H   H2885     1.0  0.90114  0.12658  0.53947  1.0000
  C   C1632     1.0  0.97828  0.19078  0.51299  1.0000
  C   C1633     1.0  0.69503  0.09881  0.68017  1.0000
  C   C1634     1.0  0.88909  0.10941  0.56497  1.0000
  H   H2886     1.0  0.71636  0.28991  0.61485  1.0000
  C   C1635     1.0  0.57221  0.26441  0.55935  1.0000
  H   H2887     1.0  0.98102  0.20620  0.62313  1.0000
  H   H2888     1.0  0.72120  0.14358  0.62222  1.0000
  H   H2889     1.0  0.67606  0.25674  0.61843  1.0000
  H   H2890     1.0  0.51496  0.23354  0.70788  1.0000
  C   C1636     1.0  0.75744  0.12623  0.52072  1.0000
  H   H2891     1.0  0.68506  0.28812  0.55278  1.0000
  H   H2892     1.0  0.70566  0.20317  0.72584  1.0000
  H   H2893     1.0  0.66197  0.28653  0.63289  1.0000
  C   C1637     1.0  0.94271  0.13395  0.53494  1.0000
  H   H2894     1.0  0.74463  0.09853  0.52365  1.0000
  H   H2895     1.0  0.97111  0.02694  0.56457  1.0000
  Fe  Fe185     1.0  0.61557  0.16620  0.73413  1.0000
  H   H2896     1.0  0.93517  0.17241  0.54139  1.0000
  H   H2897     1.0  0.51706  0.27795  0.53200  1.0000
  H   H2898     1.0  0.97184  0.13091  0.67596  1.0000
  C   C1638     1.0  0.97355  0.01074  0.56705  1.0000
  C   C1639     1.0  0.89565  0.32282  0.74169  1.0000
  Fe  Fe186     1.0  0.87712  0.20812  0.73686  1.0000
  C   C1640     1.0  0.74119  0.29410  0.53938  1.0000
  C   C1641     1.0  0.90791  0.16533  0.53288  1.0000
  S   S374      1.0  0.86397  0.23922  0.73180  1.0000
  C   C1642     1.0  0.54457  0.18111  0.72284  1.0000
  H   H2899     1.0  0.54934  0.17112  0.69384  1.0000
  H   H2900     1.0  0.98657  0.28351  0.72813  1.0000
  C   C1643     1.0  0.93539  0.27978  0.67481  1.0000
  H   H2901     1.0  0.69236  0.14832  0.70719  1.0000
  C   C1644     1.0  0.55144  0.26703  0.68961  1.0000
  H   H2902     1.0  0.76856  0.29035  0.55227  1.0000
  H   H2903     1.0  0.96665  0.11296  0.50765  1.0000
  H   H2904     1.0  0.99008  0.26604  0.64662  1.0000
  H   H2905     1.0  0.69640  0.14288  0.65194  1.0000
  H   H2906     1.0  0.91567  0.16934  0.56076  1.0000
  C   C1645     1.0  0.95428  0.16864  0.72138  1.0000
  H   H2907     1.0  0.94968  0.10458  0.55090  1.0000
  H   H2908     1.0  0.55063  0.26184  0.70553  1.0000
  C   C1646     1.0  0.58723  0.28809  0.70552  1.0000
  C   C1647     1.0  0.55246  0.28624  0.53458  1.0000
  H   H2909     1.0  0.72232  0.11697  0.68868  1.0000
  C   C1648     1.0  0.89918  0.09529  0.50882  1.0000
  S   S375      1.0  0.90790  0.21444  0.72516  1.0000
  C   C1649     1.0  0.66733  0.29894  0.62270  1.0000
  H   H2910     1.0  0.65117  0.26261  0.55526  1.0000
  C   C1650     1.0  0.72542  0.28476  0.53556  1.0000
  H   H2911     1.0  0.88375  0.09325  0.51477  1.0000
  H   H2912     1.0  0.96049  0.15184  0.55776  1.0000
  C   C1651     1.0  0.75890  0.10417  0.51772  1.0000
  H   H2913     1.0  0.49990  0.20226  0.71699  1.0000
  H   H2914     1.0  0.85061  0.13157  0.50588  1.0000
  C   C1652     1.0  0.79932  0.22579  0.50357  1.0000
  C   C1653     1.0  0.90312  0.00940  0.61024  1.0000
  C   C1654     1.0  0.94157  0.15412  0.58509  1.0000
  H   H2915     1.0  0.72979  0.12468  0.72122  1.0000
  H   H2916     1.0  0.73113  0.12752  0.54185  1.0000
  C   C1655     1.0  0.53434  0.30894  0.51122  1.0000
  H   H2917     1.0  0.76966  0.09692  0.52785  1.0000
  H   H2918     1.0  0.67070  0.30754  0.59120  1.0000
  H   H2919     1.0  0.71476  0.24032  0.63821  1.0000
  H   H2920     1.0  0.85358  0.18482  0.57314  1.0000
  C   C1656     1.0  0.97447  0.16582  0.68824  1.0000
  H   H2921     1.0  0.68652  0.09321  0.66975  1.0000
  C   C1657     1.0  0.99529  0.21824  0.51851  1.0000
  H   H2922     1.0  0.92389  0.26992  0.64100  1.0000
  H   H2923     1.0  0.76448  0.06453  0.52812  1.0000
  H   H2924     1.0  0.70389  0.06091  0.69768  1.0000
  H   H2925     1.0  0.69447  0.12339  0.71808  1.0000
  N   N88       1.0  0.82868  0.19954  0.51103  1.0000
  H   H2926     1.0  0.89386  0.10027  0.57826  1.0000
  H   H2927     1.0  0.70163  0.23674  0.59798  1.0000
  H   H2928     1.0  0.72012  0.21979  0.62404  1.0000
  H   H2929     1.0  0.95546  0.12915  0.57126  1.0000
  H   H2930     1.0  0.92443  0.27156  0.68463  1.0000
  N   N89       1.0  0.93266  0.14233  0.55322  1.0000
  S   S376      1.0  0.65015  0.31939  0.50826  1.0000
  H   H2931     1.0  0.63557  0.14951  0.68114  1.0000
  C   C1658     1.0  0.66442  0.26915  0.54774  1.0000
  C   C1659     1.0  0.74683  0.13016  0.54086  1.0000
  H   H2932     1.0  0.81495  0.19919  0.71112  1.0000
  H   H2933     1.0  0.91463  0.24452  0.62080  1.0000
  C   C1660     1.0  0.68998  0.26317  0.61255  1.0000
  H   H2934     1.0  0.93034  0.22171  0.61991  1.0000
  H   H2935     1.0  0.58666  0.26925  0.55304  1.0000
  C   C1661     1.0  0.96315  0.22234  0.69749  1.0000
  C   C1662     1.0  0.92343  0.16286  0.54762  1.0000
  H   H2936     1.0  0.57129  0.16898  0.70609  1.0000
  H   H2937     1.0  0.69216  0.25754  0.57365  1.0000
  C   C1663     1.0  0.91758  0.12980  0.56452  1.0000
  H   H2938     1.0  0.79918  0.20131  0.52619  1.0000
  H   H2939     1.0  0.82322  0.17663  0.53483  1.0000
  H   H2940     1.0  0.73180  0.31457  0.57730  1.0000
  H   H2941     1.0  0.93582  0.99842  0.65886  1.0000
  C   C1664     1.0  0.71986  0.13838  0.71847  1.0000
  C   C1665     1.0  0.83540  0.18520  0.52787  1.0000
  H   H2942     1.0  0.85952  0.20430  0.50587  1.0000
  C   C1666     1.0  0.69886  0.12666  0.65515  1.0000
  H   H2943     1.0  0.85611  0.20168  0.53964  1.0000
  C   C1667     1.0  0.96724  0.15480  0.70830  1.0000
  H   H2944     1.0  0.69516  0.22659  0.63399  1.0000
  H   H2945     1.0  0.53308  0.25942  0.52051  1.0000
  H   H2946     1.0  0.96961  0.00151  0.66549  1.0000
  C   C1668     1.0  0.70913  0.23239  0.62739  1.0000
  C   C1669     1.0  0.70453  0.28767  0.58694  1.0000
  H   H2947     1.0  0.67567  0.25731  0.54286  1.0000
  C   C1670     1.0  0.94065  0.24241  0.63644  1.0000
  C   C1671     1.0  0.67983  0.26789  0.57957  1.0000
  C   C1672     1.0  0.70600  0.24585  0.60853  1.0000
  H   H2948     1.0  0.68137  0.30207  0.62725  1.0000
  H   H2949     1.0  0.86004  0.16717  0.55554  1.0000
  H   H2950     1.0  0.68881  0.12069  0.64651  1.0000
  C   C1673     1.0  0.98235  0.21020  0.50807  1.0000
  C   C1674     1.0  0.50807  0.32549  0.58471  1.0000
  H   H2951     1.0  0.74802  0.06352  0.51017  1.0000
  N   N90       1.0  0.68619  0.27832  0.59535  1.0000
  H   H2952     1.0  0.60753  0.30506  0.56511  1.0000
  H   H2953     1.0  0.60713  0.11315  0.72651  1.0000
  H   H2954     1.0  0.70390  0.31245  0.60392  1.0000
  H   H2955     1.0  0.95668  0.01398  0.63148  1.0000
  C   C1675     1.0  0.52702  0.27508  0.51839  1.0000
  Fe  Fe187     1.0  0.65323  0.18392  0.73949  1.0000
  H   H2956     1.0  0.60130  0.25867  0.70189  1.0000
  H   H2957     1.0  0.88949  0.18846  0.51778  1.0000
  H   H2958     1.0  0.72290  0.10377  0.64744  1.0000
  H   H2959     1.0  0.94007  0.24567  0.69899  1.0000
  C   C1676     1.0  0.50074  0.23188  0.70262  1.0000
  H   H2960     1.0  0.88328  0.30087  0.72849  1.0000
  H   H2961     1.0  0.94634  0.02566  0.59895  1.0000
  H   H2962     1.0  0.73137  0.12560  0.65356  1.0000
  C   C1677     1.0  0.80181  0.28753  0.50698  1.0000
  C   C1678     1.0  0.95613  0.11444  0.53852  1.0000
  H   H2963     1.0  0.84359  0.22492  0.51323  1.0000
  H   H2964     1.0  0.51545  0.28931  0.68549  1.0000
  C   C1679     1.0  0.93231  0.25827  0.65011  1.0000
  S   S377      1.0  0.91416  0.26723  0.72682  1.0000
  C   C1680     1.0  0.84284  0.19410  0.54485  1.0000
  C   C1681     1.0  0.98721  0.17966  0.52869  1.0000
  H   H2965     1.0  0.72039  0.25110  0.60266  1.0000
  C   C1682     1.0  0.77501  0.07782  0.49866  1.0000
  H   H2966     1.0  0.69431  0.26988  0.62491  1.0000
  H   H2967     1.0  0.50658  0.28038  0.61711  1.0000
  C   C1683     1.0  0.73349  0.30540  0.59149  1.0000
  C   C1684     1.0  0.92351  0.29869  0.66610  1.0000
  C   C1685     1.0  0.58906  0.26106  0.73188  1.0000
  H   H2968     1.0  0.91407  0.15980  0.51874  1.0000
  H   H2969     1.0  0.65807  0.13158  0.65671  1.0000
  H   H2970     1.0  0.94537  0.28426  0.68463  1.0000
  C   C1686     1.0  0.98637  0.18441  0.64780  1.0000
  H   H2971     1.0  0.94917  0.24906  0.62317  1.0000
  H   H2972     1.0  0.92102  0.25193  0.66114  1.0000
  H   H2973     1.0  0.98445  0.16455  0.53251  1.0000
  C   C1687     1.0  0.89570  0.30419  0.73520  1.0000
  C   C1688     1.0  0.63662  0.13331  0.68178  1.0000
  H   H2974     1.0  0.97061  0.11762  0.54218  1.0000
  C   C1689     1.0  0.79920  0.18150  0.73488  1.0000
  H   H2975     1.0  0.91243  0.29516  0.65708  1.0000
  C   C1690     1.0  0.95858  0.15371  0.59743  1.0000
  C   C1691     1.0  0.78174  0.29436  0.49977  1.0000
  H   H2976     1.0  0.71518  0.14115  0.67912  1.0000
  C   C1692     1.0  0.72334  0.12734  0.62440  1.0000
  H   H2977     1.0  0.95216  0.14461  0.52618  1.0000
  H   H2978     1.0  0.58678  0.27520  0.50978  1.0000
  N   N91       1.0  0.69404  0.12084  0.67687  1.0000
  H   H2979     1.0  0.97000  0.25848  0.67904  1.0000
  H   H2980     1.0  0.90913  0.08562  0.51826  1.0000
  C   C1693     1.0  0.67366  0.13054  0.68285  1.0000
  H   H2981     1.0  0.50719  0.24867  0.66399  1.0000
  H   H2982     1.0  0.71041  0.09214  0.67673  1.0000
  H   H2983     1.0  0.89489  0.15782  0.53918  1.0000
  S   S378      1.0  0.64710  0.16123  0.72114  1.0000
  N   N92       1.0  0.94693  0.26691  0.66021  1.0000
  H   H2984     1.0  0.80081  0.28857  0.52300  1.0000
  C   C1694     1.0  0.55527  0.16744  0.70823  1.0000
  H   H2985     1.0  0.76045  0.20315  0.72338  1.0000
  C   C1695     1.0  0.94865  0.23753  0.68737  1.0000
  C   C1696     1.0  0.90052  0.18695  0.52844  1.0000
  C   C1697     1.0  0.95994  0.10354  0.52027  1.0000
  H   H2986     1.0  0.91672  0.10526  0.54729  1.0000
  H   H2987     1.0  0.55808  0.32418  0.49443  1.0000
  H   H2988     1.0  0.84744  0.17427  0.52234  1.0000
  H   H2989     1.0  0.96407  0.00440  0.55811  1.0000
  H   H2990     1.0  0.72800  0.20248  0.70921  1.0000
  H   H2991     1.0  0.51086  0.28610  0.65098  1.0000
  H   H2992     1.0  0.97665  0.19320  0.65824  1.0000
  H   H2993     1.0  0.91457  0.00042  0.63745  1.0000
  H   H2994     1.0  0.97808  0.28582  0.60683  1.0000
  Fe  Fe188     1.0  0.61613  0.21132  0.72989  1.0000
  C   C1698     1.0  0.50506  0.26839  0.62927  1.0000
  H   H2995     1.0  0.77767  0.30967  0.50313  1.0000
  H   H2996     1.0  0.67296  0.09568  0.70618  1.0000
  H   H2997     1.0  0.63825  0.24925  0.73670  1.0000
  H   H2998     1.0  0.77245  0.13085  0.51979  1.0000
  C   C1699     1.0  0.53339  0.26244  0.68092  1.0000
  H   H2999     1.0  0.55253  0.28305  0.68755  1.0000
  H   H3000     1.0  0.81289  0.22014  0.53013  1.0000
  H   H3001     1.0  0.90159  0.30114  0.69158  1.0000
  H   H3002     1.0  0.98920  0.00608  0.56209  1.0000
  H   H3003     1.0  0.68422  0.06151  0.71743  1.0000
  C   C1700     1.0  0.59527  0.10901  0.73740  1.0000
  H   H3004     1.0  0.92187  0.02332  0.62611  1.0000
  C   C1701     1.0  0.68876  0.06765  0.70217  1.0000
  H   H3005     1.0  0.55315  0.15195  0.71360  1.0000
  C   C1702     1.0  0.98727  0.13313  0.67767  1.0000
  H   H3006     1.0  0.66016  0.27883  0.53455  1.0000
  H   H3007     1.0  0.71441  0.14400  0.73277  1.0000
  H   H3008     1.0  0.99091  0.29672  0.62343  1.0000
  C   C1703     1.0  0.57981  0.28586  0.49866  1.0000
  H   H3009     1.0  0.72811  0.12490  0.49454  1.0000
  H   H3010     1.0  0.54654  0.19635  0.71646  1.0000
  H   H3011     1.0  0.79594  0.17924  0.50640  1.0000
  H   H3012     1.0  0.97571  0.21898  0.49606  1.0000
  C   C1704     1.0  0.65232  0.31683  0.62546  1.0000
  C   C1705     1.0  0.49921  0.27717  0.64867  1.0000
  H   H3013     1.0  0.63770  0.31417  0.62170  1.0000
  S   S379      1.0  0.56994  0.32598  0.71234  1.0000
  H   H3014     1.0  0.51503  0.27207  0.70660  1.0000
  H   H3015     1.0  0.62334  0.29876  0.54346  1.0000
  H   H3016     1.0  0.81305  0.29693  0.49943  1.0000
  H   H3017     1.0  0.80855  0.23767  0.49775  1.0000
  C   C1706     1.0  0.58820  0.09057  0.73803  1.0000
  H   H3018     1.0  0.59469  0.08060  0.72753  1.0000
  C   C1707     1.0  0.76373  0.06246  0.51254  1.0000
  H   H3019     1.0  0.97994  0.17950  0.69123  1.0000
  H   H3020     1.0  0.98951  0.12682  0.69286  1.0000
  S   S380      1.0  0.55713  0.32325  0.65818  1.0000
  C   C1708     1.0  0.95406  0.99864  0.63032  1.0000
  H   H3021     1.0  0.74407  0.29157  0.49365  1.0000
  H   H3022     1.0  0.73937  0.31419  0.60140  1.0000
  S   S381      1.0  0.96270  0.17944  0.49988  1.0000
  H   H3023     1.0  0.73644  0.09015  0.49438  1.0000
  H   H3024     1.0  0.94185  0.17645  0.71369  1.0000
  C   C1709     1.0  0.77266  0.04158  0.50947  1.0000
  H   H3025     1.0  0.71005  0.28080  0.49492  1.0000
  H   H3026     1.0  0.75761  0.23423  0.73927  1.0000
  H   H3027     1.0  0.90136  0.11084  0.50932  1.0000
  N   N93       1.0  0.76515  0.09863  0.49715  1.0000
  N   N94       1.0  0.93981  0.99816  0.61539  1.0000
  H   H3028     1.0  0.53428  0.21361  0.74120  1.0000
  C   C1710     1.0  0.82542  0.18784  0.49487  1.0000
  H   H3029     1.0  0.55837  0.26628  0.49704  1.0000
  H   H3030     1.0  0.75581  0.17925  0.73339  1.0000
  C   C1711     1.0  0.98808  0.28271  0.61855  1.0000
  C   C1712     1.0  0.75451  0.19460  0.73711  1.0000
  H   H3031     1.0  0.82756  0.19316  0.73295  1.0000
  H   H3032     1.0  0.50404  0.29081  0.50154  1.0000
  C   C1713     1.0  0.50069  0.26041  0.50377  1.0000
  C   C1714     1.0  0.51390  0.27693  0.50144  1.0000
  H   H3033     1.0  0.64354  0.27377  0.73835  1.0000
  H   H3034     1.0  0.99594  0.12270  0.64876  1.0000
  H   H3035     1.0  0.97915  0.01010  0.59702  1.0000
  H   H3036     1.0  0.73014  0.21825  0.73980  1.0000
  C   C1715     1.0  0.55801  0.28220  0.49838  1.0000
  H   H3037     1.0  0.50967  0.24605  0.50276  1.0000
  H   H3038     1.0  0.50341  0.22587  0.68828  1.0000
  H   H3039     1.0  0.65063  0.31995  0.64100  1.0000
  H   H3040     1.0  0.90430  0.32371  0.67602  1.0000
  C   C1716     1.0  0.55306  0.17668  0.74287  1.0000
  H   H3041     1.0  0.84618  0.24697  0.85277  1.0000
  C   C1717     1.0  0.75999  0.28798  0.90667  1.0000
  H   H3042     1.0  0.74466  0.17530  0.95241  1.0000
  H   H3043     1.0  0.60238  0.00649  0.85890  1.0000
  Fe  Fe189     1.0  0.76047  0.22991  0.85573  1.0000
  S   S382      1.0  0.76880  0.19764  0.86413  1.0000
  H   H3044     1.0  0.70420  0.09075  0.92818  1.0000
  Fe  Fe190     1.0  0.73179  0.22087  0.82772  1.0000
  S   S383      1.0  0.73887  0.18843  0.83366  1.0000
  S   S384      1.0  0.71022  0.23425  0.80617  1.0000
  Fe  Fe191     1.0  0.73660  0.19391  0.86500  1.0000
  S   S385      1.0  0.71893  0.17480  0.88818  1.0000
  Fe  Fe192     1.0  0.77016  0.19483  0.83196  1.0000
  S   S386      1.0  0.79300  0.17354  0.81751  1.0000
  S   S387      1.0  0.72784  0.22653  0.85947  1.0000
  S   S388      1.0  0.76351  0.22682  0.82321  1.0000
  Fe  Fe193     1.0  0.62784  0.06389  0.90310  1.0000
  S   S389      1.0  0.65752  0.04816  0.89468  1.0000
  S   S390      1.0  0.60185  0.06998  0.88513  1.0000
  Fe  Fe194     1.0  0.64137  0.07545  0.94002  1.0000
  S   S391      1.0  0.67205  0.06062  0.93433  1.0000
  S   S392      1.0  0.63167  0.09106  0.96664  1.0000
  Fe  Fe195     1.0  0.66984  0.07446  0.90317  1.0000
  S   S393      1.0  0.69245  0.09072  0.88227  1.0000
  Fe  Fe196     1.0  0.65650  0.03614  0.92681  1.0000
  H   H3045     1.0  0.71983  0.25048  0.98018  1.0000
  S   S394      1.0  0.64014  0.09073  0.90970  1.0000
  S   S395      1.0  0.62590  0.05044  0.93440  1.0000
  Fe  Fe197     1.0  0.51184  0.01900  0.79277  1.0000
  S   S396      1.0  0.51231  0.02472  0.82412  1.0000
  H   H3046     1.0  0.79404  0.27561  0.77610  1.0000
  Fe  Fe198     1.0  0.54325  0.04860  0.77784  1.0000
  S   S397      1.0  0.54462  0.05641  0.80803  1.0000
  H   H3047     1.0  0.64820  0.23224  0.77736  1.0000
  Fe  Fe199     1.0  0.54524  0.02430  0.81733  1.0000
  S   S398      1.0  0.56848  0.01094  0.83714  1.0000
  Fe  Fe200     1.0  0.51192  0.05623  0.81200  1.0000
  C   C1718     1.0  0.64212  0.20123  0.80030  1.0000
  S   S399      1.0  0.54523  0.01594  0.78672  1.0000
  S   S400      1.0  0.51013  0.05119  0.78095  1.0000
  H   H3048     1.0  0.57334  0.11416  0.92387  1.0000
  S   S401      1.0  0.62245  0.18726  0.75394  1.0000
  S   S402      1.0  0.67864  0.17516  0.75749  1.0000
  H   H3049     1.0  0.90887  0.30203  0.96488  1.0000
  H   H3050     1.0  0.56510  0.12628  0.77546  1.0000
  S   S403      1.0  0.54704  0.18879  0.90321  1.0000
  H   H3051     1.0  0.93989  0.26930  0.98165  1.0000
  H   H3052     1.0  0.59023  0.18191  0.84139  1.0000
  C   C1719     1.0  0.56483  0.22045  0.91258  1.0000
  C   C1720     1.0  0.64689  0.10939  0.96738  1.0000
  C   C1721     1.0  0.86672  0.25110  0.78863  1.0000
  C   C1722     1.0  0.51662  0.10441  0.80957  1.0000
  C   C1723     1.0  0.52614  0.12131  0.80835  1.0000
  H   H3053     1.0  0.75760  0.15442  0.92591  1.0000
  H   H3054     1.0  0.52108  0.09399  0.79900  1.0000
  H   H3055     1.0  0.53798  0.12382  0.79696  1.0000
  C   C1724     1.0  0.57271  0.08497  0.75212  1.0000
  H   H3056     1.0  0.72479  0.16767  0.97015  1.0000
  H   H3057     1.0  0.72506  0.19598  0.75431  1.0000
  C   C1725     1.0  0.54583  0.20326  0.97616  1.0000
  C   C1726     1.0  0.56437  0.09802  0.76551  1.0000
  S   S404      1.0  0.77352  0.31775  0.92295  1.0000
  H   H3058     1.0  0.55230  0.09404  0.77620  1.0000
  C   C1727     1.0  0.59289  0.05269  0.87264  1.0000
  C   C1728     1.0  0.60250  0.03386  0.87102  1.0000
  C   C1729     1.0  0.59482  0.02098  0.86031  1.0000
  C   C1730     1.0  0.57747  0.02683  0.85134  1.0000
  C   C1731     1.0  0.56777  0.04550  0.85338  1.0000
  C   C1732     1.0  0.57564  0.05843  0.86367  1.0000
  H   H3059     1.0  0.61586  0.02926  0.87789  1.0000
  C   C1733     1.0  0.76100  0.23334  0.75466  1.0000
  H   H3060     1.0  0.55415  0.05004  0.84706  1.0000
  H   H3061     1.0  0.56825  0.07294  0.86476  1.0000
  C   C1734     1.0  0.70048  0.21801  0.79307  1.0000
  C   C1735     1.0  0.69147  0.22515  0.77608  1.0000
  C   C1736     1.0  0.68411  0.21222  0.76525  1.0000
  C   C1737     1.0  0.68605  0.19211  0.77127  1.0000
  C   C1738     1.0  0.69484  0.18507  0.78832  1.0000
  C   C1739     1.0  0.70167  0.19800  0.79934  1.0000
  H   H3062     1.0  0.69042  0.24064  0.77114  1.0000
  H   H3063     1.0  0.67747  0.21771  0.75197  1.0000
  H   H3064     1.0  0.69628  0.16954  0.79311  1.0000
  H   H3065     1.0  0.70780  0.19237  0.81271  1.0000
  C   C1740     1.0  0.70923  0.15293  0.88466  1.0000
  C   C1741     1.0  0.71554  0.14290  0.86822  1.0000
  C   C1742     1.0  0.70981  0.12413  0.86745  1.0000
  C   C1743     1.0  0.69728  0.11536  0.88281  1.0000
  C   C1744     1.0  0.69010  0.12590  0.89871  1.0000
  C   C1745     1.0  0.69624  0.14445  0.89973  1.0000
  H   H3066     1.0  0.72558  0.14915  0.85651  1.0000
  H   H3067     1.0  0.71547  0.11614  0.85506  1.0000
  H   H3068     1.0  0.68036  0.11942  0.91053  1.0000
  H   H3069     1.0  0.69136  0.15202  0.91256  1.0000
  C   C1746     1.0  0.85022  0.18614  0.77945  1.0000
  C   C1747     1.0  0.84927  0.16969  0.79327  1.0000
  C   C1748     1.0  0.83168  0.16634  0.80492  1.0000
  C   C1749     1.0  0.81494  0.17979  0.80353  1.0000
  C   C1750     1.0  0.81583  0.19670  0.79013  1.0000
  C   C1751     1.0  0.83340  0.19967  0.77772  1.0000
  H   H3070     1.0  0.86217  0.15922  0.79474  1.0000
  H   H3071     1.0  0.83107  0.15319  0.81511  1.0000
  H   H3072     1.0  0.80289  0.20714  0.78904  1.0000
  H   H3073     1.0  0.65988  0.25328  0.74759  1.0000
  H   H3074     1.0  0.68251  0.05107  0.97879  1.0000
  H   H3075     1.0  0.74867  0.08541  0.91481  1.0000
  H   H3076     1.0  0.82650  0.32350  0.86524  1.0000
  H   H3077     1.0  0.94285  0.23154  0.98188  1.0000
  H   H3078     1.0  0.86780  0.32096  0.80614  1.0000
  H   H3079     1.0  0.64054  0.06951  0.74552  1.0000
  S   S405      1.0  0.86289  0.32225  0.95172  1.0000
  H   H3080     1.0  0.77304  0.16426  0.75916  1.0000
  H   H3081     1.0  0.59898  0.18734  0.94691  1.0000
  C   C1752     1.0  0.76096  0.27348  0.89370  1.0000
  S   S406      1.0  0.68105  0.16198  0.96473  1.0000
  H   H3082     1.0  0.58695  0.22456  0.82152  1.0000
  H   H3083     1.0  0.85209  0.22475  0.79481  1.0000
  C   C1753     1.0  0.66314  0.11164  0.95330  1.0000
  C   C1754     1.0  0.74768  0.17161  0.77888  1.0000
  H   H3084     1.0  0.66669  0.10173  0.94216  1.0000
  H   H3085     1.0  0.85878  0.25664  0.77570  1.0000
  H   H3086     1.0  0.76049  0.15553  0.80429  1.0000
  C   C1755     1.0  0.56265  0.23310  0.99291  1.0000
  H   H3087     1.0  0.62013  0.24622  0.82562  1.0000
  S   S407      1.0  0.60560  0.22827  0.94874  1.0000
  H   H3088     1.0  0.64352  0.19917  0.78449  1.0000
  H   H3089     1.0  0.65614  0.17189  0.80753  1.0000
  N   N95       1.0  0.83553  0.24541  0.81330  1.0000
  N   N96       1.0  0.54174  0.18682  0.75957  1.0000
  C   C1756     1.0  0.55145  0.17979  0.77797  1.0000
  C   C1757     1.0  0.62286  0.21445  0.80592  1.0000
  S   S408      1.0  0.66141  0.00344  0.93711  1.0000
  C   C1758     1.0  0.54182  0.20861  0.75454  1.0000
  C   C1759     1.0  0.53130  0.22132  0.77051  1.0000
  C   C1760     1.0  0.57172  0.18688  0.77909  1.0000
  H   H3090     1.0  0.80766  0.07780  0.93203  1.0000
  C   C1761     1.0  0.73574  0.11205  0.92888  1.0000
  C   C1762     1.0  0.73458  0.09480  0.91678  1.0000
  H   H3091     1.0  0.61108  0.20696  0.80126  1.0000
  C   C1763     1.0  0.73246  0.25714  0.97141  1.0000
  H   H3092     1.0  0.52638  0.05492  0.91005  1.0000
  C   C1764     1.0  0.51820  0.15974  0.76423  1.0000
  H   H3093     1.0  0.53665  0.21666  0.78501  1.0000
  S   S409      1.0  0.56404  0.06173  0.75251  1.0000
  H   H3094     1.0  0.58183  0.18427  0.76577  1.0000
  H   H3095     1.0  0.57021  0.20277  0.78064  1.0000
  C   C1765     1.0  0.77566  0.29939  0.90646  1.0000
  H   H3096     1.0  0.50991  0.18756  0.95168  1.0000
  H   H3097     1.0  0.85003  0.21690  0.84346  1.0000
  H   H3098     1.0  0.81527  0.26400  0.96328  1.0000
  H   H3099     1.0  0.72662  0.27084  0.96291  1.0000
  H   H3100     1.0  0.94113  0.28458  0.74628  1.0000
  H   H3101     1.0  0.57222  0.17914  0.81061  1.0000
  C   C1766     1.0  0.63247  0.23772  0.77697  1.0000
  H   H3102     1.0  0.65539  0.20756  0.80299  1.0000
  H   H3103     1.0  0.70056  0.20797  0.90775  1.0000
  H   H3104     1.0  0.84554  0.20283  0.82452  1.0000
  S   S410      1.0  0.77989  0.25229  0.86324  1.0000
  H   H3105     1.0  0.74987  0.24824  0.78055  1.0000
  H   H3106     1.0  0.59514  0.17387  0.88533  1.0000
  H   H3107     1.0  0.63827  0.26865  0.77447  1.0000
  H   H3108     1.0  0.74753  0.30685  0.97879  1.0000
  C   C1767     1.0  0.52354  0.05261  0.89506  1.0000
  H   H3109     1.0  0.80469  0.30441  0.89289  1.0000
  H   H3110     1.0  0.62980  0.17339  0.80827  1.0000
  C   C1768     1.0  0.65583  0.26026  0.82575  1.0000
  H   H3111     1.0  0.61534  0.00624  0.77994  1.0000
  C   C1769     1.0  0.88657  0.24090  0.78075  1.0000
  C   C1770     1.0  0.58959  0.12850  0.94141  1.0000
  C   C1771     1.0  0.77039  0.11693  0.93254  1.0000
  C   C1772     1.0  0.85257  0.25707  0.84058  1.0000
  H   H3112     1.0  0.89462  0.25133  0.77011  1.0000
  N   N97       1.0  0.62133  0.23571  0.79723  1.0000
  H   H3113     1.0  0.55719  0.21246  0.75063  1.0000
  C   C1773     1.0  0.58529  0.23969  0.81406  1.0000
  H   H3114     1.0  0.86975  0.26369  0.79586  1.0000
  C   C1774     1.0  0.64211  0.18089  0.81176  1.0000
  H   H3115     1.0  0.65984  0.24623  0.79948  1.0000
  H   H3116     1.0  0.86718  0.25034  0.83464  1.0000
  H   H3117     1.0  0.79624  0.20173  0.75675  1.0000
  H   H3118     1.0  0.59481  0.23435  0.78382  1.0000
  H   H3119     1.0  0.55537  0.22979  0.90311  1.0000
  C   C1775     1.0  0.71880  0.08193  0.92650  1.0000
  H   H3120     1.0  0.61688  0.26484  0.76329  1.0000
  H   H3121     1.0  0.56056  0.23357  0.79976  1.0000
  H   H3122     1.0  0.81339  0.30106  0.93408  1.0000
  H   H3123     1.0  0.91627  0.30755  0.82668  1.0000
  S   S411      1.0  0.59478  0.14539  0.75147  1.0000
  H   H3124     1.0  0.64075  0.18186  0.82780  1.0000
  S   S412      1.0  0.51576  0.16343  0.87616  1.0000
  C   C1776     1.0  0.64248  0.12219  0.98185  1.0000
  C   C1777     1.0  0.58128  0.17591  0.79669  1.0000
  H   H3125     1.0  0.59618  0.18034  0.79670  1.0000
  N   N98       1.0  0.58428  0.13431  0.88489  1.0000
  C   C1778     1.0  0.58001  0.15327  0.87210  1.0000
  C   C1779     1.0  0.56747  0.12180  0.88603  1.0000
  C   C1780     1.0  0.58549  0.13929  0.90540  1.0000
  C   C1781     1.0  0.60377  0.12339  0.87807  1.0000
  C   C1782     1.0  0.60683  0.11825  0.85665  1.0000
  C   C1783     1.0  0.59511  0.16842  0.87088  1.0000
  H   H3126     1.0  0.75008  0.26375  0.75756  1.0000
  C   C1784     1.0  0.55690  0.12220  0.86735  1.0000
  C   C1785     1.0  0.54006  0.10921  0.87117  1.0000
  C   C1786     1.0  0.62821  0.11010  0.85110  1.0000
  H   H3127     1.0  0.98788  0.31428  0.87212  1.0000
  H   H3128     1.0  0.58764  0.24992  0.82452  1.0000
  H   H3129     1.0  0.56532  0.16060  0.87737  1.0000
  H   H3130     1.0  0.57872  0.15060  0.85683  1.0000
  H   H3131     1.0  0.57252  0.10623  0.89083  1.0000
  H   H3132     1.0  0.55547  0.12648  0.89744  1.0000
  H   H3133     1.0  0.71772  0.07021  0.91716  1.0000
  H   H3134     1.0  0.82893  0.26534  0.78753  1.0000
  H   H3135     1.0  0.61617  0.13146  0.88041  1.0000
  H   H3136     1.0  0.60613  0.10922  0.88723  1.0000
  H   H3137     1.0  0.60341  0.13110  0.84597  1.0000
  H   H3138     1.0  0.59762  0.10658  0.85513  1.0000
  H   H3139     1.0  0.61018  0.16196  0.86594  1.0000
  C   C1787     1.0  0.50507  0.13159  0.83669  1.0000
  C   C1788     1.0  0.73144  0.16722  0.95470  1.0000
  H   H3140     1.0  0.55022  0.13715  0.86264  1.0000
  H   H3141     1.0  0.56714  0.11723  0.85497  1.0000
  H   H3142     1.0  0.52751  0.11619  0.88050  1.0000
  H   H3143     1.0  0.53489  0.10713  0.85704  1.0000
  H   H3144     1.0  0.54484  0.09462  0.87864  1.0000
  H   H3145     1.0  0.63010  0.10641  0.83574  1.0000
  H   H3146     1.0  0.63842  0.12105  0.85226  1.0000
  H   H3147     1.0  0.63222  0.09656  0.86085  1.0000
  H   H3148     1.0  0.60073  0.19699  0.85603  1.0000
  H   H3149     1.0  0.65380  0.23058  0.82180  1.0000
  H   H3150     1.0  0.56126  0.25924  0.80204  1.0000
  S   S413      1.0  0.87314  0.18923  0.76565  1.0000
  C   C1789     1.0  0.82527  0.22973  0.82662  1.0000
  C   C1790     1.0  0.80143  0.26262  0.80504  1.0000
  C   C1791     1.0  0.83838  0.21211  0.83601  1.0000
  C   C1792     1.0  0.82610  0.19924  0.85112  1.0000
  H   H3151     1.0  0.59126  0.01040  0.77153  1.0000
  H   H3152     1.0  0.81544  0.23631  0.83872  1.0000
  H   H3153     1.0  0.81522  0.22299  0.81857  1.0000
  H   H3154     1.0  0.80222  0.27710  0.81011  1.0000
  H   H3155     1.0  0.79437  0.25332  0.81745  1.0000
  H   H3156     1.0  0.59346  0.00530  0.79741  1.0000
  H   H3157     1.0  0.83572  0.18653  0.85732  1.0000
  H   H3158     1.0  0.81898  0.20766  0.86328  1.0000
  H   H3159     1.0  0.81453  0.19361  0.84415  1.0000
  Fe  Fe201     1.0  0.52406  0.19310  0.88054  1.0000
  C   C1793     1.0  0.79247  0.29589  0.89321  1.0000
  N   N99       1.0  0.66032  0.21240  0.90210  1.0000
  C   C1794     1.0  0.64056  0.22362  0.89897  1.0000
  C   C1795     1.0  0.65708  0.19368  0.91525  1.0000
  C   C1796     1.0  0.67128  0.22460  0.91291  1.0000
  C   C1797     1.0  0.67275  0.20816  0.88316  1.0000
  C   C1798     1.0  0.66199  0.20560  0.86533  1.0000
  C   C1799     1.0  0.64111  0.24505  0.88943  1.0000
  C   C1800     1.0  0.69106  0.21460  0.91988  1.0000
  C   C1801     1.0  0.64505  0.17925  0.90764  1.0000
  C   C1802     1.0  0.64134  0.16199  0.92314  1.0000
  C   C1803     1.0  0.67680  0.19875  0.84850  1.0000
  C   C1804     1.0  0.62140  0.25333  0.88210  1.0000
  C   C1805     1.0  0.85480  0.23677  0.80314  1.0000
  H   H3160     1.0  0.63121  0.22427  0.91328  1.0000
  H   H3161     1.0  0.63223  0.21596  0.89008  1.0000
  H   H3162     1.0  0.67139  0.18505  0.91801  1.0000
  H   H3163     1.0  0.64974  0.19720  0.92992  1.0000
  H   H3164     1.0  0.66174  0.22967  0.92594  1.0000
  H   H3165     1.0  0.67491  0.23817  0.90346  1.0000
  H   H3166     1.0  0.68251  0.21990  0.87792  1.0000
  H   H3167     1.0  0.68298  0.19472  0.88584  1.0000
  H   H3168     1.0  0.65407  0.21971  0.85978  1.0000
  H   H3169     1.0  0.65112  0.19484  0.86904  1.0000
  H   H3170     1.0  0.64403  0.25444  0.90048  1.0000
  H   H3171     1.0  0.65290  0.24620  0.87699  1.0000
  H   H3172     1.0  0.54149  0.17641  0.96401  1.0000
  H   H3173     1.0  0.82088  0.24178  0.78830  1.0000
  H   H3174     1.0  0.63046  0.18629  0.90389  1.0000
  H   H3175     1.0  0.65347  0.17307  0.89464  1.0000
  H   H3176     1.0  0.63284  0.15173  0.91738  1.0000
  H   H3177     1.0  0.65553  0.15389  0.92689  1.0000
  H   H3178     1.0  0.63291  0.16709  0.93669  1.0000
  H   H3179     1.0  0.66906  0.19712  0.83575  1.0000
  H   H3180     1.0  0.68758  0.20958  0.84375  1.0000
  H   H3181     1.0  0.68491  0.18435  0.85309  1.0000
  H   H3182     1.0  0.61808  0.24499  0.87037  1.0000
  H   H3183     1.0  0.60937  0.25262  0.89439  1.0000
  H   H3184     1.0  0.62201  0.26888  0.87604  1.0000
  H   H3185     1.0  0.59766  0.25809  0.78964  1.0000
  H   H3186     1.0  0.65346  0.27522  0.81795  1.0000
  C   C1806     1.0  0.52075  0.18187  0.76316  1.0000
  C   C1807     1.0  0.66932  0.14063  0.96703  1.0000
  C   C1808     1.0  0.91674  0.30413  0.97742  1.0000
  C   C1809     1.0  0.74680  0.26154  0.98512  1.0000
  C   C1810     1.0  0.79345  0.28140  0.88025  1.0000
  C   C1811     1.0  0.67453  0.12711  0.95333  1.0000
  H   H3187     1.0  0.97655  0.30148  0.84460  1.0000
  H   H3188     1.0  0.88442  0.22829  0.77302  1.0000
  C   C1812     1.0  0.73696  0.14594  0.95052  1.0000
  H   H3189     1.0  0.74871  0.26500  0.89398  1.0000
  H   H3190     1.0  0.86325  0.28578  0.83781  1.0000
  H   H3191     1.0  0.74058  0.18342  0.78763  1.0000
  Fe  Fe202     1.0  0.52014  0.17347  0.84415  1.0000
  C   C1813     1.0  0.82238  0.25350  0.79760  1.0000
  H   H3192     1.0  0.72122  0.12103  0.92794  1.0000
  H   H3193     1.0  0.76664  0.11502  0.94871  1.0000
  C   C1814     1.0  0.77568  0.14108  0.86918  1.0000
  C   C1815     1.0  0.85593  0.27553  0.84925  1.0000
  H   H3194     1.0  0.73368  0.15217  0.91977  1.0000
  H   H3195     1.0  0.89576  0.23562  0.79285  1.0000
  C   C1816     1.0  0.78795  0.26574  0.78870  1.0000
  H   H3196     1.0  0.73756  0.16843  0.76866  1.0000
  N   N100      1.0  0.75232  0.12476  0.92256  1.0000
  C   C1817     1.0  0.93806  0.30771  0.96865  1.0000
  H   H3197     1.0  0.51179  0.18989  0.75177  1.0000
  H   H3198     1.0  0.78399  0.09650  0.91111  1.0000
  H   H3199     1.0  0.57814  0.24443  0.92111  1.0000
  S   S414      1.0  0.62811  0.18328  0.98375  1.0000
  H   H3200     1.0  0.86561  0.27154  0.86118  1.0000
  H   H3201     1.0  0.76133  0.11259  0.89479  1.0000
  H   H3202     1.0  0.59079  0.11562  0.95266  1.0000
  H   H3203     1.0  0.79850  0.09224  0.95190  1.0000
  C   C1818     1.0  0.76739  0.17699  0.76739  1.0000
  Fe  Fe203     1.0  0.62608  0.21495  0.97214  1.0000
  H   H3204     1.0  0.72251  0.07500  0.94113  1.0000
  H   H3205     1.0  0.78705  0.15095  0.86308  1.0000
  C   C1819     1.0  0.75667  0.12691  0.90048  1.0000
  H   H3206     1.0  0.77638  0.23688  0.75430  1.0000
  C   C1820     1.0  0.90485  0.31034  0.81633  1.0000
  H   H3207     1.0  0.76691  0.21152  0.77894  1.0000
  S   S415      1.0  0.53024  0.20220  0.84790  1.0000
  H   H3208     1.0  0.86489  0.22967  0.81386  1.0000
  H   H3209     1.0  0.67167  0.25715  0.82801  1.0000
  H   H3210     1.0  0.76186  0.14670  0.86262  1.0000
  H   H3211     1.0  0.92960  0.32401  0.94128  1.0000
  C   C1821     1.0  0.65034  0.24511  0.81362  1.0000
  H   H3212     1.0  0.69365  0.23631  0.93960  1.0000
  H   H3213     1.0  0.60335  0.13566  0.94026  1.0000
  H   H3214     1.0  0.57548  0.17289  0.92991  1.0000
  H   H3215     1.0  0.91721  0.23128  0.97838  1.0000
  H   H3216     1.0  0.55381  0.24276  0.82320  1.0000
  H   H3217     1.0  0.94530  0.29515  0.96094  1.0000
  H   H3218     1.0  0.57231  0.14938  0.91003  1.0000
  H   H3219     1.0  0.78670  0.13583  0.89730  1.0000
  N   N101      1.0  0.61321  0.05988  0.80295  1.0000
  C   C1822     1.0  0.61095  0.03871  0.80140  1.0000
  C   C1823     1.0  0.62421  0.06159  0.82029  1.0000
  C   C1824     1.0  0.59283  0.07041  0.80668  1.0000
  C   C1825     1.0  0.62296  0.06978  0.78425  1.0000
  C   C1826     1.0  0.64334  0.06006  0.77645  1.0000
  C   C1827     1.0  0.59925  0.03474  0.78474  1.0000
  C   C1828     1.0  0.59180  0.09222  0.81038  1.0000
  C   C1829     1.0  0.63982  0.04446  0.82618  1.0000
  C   C1830     1.0  0.65120  0.04962  0.84216  1.0000
  N   N102      1.0  0.76659  0.19580  0.75375  1.0000
  C   C1831     1.0  0.50162  0.10084  0.82465  1.0000
  C   C1832     1.0  0.57093  0.09986  0.81805  1.0000
  H   H3220     1.0  0.60346  0.03210  0.81546  1.0000
  H   H3221     1.0  0.62546  0.02990  0.79941  1.0000
  H   H3222     1.0  0.63153  0.07530  0.81796  1.0000
  H   H3223     1.0  0.61374  0.06285  0.83388  1.0000
  H   H3224     1.0  0.58451  0.06251  0.81941  1.0000
  H   H3225     1.0  0.58432  0.07041  0.79400  1.0000
  H   H3226     1.0  0.61312  0.07138  0.77235  1.0000
  H   H3227     1.0  0.62512  0.08507  0.78619  1.0000
  H   H3228     1.0  0.64284  0.04452  0.77436  1.0000
  H   H3229     1.0  0.65425  0.06106  0.78673  1.0000
  H   H3230     1.0  0.58352  0.04039  0.78761  1.0000
  H   H3231     1.0  0.60527  0.04160  0.77026  1.0000
  H   H3232     1.0  0.59603  0.10133  0.79647  1.0000
  H   H3233     1.0  0.60158  0.09449  0.82128  1.0000
  H   H3234     1.0  0.63244  0.03125  0.83225  1.0000
  H   H3235     1.0  0.65055  0.04060  0.81359  1.0000
  H   H3236     1.0  0.64090  0.05350  0.85514  1.0000
  H   H3237     1.0  0.66159  0.03684  0.84688  1.0000
  H   H3238     1.0  0.65977  0.06214  0.83663  1.0000
  H   H3239     1.0  0.78135  0.12780  0.92990  1.0000
  C   C1833     1.0  0.59995  0.01280  0.78338  1.0000
  H   H3240     1.0  0.51021  0.08179  0.88792  1.0000
  C   C1834     1.0  0.58688  0.12198  0.75093  1.0000
  H   H3241     1.0  0.51351  0.18708  0.77722  1.0000
  H   H3242     1.0  0.58327  0.21007  0.98147  1.0000
  H   H3243     1.0  0.56983  0.11592  0.81865  1.0000
  H   H3244     1.0  0.56042  0.09679  0.80825  1.0000
  H   H3245     1.0  0.56677  0.09257  0.83292  1.0000
  H   H3246     1.0  0.62680  0.22828  0.76745  1.0000
  H   H3247     1.0  0.84300  0.27472  0.81449  1.0000
  C   C1835     1.0  0.62820  0.24844  0.81069  1.0000
  H   H3248     1.0  0.78621  0.25150  0.78363  1.0000
  H   H3249     1.0  0.55369  0.16351  0.77997  1.0000
  C   C1836     1.0  0.59986  0.24229  0.79508  1.0000
  H   H3250     1.0  0.62028  0.21339  0.82223  1.0000
  H   H3251     1.0  0.71626  0.22153  0.93268  1.0000
  H   H3252     1.0  0.74781  0.13926  0.96064  1.0000
  H   H3253     1.0  0.56546  0.30289  0.74890  1.0000
  C   C1837     1.0  0.57783  0.22872  0.92282  1.0000
  H   H3254     1.0  0.68681  0.12911  0.94223  1.0000
  C   C1838     1.0  0.56378  0.20021  0.91500  1.0000
  C   C1839     1.0  0.70253  0.22927  0.92729  1.0000
  C   C1840     1.0  0.56396  0.24412  0.80941  1.0000
  C   C1841     1.0  0.88061  0.27988  0.98576  1.0000
  C   C1842     1.0  0.58950  0.19667  0.93747  1.0000
  H   H3255     1.0  0.68844  0.20297  0.93217  1.0000
  H   H3256     1.0  0.64698  0.25969  0.84033  1.0000
  H   H3257     1.0  0.76758  0.15601  0.89465  1.0000
  H   H3258     1.0  0.80649  0.27895  0.87006  1.0000
  C   C1843     1.0  0.52095  0.13451  0.82231  1.0000
  H   H3259     1.0  0.70664  0.24072  0.91527  1.0000
  H   H3260     1.0  0.62443  0.26420  0.80563  1.0000
  H   H3261     1.0  0.84176  0.28300  0.85552  1.0000
  C   C1844     1.0  0.57623  0.18846  0.92756  1.0000
  H   H3262     1.0  0.54174  0.18396  0.79124  1.0000
  H   H3263     1.0  0.73049  0.10054  0.90194  1.0000
  H   H3264     1.0  0.89618  0.29759  0.81824  1.0000
  H   H3265     1.0  0.72343  0.13837  0.95412  1.0000
  H   H3266     1.0  0.73589  0.10613  0.94460  1.0000
  H   H3267     1.0  0.57501  0.19348  0.86101  1.0000
  C   C1845     1.0  0.77238  0.14072  0.89151  1.0000
  H   H3268     1.0  0.80345  0.16920  0.74599  1.0000
  C   C1846     1.0  0.80665  0.27663  0.95571  1.0000
  C   C1847     1.0  0.80065  0.09242  0.93567  1.0000
  H   H3269     1.0  0.77180  0.08510  0.93360  1.0000
  H   H3270     1.0  0.51524  0.22029  0.77201  1.0000
  H   H3271     1.0  0.65676  0.04778  0.98092  1.0000
  S   S416      1.0  0.65892  0.21609  0.96645  1.0000
  C   C1848     1.0  0.83828  0.26198  0.82464  1.0000
  H   H3272     1.0  0.57681  0.13882  0.94634  1.0000
  C   C1849     1.0  0.77769  0.27014  0.88030  1.0000
  H   H3273     1.0  0.74690  0.29051  0.91683  1.0000
  H   H3274     1.0  0.74292  0.13242  0.89384  1.0000
  C   C1850     1.0  0.58991  0.18627  0.85638  1.0000
  C   C1851     1.0  0.78091  0.09694  0.92717  1.0000
  H   H3275     1.0  0.59854  0.14721  0.90578  1.0000
  C   C1852     1.0  0.74542  0.14491  0.92871  1.0000
  H   H3276     1.0  0.58289  0.15986  0.79578  1.0000
  H   H3277     1.0  0.82393  0.26757  0.83246  1.0000
  C   C1853     1.0  0.59015  0.21694  0.93546  1.0000
  C   C1854     1.0  0.58689  0.12173  0.92173  1.0000
  H   H3278     1.0  0.73641  0.14963  0.80115  1.0000
  H   H3279     1.0  0.53697  0.05520  0.88490  1.0000
  C   C1855     1.0  0.63205  0.25870  0.76602  1.0000
  H   H3280     1.0  0.94716  0.31001  0.98018  1.0000
  S   S417      1.0  0.53503  0.15397  0.82220  1.0000
  C   C1856     1.0  0.76492  0.27031  0.97332  1.0000
  H   H3281     1.0  0.72045  0.17466  0.94495  1.0000
  H   H3282     1.0  0.78080  0.12622  0.86485  1.0000
  H   H3283     1.0  0.59958  0.11083  0.91819  1.0000
  H   H3284     1.0  0.91237  0.31186  0.80112  1.0000
  H   H3285     1.0  0.49850  0.09406  0.91796  1.0000
  H   H3286     1.0  0.53624  0.21715  0.97831  1.0000
  H   H3287     1.0  0.52858  0.15062  0.77347  1.0000
  H   H3288     1.0  0.80299  0.29616  0.97861  1.0000
  C   C1857     1.0  0.65374  0.13776  0.98170  1.0000
  H   H3289     1.0  0.55036  0.24470  0.76371  1.0000
  N   N103      1.0  0.77907  0.27790  0.98493  1.0000
  H   H3290     1.0  0.83094  0.27971  0.93273  1.0000
  H   H3291     1.0  0.75952  0.28199  0.96205  1.0000
  C   C1858     1.0  0.51859  0.19855  0.95600  1.0000
  C   C1859     1.0  0.65069  0.07052  0.75659  1.0000
  H   H3292     1.0  0.88466  0.26398  0.98484  1.0000
  C   C1860     1.0  0.75081  0.15318  0.79325  1.0000
  H   H3293     1.0  0.77268  0.25860  0.96463  1.0000
  H   H3294     1.0  0.57787  0.17790  0.97660  1.0000
  H   H3295     1.0  0.79769  0.27110  0.94571  1.0000
  H   H3296     1.0  0.73981  0.24672  0.96108  1.0000
  C   C1861     1.0  0.78748  0.19873  0.74517  1.0000
  H   H3297     1.0  0.55473  0.16053  0.74685  1.0000
  H   H3298     1.0  0.67527  0.02707  0.97802  1.0000
  H   H3299     1.0  0.52715  0.20499  0.94258  1.0000
  C   C1862     1.0  0.82134  0.28890  0.94294  1.0000
  C   C1863     1.0  0.75899  0.21262  0.76562  1.0000
  H   H3300     1.0  0.52064  0.03719  0.89489  1.0000
  H   H3301     1.0  0.83409  0.21246  0.76708  1.0000
  H   H3302     1.0  0.90968  0.31810  0.98278  1.0000
  H   H3303     1.0  0.52093  0.15475  0.74937  1.0000
  Fe  Fe204     1.0  0.66079  0.18482  0.97964  1.0000
  H   H3304     1.0  0.98503  0.28223  0.75446  1.0000
  Fe  Fe205     1.0  0.49779  0.21290  0.84825  1.0000
  H   H3305     1.0  0.79400  0.24837  0.98729  1.0000
  C   C1864     1.0  0.57150  0.11633  0.76495  1.0000
  H   H3306     1.0  0.77800  0.17740  0.77829  1.0000
  C   C1865     1.0  0.74733  0.24900  0.76489  1.0000
  H   H3307     1.0  0.78519  0.30102  0.96154  1.0000
  H   H3308     1.0  0.75753  0.14054  0.78535  1.0000
  H   H3309     1.0  0.57544  0.26842  0.76016  1.0000
  C   C1866     1.0  0.79326  0.28897  0.97055  1.0000
  H   H3310     1.0  0.73169  0.24695  0.76413  1.0000
  H   H3311     1.0  0.52860  0.24846  0.75085  1.0000
  H   H3312     1.0  0.77318  0.27248  0.79433  1.0000
  H   H3313     1.0  0.74333  0.21195  0.77155  1.0000
  H   H3314     1.0  0.85024  0.27639  0.98269  1.0000
  H   H3315     1.0  0.55619  0.20673  0.96283  1.0000
  H   H3316     1.0  0.83078  0.29497  0.95212  1.0000
  C   C1867     1.0  0.50619  0.06672  0.88842  1.0000
  H   H3317     1.0  0.85052  0.32103  0.83585  1.0000
  H   H3318     1.0  0.81075  0.10349  0.92933  1.0000
  C   C1868     1.0  0.98391  0.31511  0.84176  1.0000
  H   H3319     1.0  0.52659  0.25165  0.77657  1.0000
  H   H3320     1.0  0.91767  0.26710  0.97213  1.0000
  C   C1869     1.0  0.53239  0.18868  0.97089  1.0000
  H   H3321     1.0  0.52329  0.18266  0.98412  1.0000
  H   H3322     1.0  0.88294  0.28745  0.97078  1.0000
  C   C1870     1.0  0.75683  0.31046  0.98955  1.0000
  C   C1871     1.0  0.67141  0.04093  0.98488  1.0000
  C   C1872     1.0  0.93802  0.32582  0.95355  1.0000
  H   H3323     1.0  0.50073  0.14184  0.84742  1.0000
  C   C1873     1.0  0.92383  0.26882  0.98593  1.0000
  H   H3324     1.0  0.50440  0.06404  0.87324  1.0000
  H   H3325     1.0  0.55951  0.23837  0.97763  1.0000
  C   C1874     1.0  0.53444  0.24285  0.76500  1.0000
  H   H3326     1.0  0.50820  0.21026  0.96241  1.0000
  H   H3327     1.0  0.76700  0.32096  0.98195  1.0000
  H   H3328     1.0  0.65179  0.08620  0.75784  1.0000
  H   H3329     1.0  0.66551  0.06355  0.75147  1.0000
  H   H3330     1.0  0.94051  0.31695  0.75860  1.0000
  H   H3331     1.0  0.59011  0.24638  0.98769  1.0000
  C   C1875     1.0  0.92797  0.31353  0.75214  1.0000
  C   C1876     1.0  0.98197  0.32510  0.86051  1.0000
  C   C1877     1.0  0.57884  0.27373  0.74489  1.0000
  H   H3332     1.0  0.63018  0.12031  0.99296  1.0000
  C   C1878     1.0  0.92760  0.23171  0.98938  1.0000
  H   H3333     1.0  0.65035  0.14757  0.99290  1.0000
  H   H3334     1.0  0.97665  0.32493  0.83019  1.0000
  C   C1879     1.0  0.92826  0.29513  0.74513  1.0000
  C   C1880     1.0  0.64423  0.25866  0.74597  1.0000
  C   C1881     1.0  0.49748  0.15550  0.77286  1.0000
  C   C1882     1.0  0.85856  0.28289  0.99259  1.0000
  C   C1883     1.0  0.56818  0.17693  0.99077  1.0000
  H   H3335     1.0  0.60256  0.15108  0.98743  1.0000
  H   H3336     1.0  0.55788  0.16605  0.98964  1.0000
  H   H3337     1.0  0.85338  0.29875  0.99203  1.0000
  C   C1884     1.0  0.69440  0.42691  0.22170  1.0000
  Fe  Fe206     1.0  0.83673  0.51453  0.03892  1.0000
  S   S418      1.0  0.80524  0.51917  0.03230  1.0000
  S   S419      1.0  0.86292  0.52934  0.02327  1.0000
  Fe  Fe207     1.0  0.82831  0.48036  0.06959  1.0000
  S   S420      1.0  0.79632  0.48209  0.06547  1.0000
  S   S421      1.0  0.84318  0.45989  0.09211  1.0000
  Fe  Fe208     1.0  0.80699  0.48613  0.03301  1.0000
  H   H3338     1.0  0.76162  0.39053  0.06045  1.0000
  Fe  Fe209     1.0  0.79763  0.51456  0.06526  1.0000
  S   S422      1.0  0.77573  0.53470  0.08314  1.0000
  S   S423      1.0  0.83888  0.48209  0.03770  1.0000
  S   S424      1.0  0.82899  0.51225  0.07147  1.0000
  Fe  Fe210     1.0  0.78851  0.59571  0.21110  1.0000
  S   S425      1.0  0.76575  0.59427  0.19064  1.0000
  C   C1885     1.0  0.95817  0.65592  0.19363  1.0000
  S   S426      1.0  0.75179  0.55636  0.22016  1.0000
  Fe  Fe211     1.0  0.77420  0.56165  0.19399  1.0000
  S   S427      1.0  0.78631  0.53929  0.17268  1.0000
  Fe  Fe212     1.0  0.74554  0.58920  0.21867  1.0000
  S   S428      1.0  0.71474  0.60293  0.22818  1.0000
  S   S429      1.0  0.79802  0.56354  0.21276  1.0000
  H   H3339     1.0  0.91625  0.59356  0.19604  1.0000
  Fe  Fe213     1.0  0.92929  0.49320  0.12825  1.0000
  S   S430      1.0  0.92487  0.50182  0.15877  1.0000
  S   S431      1.0  0.91368  0.50626  0.10266  1.0000
  Fe  Fe214     1.0  0.96028  0.46017  0.13679  1.0000
  S   S432      1.0  0.95921  0.46616  0.16844  1.0000
  S   S433      1.0  0.97561  0.43446  0.12147  1.0000
  Fe  Fe215     1.0  0.92611  0.46942  0.16812  1.0000
  S   S434      1.0  0.90530  0.45458  0.19229  1.0000
  Fe  Fe216     1.0  0.95828  0.49830  0.15652  1.0000
  H   H3340     1.0  0.96409  0.54774  0.02532  1.0000
  S   S435      1.0  0.92774  0.46153  0.13763  1.0000
  S   S436      1.0  0.96208  0.49165  0.12508  1.0000
  C   C1886     1.0  0.78946  0.36281  0.02711  1.0000
  S   S437      1.0  0.75215  0.38639  0.22519  1.0000
  Fe  Fe217     1.0  0.79787  0.41266  0.20060  1.0000
  S   S438      1.0  0.77117  0.41127  0.18501  1.0000
  S   S439      1.0  0.82146  0.42908  0.18146  1.0000
  Fe  Fe218     1.0  0.75296  0.41804  0.21338  1.0000
  S   S440      1.0  0.72945  0.44385  0.21786  1.0000
  Fe  Fe219     1.0  0.77266  0.37979  0.19810  1.0000
  C   C1887     1.0  0.90996  0.61085  0.14641  1.0000
  S   S441      1.0  0.80044  0.38074  0.21199  1.0000
  C   C1888     1.0  0.94577  0.44182  0.07329  1.0000
  H   H3341     1.0  0.86740  0.37202  0.18623  1.0000
  C   C1889     1.0  0.84476  0.43569  0.18516  1.0000
  C   C1890     1.0  0.85578  0.44531  0.16920  1.0000
  C   C1891     1.0  0.87440  0.45095  0.17105  1.0000
  C   C1892     1.0  0.88223  0.44706  0.18902  1.0000
  C   C1893     1.0  0.87123  0.43737  0.20504  1.0000
  C   C1894     1.0  0.85257  0.43170  0.20314  1.0000
  H   H3342     1.0  0.84980  0.44835  0.15529  1.0000
  H   H3343     1.0  0.88264  0.45836  0.15862  1.0000
  H   H3344     1.0  0.87716  0.43426  0.21902  1.0000
  H   H3345     1.0  0.84430  0.42423  0.21556  1.0000
  C   C1895     1.0  0.96524  0.43024  0.10031  1.0000
  C   C1896     1.0  0.96896  0.41184  0.09312  1.0000
  C   C1897     1.0  0.96091  0.40837  0.07619  1.0000
  C   C1898     1.0  0.94935  0.42342  0.06613  1.0000
  C   C1899     1.0  0.95347  0.44517  0.09037  1.0000
  H   H3346     1.0  0.96334  0.55009  0.08722  1.0000
  H   H3347     1.0  0.96383  0.39416  0.07080  1.0000
  H   H3348     1.0  0.95053  0.45942  0.09566  1.0000
  C   C1900     1.0  0.75925  0.36192  0.14777  1.0000
  C   C1901     1.0  0.75474  0.35717  0.12964  1.0000
  H   H3349     1.0  0.75472  0.37637  0.15224  1.0000
  H   H3350     1.0  0.74677  0.36807  0.12014  1.0000
  H   H3351     1.0  0.90066  0.48321  0.00513  1.0000
  H   H3352     1.0  0.80711  0.33494  0.08973  1.0000
  C   C1902     1.0  0.70424  0.44198  0.22633  1.0000
  H   H3353     1.0  0.89621  0.60887  0.18533  1.0000
  H   H3354     1.0  0.77324  0.36132  0.07642  1.0000
  H   H3355     1.0  0.88154  0.43366  0.09354  1.0000
  H   H3356     1.0  0.98715  0.52772  0.12208  1.0000
  S   S442      1.0  0.93900  0.42019  0.04461  1.0000
  S   S443      1.0  0.88008  0.60967  0.05032  1.0000
  C   C1903     1.0  0.70444  0.62530  0.21658  1.0000
  C   C1904     1.0  0.86395  0.47108  0.09499  1.0000
  C   C1905     1.0  0.87026  0.47064  0.11353  1.0000
  C   C1906     1.0  0.88582  0.48117  0.11593  1.0000
  C   C1907     1.0  0.89538  0.49168  0.09969  1.0000
  C   C1908     1.0  0.88947  0.49146  0.08109  1.0000
  C   C1909     1.0  0.87367  0.48138  0.07876  1.0000
  H   H3357     1.0  0.86262  0.46288  0.12607  1.0000
  H   H3358     1.0  0.88990  0.48180  0.13041  1.0000
  H   H3359     1.0  0.89665  0.49963  0.06855  1.0000
  H   H3360     1.0  0.86889  0.48182  0.06441  1.0000
  C   C1910     1.0  0.77894  0.53630  0.10792  1.0000
  C   C1911     1.0  0.79270  0.52330  0.11757  1.0000
  C   C1912     1.0  0.79460  0.52447  0.13740  1.0000
  C   C1913     1.0  0.78319  0.53892  0.14771  1.0000
  C   C1914     1.0  0.76958  0.55214  0.13806  1.0000
  C   C1915     1.0  0.76738  0.55072  0.11826  1.0000
  H   H3361     1.0  0.80159  0.51204  0.10987  1.0000
  H   H3362     1.0  0.80486  0.51395  0.14486  1.0000
  H   H3363     1.0  0.76064  0.56330  0.14585  1.0000
  H   H3364     1.0  0.75670  0.56083  0.11089  1.0000
  C   C1916     1.0  0.87218  0.45915  0.00197  1.0000
  H   H3365     1.0  0.91935  0.53795  0.04049  1.0000
  H   H3366     1.0  0.95296  0.63229  0.10394  1.0000
  C   C1917     1.0  0.87535  0.58823  0.04087  1.0000
  C   C1918     1.0  0.85617  0.58264  0.04407  1.0000
  C   C1919     1.0  0.85214  0.56466  0.03874  1.0000
  C   C1920     1.0  0.86712  0.55251  0.02930  1.0000
  C   C1921     1.0  0.88589  0.55892  0.02451  1.0000
  C   C1922     1.0  0.89013  0.57653  0.03060  1.0000
  C   C1923     1.0  0.89713  0.42764  0.09054  1.0000
  H   H3367     1.0  0.89734  0.54994  0.01655  1.0000
  H   H3368     1.0  0.90485  0.58094  0.02755  1.0000
  C   C1924     1.0  0.72155  0.35041  0.05588  1.0000
  H   H3369     1.0  0.93440  0.54989  0.07664  1.0000
  H   H3370     1.0  0.84465  0.54882  0.07821  1.0000
  N   N104      1.0  0.88982  0.45484  0.01365  1.0000
  C   C1925     1.0  0.89629  0.47357  0.01861  1.0000
  C   C1926     1.0  0.52984  0.61993  0.22462  1.0000
  C   C1927     1.0  0.88387  0.44292  0.03286  1.0000
  Fe  Fe220     1.0  0.92696  0.65255  0.06728  1.0000
  C   C1928     1.0  0.57884  0.56252  0.23560  1.0000
  C   C1929     1.0  0.91339  0.47122  0.03167  1.0000
  C   C1930     1.0  0.87288  0.42487  0.03147  1.0000
  H   H3371     1.0  0.78504  0.39375  0.04761  1.0000
  C   C1931     1.0  0.54192  0.60889  0.24045  1.0000
  C   C1932     1.0  0.83969  0.54848  0.23928  1.0000
  C   C1933     1.0  0.92133  0.49084  0.03213  1.0000
  C   C1934     1.0  0.87110  0.41201  0.05109  1.0000
  H   H3372     1.0  0.88366  0.48219  0.02650  1.0000
  N   N105      1.0  0.77478  0.36606  0.04476  1.0000
  H   H3373     1.0  0.83261  0.36248  0.14425  1.0000
  H   H3374     1.0  0.85826  0.45860  0.01181  1.0000
  H   H3375     1.0  0.87417  0.45227  0.04298  1.0000
  H   H3376     1.0  0.89705  0.43746  0.04065  1.0000
  C   C1935     1.0  0.81356  0.33964  0.00805  1.0000
  H   H3377     1.0  0.61185  0.55360  0.19409  1.0000
  H   H3378     1.0  0.59340  0.53866  0.20655  1.0000
  H   H3379     1.0  0.91764  0.43622  0.01235  1.0000
  H   H3380     1.0  0.90807  0.46576  0.04696  1.0000
  H   H3381     1.0  0.92586  0.46087  0.02627  1.0000
  H   H3382     1.0  0.88055  0.41577  0.02019  1.0000
  H   H3383     1.0  0.85768  0.42946  0.02765  1.0000
  H   H3384     1.0  0.94012  0.42936  0.17328  1.0000
  C   C1936     1.0  0.86590  0.49250  0.21775  1.0000
  C   C1937     1.0  0.90637  0.44284  0.00257  1.0000
  H   H3385     1.0  0.52049  0.61004  0.21944  1.0000
  H   H3386     1.0  0.91008  0.62120  0.15737  1.0000
  H   H3387     1.0  0.87843  0.60701  0.15382  1.0000
  C   C1938     1.0  0.99303  0.53947  0.09157  1.0000
  H   H3388     1.0  0.85180  0.39396  0.17889  1.0000
  C   C1939     1.0  0.95348  0.52797  0.06052  1.0000
  C   C1940     1.0  0.80747  0.43234  0.00826  1.0000
  H   H3389     1.0  0.93164  0.48939  0.04352  1.0000
  C   C1941     1.0  0.82885  0.57689  0.14377  1.0000
  H   H3390     1.0  0.84280  0.58377  0.14066  1.0000
  H   H3391     1.0  0.86363  0.42067  0.06295  1.0000
  N   N106      1.0  0.90461  0.40083  0.14197  1.0000
  H   H3392     1.0  0.86434  0.39163  0.14407  1.0000
  C   C1942     1.0  0.77102  0.38774  0.04655  1.0000
  C   C1943     1.0  0.91855  0.41284  0.14932  1.0000
  H   H3393     1.0  0.99460  0.58467  0.12259  1.0000
  C   C1944     1.0  0.92952  0.40276  0.16685  1.0000
  H   H3394     1.0  0.98904  0.53621  0.02293  1.0000
  C   C1945     1.0  0.94608  0.41424  0.17041  1.0000
  C   C1946     1.0  0.98901  0.60000  0.12202  1.0000
  H   H3395     1.0  0.90480  0.43833  0.07992  1.0000
  H   H3396     1.0  0.96628  0.52482  0.09518  1.0000
  H   H3397     1.0  0.88307  0.40839  0.16614  1.0000
  H   H3398     1.0  0.91042  0.42671  0.15404  1.0000
  H   H3399     1.0  0.93006  0.41724  0.13734  1.0000
  C   C1947     1.0  0.84901  0.62927  0.09593  1.0000
  C   C1948     1.0  0.88845  0.61276  0.14119  1.0000
  H   H3400     1.0  0.93842  0.53173  0.12419  1.0000
  H   H3401     1.0  0.91924  0.40207  0.18058  1.0000
  C   C1949     1.0  0.96555  0.62686  0.11154  1.0000
  H   H3402     1.0  0.91394  0.52637  0.06497  1.0000
  S   S444      1.0  0.99336  0.34552  0.99347  1.0000
  Fe  Fe221     1.0  0.92390  0.35294  0.03195  1.0000
  H   H3403     1.0  0.57579  0.64733  0.21083  1.0000
  Fe  Fe222     1.0  0.77980  0.38940  0.23810  1.0000
  H   H3404     1.0  0.95745  0.41475  0.15755  1.0000
  H   H3405     1.0  0.84462  0.64368  0.10161  1.0000
  C   C1950     1.0  0.81538  0.57726  0.09084  1.0000
  H   H3406     1.0  0.90356  0.57560  0.13498  1.0000
  C   C1951     1.0  0.81705  0.58001  0.12568  1.0000
  C   C1952     1.0  0.85927  0.37991  0.17417  1.0000
  S   S445      1.0  0.77339  0.35162  0.18417  1.0000
  H   H3407     1.0  0.80079  0.62814  0.23980  1.0000
  H   H3408     1.0  0.94642  0.62105  0.15361  1.0000
  H   H3409     1.0  0.58912  0.60172  0.23991  1.0000
  H   H3410     1.0  0.95382  0.52215  0.04614  1.0000
  S   S446      1.0  0.76786  0.59261  0.23893  1.0000
  H   H3411     1.0  0.91364  0.54305  0.12195  1.0000
  H   H3412     1.0  0.88416  0.42587  0.13357  1.0000
  H   H3413     1.0  0.90598  0.55178  0.05957  1.0000
  H   H3414     1.0  0.72652  0.33475  0.06015  1.0000
  S   S447      1.0  0.97057  0.52461  0.16671  1.0000
  H   H3415     1.0  0.91827  0.37094  0.14611  1.0000
  H   H3416     1.0  0.94607  0.55779  0.14122  1.0000
  H   H3417     1.0  0.92936  0.49545  0.01768  1.0000
  H   H3418     1.0  0.78402  0.64086  0.17586  1.0000
  C   C1953     1.0  0.90832  0.37458  0.11710  1.0000
  S   S448      1.0  0.97830  0.62364  0.01195  1.0000
  H   H3419     1.0  0.61394  0.54281  0.21895  1.0000
  H   H3420     1.0  0.88591  0.40571  0.05495  1.0000
  H   H3421     1.0  0.80285  0.37016  0.02775  1.0000
  H   H3422     1.0  0.91936  0.61671  0.13317  1.0000
  S   S449      1.0  0.91155  0.38401  0.02449  1.0000
  H   H3423     1.0  0.93390  0.61457  0.17739  1.0000
  S   S450      1.0  0.94027  0.60158  0.04804  1.0000
  H   H3424     1.0  0.99543  0.47419  0.05413  1.0000
  C   C1954     1.0  0.87324  0.38356  0.15539  1.0000
  Fe  Fe223     1.0  0.91050  0.61869  0.05246  1.0000
  H   H3425     1.0  0.83978  0.64363  0.18828  1.0000
  C   C1955     1.0  0.76897  0.64790  0.17365  1.0000
  C   C1956     1.0  0.93725  0.54550  0.06160  1.0000
  H   H3426     1.0  0.83253  0.56096  0.14792  1.0000
  H   H3427     1.0  0.77136  0.42773  0.03571  1.0000
  C   C1957     1.0  0.86849  0.53447  0.09308  1.0000
  H   H3428     1.0  0.87703  0.53085  0.07905  1.0000
  H   H3429     1.0  0.86054  0.52178  0.09962  1.0000
  H   H3430     1.0  0.93444  0.55451  0.10897  1.0000
  H   H3431     1.0  0.93689  0.45358  0.06567  1.0000
  H   H3432     1.0  0.85398  0.53498  0.20252  1.0000
  C   C1958     1.0  0.91966  0.35490  0.11282  1.0000
  H   H3433     1.0  0.97344  0.64859  0.19197  1.0000
  H   H3434     1.0  0.92530  0.58526  0.12319  1.0000
  H   H3435     1.0  0.97212  0.56325  0.05509  1.0000
  C   C1959     1.0  0.93022  0.55706  0.14017  1.0000
  C   C1960     1.0  0.91880  0.57782  0.13732  1.0000
  N   N107      1.0  0.91860  0.59053  0.15364  1.0000
  H   H3436     1.0  0.50132  0.56427  0.23571  1.0000
  H   H3437     1.0  0.99609  0.55096  0.05212  1.0000
  H   H3438     1.0  0.75880  0.34146  0.04336  1.0000
  H   H3439     1.0  0.80283  0.57851  0.16511  1.0000
  H   H3440     1.0  0.78119  0.33995  0.06495  1.0000
  H   H3441     1.0  0.72231  0.62324  0.18894  1.0000
  S   S451      1.0  0.79677  0.47285  0.00741  1.0000
  C   C1961     1.0  0.93967  0.59068  0.15781  1.0000
  H   H3442     1.0  0.86242  0.39974  0.04999  1.0000
  H   H3443     1.0  0.83744  0.56021  0.04184  1.0000
  C   C1962     1.0  0.87524  0.32726  0.03304  1.0000
  H   H3444     1.0  0.73204  0.37861  0.05373  1.0000
  Fe  Fe224     1.0  0.95164  0.63003  0.03452  1.0000
  C   C1963     1.0  0.71070  0.63185  0.19714  1.0000
  H   H3445     1.0  0.97033  0.49164  0.07678  1.0000
  H   H3446     1.0  0.80853  0.46480  0.23205  1.0000
  C   C1964     1.0  0.69340  0.45698  0.23640  1.0000
  C   C1965     1.0  0.79569  0.34118  0.02346  1.0000
  H   H3447     1.0  0.79947  0.33189  0.03693  1.0000
  C   C1966     1.0  0.68913  0.63645  0.22697  1.0000
  C   C1967     1.0  0.88653  0.49979  0.21189  1.0000
  C   C1968     1.0  0.99470  0.60446  0.21454  1.0000
  H   H3448     1.0  0.81359  0.43319  0.02174  1.0000
  H   H3449     1.0  0.80590  0.56932  0.12843  1.0000
  H   H3450     1.0  0.74413  0.49848  0.11181  1.0000
  H   H3451     1.0  0.97611  0.58050  0.02107  1.0000
  H   H3452     1.0  0.88330  0.33472  0.02049  1.0000
  H   H3453     1.0  0.89760  0.38559  0.17082  1.0000
  C   C1969     1.0  0.96477  0.60494  0.17430  1.0000
  H   H3454     1.0  0.83679  0.61396  0.12268  1.0000
  C   C1970     1.0  0.84280  0.59353  0.10013  1.0000
  C   C1971     1.0  0.57355  0.65448  0.22459  1.0000
  C   C1972     1.0  0.90640  0.58168  0.17143  1.0000
  H   H3455     1.0  0.94811  0.51621  0.07162  1.0000
  H   H3456     1.0  0.93605  0.38771  0.16428  1.0000
  N   N108      1.0  0.82912  0.57778  0.10616  1.0000
  H   H3457     1.0  0.86825  0.49158  0.99862  1.0000
  H   H3458     1.0  0.74180  0.36109  0.07217  1.0000
  H   H3459     1.0  0.90092  0.43002  0.99754  1.0000
  H   H3460     1.0  0.74669  0.42359  0.04663  1.0000
  H   H3461     1.0  0.70860  0.35486  0.06626  1.0000
  C   C1973     1.0  0.70146  0.64928  0.18805  1.0000
  H   H3462     1.0  0.80662  0.56452  0.09481  1.0000
  H   H3463     1.0  0.97619  0.59827  0.16366  1.0000
  N   N109      1.0  0.73445  0.50040  0.17264  1.0000
  C   C1974     1.0  0.71381  0.49461  0.17427  1.0000
  C   C1975     1.0  0.74259  0.50238  0.15127  1.0000
  C   C1976     1.0  0.74671  0.48480  0.18446  1.0000
  C   C1977     1.0  0.73465  0.51971  0.18057  1.0000
  C   C1978     1.0  0.72172  0.53731  0.17084  1.0000
  C   C1979     1.0  0.70154  0.49573  0.19462  1.0000
  C   C1980     1.0  0.76901  0.48712  0.18313  1.0000
  C   C1981     1.0  0.74616  0.48320  0.14127  1.0000
  C   C1982     1.0  0.72203  0.55574  0.18086  1.0000
  C   C1983     1.0  0.68153  0.48818  0.19482  1.0000
  C   C1984     1.0  0.78007  0.46918  0.19365  1.0000
  H   H3464     1.0  0.71422  0.47926  0.17083  1.0000
  H   H3465     1.0  0.70520  0.50364  0.16313  1.0000
  H   H3466     1.0  0.73239  0.51256  0.14251  1.0000
  H   H3467     1.0  0.75656  0.50932  0.14913  1.0000
  H   H3468     1.0  0.74505  0.46998  0.18058  1.0000
  H   H3469     1.0  0.74119  0.48433  0.20028  1.0000
  H   H3470     1.0  0.73048  0.51838  0.19674  1.0000
  H   H3471     1.0  0.74983  0.52400  0.17859  1.0000
  H   H3472     1.0  0.70617  0.53433  0.17160  1.0000
  H   H3473     1.0  0.72738  0.54072  0.15520  1.0000
  H   H3474     1.0  0.70921  0.48676  0.20636  1.0000
  H   H3475     1.0  0.69871  0.51101  0.19838  1.0000
  H   H3476     1.0  0.77130  0.50005  0.19027  1.0000
  H   H3477     1.0  0.77589  0.48885  0.16775  1.0000
  H   H3478     1.0  0.75703  0.47243  0.14846  1.0000
  H   H3479     1.0  0.73223  0.47649  0.14189  1.0000
  H   H3480     1.0  0.73588  0.33476  0.99825  1.0000
  H   H3481     1.0  0.71612  0.55343  0.19657  1.0000
  H   H3482     1.0  0.73728  0.55982  0.17967  1.0000
  H   H3483     1.0  0.68347  0.47238  0.19266  1.0000
  H   H3484     1.0  0.67274  0.48988  0.20923  1.0000
  H   H3485     1.0  0.67318  0.49656  0.18318  1.0000
  H   H3486     1.0  0.77397  0.46689  0.20931  1.0000
  H   H3487     1.0  0.77892  0.45586  0.18657  1.0000
  H   H3488     1.0  0.79591  0.47126  0.19291  1.0000
  C   C1985     1.0  0.78250  0.35596  0.06338  1.0000
  H   H3489     1.0  0.93557  0.35647  0.10877  1.0000
  H   H3490     1.0  0.81406  0.35996  0.16501  1.0000
  S   S452      1.0  0.75324  0.33206  0.10186  1.0000
  H   H3491     1.0  0.79936  0.35887  0.09763  1.0000
  C   C1986     1.0  0.59154  0.56786  0.21597  1.0000
  H   H3492     1.0  0.77662  0.60579  0.06931  1.0000
  H   H3493     1.0  0.76222  0.63894  0.16455  1.0000
  H   H3494     1.0  0.95128  0.65504  0.18011  1.0000
  H   H3495     1.0  0.83777  0.52286  0.14100  1.0000
  H   H3496     1.0  0.81354  0.60137  0.15864  1.0000
  H   H3497     1.0  0.70250  0.41535  0.21383  1.0000
  N   N110      1.0  0.97377  0.53197  0.06396  1.0000
  H   H3498     1.0  0.93165  0.38616  0.12824  1.0000
  C   C1987     1.0  0.80436  0.47975  0.23656  1.0000
  C   C1988     1.0  0.81938  0.63422  0.21286  1.0000
  H   H3499     1.0  0.82463  0.35254  0.08792  1.0000
  H   H3500     1.0  0.89294  0.49484  0.19755  1.0000
  H   H3501     1.0  0.96967  0.61878  0.17747  1.0000
  H   H3502     1.0  0.70612  0.65410  0.17289  1.0000
  C   C1989     1.0  0.97932  0.54885  0.02840  1.0000
  H   H3503     1.0  0.83340  0.52850  0.17606  1.0000
  H   H3504     1.0  0.86862  0.51267  0.18141  1.0000
  H   H3505     1.0  0.89201  0.57854  0.16744  1.0000
  H   H3506     1.0  0.91367  0.56714  0.17689  1.0000
  H   H3507     1.0  0.89773  0.41387  0.08372  1.0000
  H   H3508     1.0  0.92407  0.54834  0.15355  1.0000
  H   H3509     1.0  0.75187  0.36216  0.02707  1.0000
  C   C1990     1.0  0.77458  0.32887  0.15452  1.0000
  H   H3510     1.0  0.80708  0.37379  0.06291  1.0000
  H   H3511     1.0  0.94630  0.62913  0.20700  1.0000
  C   C1991     1.0  0.80906  0.35074  0.08657  1.0000
  H   H3512     1.0  0.97810  0.40023  0.10068  1.0000
  H   H3513     1.0  0.89253  0.37249  0.12034  1.0000
  H   H3514     1.0  0.84337  0.56027  0.22745  1.0000
  H   H3515     1.0  0.86276  0.56442  0.08191  1.0000
  H   H3516     1.0  0.96341  0.59477  0.18799  1.0000
  H   H3517     1.0  0.60202  0.57835  0.21771  1.0000
  H   H3518     1.0  0.84442  0.59213  0.05096  1.0000
  N   N111      1.0  0.80445  0.41544  0.11813  1.0000
  C   C1992     1.0  0.81307  0.42158  0.09747  1.0000
  C   C1993     1.0  0.80890  0.42982  0.13135  1.0000
  C   C1994     1.0  0.81505  0.39571  0.12454  1.0000
  C   C1995     1.0  0.78258  0.41370  0.11988  1.0000
  C   C1996     1.0  0.77032  0.42776  0.10552  1.0000
  C   C1997     1.0  0.81268  0.40690  0.08232  1.0000
  C   C1998     1.0  0.80974  0.38724  0.14615  1.0000
  C   C1999     1.0  0.79918  0.45114  0.12756  1.0000
  C   C2000     1.0  0.80716  0.46491  0.13957  1.0000
  C   C2001     1.0  0.74826  0.42771  0.11190  1.0000
  C   C2002     1.0  0.81488  0.41706  0.06136  1.0000
  C   C2003     1.0  0.81666  0.36535  0.14919  1.0000
  H   H3519     1.0  0.82882  0.42383  0.09738  1.0000
  H   H3520     1.0  0.80594  0.43596  0.09165  1.0000
  H   H3521     1.0  0.80385  0.42508  0.14691  1.0000
  H   H3522     1.0  0.82515  0.43018  0.13063  1.0000
  H   H3523     1.0  0.83131  0.39627  0.12231  1.0000
  H   H3524     1.0  0.81204  0.38460  0.11526  1.0000
  H   H3525     1.0  0.77979  0.39862  0.11766  1.0000
  H   H3526     1.0  0.77587  0.41566  0.13514  1.0000
  H   H3527     1.0  0.77320  0.42312  0.09053  1.0000
  H   H3528     1.0  0.77385  0.44301  0.10444  1.0000
  H   H3529     1.0  0.82519  0.39522  0.08371  1.0000
  H   H3530     1.0  0.79887  0.39979  0.08470  1.0000
  H   H3531     1.0  0.79364  0.38909  0.15056  1.0000
  H   H3532     1.0  0.81708  0.39466  0.15617  1.0000
  H   H3533     1.0  0.80178  0.45723  0.11202  1.0000
  H   H3534     1.0  0.78311  0.45159  0.13197  1.0000
  H   H3535     1.0  0.80423  0.46026  0.15548  1.0000
  H   H3536     1.0  0.82325  0.46526  0.13554  1.0000
  H   H3537     1.0  0.79983  0.47996  0.13651  1.0000
  H   H3538     1.0  0.74388  0.41267  0.11278  1.0000
  H   H3539     1.0  0.74438  0.43331  0.12645  1.0000
  H   H3540     1.0  0.73982  0.43736  0.10106  1.0000
  H   H3541     1.0  0.81711  0.40604  0.05067  1.0000
  H   H3542     1.0  0.80144  0.42714  0.05855  1.0000
  H   H3543     1.0  0.82775  0.42564  0.05893  1.0000
  H   H3544     1.0  0.88355  0.40576  0.12050  1.0000
  H   H3545     1.0  0.85048  0.38409  0.99723  1.0000
  H   H3546     1.0  0.88539  0.59296  0.21798  1.0000
  H   H3547     1.0  0.85174  0.55748  0.11905  1.0000
  C   C2004     1.0  0.67382  0.42733  0.22635  1.0000
  C   C2005     1.0  0.84131  0.55810  0.10787  1.0000
  H   H3548     1.0  0.96881  0.65488  0.12046  1.0000
  H   H3549     1.0  0.80916  0.60802  0.07954  1.0000
  S   S453      1.0  0.95358  0.39139  0.99812  1.0000
  H   H3550     1.0  0.73974  0.63848  0.22884  1.0000
  H   H3551     1.0  0.81899  0.50133  0.20404  1.0000
  C   C2006     1.0  0.66292  0.44259  0.23597  1.0000
  C   C2007     1.0  0.88763  0.58443  0.20511  1.0000
  H   H3552     1.0  0.58201  0.57446  0.20451  1.0000
  H   H3553     1.0  0.94417  0.57752  0.16791  1.0000
  C   C2008     1.0  0.83359  0.64596  0.20309  1.0000
  H   H3554     1.0  0.77977  0.65228  0.21054  1.0000
  H   H3555     1.0  0.78352  0.33507  0.01792  1.0000
  H   H3556     1.0  0.56576  0.59938  0.21968  1.0000
  H   H3557     1.0  0.75144  0.43094  0.02067  1.0000
  C   C2009     1.0  0.99109  0.63270  0.13060  1.0000
  Fe  Fe225     1.0  0.94549  0.61118  0.07652  1.0000
  C   C2010     1.0  0.92904  0.54592  0.12273  1.0000
  C   C2011     1.0  0.89384  0.41385  0.12668  1.0000
  S   S454      1.0  0.96191  0.59177  0.09892  1.0000
  C   C2012     1.0  0.97308  0.53637  0.08487  1.0000
  H   H3558     1.0  0.52008  0.63219  0.23081  1.0000
  H   H3559     1.0  0.84631  0.59531  0.08390  1.0000
  C   C2013     1.0  0.76890  0.34759  0.16042  1.0000
  S   S455      1.0  0.92110  0.64681  0.03700  1.0000
  H   H3560     1.0  0.87316  0.58469  0.19945  1.0000
  H   H3561     1.0  0.94121  0.55836  0.05137  1.0000
  H   H3562     1.0  0.82378  0.57489  0.07640  1.0000
  H   H3563     1.0  0.83163  0.54623  0.11293  1.0000
  H   H3564     1.0  0.85735  0.58906  0.10580  1.0000
  H   H3565     1.0  0.98518  0.56682  0.00069  1.0000
  C   C2014     1.0  0.73800  0.36309  0.05692  1.0000
  C   C2015     1.0  0.91636  0.38299  0.13403  1.0000
  H   H3566     1.0  0.88211  0.64319  0.14769  1.0000
  C   C2016     1.0  0.89000  0.39508  0.15926  1.0000
  H   H3567     1.0  0.92516  0.64993  0.11223  1.0000
  S   S456      1.0  0.91481  0.62548  0.08259  1.0000
  C   C2017     1.0  0.85404  0.55247  0.08887  1.0000
  H   H3568     1.0  0.84858  0.41004  0.99921  1.0000
  C   C2018     1.0  0.75999  0.33818  0.12406  1.0000
  H   H3569     1.0  0.86473  0.62470  0.09801  1.0000
  S   S457      1.0  0.77959  0.42156  0.22785  1.0000
  H   H3570     1.0  0.75533  0.47360  0.11244  1.0000
  C   C2019     1.0  0.98047  0.54938  0.05060  1.0000
  H   H3571     1.0  0.91006  0.38462  0.10337  1.0000
  H   H3572     1.0  0.87896  0.53732  0.10314  1.0000
  H   H3573     1.0  0.76894  0.49232  0.11829  1.0000
  H   H3574     1.0  0.66625  0.41598  0.22208  1.0000
  Fe  Fe226     1.0  0.77522  0.56006  0.23871  1.0000
  C   C2020     1.0  0.75411  0.48720  0.11967  1.0000
  C   C2021     1.0  0.97289  0.60715  0.11175  1.0000
  H   H3575     1.0  0.94994  0.58940  0.14411  1.0000
  C   C2022     1.0  0.81159  0.63725  0.23207  1.0000
  C   C2023     1.0  0.97450  0.63961  0.12101  1.0000
  S   S458      1.0  0.95822  0.63859  0.06314  1.0000
  H   H3576     1.0  0.80826  0.59452  0.12567  1.0000
  H   H3577     1.0  0.92455  0.64981  0.14818  1.0000
  H   H3578     1.0  0.79265  0.48749  0.22786  1.0000
  C   C2024     1.0  0.91797  0.54004  0.05627  1.0000
  C   C2025     1.0  0.90716  0.42374  0.10940  1.0000
  C   C2026     1.0  0.80090  0.59577  0.08667  1.0000
  Fe  Fe227     1.0  0.96354  0.35975  0.00644  1.0000
  H   H3579     1.0  0.84785  0.37082  0.17162  1.0000
  C   C2027     1.0  0.90241  0.59358  0.18933  1.0000
  H   H3580     1.0  0.79194  0.60011  0.10020  1.0000
  H   H3581     1.0  0.79479  0.58808  0.05844  1.0000
  H   H3582     1.0  0.95318  0.40706  0.18341  1.0000
  C   C2028     1.0  0.84511  0.52492  0.21284  1.0000
  H   H3583     1.0  0.83418  0.47862  0.20703  1.0000
  C   C2029     1.0  0.78662  0.59224  0.07250  1.0000
  H   H3584     1.0  0.84752  0.63103  0.07996  1.0000
  C   C2030     1.0  0.83116  0.49351  0.21211  1.0000
  H   H3585     1.0  0.82793  0.50439  0.17256  1.0000
  C   C2031     1.0  0.75752  0.42198  0.03346  1.0000
  S   S459      1.0  0.81167  0.61637  0.20013  1.0000
  Fe  Fe228     1.0  0.94094  0.39222  0.02977  1.0000
  H   H3586     1.0  0.92143  0.41476  0.10621  1.0000
  H   H3587     1.0  0.91050  0.43798  0.11331  1.0000
  H   H3588     1.0  0.98950  0.49820  0.08940  1.0000
  H   H3589     1.0  0.95298  0.64394  0.22433  1.0000
  C   C2032     1.0  0.94504  0.60911  0.16583  1.0000
  C   C2033     1.0  0.83993  0.51389  0.17195  1.0000
  H   H3590     1.0  0.86734  0.47693  0.21467  1.0000
  H   H3591     1.0  0.86021  0.48933  0.18175  1.0000
  H   H3592     1.0  0.85523  0.50182  0.14576  1.0000
  H   H3593     1.0  0.86108  0.52602  0.14874  1.0000
  C   C2034     1.0  0.75615  0.35772  0.04214  1.0000
  H   H3594     1.0  0.82953  0.53054  0.21090  1.0000
  H   H3595     1.0  0.77752  0.58037  0.07902  1.0000
  C   C2035     1.0  0.84914  0.51629  0.15059  1.0000
  H   H3596     1.0  0.87940  0.36902  0.15091  1.0000
  H   H3597     1.0  0.82533  0.58200  0.17443  1.0000
  N   N112      1.0  0.84938  0.50413  0.20750  1.0000
  C   C2036     1.0  0.85553  0.50449  0.18568  1.0000
  C   C2037     1.0  0.83591  0.61414  0.10673  1.0000
  H   H3598     1.0  0.82054  0.61927  0.10400  1.0000
  C   C2038     1.0  0.81685  0.58524  0.16152  1.0000
  S   S460      1.0  0.95300  0.36119  0.03882  1.0000
  H   H3599     1.0  0.53253  0.54510  0.22397  1.0000
  S   S461      1.0  0.90524  0.33361  0.05432  1.0000
  C   C2039     1.0  0.80417  0.35832  0.06582  1.0000
  H   H3600     1.0  0.97912  0.55350  0.11723  1.0000
  H   H3601     1.0  0.89316  0.56909  0.21005  1.0000
  H   H3602     1.0  0.78332  0.36976  0.01353  1.0000
  H   H3603     1.0  0.76197  0.63718  0.23980  1.0000
  H   H3604     1.0  0.80827  0.35703  0.14091  1.0000
  C   C2040     1.0  0.76149  0.40055  0.02941  1.0000
  H   H3605     1.0  0.91786  0.34384  0.12580  1.0000
  H   H3606     1.0  0.81689  0.50591  0.23871  1.0000
  H   H3607     1.0  0.88745  0.60478  0.12843  1.0000
  H   H3608     1.0  0.81454  0.34991  0.05548  1.0000
  H   H3609     1.0  0.56767  0.55334  0.23237  1.0000
  H   H3610     1.0  0.97960  0.56319  0.17039  1.0000
  H   H3611     1.0  0.74735  0.39565  0.02696  1.0000
  H   H3612     1.0  0.54726  0.58297  0.22547  1.0000
  C   C2041     1.0  0.55632  0.59225  0.23208  1.0000
  H   H3613     1.0  0.73602  0.32944  0.19502  1.0000
  H   H3614     1.0  0.53961  0.62610  0.21196  1.0000
  S   S462      1.0  0.93566  0.34848  0.00076  1.0000
  H   H3615     1.0  0.75501  0.63400  0.20016  1.0000
  H   H3616     1.0  0.81308  0.40082  0.00957  1.0000
  H   H3617     1.0  0.71274  0.56810  0.17361  1.0000
  C   C2042     1.0  0.88078  0.63416  0.13576  1.0000
  H   H3618     1.0  0.86500  0.63524  0.13345  1.0000
  C   C2043     1.0  0.67995  0.65390  0.21792  1.0000
  H   H3619     1.0  0.97867  0.60324  0.21557  1.0000
  H   H3620     1.0  0.90913  0.50239  0.03558  1.0000
  C   C2044     1.0  0.99328  0.53550  0.16183  1.0000
  C   C2045     1.0  0.60339  0.54959  0.20847  1.0000
  H   H3621     1.0  0.71700  0.35215  0.04083  1.0000
  H   H3622     1.0  0.88908  0.64016  0.12199  1.0000
  H   H3623     1.0  0.88575  0.51598  0.21017  1.0000
  C   C2046     1.0  0.52626  0.54231  0.23905  1.0000
  H   H3624     1.0  0.70082  0.46870  0.24011  1.0000
  C   C2047     1.0  0.80729  0.41402  0.00120  1.0000
  H   H3625     1.0  0.57310  0.64299  0.23728  1.0000
  H   H3626     1.0  0.91395  0.34955  0.10031  1.0000
  C   C2048     1.0  0.90078  0.49168  0.22693  1.0000
  C   C2049     1.0  0.79903  0.44949  0.99823  1.0000
  H   H3627     1.0  0.77136  0.40008  0.01555  1.0000
  H   H3628     1.0  0.82635  0.34489  0.01336  1.0000
  H   H3629     1.0  0.93086  0.65118  0.21228  1.0000
  C   C2050     1.0  0.75633  0.64918  0.19335  1.0000
  H   H3630     1.0  0.74537  0.48038  0.23445  1.0000
  C   C2051     1.0  0.94637  0.64438  0.21039  1.0000
  S   S463      1.0  0.63690  0.44313  0.24041  1.0000
  Fe  Fe229     1.0  0.92537  0.38027  0.99402  1.0000
  H   H3631     1.0  0.91564  0.49619  0.22166  1.0000
  C   C2052     1.0  0.98593  0.56750  0.01655  1.0000
  C   C2053     1.0  0.82223  0.49131  0.23384  1.0000
  C   C2054     1.0  0.99329  0.55515  0.16521  1.0000
  H   H3632     1.0  0.90197  0.47542  0.22895  1.0000
  C   C2055     1.0  0.81788  0.65212  0.24129  1.0000
  C   C2056     1.0  0.98795  0.51413  0.05993  1.0000
  C   C2057     1.0  0.98560  0.49567  0.07489  1.0000
  C   C2058     1.0  0.67288  0.45722  0.24135  1.0000
  C   C2059     1.0  0.74809  0.64675  0.23720  1.0000
  H   H3633     1.0  0.86265  0.49173  0.23391  1.0000
  H   H3634     1.0  0.74155  0.65626  0.19028  1.0000
  H   H3635     1.0  0.98643  0.50978  0.04525  1.0000
  C   C2060     1.0  0.99084  0.54164  0.11344  1.0000
  C   C2061     1.0  0.84908  0.52845  0.23381  1.0000
  H   H3636     1.0  0.68424  0.63151  0.24203  1.0000
  H   H3637     1.0  0.81035  0.34867  0.99422  1.0000
  H   H3638     1.0  0.86512  0.52793  0.23461  1.0000
  H   H3639     1.0  0.89575  0.49738  0.24126  1.0000
  S   S464      1.0  0.55828  0.51466  0.24253  1.0000
  H   H3640     1.0  0.82347  0.54851  0.24220  1.0000
  H   H3641     1.0  0.55603  0.56160  0.30646  1.0000
  H   H3642     1.0  0.61384  0.53471  0.32305  1.0000
  Fe  Fe230     1.0  0.68037  0.51122  0.38286  1.0000
  S   S465      1.0  0.70692  0.51601  0.39687  1.0000
  S   S466      1.0  0.64835  0.52308  0.38879  1.0000
  Fe  Fe231     1.0  0.70397  0.48298  0.35621  1.0000
  S   S467      1.0  0.73238  0.48514  0.36807  1.0000
  S   S468      1.0  0.70203  0.46658  0.33044  1.0000
  Fe  Fe232     1.0  0.71431  0.48318  0.39767  1.0000
  S   S469      1.0  0.72681  0.46491  0.42401  1.0000
  Fe  Fe233     1.0  0.72280  0.51737  0.36611  1.0000
  S   S470      1.0  0.74074  0.54133  0.35073  1.0000
  S   S471      1.0  0.68660  0.47836  0.38571  1.0000
  S   S472      1.0  0.69559  0.51534  0.35239  1.0000
  H   H3643     1.0  0.57238  0.53484  0.41523  1.0000
  S   S473      1.0  0.78009  0.53532  0.26297  1.0000
  H   H3644     1.0  0.67543  0.34013  0.34858  1.0000
  Fe  Fe234     1.0  0.61898  0.50235  0.27725  1.0000
  H   H3645     1.0  0.62051  0.41921  0.48146  1.0000
  S   S474      1.0  0.63939  0.52227  0.28485  1.0000
  Fe  Fe235     1.0  0.59334  0.47155  0.29731  1.0000
  H   H3646     1.0  0.67687  0.40668  0.27834  1.0000
  S   S475      1.0  0.58450  0.46050  0.32907  1.0000
  H   H3647     1.0  0.84512  0.55159  0.25294  1.0000
  S   S476      1.0  0.61802  0.61215  0.39790  1.0000
  H   H3648     1.0  0.70774  0.60388  0.34120  1.0000
  S   S477      1.0  0.62562  0.47058  0.28719  1.0000
  S   S478      1.0  0.58737  0.50404  0.28964  1.0000
  Fe  Fe236     1.0  0.58640  0.35530  0.38060  1.0000
  S   S479      1.0  0.57084  0.37169  0.35559  1.0000
  Fe  Fe237     1.0  0.60788  0.35400  0.41614  1.0000
  S   S480      1.0  0.61891  0.37273  0.43553  1.0000
  S   S481      1.0  0.61803  0.35704  0.38398  1.0000
  S   S482      1.0  0.57583  0.35552  0.41268  1.0000
  C   C2062     1.0  0.68438  0.38134  0.26279  1.0000
  H   H3649     1.0  0.68243  0.47829  0.47624  1.0000
  C   C2063     1.0  0.62458  0.32940  0.48015  1.0000
  H   H3650     1.0  0.50671  0.65480  0.32114  1.0000
  H   H3651     1.0  0.57330  0.65087  0.32073  1.0000
  H   H3652     1.0  0.69118  0.34351  0.38453  1.0000
  H   H3653     1.0  0.52582  0.51604  0.33464  1.0000
  S   S483      1.0  0.51890  0.63699  0.27687  1.0000
  H   H3654     1.0  0.65713  0.59111  0.39781  1.0000
  C   C2064     1.0  0.62676  0.35796  0.45606  1.0000
  C   C2065     1.0  0.64282  0.36266  0.46427  1.0000
  H   H3655     1.0  0.50242  0.53117  0.29232  1.0000
  H   H3656     1.0  0.67077  0.32825  0.44988  1.0000
  H   H3657     1.0  0.53133  0.60314  0.25257  1.0000
  H   H3658     1.0  0.67637  0.56621  0.25754  1.0000
  H   H3659     1.0  0.65009  0.37538  0.45814  1.0000
  C   C2066     1.0  0.59579  0.61284  0.27413  1.0000
  H   H3660     1.0  0.66737  0.37379  0.35808  1.0000
  H   H3661     1.0  0.58400  0.57115  0.31712  1.0000
  C   C2067     1.0  0.78109  0.34824  0.29908  1.0000
  H   H3662     1.0  0.50811  0.62581  0.34580  1.0000
  H   H3663     1.0  0.69950  0.39012  0.38584  1.0000
  H   H3664     1.0  0.50386  0.38452  0.33930  1.0000
  C   C2068     1.0  0.65245  0.44140  0.48183  1.0000
  H   H3665     1.0  0.72969  0.39683  0.42454  1.0000
  C   C2069     1.0  0.67010  0.49206  0.44147  1.0000
  C   C2070     1.0  0.68164  0.57923  0.28363  1.0000
  C   C2071     1.0  0.67914  0.35575  0.38330  1.0000
  S   S484      1.0  0.54836  0.58610  0.35129  1.0000
  H   H3666     1.0  0.64201  0.34857  0.34345  1.0000
  H   H3667     1.0  0.67774  0.50290  0.44742  1.0000
  C   C2072     1.0  0.58134  0.43558  0.33589  1.0000
  C   C2073     1.0  0.57412  0.42447  0.32332  1.0000
  C   C2074     1.0  0.57110  0.40483  0.32945  1.0000
  C   C2075     1.0  0.57563  0.39608  0.34800  1.0000
  C   C2076     1.0  0.58329  0.40706  0.36039  1.0000
  C   C2077     1.0  0.58586  0.42684  0.35445  1.0000
  H   H3668     1.0  0.57040  0.43118  0.30908  1.0000
  H   H3669     1.0  0.56511  0.39642  0.31982  1.0000
  H   H3670     1.0  0.58677  0.40046  0.37474  1.0000
  H   H3671     1.0  0.59144  0.43538  0.36423  1.0000
  C   C2078     1.0  0.71683  0.44396  0.43677  1.0000
  C   C2079     1.0  0.69938  0.43809  0.43221  1.0000
  C   C2080     1.0  0.69105  0.42231  0.44362  1.0000
  C   C2081     1.0  0.70017  0.41192  0.45945  1.0000
  C   C2082     1.0  0.71788  0.41745  0.46377  1.0000
  C   C2083     1.0  0.72612  0.43347  0.45250  1.0000
  H   H3672     1.0  0.69203  0.44605  0.42023  1.0000
  H   H3673     1.0  0.67718  0.41835  0.44042  1.0000
  H   H3674     1.0  0.77524  0.35887  0.30913  1.0000
  H   H3675     1.0  0.73966  0.43792  0.45610  1.0000
  C   C2084     1.0  0.68357  0.48034  0.31769  1.0000
  C   C2085     1.0  0.66916  0.49250  0.32780  1.0000
  C   C2086     1.0  0.65582  0.50552  0.31763  1.0000
  C   C2087     1.0  0.65656  0.50619  0.29729  1.0000
  C   C2088     1.0  0.67031  0.49331  0.28717  1.0000
  C   C2089     1.0  0.68389  0.48038  0.29738  1.0000
  H   H3676     1.0  0.66831  0.49191  0.34356  1.0000
  H   H3677     1.0  0.64496  0.51503  0.32559  1.0000
  H   H3678     1.0  0.67064  0.49351  0.27146  1.0000
  H   H3679     1.0  0.69490  0.47086  0.28949  1.0000
  C   C2090     1.0  0.75145  0.53940  0.32629  1.0000
  C   C2091     1.0  0.75516  0.55647  0.31383  1.0000
  C   C2092     1.0  0.76320  0.55545  0.29418  1.0000
  C   C2093     1.0  0.76844  0.53726  0.28707  1.0000
  C   C2094     1.0  0.76515  0.52014  0.29964  1.0000
  C   C2095     1.0  0.75639  0.52121  0.31907  1.0000
  H   H3680     1.0  0.75188  0.57055  0.31940  1.0000
  H   H3681     1.0  0.76599  0.56870  0.28475  1.0000
  H   H3682     1.0  0.76931  0.50603  0.29429  1.0000
  H   H3683     1.0  0.75375  0.50798  0.32859  1.0000
  C   C2096     1.0  0.54175  0.59927  0.32945  1.0000
  C   C2097     1.0  0.54726  0.61813  0.32422  1.0000
  C   C2098     1.0  0.54109  0.62935  0.30743  1.0000
  C   C2099     1.0  0.52918  0.62181  0.29594  1.0000
  C   C2100     1.0  0.63402  0.41124  0.48709  1.0000
  H   H3684     1.0  0.57615  0.55271  0.38163  1.0000
  H   H3685     1.0  0.61823  0.36197  0.34085  1.0000
  H   H3686     1.0  0.64207  0.42816  0.41661  1.0000
  H   H3687     1.0  0.81187  0.65442  0.25615  1.0000
  C   C2101     1.0  0.62703  0.58768  0.39450  1.0000
  C   C2102     1.0  0.61417  0.57459  0.39125  1.0000
  C   C2103     1.0  0.62108  0.55493  0.38959  1.0000
  C   C2104     1.0  0.64096  0.54815  0.39060  1.0000
  C   C2105     1.0  0.65409  0.56131  0.39321  1.0000
  C   C2106     1.0  0.64708  0.58105  0.39532  1.0000
  H   H3688     1.0  0.59879  0.57951  0.39041  1.0000
  H   H3689     1.0  0.61096  0.54488  0.38762  1.0000
  H   H3690     1.0  0.66950  0.55622  0.39402  1.0000
  H   H3691     1.0  0.82633  0.42554  0.26119  1.0000
  H   H3692     1.0  0.64670  0.58794  0.24979  1.0000
  H   H3693     1.0  0.60547  0.41645  0.29539  1.0000
  H   H3694     1.0  0.72851  0.61787  0.26082  1.0000
  C   C2107     1.0  0.58447  0.59058  0.25209  1.0000
  H   H3695     1.0  0.65863  0.39549  0.42562  1.0000
  C   C2108     1.0  0.62532  0.64389  0.33382  1.0000
  H   H3696     1.0  0.83301  0.48352  0.24354  1.0000
  H   H3697     1.0  0.65907  0.35407  0.42017  1.0000
  C   C2109     1.0  0.68779  0.33833  0.42265  1.0000
  H   H3698     1.0  0.72789  0.48219  0.25590  1.0000
  C   C2110     1.0  0.64100  0.43542  0.33190  1.0000
  C   C2111     1.0  0.67165  0.64564  0.32538  1.0000
  H   H3699     1.0  0.76156  0.42302  0.27235  1.0000
  C   C2112     1.0  0.55988  0.53798  0.40616  1.0000
  C   C2113     1.0  0.78497  0.32838  0.30632  1.0000
  H   H3700     1.0  0.62101  0.64138  0.30325  1.0000
  C   C2114     1.0  0.50863  0.55333  0.24572  1.0000
  H   H3701     1.0  0.70130  0.34155  0.34988  1.0000
  H   H3702     1.0  0.52100  0.56722  0.38358  1.0000
  H   H3703     1.0  0.79521  0.41573  0.27893  1.0000
  H   H3704     1.0  0.61812  0.43418  0.31403  1.0000
  C   C2115     1.0  0.51382  0.39002  0.34835  1.0000
  N   N113      1.0  0.63489  0.40093  0.29260  1.0000
  C   C2116     1.0  0.52731  0.52409  0.27109  1.0000
  Fe  Fe238     1.0  0.58168  0.49696  0.26020  1.0000
  H   H3705     1.0  0.55279  0.62906  0.47770  1.0000
  H   H3706     1.0  0.54275  0.56602  0.25860  1.0000
  H   H3707     1.0  0.75812  0.36343  0.46438  1.0000
  H   H3708     1.0  0.67486  0.38372  0.29319  1.0000
  H   H3709     1.0  0.65961  0.50014  0.43153  1.0000
  H   H3710     1.0  0.60909  0.64792  0.33605  1.0000
  H   H3711     1.0  0.64806  0.48969  0.46622  1.0000
  H   H3712     1.0  0.52105  0.39111  0.43750  1.0000
  H   H3713     1.0  0.62128  0.42607  0.27550  1.0000
  C   C2117     1.0  0.68699  0.35019  0.34721  1.0000
  H   H3714     1.0  0.64875  0.37984  0.39680  1.0000
  H   H3715     1.0  0.54478  0.64418  0.30394  1.0000
  C   C2118     1.0  0.61723  0.41209  0.28376  1.0000
  H   H3716     1.0  0.79831  0.47852  0.25226  1.0000
  H   H3717     1.0  0.72125  0.58020  0.34012  1.0000
  H   H3718     1.0  0.63927  0.44944  0.47551  1.0000
  H   H3719     1.0  0.60558  0.56396  0.30078  1.0000
  H   H3720     1.0  0.65680  0.56426  0.27722  1.0000
  H   H3721     1.0  0.64775  0.44742  0.32220  1.0000
  H   H3722     1.0  0.65565  0.64754  0.35368  1.0000
  S   S485      1.0  0.53468  0.63535  0.37414  1.0000
  H   H3723     1.0  0.53437  0.51281  0.28096  1.0000
  H   H3724     1.0  0.73410  0.40600  0.26597  1.0000
  H   H3725     1.0  0.69309  0.37555  0.35935  1.0000
  C   C2119     1.0  0.52311  0.35454  0.40608  1.0000
  H   H3726     1.0  0.65920  0.58276  0.32063  1.0000
  H   H3727     1.0  0.64883  0.42717  0.29293  1.0000
  C   C2120     1.0  0.64327  0.41685  0.40630  1.0000
  C   C2121     1.0  0.51347  0.37160  0.41797  1.0000
  H   H3728     1.0  0.55577  0.62434  0.33344  1.0000
  H   H3729     1.0  0.68288  0.32706  0.41488  1.0000
  S   S486      1.0  0.56715  0.64735  0.40025  1.0000
  H   H3730     1.0  0.66468  0.46901  0.24881  1.0000
  H   H3731     1.0  0.66558  0.39388  0.38106  1.0000
  H   H3732     1.0  0.58417  0.36959  0.47981  1.0000
  C   C2122     1.0  0.51510  0.35870  0.37160  1.0000
  H   H3733     1.0  0.65503  0.36514  0.31106  1.0000
  C   C2123     1.0  0.52444  0.60259  0.30061  1.0000
  H   H3734     1.0  0.71103  0.36604  0.39036  1.0000
  H   H3735     1.0  0.68053  0.36616  0.26328  1.0000
  H   H3736     1.0  0.76961  0.46065  0.25392  1.0000
  C   C2124     1.0  0.73531  0.64819  0.25717  1.0000
  H   H3737     1.0  0.62943  0.40972  0.40869  1.0000
  C   C2125     1.0  0.65014  0.35048  0.47993  1.0000
  C   C2126     1.0  0.64207  0.37222  0.31967  1.0000
  C   C2127     1.0  0.69935  0.37683  0.39670  1.0000
  H   H3738     1.0  0.52372  0.58667  0.39804  1.0000
  H   H3739     1.0  0.64608  0.37999  0.27179  1.0000
  H   H3740     1.0  0.56560  0.61101  0.27079  1.0000
  H   H3741     1.0  0.60372  0.38381  0.48286  1.0000
  H   H3742     1.0  0.69112  0.34151  0.45307  1.0000
  H   H3743     1.0  0.59638  0.42640  0.25120  1.0000
  C   C2128     1.0  0.52119  0.63478  0.48622  1.0000
  H   H3744     1.0  0.58052  0.55697  0.27935  1.0000
  H   H3745     1.0  0.51350  0.56487  0.40963  1.0000
  S   S487      1.0  0.78098  0.37967  0.27056  1.0000
  N   N114      1.0  0.51098  0.34792  0.39178  1.0000
  H   H3746     1.0  0.79116  0.43589  0.26034  1.0000
  H   H3747     1.0  0.72520  0.49991  0.29231  1.0000
  H   H3748     1.0  0.54895  0.58302  0.27281  1.0000
  C   C2129     1.0  0.55270  0.51979  0.34666  1.0000
  C   C2130     1.0  0.53035  0.59146  0.31762  1.0000
  H   H3749     1.0  0.51832  0.62099  0.48098  1.0000
  H   H3750     1.0  0.60811  0.57081  0.32460  1.0000
  C   C2131     1.0  0.55563  0.57143  0.26358  1.0000
  C   C2132     1.0  0.51668  0.32633  0.39011  1.0000
  H   H3751     1.0  0.62308  0.41243  0.33062  1.0000
  H   H3752     1.0  0.73633  0.36689  0.45178  1.0000
  H   H3753     1.0  0.71682  0.57445  0.29854  1.0000
  H   H3754     1.0  0.82067  0.44989  0.26850  1.0000
  S   S488      1.0  0.51787  0.62102  0.43122  1.0000
  H   H3755     1.0  0.55010  0.52610  0.40964  1.0000
  C   C2133     1.0  0.61752  0.34135  0.46401  1.0000
  C   C2134     1.0  0.64103  0.33392  0.48804  1.0000
  H   H3756     1.0  0.73188  0.51982  0.27428  1.0000
  N   N115      1.0  0.67937  0.36924  0.39892  1.0000
  H   H3757     1.0  0.54506  0.52020  0.36171  1.0000
  H   H3758     1.0  0.66520  0.34864  0.38552  1.0000
  C   C2135     1.0  0.64368  0.41479  0.30346  1.0000
  H   H3759     1.0  0.71966  0.40840  0.40266  1.0000
  H   H3760     1.0  0.57242  0.49494  0.35523  1.0000
  H   H3761     1.0  0.55136  0.55195  0.40995  1.0000
  N   N116      1.0  0.68930  0.56253  0.29782  1.0000
  H   H3762     1.0  0.55244  0.53489  0.33916  1.0000
  C   C2136     1.0  0.70424  0.56947  0.30897  1.0000
  C   C2137     1.0  0.70003  0.54685  0.28578  1.0000
  C   C2138     1.0  0.67322  0.55377  0.31173  1.0000
  C   C2139     1.0  0.65546  0.56793  0.31950  1.0000
  H   H3763     1.0  0.71388  0.40287  0.28487  1.0000
  C   C2140     1.0  0.70895  0.52791  0.29741  1.0000
  C   C2141     1.0  0.69672  0.58584  0.32233  1.0000
  C   C2142     1.0  0.71361  0.59262  0.33125  1.0000
  C   C2143     1.0  0.64652  0.55996  0.33985  1.0000
  H   H3764     1.0  0.54799  0.50646  0.32067  1.0000
  Fe  Fe239     1.0  0.55570  0.60861  0.36909  1.0000
  H   H3765     1.0  0.64390  0.56962  0.30935  1.0000
  H   H3766     1.0  0.71063  0.55729  0.31905  1.0000
  C   C2144     1.0  0.67182  0.39192  0.27895  1.0000
  C   C2145     1.0  0.72985  0.40446  0.28209  1.0000
  H   H3767     1.0  0.68989  0.54166  0.27667  1.0000
  H   H3768     1.0  0.66671  0.54282  0.30471  1.0000
  H   H3769     1.0  0.67975  0.54517  0.32447  1.0000
  S   S489      1.0  0.58552  0.46423  0.26853  1.0000
  H   H3770     1.0  0.51084  0.40622  0.34744  1.0000
  C   C2146     1.0  0.62761  0.38378  0.30597  1.0000
  H   H3771     1.0  0.72507  0.62950  0.28308  1.0000
  H   H3772     1.0  0.69729  0.52054  0.30699  1.0000
  H   H3773     1.0  0.71999  0.53093  0.30660  1.0000
  H   H3774     1.0  0.59734  0.62510  0.26226  1.0000
  H   H3775     1.0  0.68650  0.58014  0.33484  1.0000
  H   H3776     1.0  0.53933  0.49343  0.34369  1.0000
  C   C2147     1.0  0.79260  0.34059  0.26610  1.0000
  H   H3777     1.0  0.60089  0.38808  0.27848  1.0000
  H   H3778     1.0  0.63396  0.57020  0.34534  1.0000
  H   H3779     1.0  0.64123  0.54553  0.33944  1.0000
  H   H3780     1.0  0.65768  0.55825  0.35043  1.0000
  C   C2148     1.0  0.75400  0.46168  0.26009  1.0000
  H   H3781     1.0  0.71993  0.65385  0.25463  1.0000
  H   H3782     1.0  0.51623  0.59625  0.29111  1.0000
  C   C2149     1.0  0.63211  0.35593  0.33267  1.0000
  H   H3783     1.0  0.58946  0.53495  0.31616  1.0000
  C   C2150     1.0  0.60769  0.50832  0.35545  1.0000
  C   C2151     1.0  0.60914  0.48765  0.36725  1.0000
  C   C2152     1.0  0.63029  0.47784  0.36534  1.0000
  H   H3784     1.0  0.59321  0.51982  0.38737  1.0000
  H   H3785     1.0  0.61885  0.51664  0.36022  1.0000
  H   H3786     1.0  0.61267  0.50579  0.33993  1.0000
  H   H3787     1.0  0.59997  0.47793  0.36166  1.0000
  H   H3788     1.0  0.60441  0.48832  0.38310  1.0000
  H   H3789     1.0  0.63101  0.46314  0.37384  1.0000
  H   H3790     1.0  0.63547  0.47604  0.34974  1.0000
  H   H3791     1.0  0.64024  0.48669  0.37114  1.0000
  C   C2153     1.0  0.56548  0.55436  0.27691  1.0000
  H   H3792     1.0  0.72509  0.40958  0.47589  1.0000
  C   C2154     1.0  0.54046  0.64058  0.47482  1.0000
  C   C2155     1.0  0.62857  0.63269  0.31531  1.0000
  C   C2156     1.0  0.62000  0.61306  0.31947  1.0000
  H   H3793     1.0  0.62893  0.63335  0.34676  1.0000
  C   C2157     1.0  0.59010  0.54040  0.34684  1.0000
  H   H3794     1.0  0.73810  0.39101  0.28880  1.0000
  C   C2158     1.0  0.53582  0.52774  0.25171  1.0000
  H   H3795     1.0  0.68217  0.38927  0.24813  1.0000
  C   C2159     1.0  0.56747  0.53994  0.38436  1.0000
  H   H3796     1.0  0.64428  0.62980  0.30985  1.0000
  H   H3797     1.0  0.62600  0.60423  0.33235  1.0000
  H   H3798     1.0  0.60370  0.61542  0.32240  1.0000
  H   H3799     1.0  0.62384  0.60470  0.30657  1.0000
  H   H3800     1.0  0.64735  0.60064  0.27095  1.0000
  N   N117      1.0  0.76229  0.44353  0.29360  1.0000
  C   C2160     1.0  0.75645  0.42480  0.28797  1.0000
  C   C2161     1.0  0.78455  0.44375  0.29057  1.0000
  C   C2162     1.0  0.75585  0.44424  0.31521  1.0000
  C   C2163     1.0  0.75213  0.46137  0.28267  1.0000
  H   H3801     1.0  0.68116  0.48264  0.43268  1.0000
  C   C2164     1.0  0.73407  0.42247  0.29095  1.0000
  C   C2165     1.0  0.76146  0.46217  0.32413  1.0000
  C   C2166     1.0  0.60730  0.40094  0.27009  1.0000
  C   C2167     1.0  0.52854  0.37959  0.42847  1.0000
  H   H3802     1.0  0.79571  0.34519  0.25061  1.0000
  H   H3803     1.0  0.64505  0.42418  0.39106  1.0000
  C   C2168     1.0  0.76920  0.45617  0.34403  1.0000
  H   H3804     1.0  0.76400  0.41194  0.29649  1.0000
  C   C2169     1.0  0.68151  0.36542  0.36174  1.0000
  H   H3805     1.0  0.78850  0.45901  0.28703  1.0000
  H   H3806     1.0  0.79119  0.43810  0.30437  1.0000
  H   H3807     1.0  0.76170  0.43039  0.32359  1.0000
  H   H3808     1.0  0.73959  0.44469  0.31839  1.0000
  H   H3809     1.0  0.73614  0.46335  0.28805  1.0000
  H   H3810     1.0  0.75778  0.47490  0.28586  1.0000
  H   H3811     1.0  0.53903  0.64231  0.45883  1.0000
  H   H3812     1.0  0.57939  0.41964  0.27253  1.0000
  H   H3813     1.0  0.72866  0.42053  0.30680  1.0000
  H   H3814     1.0  0.73497  0.35676  0.47706  1.0000
  H   H3815     1.0  0.74819  0.47296  0.32605  1.0000
  H   H3816     1.0  0.77275  0.47009  0.31466  1.0000
  Fe  Fe240     1.0  0.61785  0.46592  0.25774  1.0000
  H   H3817     1.0  0.54084  0.33387  0.45517  1.0000
  H   H3818     1.0  0.75904  0.33804  0.44224  1.0000
  H   H3819     1.0  0.72436  0.59895  0.31959  1.0000
  H   H3820     1.0  0.62314  0.37292  0.29724  1.0000
  H   H3821     1.0  0.65269  0.42571  0.33911  1.0000
  C   C2170     1.0  0.71938  0.51343  0.28355  1.0000
  H   H3822     1.0  0.65699  0.40756  0.31000  1.0000
  H   H3823     1.0  0.66136  0.43423  0.46963  1.0000
  S   S490      1.0  0.56135  0.60124  0.40032  1.0000
  H   H3824     1.0  0.57245  0.50823  0.38454  1.0000
  H   H3825     1.0  0.75798  0.44899  0.35450  1.0000
  H   H3826     1.0  0.78290  0.44595  0.34246  1.0000
  H   H3827     1.0  0.77265  0.46935  0.35010  1.0000
  S   S491      1.0  0.58211  0.62479  0.36065  1.0000
  Fe  Fe241     1.0  0.58613  0.61992  0.39245  1.0000
  H   H3828     1.0  0.70348  0.33969  0.41731  1.0000
  H   H3829     1.0  0.67382  0.59144  0.29139  1.0000
  C   C2171     1.0  0.54079  0.50822  0.33574  1.0000
  C   C2172     1.0  0.81835  0.43428  0.27274  1.0000
  H   H3830     1.0  0.64853  0.40468  0.26248  1.0000
  C   C2173     1.0  0.67338  0.46774  0.47182  1.0000
  H   H3831     1.0  0.68393  0.45823  0.46266  1.0000
  H   H3832     1.0  0.69353  0.63916  0.34626  1.0000
  C   C2174     1.0  0.78498  0.35444  0.27897  1.0000
  C   C2175     1.0  0.57396  0.50978  0.34742  1.0000
  C   C2176     1.0  0.65651  0.59225  0.25976  1.0000
  Fe  Fe242     1.0  0.56193  0.65125  0.36816  1.0000
  H   H3833     1.0  0.77348  0.32851  0.47289  1.0000
  H   H3834     1.0  0.73655  0.38619  0.40178  1.0000
  H   H3835     1.0  0.57589  0.54986  0.34757  1.0000
  H   H3836     1.0  0.53585  0.36777  0.43829  1.0000
  H   H3837     1.0  0.52049  0.38771  0.37792  1.0000
  H   H3838     1.0  0.67416  0.40984  0.40771  1.0000
  C   C2177     1.0  0.55334  0.55089  0.29675  1.0000
  H   H3839     1.0  0.53736  0.55205  0.29521  1.0000
  H   H3840     1.0  0.55785  0.53604  0.30367  1.0000
  H   H3841     1.0  0.82464  0.42912  0.28676  1.0000
  N   N118      1.0  0.58766  0.52010  0.35703  1.0000
  C   C2178     1.0  0.59906  0.56325  0.31635  1.0000
  C   C2179     1.0  0.59854  0.54185  0.32492  1.0000
  H   H3842     1.0  0.60000  0.54761  0.35464  1.0000
  H   H3843     1.0  0.58033  0.50703  0.33230  1.0000
  C   C2180     1.0  0.66768  0.57393  0.26950  1.0000
  C   C2181     1.0  0.51427  0.57531  0.39610  1.0000
  C   C2182     1.0  0.58051  0.52107  0.37859  1.0000
  H   H3844     1.0  0.61392  0.38858  0.31535  1.0000
  C   C2183     1.0  0.74438  0.35712  0.46281  1.0000
  H   H3845     1.0  0.69534  0.38995  0.42483  1.0000
  H   H3846     1.0  0.56676  0.54069  0.26979  1.0000
  C   C2184     1.0  0.68621  0.33083  0.44443  1.0000
  H   H3847     1.0  0.64691  0.38180  0.32948  1.0000
  C   C2185     1.0  0.66093  0.40178  0.41009  1.0000
  H   H3848     1.0  0.68835  0.35759  0.33199  1.0000
  H   H3849     1.0  0.50940  0.64648  0.48231  1.0000
  H   H3850     1.0  0.55462  0.54349  0.37589  1.0000
  H   H3851     1.0  0.70897  0.50946  0.27400  1.0000
  C   C2186     1.0  0.73464  0.62809  0.26905  1.0000
  H   H3852     1.0  0.67489  0.36672  0.43081  1.0000
  H   H3853     1.0  0.58321  0.40538  0.25196  1.0000
  Fe  Fe243     1.0  0.54138  0.62896  0.40559  1.0000
  H   H3854     1.0  0.60966  0.65334  0.36903  1.0000
  H   H3855     1.0  0.71208  0.55291  0.27534  1.0000
  C   C2187     1.0  0.74383  0.48067  0.25058  1.0000
  H   H3856     1.0  0.61789  0.39584  0.25785  1.0000
  C   C2188     1.0  0.50926  0.53462  0.27755  1.0000
  H   H3857     1.0  0.74707  0.44944  0.25575  1.0000
  C   C2189     1.0  0.70690  0.38179  0.41561  1.0000
  C   C2190     1.0  0.72428  0.39402  0.41075  1.0000
  H   H3858     1.0  0.71194  0.36822  0.42472  1.0000
  H   H3859     1.0  0.62865  0.34478  0.32369  1.0000
  H   H3860     1.0  0.65109  0.46979  0.45104  1.0000
  C   C2191     1.0  0.59054  0.41396  0.26096  1.0000
  C   C2192     1.0  0.64961  0.39410  0.27596  1.0000
  H   H3861     1.0  0.63049  0.44202  0.34343  1.0000
  H   H3862     1.0  0.50463  0.59443  0.36244  1.0000
  C   C2193     1.0  0.79644  0.43157  0.27481  1.0000
  C   C2194     1.0  0.62990  0.42384  0.32023  1.0000
  H   H3863     1.0  0.68935  0.59889  0.31421  1.0000
  H   H3864     1.0  0.57748  0.59014  0.28415  1.0000
  H   H3865     1.0  0.52737  0.34223  0.41719  1.0000
  H   H3866     1.0  0.70319  0.63736  0.32096  1.0000
  H   H3867     1.0  0.60483  0.33787  0.45787  1.0000
  H   H3868     1.0  0.53984  0.38620  0.41762  1.0000
  H   H3869     1.0  0.52580  0.57697  0.32174  1.0000
  H   H3870     1.0  0.72532  0.43532  0.28388  1.0000
  C   C2195     1.0  0.69244  0.64585  0.33092  1.0000
  C   C2196     1.0  0.67454  0.35781  0.41862  1.0000
  C   C2197     1.0  0.66321  0.38581  0.39592  1.0000
  H   H3871     1.0  0.50707  0.35286  0.36090  1.0000
  H   H3872     1.0  0.53736  0.35876  0.39824  1.0000
  H   H3873     1.0  0.60998  0.60337  0.27450  1.0000
  C   C2198     1.0  0.65898  0.47965  0.45806  1.0000
  H   H3874     1.0  0.75066  0.49349  0.25382  1.0000
  H   H3875     1.0  0.52936  0.38631  0.34224  1.0000
  S   S492      1.0  0.68822  0.39274  0.47352  1.0000
  H   H3876     1.0  0.70797  0.45351  0.48544  1.0000
  H   H3877     1.0  0.58589  0.65313  0.28543  1.0000
  H   H3878     1.0  0.74962  0.62181  0.27247  1.0000
  H   H3879     1.0  0.53100  0.35630  0.36620  1.0000
  C   C2199     1.0  0.57935  0.60100  0.27105  1.0000
  C   C2200     1.0  0.58761  0.38287  0.48571  1.0000
  H   H3880     1.0  0.59214  0.61901  0.28838  1.0000
  C   C2201     1.0  0.51043  0.38125  0.36974  1.0000
  H   H3881     1.0  0.73531  0.33164  0.45307  1.0000
  H   H3882     1.0  0.55006  0.61968  0.24565  1.0000
  H   H3883     1.0  0.57998  0.39591  0.47771  1.0000
  H   H3884     1.0  0.69420  0.58564  0.27429  1.0000
  H   H3885     1.0  0.50144  0.61240  0.37909  1.0000
  H   H3886     1.0  0.66324  0.35377  0.48521  1.0000
  H   H3887     1.0  0.50688  0.33763  0.47331  1.0000
  H   H3888     1.0  0.66879  0.63008  0.32668  1.0000
  S   S493      1.0  0.61336  0.49793  0.24701  1.0000
  C   C2202     1.0  0.65621  0.65687  0.33937  1.0000
  H   H3889     1.0  0.54393  0.65472  0.47887  1.0000
  H   H3890     1.0  0.59809  0.58051  0.25451  1.0000
  H   H3891     1.0  0.64380  0.40524  0.47472  1.0000
  H   H3892     1.0  0.74102  0.65773  0.26640  1.0000
  C   C2203     1.0  0.49987  0.54942  0.26498  1.0000
  H   H3893     1.0  0.58874  0.55270  0.24503  1.0000
  H   H3894     1.0  0.70021  0.38064  0.26483  1.0000
  N   N119      1.0  0.56883  0.57954  0.24620  1.0000
  H   H3895     1.0  0.67170  0.65202  0.30990  1.0000
  H   H3896     1.0  0.50188  0.36644  0.42937  1.0000
  C   C2204     1.0  0.74917  0.33660  0.45621  1.0000
  H   H3897     1.0  0.66702  0.60171  0.25093  1.0000
  N   N120      1.0  0.66431  0.45535  0.48936  1.0000
  H   H3898     1.0  0.63279  0.65874  0.37543  1.0000
  H   H3899     1.0  0.84346  0.51736  0.24534  1.0000
  H   H3900     1.0  0.50652  0.38398  0.40862  1.0000
  H   H3901     1.0  0.57729  0.33354  0.54595  1.0000
  Fe  Fe244     1.0  0.56901  0.34902  0.63931  1.0000
  S   S494      1.0  0.57328  0.36497  0.66476  1.0000
  S   S495      1.0  0.58896  0.34043  0.61234  1.0000
  Fe  Fe245     1.0  0.52776  0.34082  0.65672  1.0000
  S   S496      1.0  0.52868  0.35531  0.68371  1.0000
  H   H3902     1.0  0.61798  0.36542  0.54502  1.0000
  Fe  Fe246     1.0  0.54188  0.37900  0.66310  1.0000
  C   C2205     1.0  0.52255  0.63198  0.50866  1.0000
  Fe  Fe247     1.0  0.55958  0.33988  0.68336  1.0000
  C   C2206     1.0  0.59006  0.34071  0.54904  1.0000
  S   S497      1.0  0.53918  0.36526  0.63593  1.0000
  C   C2207     1.0  0.64323  0.49631  0.52305  1.0000
  Fe  Fe248     1.0  0.71400  0.33781  0.52626  1.0000
  C   C2208     1.0  0.54008  0.44711  0.70188  1.0000
  H   H3903     1.0  0.62244  0.33374  0.54500  1.0000
  Fe  Fe249     1.0  0.68063  0.36338  0.54612  1.0000
  S   S498      1.0  0.66676  0.37655  0.57358  1.0000
  S   S499      1.0  0.70918  0.37046  0.52837  1.0000
  H   H3904     1.0  0.54024  0.35413  0.73227  1.0000
  C   C2209     1.0  0.59117  0.36393  0.51922  1.0000
  C   C2210     1.0  0.49836  0.41563  0.68995  1.0000
  C   C2211     1.0  0.69982  0.45248  0.50038  1.0000
  H   H3905     1.0  0.55633  0.36262  0.54174  1.0000
  H   H3906     1.0  0.53466  0.62011  0.51151  1.0000
  H   H3907     1.0  0.65000  0.50744  0.52952  1.0000
  C   C2212     1.0  0.60284  0.37195  0.54978  1.0000
  H   H3908     1.0  0.52979  0.36746  0.56950  1.0000
  H   H3909     1.0  0.63210  0.39555  0.55288  1.0000
  Fe  Fe250     1.0  0.67239  0.33640  0.51753  1.0000
  C   C2213     1.0  0.50897  0.36052  0.73804  1.0000
  H   H3910     1.0  0.49761  0.39509  0.62483  1.0000
  H   H3911     1.0  0.63419  0.43084  0.50881  1.0000
  C   C2214     1.0  0.50221  0.44272  0.66479  1.0000
  H   H3912     1.0  0.53233  0.64345  0.57634  1.0000
  H   H3913     1.0  0.50591  0.35990  0.72276  1.0000
  C   C2215     1.0  0.52138  0.63473  0.57197  1.0000
  C   C2216     1.0  0.60292  0.39424  0.54423  1.0000
  H   H3914     1.0  0.50303  0.40102  0.69620  1.0000
  H   H3915     1.0  0.57144  0.36647  0.73205  1.0000
  H   H3916     1.0  0.52485  0.61919  0.57784  1.0000
  H   H3917     1.0  0.60728  0.36307  0.51422  1.0000
  H   H3918     1.0  0.60851  0.39723  0.52855  1.0000
  C   C2217     1.0  0.64583  0.36587  0.58544  1.0000
  C   C2218     1.0  0.64039  0.34901  0.57927  1.0000
  C   C2219     1.0  0.62339  0.34097  0.58835  1.0000
  C   C2220     1.0  0.61135  0.34995  0.60334  1.0000
  C   C2221     1.0  0.61687  0.36666  0.60979  1.0000
  C   C2222     1.0  0.63418  0.37452  0.60093  1.0000
  H   H3919     1.0  0.64920  0.34221  0.56739  1.0000
  H   H3920     1.0  0.52705  0.34722  0.49505  1.0000
  H   H3921     1.0  0.60768  0.37368  0.62136  1.0000
  H   H3922     1.0  0.63834  0.38756  0.60579  1.0000
  H   H3923     1.0  0.72740  0.44620  0.51329  1.0000
  H   H3924     1.0  0.52824  0.45904  0.70518  1.0000
  H   H3925     1.0  0.51020  0.44923  0.65162  1.0000
  C   C2223     1.0  0.58083  0.38220  0.50768  1.0000
  C   C2224     1.0  0.53739  0.42923  0.71688  1.0000
  H   H3926     1.0  0.66967  0.47668  0.52223  1.0000
  N   N121      1.0  0.55246  0.39351  0.72634  1.0000
  H   H3927     1.0  0.59384  0.39496  0.71674  1.0000
  H   H3928     1.0  0.51931  0.65243  0.54446  1.0000
  H   H3929     1.0  0.59873  0.35593  0.69872  1.0000
  C   C2225     1.0  0.56815  0.37771  0.71956  1.0000
  S   S500      1.0  0.66403  0.36830  0.51993  1.0000
  H   H3930     1.0  0.67450  0.43885  0.51569  1.0000
  H   H3931     1.0  0.56399  0.38597  0.54260  1.0000
  C   C2226     1.0  0.53672  0.34548  0.50699  1.0000
  H   H3932     1.0  0.63256  0.50406  0.51313  1.0000
  H   H3933     1.0  0.54706  0.35680  0.50367  1.0000
  S   S501      1.0  0.53109  0.41165  0.66196  1.0000
  H   H3934     1.0  0.56287  0.35368  0.57765  1.0000
  H   H3935     1.0  0.53872  0.43363  0.73153  1.0000
  H   H3936     1.0  0.55087  0.40816  0.69707  1.0000
  H   H3937     1.0  0.56263  0.36958  0.70874  1.0000
  N   N122      1.0  0.50396  0.62731  0.52156  1.0000
  C   C2227     1.0  0.65044  0.46754  0.50288  1.0000
  H   H3938     1.0  0.53859  0.32853  0.58621  1.0000
  C   C2228     1.0  0.61682  0.40260  0.55588  1.0000
  C   C2229     1.0  0.65930  0.48356  0.51167  1.0000
  H   H3939     1.0  0.61938  0.32786  0.58357  1.0000
  N   N123      1.0  0.58775  0.36222  0.54143  1.0000
  Fe  Fe251     1.0  0.69294  0.37234  0.50155  1.0000
  C   C2230     1.0  0.52981  0.36592  0.73844  1.0000
  H   H3940     1.0  0.59002  0.33876  0.56528  1.0000
  H   H3941     1.0  0.60695  0.35966  0.72171  1.0000
  H   H3942     1.0  0.62986  0.39871  0.49777  1.0000
  H   H3943     1.0  0.58810  0.40222  0.54717  1.0000
  H   H3944     1.0  0.58584  0.35127  0.51367  1.0000
  H   H3945     1.0  0.52969  0.38503  0.71125  1.0000
  H   H3946     1.0  0.61744  0.37192  0.69897  1.0000
  H   H3947     1.0  0.56465  0.38171  0.50956  1.0000
  H   H3948     1.0  0.50652  0.64027  0.57859  1.0000
  C   C2231     1.0  0.56105  0.36897  0.57068  1.0000
  C   C2232     1.0  0.58792  0.38428  0.70903  1.0000
  H   H3949     1.0  0.53916  0.44348  0.68682  1.0000
  H   H3950     1.0  0.57473  0.42058  0.73933  1.0000
  H   H3951     1.0  0.61680  0.41857  0.55152  1.0000
  H   H3952     1.0  0.58570  0.39132  0.69400  1.0000
  C   C2233     1.0  0.52223  0.63672  0.54962  1.0000
  H   H3953     1.0  0.56741  0.41747  0.71010  1.0000
  H   H3954     1.0  0.58360  0.39609  0.51260  1.0000
  H   H3955     1.0  0.53753  0.63170  0.54372  1.0000
  H   H3956     1.0  0.65688  0.41554  0.50387  1.0000
  H   H3957     1.0  0.53647  0.39208  0.56915  1.0000
  H   H3958     1.0  0.61030  0.32916  0.52469  1.0000
  S   S502      1.0  0.70038  0.34027  0.49811  1.0000
  C   C2234     1.0  0.60368  0.36685  0.70703  1.0000
  H   H3959     1.0  0.57003  0.37784  0.57769  1.0000
  H   H3960     1.0  0.61205  0.40024  0.57187  1.0000
  H   H3961     1.0  0.60123  0.36910  0.56604  1.0000
  C   C2235     1.0  0.55287  0.41177  0.71194  1.0000
  H   H3962     1.0  0.52221  0.42554  0.71666  1.0000
  H   H3963     1.0  0.71657  0.42473  0.50951  1.0000
  C   C2236     1.0  0.50878  0.42373  0.67280  1.0000
  C   C2237     1.0  0.50764  0.62409  0.54293  1.0000
  C   C2238     1.0  0.53940  0.37659  0.57540  1.0000
  H   H3964     1.0  0.53562  0.37571  0.59156  1.0000
  C   C2239     1.0  0.56695  0.37031  0.54814  1.0000
  H   H3965     1.0  0.64410  0.45803  0.51565  1.0000
  H   H3966     1.0  0.51401  0.60870  0.54678  1.0000
  C   C2240     1.0  0.71328  0.43976  0.51402  1.0000
  H   H3967     1.0  0.52059  0.39665  0.73267  1.0000
  H   H3968     1.0  0.55454  0.45249  0.70240  1.0000
  H   H3969     1.0  0.51152  0.59723  0.51521  1.0000
  C   C2241     1.0  0.60909  0.32850  0.54088  1.0000
  C   C2242     1.0  0.49840  0.60840  0.51599  1.0000
  H   H3970     1.0  0.52788  0.64544  0.51226  1.0000
  H   H3971     1.0  0.70627  0.43892  0.52942  1.0000
  C   C2243     1.0  0.68031  0.44334  0.50023  1.0000
  H   H3972     1.0  0.50352  0.39403  0.53921  1.0000
  C   C2244     1.0  0.53262  0.38614  0.72655  1.0000
  H   H3973     1.0  0.52755  0.34790  0.52106  1.0000
  H   H3974     1.0  0.65731  0.32992  0.61611  1.0000
  S   S503      1.0  0.68649  0.33090  0.54546  1.0000
  H   H3975     1.0  0.63527  0.48726  0.53515  1.0000
  C   C2245     1.0  0.64471  0.42479  0.49701  1.0000
  H   H3976     1.0  0.69734  0.46737  0.50506  1.0000
  H   H3977     1.0  0.66697  0.49342  0.50018  1.0000
  S   S504      1.0  0.50059  0.32887  0.65069  1.0000
  H   H3978     1.0  0.50005  0.37042  0.55258  1.0000
  H   H3979     1.0  0.53475  0.32894  0.62210  1.0000
  H   H3980     1.0  0.88317  0.33368  0.73973  1.0000
  C   C2246     1.0  0.52206  0.32769  0.61477  1.0000
  C   C2247     1.0  0.52429  0.32730  0.59442  1.0000
  H   H3981     1.0  0.63755  0.47455  0.49537  1.0000
  C   C2248     1.0  0.50357  0.32643  0.62551  1.0000
  S   S505      1.0  0.51106  0.32638  0.55905  1.0000
  H   H3982     1.0  0.68509  0.42941  0.49361  1.0000
  H   H3983     1.0  0.80344  0.44103  0.90017  1.0000
  Fe  Fe252     1.0  0.93700  0.36507  0.81915  1.0000
  S   S506      1.0  0.92521  0.38649  0.79526  1.0000
  S   S507      1.0  0.92441  0.35807  0.85072  1.0000
  Fe  Fe253     1.0  0.97234  0.35134  0.79172  1.0000
  S   S508      1.0  0.96337  0.37170  0.76576  1.0000
  H   H3984     1.0  0.89804  0.34447  0.88346  1.0000
  Fe  Fe254     1.0  0.95670  0.39420  0.78767  1.0000
  H   H3985     1.0  0.93131  0.33908  0.96044  1.0000
  Fe  Fe255     1.0  0.93323  0.36174  0.77595  1.0000
  S   S509      1.0  0.96753  0.37400  0.81284  1.0000
  S   S510      1.0  0.94319  0.34021  0.80053  1.0000
  Fe  Fe256     1.0  0.80507  0.37225  0.94968  1.0000
  S   S511      1.0  0.83607  0.37113  0.93518  1.0000
  S   S512      1.0  0.79636  0.38894  0.97707  1.0000
  Fe  Fe257     1.0  0.79623  0.33879  0.92581  1.0000
  H   H3986     1.0  0.97276  0.51447  0.75959  1.0000
  H   H3987     1.0  0.85100  0.45825  0.94148  1.0000
  Fe  Fe258     1.0  0.83650  0.33871  0.93933  1.0000
  H   H3988     1.0  0.97286  0.56284  0.78359  1.0000
  Fe  Fe259     1.0  0.82356  0.36889  0.90726  1.0000
  S   S513      1.0  0.83557  0.38652  0.87960  1.0000
  S   S514      1.0  0.80635  0.33929  0.95557  1.0000
  S   S515      1.0  0.79197  0.37204  0.92113  1.0000
  C   C2249     1.0  0.96695  0.55381  0.79688  1.0000
  H   H3989     1.0  0.88435  0.45036  0.95321  1.0000
  H   H3990     1.0  0.83850  0.33918  0.79840  1.0000
  H   H3991     1.0  0.58499  0.41993  0.77228  1.0000
  C   C2250     1.0  0.87176  0.41337  0.92718  1.0000
  C   C2251     1.0  0.82834  0.43847  0.91715  1.0000
  H   H3992     1.0  0.94147  0.55683  0.81886  1.0000
  H   H3993     1.0  0.86747  0.39829  0.93064  1.0000
  H   H3994     1.0  0.98422  0.49525  0.84693  1.0000
  H   H3995     1.0  0.83431  0.36489  0.79774  1.0000
  H   H3996     1.0  0.53202  0.36597  0.75404  1.0000
  S   S516      1.0  0.91105  0.35155  0.75796  1.0000
  C   C2252     1.0  0.87605  0.33391  0.80561  1.0000
  H   H3997     1.0  0.88189  0.48117  0.97780  1.0000
  H   H3998     1.0  0.90094  0.34106  0.81967  1.0000
  H   H3999     1.0  0.50748  0.34588  0.74631  1.0000
  C   C2253     1.0  0.57145  0.41340  0.77045  1.0000
  C   C2254     1.0  0.55455  0.39750  0.74693  1.0000
  C   C2255     1.0  0.98470  0.61263  0.90453  1.0000
  C   C2256     1.0  0.97774  0.50575  0.77304  1.0000
  C   C2257     1.0  0.89976  0.36633  0.85847  1.0000
  C   C2258     1.0  0.88964  0.38242  0.84834  1.0000
  C   C2259     1.0  0.86996  0.38866  0.85494  1.0000
  C   C2260     1.0  0.86035  0.37885  0.87171  1.0000
  C   C2261     1.0  0.87058  0.36294  0.88196  1.0000
  C   C2262     1.0  0.89023  0.35676  0.87539  1.0000
  H   H4000     1.0  0.89713  0.39021  0.83564  1.0000
  H   H4001     1.0  0.86222  0.40117  0.84714  1.0000
  H   H4002     1.0  0.86342  0.35543  0.89504  1.0000
  H   H4003     1.0  0.49789  0.37138  0.74497  1.0000
  C   C2263     1.0  0.89832  0.37060  0.96247  1.0000
  H   H4004     1.0  0.97186  0.62111  0.89802  1.0000
  C   C2264     1.0  0.99487  0.34332  0.89323  1.0000
  C   C2265     1.0  0.85285  0.35280  0.82885  1.0000
  C   C2266     1.0  0.88572  0.35220  0.93991  1.0000
  C   C2267     1.0  0.89634  0.36730  0.94328  1.0000
  H   H4005     1.0  0.93667  0.56645  0.79410  1.0000
  H   H4006     1.0  0.95369  0.52645  0.80388  1.0000
  H   H4007     1.0  0.88407  0.34976  0.92506  1.0000
  H   H4008     1.0  0.90311  0.37633  0.93105  1.0000
  H   H4009     1.0  0.90105  0.47658  0.93369  1.0000
  C   C2268     1.0  0.79937  0.41257  0.98362  1.0000
  C   C2269     1.0  0.79149  0.42981  0.97330  1.0000
  H   H4010     1.0  0.87206  0.33488  0.98715  1.0000
  H   H4011     1.0  0.82545  0.36930  0.76317  1.0000
  H   H4012     1.0  0.78463  0.42900  0.96021  1.0000
  S   S517      1.0  0.91070  0.39007  0.96675  1.0000
  H   H4013     1.0  0.94485  0.43466  0.98460  1.0000
  H   H4014     1.0  0.93463  0.37521  0.90042  1.0000
  H   H4015     1.0  0.96818  0.47527  0.75500  1.0000
  C   C2270     1.0  0.88287  0.45262  0.93728  1.0000
  C   C2271     1.0  0.96501  0.38100  0.89099  1.0000
  H   H4016     1.0  0.55525  0.38364  0.75691  1.0000
  H   H4017     1.0  0.88670  0.41240  0.93210  1.0000
  C   C2272     1.0  0.98711  0.50639  0.80581  1.0000
  C   C2273     1.0  0.96953  0.36486  0.87685  1.0000
  H   H4018     1.0  0.95338  0.32813  0.94752  1.0000
  H   H4019     1.0  0.57000  0.40053  0.78162  1.0000
  S   S518      1.0  0.82685  0.33605  0.91012  1.0000
  H   H4020     1.0  0.94735  0.49389  0.75397  1.0000
  H   H4021     1.0  0.94878  0.49914  0.78850  1.0000
  C   C2274     1.0  0.57290  0.40727  0.74975  1.0000
  H   H4022     1.0  0.88417  0.40715  0.80627  1.0000
  H   H4023     1.0  0.58626  0.39667  0.74798  1.0000
  H   H4024     1.0  0.98327  0.33333  0.89802  1.0000
  C   C2275     1.0  0.96374  0.53323  0.79175  1.0000
  H   H4025     1.0  0.95024  0.57958  0.80793  1.0000
  H   H4026     1.0  0.84067  0.35627  0.74478  1.0000
  N   N124      1.0  0.86212  0.35228  0.80794  1.0000
  C   C2276     1.0  0.98656  0.58852  0.87933  1.0000
  H   H4027     1.0  0.85103  0.39111  0.78926  1.0000
  C   C2277     1.0  0.83532  0.35569  0.76066  1.0000
  C   C2278     1.0  0.88994  0.35861  0.97830  1.0000
  H   H4028     1.0  0.54119  0.40654  0.75297  1.0000
  N   N125      1.0  0.85758  0.42749  0.93843  1.0000
  H   H4029     1.0  0.86517  0.42080  0.79299  1.0000
  H   H4030     1.0  0.88410  0.37019  0.81328  1.0000
  H   H4031     1.0  0.78460  0.46117  0.97268  1.0000
  H   H4032     1.0  0.82505  0.45400  0.92020  1.0000
  H   H4033     1.0  0.95497  0.53607  0.77897  1.0000
  C   C2279     1.0  0.85287  0.35396  0.77254  1.0000
  C   C2280     1.0  0.93357  0.44004  0.97444  1.0000
  C   C2281     1.0  0.80926  0.43151  0.91275  1.0000
  C   C2282     1.0  0.85958  0.42205  0.96004  1.0000
  H   H4034     1.0  0.89265  0.40770  0.87920  1.0000
  H   H4035     1.0  0.90696  0.45930  0.97334  1.0000
  C   C2283     1.0  0.83513  0.33590  0.85943  1.0000
  H   H4036     1.0  0.93754  0.39354  0.87955  1.0000
  H   H4037     1.0  0.90525  0.40928  0.90017  1.0000
  C   C2284     1.0  0.91724  0.45371  0.98430  1.0000
  H   H4038     1.0  0.89466  0.44303  0.92959  1.0000
  H   H4039     1.0  0.96492  0.65845  0.91781  1.0000
  H   H4040     1.0  0.97262  0.39406  0.88504  1.0000
  H   H4041     1.0  0.88455  0.33491  0.79080  1.0000
  C   C2285     1.0  0.98730  0.43642  0.78331  1.0000
  H   H4042     1.0  0.86055  0.41259  0.89905  1.0000
  C   C2286     1.0  0.86219  0.44838  0.93330  1.0000
  C   C2287     1.0  0.83652  0.42596  0.93519  1.0000
  H   H4043     1.0  0.97751  0.55315  0.80783  1.0000
  C   C2288     1.0  0.94297  0.38763  0.89383  1.0000
  C   C2289     1.0  0.84605  0.35270  0.79487  1.0000
  H   H4044     1.0  0.82577  0.34979  0.86208  1.0000
  H   H4045     1.0  0.84214  0.36607  0.83027  1.0000
  H   H4046     1.0  0.79796  0.43213  0.92565  1.0000
  H   H4047     1.0  0.98029  0.52700  0.82808  1.0000
  H   H4048     1.0  0.85254  0.39295  0.81476  1.0000
  H   H4049     1.0  0.88358  0.40437  0.78061  1.0000
  H   H4050     1.0  0.82686  0.34284  0.76473  1.0000
  C   C2290     1.0  0.86126  0.39007  0.80062  1.0000
  H   H4051     1.0  0.96820  0.47927  0.79070  1.0000
  C   C2291     1.0  0.85040  0.48173  0.97972  1.0000
  H   H4052     1.0  0.81203  0.41624  0.90880  1.0000
  C   C2292     1.0  0.85271  0.40207  0.96921  1.0000
  H   H4053     1.0  0.85111  0.43345  0.96876  1.0000
  H   H4054     1.0  0.87523  0.43258  0.89904  1.0000
  H   H4055     1.0  0.87500  0.48409  0.93773  1.0000
  H   H4056     1.0  0.82629  0.43044  0.94805  1.0000
  S   S519      1.0  0.96430  0.42621  0.78472  1.0000
  H   H4057     1.0  0.92748  0.42733  0.96996  1.0000
  H   H4058     1.0  0.83439  0.41052  0.93433  1.0000
  H   H4059     1.0  0.95951  0.35349  0.88246  1.0000
  C   C2293     1.0  0.88634  0.47385  0.93025  1.0000
  H   H4060     1.0  0.83879  0.43807  0.90370  1.0000
  H   H4061     1.0  0.96602  0.32890  0.86475  1.0000
  H   H4062     1.0  0.98634  0.39236  0.85134  1.0000
  C   C2294     1.0  0.87363  0.36973  0.80239  1.0000
  C   C2295     1.0  0.79132  0.44807  0.98055  1.0000
  H   H4063     1.0  0.86071  0.45353  0.91769  1.0000
  H   H4064     1.0  0.97838  0.60077  0.91484  1.0000
  H   H4065     1.0  0.94086  0.44803  0.96113  1.0000
  H   H4066     1.0  0.83685  0.40174  0.96827  1.0000
  C   C2296     1.0  0.99319  0.34357  0.85735  1.0000
  H   H4067     1.0  0.89081  0.38916  0.89984  1.0000
  H   H4068     1.0  0.86076  0.38981  0.96169  1.0000
  N   N126      1.0  0.98193  0.51914  0.78743  1.0000
  H   H4069     1.0  0.88322  0.36831  0.78833  1.0000
  H   H4070     1.0  0.88592  0.47682  0.91413  1.0000
  C   C2297     1.0  0.87363  0.41712  0.90453  1.0000
  C   C2298     1.0  0.87715  0.34036  0.95577  1.0000
  H   H4071     1.0  0.87522  0.42134  0.96291  1.0000
  N   N127      1.0  0.99464  0.62553  0.91546  1.0000
  H   H4072     1.0  0.84824  0.33476  0.86757  1.0000
  H   H4073     1.0  0.96449  0.37110  0.86245  1.0000
  H   H4074     1.0  0.83745  0.48260  0.99103  1.0000
  H   H4075     1.0  0.94017  0.39925  0.90388  1.0000
  C   C2299     1.0  0.94759  0.56478  0.80492  1.0000
  C   C2300     1.0  0.89171  0.40502  0.89544  1.0000
  C   C2301     1.0  0.87442  0.40653  0.79476  1.0000
  C   C2302     1.0  0.96197  0.49155  0.78059  1.0000
  H   H4076     1.0  0.96969  0.37570  0.90566  1.0000
  C   C2303     1.0  0.95533  0.48252  0.76373  1.0000
  H   H4077     1.0  0.97459  0.49820  0.81250  1.0000
  H   H4078     1.0  0.86414  0.35425  0.83865  1.0000
  H   H4079     1.0  0.98317  0.37583  0.96170  1.0000
  H   H4080     1.0  0.97247  0.59567  0.87426  1.0000
  N   N128      1.0  0.99064  0.35572  0.87437  1.0000
  C   C2304     1.0  0.98027  0.63165  0.93255  1.0000
  H   H4081     1.0  0.98774  0.63945  0.94215  1.0000
  H   H4082     1.0  0.84963  0.46926  0.97137  1.0000
  H   H4083     1.0  0.97506  0.61867  0.94195  1.0000
  H   H4084     1.0  0.84952  0.49550  0.96963  1.0000
  H   H4085     1.0  0.86112  0.36676  0.76743  1.0000
  C   C2305     1.0  0.87911  0.34370  0.97493  1.0000
  C   C2306     1.0  0.98483  0.65540  0.98379  1.0000
  C   C2307     1.0  0.84145  0.33517  0.83756  1.0000
  H   H4086     1.0  0.86252  0.34054  0.76902  1.0000
  H   H4087     1.0  0.98646  0.43806  0.81436  1.0000
  H   H4088     1.0  0.95205  0.63702  0.91972  1.0000
  C   C2308     1.0  0.94897  0.65132  0.94586  1.0000
  H   H4089     1.0  0.98332  0.54803  0.75604  1.0000
  H   H4090     1.0  0.98855  0.64859  0.89205  1.0000
  C   C2309     1.0  0.89151  0.32902  0.82052  1.0000
  H   H4091     1.0  0.55860  0.42452  0.77300  1.0000
  C   C2310     1.0  0.96137  0.64496  0.92733  1.0000
  H   H4092     1.0  0.99422  0.35268  0.90534  1.0000
  H   H4093     1.0  0.87185  0.44750  0.99228  1.0000
  H   H4094     1.0  0.99583  0.58251  0.86663  1.0000
  H   H4095     1.0  0.98812  0.35256  0.84410  1.0000
  C   C2311     1.0  0.99370  0.44255  0.80001  1.0000
  C   C2312     1.0  0.86947  0.47933  0.98940  1.0000
  C   C2313     1.0  0.99644  0.44312  0.76487  1.0000
  H   H4096     1.0  0.94531  0.47127  0.76972  1.0000
  H   H4097     1.0  0.82790  0.33540  0.83029  1.0000
  C   C2314     1.0  0.85620  0.39809  0.99085  1.0000
  H   H4098     1.0  0.88443  0.32659  0.83580  1.0000
  C   C2315     1.0  0.99280  0.51677  0.82256  1.0000
  H   H4099     1.0  0.99135  0.43923  0.75181  1.0000
  H   H4100     1.0  0.94499  0.63839  0.95611  1.0000
  H   H4101     1.0  0.98356  0.57615  0.89072  1.0000
  C   C2316     1.0  0.91173  0.32765  0.75028  1.0000
  H   H4102     1.0  0.92431  0.46602  0.98829  1.0000
  H   H4103     1.0  0.99149  0.49662  0.76799  1.0000
  H   H4104     1.0  0.87218  0.39681  0.99239  1.0000
  H   H4105     1.0  0.89129  0.36123  0.99317  1.0000
  C   C2317     1.0  0.99187  0.63687  0.99226  1.0000
  Fe  Fe260     1.0  0.64031  0.94348  0.07599  1.0000
  S   S520      1.0  0.67300  0.93681  0.07016  1.0000
  S   S521      1.0  0.62343  0.96725  0.09231  1.0000
  Fe  Fe261     1.0  0.63145  0.91105  0.05344  1.0000
  S   S522      1.0  0.66353  0.90187  0.04535  1.0000
  S   S523      1.0  0.60447  0.90073  0.04417  1.0000
  Fe  Fe262     1.0  0.66692  0.90531  0.07687  1.0000
  S   S524      1.0  0.68014  0.88035  0.09747  1.0000
  Fe  Fe263     1.0  0.66652  0.93435  0.03934  1.0000
  S   S525      1.0  0.68485  0.94961  0.01358  1.0000
  S   S526      1.0  0.63443  0.91244  0.08506  1.0000
  S   S527      1.0  0.63427  0.94301  0.04510  1.0000
  Fe  Fe264     1.0  0.51323  0.80799  0.07866  1.0000
  H   H4106     1.0  0.51392  0.93263  0.06405  1.0000
  H   H4107     1.0  0.97490  0.71136  0.11520  1.0000
  Fe  Fe265     1.0  0.55518  0.80263  0.05905  1.0000
  S   S528      1.0  0.55228  0.77127  0.05530  1.0000
  S   S529      1.0  0.58581  0.81248  0.05186  1.0000
  Fe  Fe266     1.0  0.52205  0.78217  0.04586  1.0000
  H   H4108     1.0  0.57485  0.73995  0.21189  1.0000
  Fe  Fe267     1.0  0.53798  0.76956  0.08659  1.0000
  S   S530      1.0  0.54571  0.74529  0.11092  1.0000
  S   S531      1.0  0.52631  0.81372  0.04744  1.0000
  S   S532      1.0  0.54231  0.80021  0.09052  1.0000
  H   H4109     1.0  0.62277  0.91900  0.13391  1.0000
  S   S533      1.0  0.72580  0.83640  0.19313  1.0000
  C   C2318     1.0  0.51365  0.88434  0.10038  1.0000
  S   S534      1.0  0.76880  0.84946  0.19747  1.0000
  Fe  Fe268     1.0  0.73970  0.86431  0.18879  1.0000
  S   S535      1.0  0.73655  0.88711  0.16236  1.0000
  H   H4110     1.0  0.76966  0.67436  0.19775  1.0000
  H   H4111     1.0  0.54864  0.74655  0.21351  1.0000
  H   H4112     1.0  0.60987  0.70503  0.12635  1.0000
  H   H4113     1.0  0.57975  0.71845  0.10500  1.0000
  S   S536      1.0  0.86382  0.70768  0.19438  1.0000
  Fe  Fe269     1.0  0.89646  0.70064  0.19407  1.0000
  S   S537      1.0  0.91305  0.67882  0.17421  1.0000
  H   H4114     1.0  0.65600  0.85111  0.13509  1.0000
  C   C2319     1.0  0.65675  0.98024  0.10225  1.0000
  S   S538      1.0  0.51979  0.97982  0.15039  1.0000
  S   S539      1.0  0.64970  0.73305  0.19541  1.0000
  H   H4115     1.0  0.66500  0.97229  0.09085  1.0000
  S   S540      1.0  0.61768  0.70090  0.20422  1.0000
  Fe  Fe270     1.0  0.65053  0.70062  0.20331  1.0000
  C   C2320     1.0  0.85120  0.78806  0.23122  1.0000
  Fe  Fe271     1.0  0.61669  0.73370  0.19888  1.0000
  S   S541      1.0  0.60097  0.75523  0.17638  1.0000
  C   C2321     1.0  0.97641  0.70182  0.14618  1.0000
  H   H4116     1.0  0.50254  0.70317  0.21948  1.0000
  H   H4117     1.0  0.95532  0.74336  0.20924  1.0000
  H   H4118     1.0  0.56615  0.88484  0.09311  1.0000
  H   H4119     1.0  0.50182  0.94257  0.04271  1.0000
  H   H4120     1.0  0.60465  0.95355  0.13193  1.0000
  H   H4121     1.0  0.63453  0.88490  0.15704  1.0000
  H   H4122     1.0  0.87025  0.70979  0.09117  1.0000
  C   C2322     1.0  0.87571  0.74229  0.13811  1.0000
  C   C2323     1.0  0.57921  0.70818  0.07679  1.0000
  C   C2324     1.0  0.92112  0.66331  0.11886  1.0000
  S   S542      1.0  0.50752  0.77718  0.07685  1.0000
  H   H4123     1.0  0.95200  0.71695  0.18590  1.0000
  H   H4124     1.0  0.56679  0.85866  0.09481  1.0000
  C   C2325     1.0  0.68592  0.89473  0.99509  1.0000
  N   N129      1.0  0.75294  0.66582  0.22553  1.0000
  H   H4125     1.0  0.69845  0.73230  0.14148  1.0000
  H   H4126     1.0  0.99276  0.68069  0.03998  1.0000
  H   H4127     1.0  0.81896  0.81291  0.21748  1.0000
  C   C2326     1.0  0.99688  0.67471  0.02569  1.0000
  H   H4128     1.0  0.98206  0.74030  0.20594  1.0000
  C   C2327     1.0  0.91413  0.68024  0.14833  1.0000
  H   H4129     1.0  0.78682  0.75392  0.20384  1.0000
  C   C2328     1.0  0.83205  0.66393  0.23144  1.0000
  C   C2329     1.0  0.91649  0.68068  0.10705  1.0000
  C   C2330     1.0  0.91076  0.69798  0.11602  1.0000
  C   C2331     1.0  0.90947  0.69773  0.13663  1.0000
  C   C2332     1.0  0.50641  0.68772  0.22547  1.0000
  H   H4130     1.0  0.63548  0.97730  0.19701  1.0000
  H   H4131     1.0  0.54778  0.97118  0.08731  1.0000
  H   H4132     1.0  0.90543  0.71104  0.14347  1.0000
  H   H4133     1.0  0.99153  0.69449  0.14289  1.0000
  C   C2333     1.0  0.79686  0.76474  0.19847  1.0000
  C   C2334     1.0  0.82586  0.85016  0.20911  1.0000
  N   N130      1.0  0.68415  0.94180  0.17040  1.0000
  C   C2335     1.0  0.70439  0.70210  0.22843  1.0000
  H   H4134     1.0  0.66734  0.95002  0.19730  1.0000
  C   C2336     1.0  0.80244  0.79830  0.18717  1.0000
  S   S543      1.0  0.74393  0.82723  0.23586  1.0000
  H   H4135     1.0  0.84961  0.79805  0.21756  1.0000
  H   H4136     1.0  0.66978  0.98229  0.18146  1.0000
  H   H4137     1.0  0.52976  0.93341  0.16698  1.0000
  H   H4138     1.0  0.63675  0.72460  0.07591  1.0000
  H   H4139     1.0  0.56018  0.72791  0.19825  1.0000
  H   H4140     1.0  0.62451  0.75909  0.07266  1.0000
  C   C2337     1.0  0.52402  0.87134  0.08782  1.0000
  C   C2338     1.0  0.51688  0.85358  0.08627  1.0000
  H   H4141     1.0  0.53738  0.87513  0.07899  1.0000
  H   H4142     1.0  0.52490  0.84367  0.07642  1.0000
  C   C2339     1.0  0.56065  0.74822  0.12946  1.0000
  C   C2340     1.0  0.56693  0.76632  0.13126  1.0000
  C   C2341     1.0  0.57900  0.76812  0.14585  1.0000
  C   C2342     1.0  0.58536  0.75183  0.15863  1.0000
  C   C2343     1.0  0.57924  0.73364  0.15679  1.0000
  C   C2344     1.0  0.56678  0.73191  0.14242  1.0000
  H   H4143     1.0  0.56240  0.77901  0.12153  1.0000
  H   H4144     1.0  0.58339  0.78230  0.14727  1.0000
  H   H4145     1.0  0.58403  0.72094  0.16648  1.0000
  H   H4146     1.0  0.56202  0.71782  0.14121  1.0000
  H   H4147     1.0  0.55221  0.70299  0.09586  1.0000
  S   S544      1.0  0.67442  0.68185  0.18630  1.0000
  C   C2345     1.0  0.68071  0.88736  0.19314  1.0000
  H   H4148     1.0  0.70328  0.91458  0.17347  1.0000
  C   C2346     1.0  0.72164  0.94528  0.16328  1.0000
  C   C2347     1.0  0.69592  0.88261  0.11530  1.0000
  C   C2348     1.0  0.70623  0.89894  0.11454  1.0000
  C   C2349     1.0  0.71888  0.89994  0.12887  1.0000
  C   C2350     1.0  0.72096  0.88491  0.14433  1.0000
  C   C2351     1.0  0.71057  0.86864  0.14512  1.0000
  C   C2352     1.0  0.69835  0.86738  0.13052  1.0000
  H   H4149     1.0  0.70473  0.91062  0.10273  1.0000
  H   H4150     1.0  0.72710  0.91244  0.12795  1.0000
  H   H4151     1.0  0.71210  0.85692  0.15684  1.0000
  H   H4152     1.0  0.69074  0.85454  0.13106  1.0000
  C   C2353     1.0  0.59940  0.87612  0.04777  1.0000
  C   C2354     1.0  0.61446  0.86072  0.04932  1.0000
  C   C2355     1.0  0.61001  0.84125  0.05080  1.0000
  C   C2356     1.0  0.59048  0.83707  0.05116  1.0000
  C   C2357     1.0  0.57537  0.85247  0.05022  1.0000
  C   C2358     1.0  0.57987  0.87194  0.04828  1.0000
  H   H4153     1.0  0.62956  0.86381  0.04877  1.0000
  H   H4154     1.0  0.62175  0.82938  0.05136  1.0000
  H   H4155     1.0  0.56029  0.84939  0.05046  1.0000
  H   H4156     1.0  0.56815  0.88380  0.04708  1.0000
  C   C2359     1.0  0.55144  0.97717  0.10042  1.0000
  N   N131      1.0  0.83860  0.73998  0.13565  1.0000
  C   C2360     1.0  0.83705  0.72696  0.15485  1.0000
  C   C2361     1.0  0.85499  0.75277  0.13521  1.0000
  C   C2362     1.0  0.81959  0.75343  0.13510  1.0000
  C   C2363     1.0  0.84168  0.72855  0.11796  1.0000
  C   C2364     1.0  0.85359  0.70792  0.12022  1.0000
  C   C2365     1.0  0.81832  0.71597  0.15927  1.0000
  C   C2366     1.0  0.81899  0.77009  0.11793  1.0000
  C   C2367     1.0  0.55441  0.66827  0.22518  1.0000
  H   H4157     1.0  0.64493  0.78509  0.22929  1.0000
  C   C2368     1.0  0.86003  0.70023  0.10034  1.0000
  C   C2369     1.0  0.82021  0.69944  0.17598  1.0000
  C   C2370     1.0  0.79824  0.78079  0.11739  1.0000
  H   H4158     1.0  0.83729  0.73575  0.16726  1.0000
  H   H4159     1.0  0.85005  0.71594  0.15583  1.0000
  H   H4160     1.0  0.85686  0.76197  0.12088  1.0000
  H   H4161     1.0  0.85107  0.76320  0.14648  1.0000
  H   H4162     1.0  0.81606  0.76047  0.14902  1.0000
  H   H4163     1.0  0.80707  0.74494  0.13417  1.0000
  H   H4164     1.0  0.82730  0.72610  0.11338  1.0000
  H   H4165     1.0  0.84892  0.73730  0.10507  1.0000
  H   H4166     1.0  0.84441  0.69727  0.12917  1.0000
  H   H4167     1.0  0.86698  0.70775  0.12757  1.0000
  H   H4168     1.0  0.80537  0.72629  0.16384  1.0000
  H   H4169     1.0  0.81523  0.70966  0.14611  1.0000
  H   H4170     1.0  0.82366  0.76424  0.10362  1.0000
  H   H4171     1.0  0.82880  0.78119  0.11978  1.0000
  H   H4172     1.0  0.53381  0.82514  0.15610  1.0000
  H   H4173     1.0  0.63981  0.82380  0.13425  1.0000
  N   N132      1.0  0.97116  0.68994  0.18361  1.0000
  C   C2371     1.0  0.61130  0.92408  0.14547  1.0000
  H   H4174     1.0  0.65567  0.82087  0.10383  1.0000
  H   H4175     1.0  0.86801  0.68531  0.10254  1.0000
  H   H4176     1.0  0.84708  0.69944  0.09245  1.0000
  H   H4177     1.0  0.82177  0.70540  0.18986  1.0000
  H   H4178     1.0  0.59781  0.69884  0.09939  1.0000
  H   H4179     1.0  0.54246  0.91382  0.13742  1.0000
  H   H4180     1.0  0.79319  0.78709  0.13144  1.0000
  H   H4181     1.0  0.79831  0.79296  0.10531  1.0000
  H   H4182     1.0  0.78772  0.77068  0.11478  1.0000
  C   C2372     1.0  0.62198  0.71332  0.11875  1.0000
  C   C2373     1.0  0.63298  0.71925  0.13466  1.0000
  H   H4183     1.0  0.62524  0.74144  0.10232  1.0000
  H   H4184     1.0  0.63234  0.70346  0.10981  1.0000
  H   H4185     1.0  0.64597  0.72674  0.12801  1.0000
  H   H4186     1.0  0.61805  0.88232  0.99935  1.0000
  H   H4187     1.0  0.63819  0.70601  0.14421  1.0000
  C   C2374     1.0  0.64750  0.87745  0.14865  1.0000
  N   N133      1.0  0.71023  0.77640  0.17428  1.0000
  C   C2375     1.0  0.69038  0.78831  0.17366  1.0000
  C   C2376     1.0  0.81622  0.82011  0.23121  1.0000
  H   H4188     1.0  0.83274  0.80331  0.17856  1.0000
  C   C2377     1.0  0.72675  0.78851  0.16604  1.0000
  C   C2378     1.0  0.72568  0.79875  0.14486  1.0000
  C   C2379     1.0  0.68845  0.80851  0.18163  1.0000
  H   H4189     1.0  0.56644  0.91295  0.14510  1.0000
  H   H4190     1.0  0.56167  0.87111  0.11679  1.0000
  H   H4191     1.0  0.96735  0.67451  0.15897  1.0000
  C   C2380     1.0  0.74107  0.81328  0.13966  1.0000
  C   C2381     1.0  0.66753  0.81875  0.18122  1.0000
  C   C2382     1.0  0.55206  0.92189  0.14462  1.0000
  H   H4192     1.0  0.67871  0.78006  0.18239  1.0000
  H   H4193     1.0  0.68611  0.79072  0.15846  1.0000
  C   C2383     1.0  0.59684  0.94039  0.13684  1.0000
  N   N134      1.0  0.62084  0.84583  0.11835  1.0000
  C   C2384     1.0  0.56987  0.96539  0.10861  1.0000
  H   H4194     1.0  0.97709  0.72040  0.18001  1.0000
  H   H4195     1.0  0.72800  0.79976  0.17590  1.0000
  H   H4196     1.0  0.88595  0.76577  0.15134  1.0000
  H   H4197     1.0  0.71109  0.80697  0.14289  1.0000
  H   H4198     1.0  0.72871  0.78776  0.13414  1.0000
  H   H4199     1.0  0.69215  0.80682  0.19693  1.0000
  H   H4200     1.0  0.69838  0.81839  0.17264  1.0000
  C   C2385     1.0  0.55339  0.94262  0.13335  1.0000
  H   H4201     1.0  0.76489  0.70307  0.21657  1.0000
  H   H4202     1.0  0.70856  0.76516  0.14678  1.0000
  H   H4203     1.0  0.65202  0.95305  0.14384  1.0000
  H   H4204     1.0  0.62527  0.70299  0.07718  1.0000
  N   N135      1.0  0.60575  0.72759  0.08724  1.0000
  H   H4205     1.0  0.74046  0.82005  0.12430  1.0000
  H   H4206     1.0  0.73813  0.82517  0.14944  1.0000
  H   H4207     1.0  0.75611  0.80578  0.14114  1.0000
  H   H4208     1.0  0.65674  0.80959  0.19006  1.0000
  H   H4209     1.0  0.66649  0.83287  0.18760  1.0000
  H   H4210     1.0  0.66374  0.82174  0.16591  1.0000
  H   H4211     1.0  0.62496  0.83613  0.08927  1.0000
  H   H4212     1.0  0.55421  0.92848  0.17426  1.0000
  C   C2386     1.0  0.96523  0.68963  0.16331  1.0000
  H   H4213     1.0  0.73357  0.70495  0.23459  1.0000
  Fe  Fe272     1.0  0.86318  0.70053  0.22692  1.0000
  H   H4214     1.0  0.68030  0.75263  0.16699  1.0000
  H   H4215     1.0  0.53646  0.70635  0.21610  1.0000
  Fe  Fe273     1.0  0.50009  0.92835  0.11541  1.0000
  Fe  Fe274     1.0  0.71683  0.84339  0.22387  1.0000
  H   H4216     1.0  0.58774  0.78504  0.08887  1.0000
  H   H4217     1.0  0.63584  0.71490  0.02350  1.0000
  H   H4218     1.0  0.58925  0.69989  0.06614  1.0000
  C   C2387     1.0  0.59243  0.86913  0.10404  1.0000
  C   C2388     1.0  0.53490  0.81547  0.14422  1.0000
  H   H4219     1.0  0.89160  0.76697  0.12495  1.0000
  Fe  Fe275     1.0  0.89809  0.72390  0.22955  1.0000
  H   H4220     1.0  0.50244  0.77486  0.13877  1.0000
  H   H4221     1.0  0.58978  0.74501  0.06472  1.0000
  H   H4222     1.0  0.65085  0.82015  0.22749  1.0000
  H   H4223     1.0  0.58629  0.66282  0.22501  1.0000
  C   C2389     1.0  0.68045  0.81376  0.23544  1.0000
  C   C2390     1.0  0.68597  0.66030  0.19836  1.0000
  H   H4224     1.0  0.66992  0.87668  0.19307  1.0000
  Fe  Fe276     1.0  0.75371  0.82213  0.20451  1.0000
  C   C2391     1.0  0.55789  0.71849  0.22970  1.0000
  H   H4225     1.0  0.69536  0.73964  0.18489  1.0000
  C   C2392     1.0  0.60354  0.77925  0.08838  1.0000
  C   C2393     1.0  0.99230  0.68132  0.18479  1.0000
  H   H4226     1.0  0.78717  0.94136  0.23961  1.0000
  C   C2394     1.0  0.66225  0.80872  0.23155  1.0000
  H   H4227     1.0  0.69885  0.96758  0.04319  1.0000
  H   H4228     1.0  0.79681  0.81344  0.18366  1.0000
  Fe  Fe277     1.0  0.61696  0.70500  0.23638  1.0000
  C   C2395     1.0  0.51439  0.81282  0.13934  1.0000
  C   C2396     1.0  0.63900  0.98027  0.18087  1.0000
  H   H4229     1.0  0.54340  0.82234  0.13099  1.0000
  C   C2397     1.0  0.66581  0.95132  0.18129  1.0000
  C   C2398     1.0  0.68220  0.94092  0.14897  1.0000
  C   C2399     1.0  0.66143  0.93887  0.14340  1.0000
  H   H4230     1.0  0.73741  0.68737  0.20567  1.0000
  H   H4231     1.0  0.61241  0.79168  0.08358  1.0000
  C   C2400     1.0  0.89043  0.75698  0.13880  1.0000
  H   H4232     1.0  0.65283  0.94361  0.18036  1.0000
  H   H4233     1.0  0.68691  0.95434  0.13985  1.0000
  H   H4234     1.0  0.69249  0.92869  0.14336  1.0000
  H   H4235     1.0  0.59486  0.83773  0.10771  1.0000
  H   H4236     1.0  0.65384  0.92779  0.15342  1.0000
  H   H4237     1.0  0.90520  0.74902  0.14073  1.0000
  C   C2401     1.0  0.67438  0.90653  0.18091  1.0000
  H   H4238     1.0  0.67384  0.90296  0.16578  1.0000
  C   C2402     1.0  0.59918  0.84931  0.11569  1.0000
  H   H4239     1.0  0.60210  0.80881  0.12495  1.0000
  H   H4240     1.0  0.94239  0.68435  0.19838  1.0000
  H   H4241     1.0  0.53826  0.94773  0.12949  1.0000
  H   H4242     1.0  0.88129  0.73399  0.12549  1.0000
  H   H4243     1.0  0.60018  0.87034  0.08899  1.0000
  H   H4244     1.0  0.68143  0.88984  0.20861  1.0000
  H   H4245     1.0  0.76457  0.92746  0.22130  1.0000
  H   H4246     1.0  0.72136  0.94029  0.14868  1.0000
  H   H4247     1.0  0.69197  0.92261  0.19605  1.0000
  C   C2403     1.0  0.68931  0.92159  0.18063  1.0000
  S   S545      1.0  0.61377  0.73802  0.23124  1.0000
  C   C2404     1.0  0.81726  0.75913  0.19641  1.0000
  C   C2405     1.0  0.62272  0.71916  0.07360  1.0000
  H   H4248     1.0  0.64611  0.96832  0.00270  1.0000
  H   H4249     1.0  0.54295  0.80109  0.14887  1.0000
  H   H4250     1.0  0.65946  0.91201  0.18727  1.0000
  C   C2406     1.0  0.73628  0.96054  0.16100  1.0000
  C   C2407     1.0  0.61345  0.73153  0.10580  1.0000
  C   C2408     1.0  0.53763  0.71041  0.23090  1.0000
  H   H4251     1.0  0.60157  0.73939  0.11529  1.0000
  C   C2409     1.0  0.70278  0.98170  0.04674  1.0000
  H   H4252     1.0  0.55881  0.91319  0.06809  1.0000
  H   H4253     1.0  0.63001  0.87508  0.11672  1.0000
  H   H4254     1.0  0.82293  0.74406  0.20028  1.0000
  H   H4255     1.0  0.69935  0.76347  0.20331  1.0000
  H   H4256     1.0  0.67317  0.94145  0.11248  1.0000
  C   C2410     1.0  0.70081  0.95376  0.17179  1.0000
  H   H4257     1.0  0.69800  0.96868  0.16391  1.0000
  H   H4258     1.0  0.49726  0.90766  0.05203  1.0000
  H   H4259     1.0  0.90742  0.71158  0.10698  1.0000
  H   H4260     1.0  0.63324  0.98467  0.03280  1.0000
  S   S546      1.0  0.52286  0.90644  0.10202  1.0000
  H   H4261     1.0  0.95529  0.70782  0.22024  1.0000
  H   H4262     1.0  0.54003  0.90847  0.17296  1.0000
  H   H4263     1.0  0.60334  0.91149  0.15231  1.0000
  H   H4264     1.0  0.66550  0.99065  0.05634  1.0000
  C   C2411     1.0  0.57042  0.87097  0.10216  1.0000
  C   C2412     1.0  0.60851  0.76401  0.07375  1.0000
  S   S547      1.0  0.85573  0.76651  0.18531  1.0000
  S   S548      1.0  0.50210  0.95996  0.10503  1.0000
  H   H4265     1.0  0.70167  0.95597  0.18737  1.0000
  C   C2413     1.0  0.78946  0.78439  0.19422  1.0000
  H   H4266     1.0  0.72743  0.93268  0.17329  1.0000
  C   C2414     1.0  0.56187  0.92864  0.06408  1.0000
  H   H4267     1.0  0.73175  0.97316  0.15036  1.0000
  S   S549      1.0  0.91787  0.68108  0.08116  1.0000
  H   H4268     1.0  0.54775  0.93808  0.06281  1.0000
  S   S550      1.0  0.90155  0.73154  0.19669  1.0000
  H   H4269     1.0  0.57075  0.92982  0.04955  1.0000
  C   C2415     1.0  0.96619  0.70334  0.12752  1.0000
  H   H4270     1.0  0.56954  0.68133  0.09313  1.0000
  H   H4271     1.0  0.73613  0.76249  0.22631  1.0000
  H   H4272     1.0  0.68205  0.99245  0.10945  1.0000
  C   C2416     1.0  0.62597  0.86286  0.12800  1.0000
  S   S551      1.0  0.72906  0.87266  0.21906  1.0000
  C   C2417     1.0  0.57304  0.93530  0.07941  1.0000
  H   H4273     1.0  0.62292  0.73909  0.04623  1.0000
  C   C2418     1.0  0.82860  0.83765  0.22860  1.0000
  C   C2419     1.0  0.69133  0.77926  0.24273  1.0000
  H   H4274     1.0  0.72019  0.74307  0.22901  1.0000
  C   C2420     1.0  0.83021  0.77303  0.18912  1.0000
  C   C2421     1.0  0.82275  0.79254  0.18429  1.0000
  C   C2422     1.0  0.96843  0.71299  0.21097  1.0000
  H   H4275     1.0  0.83096  0.84148  0.19658  1.0000
  N   N136      1.0  0.56808  0.94404  0.11525  1.0000
  S   S552      1.0  0.51122  0.77743  0.01671  1.0000
  H   H4276     1.0  0.59010  0.84838  0.13024  1.0000
  C   C2423     1.0  0.59565  0.74669  0.07857  1.0000
  C   C2424     1.0  0.73036  0.75309  0.19878  1.0000
  C   C2425     1.0  0.65408  0.83640  0.09749  1.0000
  H   H4277     1.0  0.52592  0.72284  0.23299  1.0000
  H   H4278     1.0  0.59529  0.88179  0.11128  1.0000
  H   H4279     1.0  0.57644  0.95039  0.07411  1.0000
  C   C2426     1.0  0.63638  0.97973  0.10618  1.0000
  H   H4280     1.0  0.58255  0.96719  0.09722  1.0000
  H   H4281     1.0  0.99442  0.67431  0.19989  1.0000
  H   H4282     1.0  0.58717  0.92572  0.08006  1.0000
  H   H4283     1.0  0.58563  0.94422  0.14902  1.0000
  H   H4284     1.0  0.72753  0.73915  0.19380  1.0000
  H   H4285     1.0  0.60666  0.77297  0.10332  1.0000
  H   H4286     1.0  0.80054  0.82650  0.23175  1.0000
  H   H4287     1.0  0.61965  0.79070  0.15254  1.0000
  H   H4288     1.0  0.58221  0.75130  0.08833  1.0000
  H   H4289     1.0  0.87566  0.73244  0.15202  1.0000
  C   C2427     1.0  0.56074  0.93406  0.09983  1.0000
  C   C2428     1.0  0.66379  0.83731  0.07631  1.0000
  C   C2429     1.0  0.62106  0.72351  0.05122  1.0000
  H   H4290     1.0  0.66347  0.97665  0.15859  1.0000
  H   H4291     1.0  0.57023  0.70674  0.22781  1.0000
  H   H4292     1.0  0.97722  0.71696  0.14938  1.0000
  H   H4293     1.0  0.51628  0.80379  0.12696  1.0000
  H   H4294     1.0  0.61287  0.86916  0.13728  1.0000
  C   C2430     1.0  0.63219  0.84488  0.09825  1.0000
  H   H4295     1.0  0.62100  0.77676  0.13204  1.0000
  Fe  Fe278     1.0  0.86865  0.73782  0.20002  1.0000
  C   C2431     1.0  0.63706  0.71108  0.03943  1.0000
  H   H4296     1.0  0.61839  0.92956  0.15699  1.0000
  C   C2432     1.0  0.54345  0.92316  0.16598  1.0000
  H   H4297     1.0  0.61566  0.82837  0.14622  1.0000
  H   H4298     1.0  0.67949  0.83122  0.07610  1.0000
  H   H4299     1.0  0.62312  0.72915  0.14400  1.0000
  H   H4300     1.0  0.66798  0.66220  0.22597  1.0000
  C   C2433     1.0  0.69522  0.74520  0.16916  1.0000
  C   C2434     1.0  0.62659  0.92938  0.99454  1.0000
  C   C2435     1.0  0.59073  0.71314  0.09310  1.0000
  H   H4301     1.0  0.55577  0.95301  0.14368  1.0000
  H   H4302     1.0  0.65270  0.88749  0.13580  1.0000
  H   H4303     1.0  0.63724  0.84924  0.15545  1.0000
  H   H4304     1.0  0.59901  0.93690  0.10613  1.0000
  C   C2436     1.0  0.61836  0.80835  0.12418  1.0000
  H   H4305     1.0  0.65951  0.87383  0.15827  1.0000
  H   H4306     1.0  0.53853  0.97689  0.11162  1.0000
  C   C2437     1.0  0.56044  0.73417  0.21226  1.0000
  H   H4307     1.0  0.66236  0.84490  0.10547  1.0000
  H   H4308     1.0  0.56027  0.91822  0.10486  1.0000
  H   H4309     1.0  0.58825  0.91790  0.12064  1.0000
  H   H4310     1.0  0.83311  0.68866  0.17244  1.0000
  H   H4311     1.0  0.62475  0.80690  0.10884  1.0000
  S   S553      1.0  0.89589  0.69204  0.22672  1.0000
  C   C2438     1.0  0.62412  0.82693  0.13153  1.0000
  C   C2439     1.0  0.62577  0.78993  0.13696  1.0000
  H   H4312     1.0  0.65630  0.82869  0.06749  1.0000
  C   C2440     1.0  0.56311  0.69520  0.08541  1.0000
  H   H4313     1.0  0.96888  0.73562  0.22999  1.0000
  H   H4314     1.0  0.54517  0.93970  0.09794  1.0000
  H   H4315     1.0  0.66325  0.85273  0.06947  1.0000
  H   H4316     1.0  0.74635  0.73795  0.22234  1.0000
  H   H4317     1.0  0.57338  0.97287  0.12095  1.0000
  C   C2441     1.0  0.58814  0.93408  0.11916  1.0000
  H   H4318     1.0  0.74119  0.77937  0.16579  1.0000
  H   H4319     1.0  0.64210  0.78816  0.13595  1.0000
  H   H4320     1.0  0.80680  0.69164  0.17830  1.0000
  C   C2442     1.0  0.64234  0.85863  0.14202  1.0000
  H   H4321     1.0  0.63187  0.85974  0.08996  1.0000
  H   H4322     1.0  0.61140  0.96256  0.01317  1.0000
  S   S554      1.0  0.86521  0.73157  0.23268  1.0000
  H   H4323     1.0  0.62255  0.92028  0.00853  1.0000
  Fe  Fe279     1.0  0.75726  0.85583  0.22841  1.0000
  C   C2443     1.0  0.73443  0.67831  0.21997  1.0000
  H   H4324     1.0  0.60569  0.77159  0.05905  1.0000
  C   C2444     1.0  0.92037  0.66319  0.13929  1.0000
  H   H4325     1.0  0.71517  0.78165  0.20344  1.0000
  H   H4326     1.0  0.71284  0.71882  0.16006  1.0000
  H   H4327     1.0  0.96209  0.67675  0.21290  1.0000
  H   H4328     1.0  0.98178  0.70439  0.21629  1.0000
  H   H4329     1.0  0.94923  0.69460  0.16327  1.0000
  C   C2445     1.0  0.96712  0.71063  0.18911  1.0000
  C   C2446     1.0  0.65889  0.78890  0.23252  1.0000
  H   H4330     1.0  0.69537  0.88080  0.18700  1.0000
  H   H4331     1.0  0.57176  0.72143  0.06901  1.0000
  C   C2447     1.0  0.71091  0.75959  0.16220  1.0000
  H   H4332     1.0  0.54243  0.65967  0.22304  1.0000
  C   C2448     1.0  0.50181  0.80350  0.15755  1.0000
  H   H4333     1.0  0.78821  0.68805  0.21600  1.0000
  H   H4334     1.0  0.55872  0.98459  0.15957  1.0000
  H   H4335     1.0  0.59938  0.90278  0.00130  1.0000
  H   H4336     1.0  0.51760  0.68084  0.21480  1.0000
  C   C2449     1.0  0.71294  0.76920  0.19543  1.0000
  H   H4337     1.0  0.83456  0.86285  0.20770  1.0000
  C   C2450     1.0  0.73337  0.74892  0.22048  1.0000
  H   H4338     1.0  0.68662  0.71802  0.16211  1.0000
  H   H4339     1.0  0.55622  0.67980  0.21272  1.0000
  H   H4340     1.0  0.77346  0.90987  0.24044  1.0000
  H   H4341     1.0  0.64806  0.93598  0.11713  1.0000
  C   C2451     1.0  0.95795  0.67750  0.19774  1.0000
  H   H4342     1.0  0.75109  0.95387  0.15540  1.0000
  C   C2452     1.0  0.69859  0.72755  0.15741  1.0000
  H   H4343     1.0  0.74436  0.75742  0.19075  1.0000
  H   H4344     1.0  0.62916  0.97283  0.17332  1.0000
  H   H4345     1.0  0.72580  0.75121  0.16125  1.0000
  Fe  Fe280     1.0  0.64702  0.73507  0.22770  1.0000
  H   H4346     1.0  0.55522  0.69161  0.07345  1.0000
  H   H4347     1.0  0.96485  0.68857  0.12347  1.0000
  S   S555      1.0  0.76395  0.79115  0.19762  1.0000
  H   H4348     1.0  0.66771  0.91720  0.12253  1.0000
  H   H4349     1.0  0.95123  0.71137  0.12966  1.0000
  H   H4350     1.0  0.84455  0.83286  0.22853  1.0000
  H   H4351     1.0  0.73727  0.96582  0.17536  1.0000
  H   H4352     1.0  0.60663  0.72069  0.04732  1.0000
  H   H4353     1.0  0.65192  0.71385  0.04240  1.0000
  S   S556      1.0  0.64985  0.70243  0.23539  1.0000
  C   C2453     1.0  0.66271  0.93301  0.12264  1.0000
  H   H4354     1.0  0.63533  0.69527  0.04316  1.0000
  C   C2454     1.0  0.77514  0.69353  0.22574  1.0000
  H   H4355     1.0  0.51116  0.79095  0.16462  1.0000
  C   C2455     1.0  0.66057  0.97341  0.17469  1.0000
  H   H4356     1.0  0.72323  0.66878  0.21746  1.0000
  H   H4357     1.0  0.81014  0.85585  0.20842  1.0000
  C   C2456     1.0  0.96874  0.73441  0.21412  1.0000
  H   H4358     1.0  0.50738  0.82755  0.13431  1.0000
  C   C2457     1.0  0.76412  0.92391  0.23745  1.0000
  H   H4359     1.0  0.59516  0.94355  0.02026  1.0000
  H   H4360     1.0  0.88033  0.77602  0.21967  1.0000
  H   H4361     1.0  0.76260  0.95407  0.24218  1.0000
  H   H4362     1.0  0.98475  0.66666  0.02272  1.0000
  H   H4363     1.0  0.70604  0.71033  0.21359  1.0000
  H   H4364     1.0  0.76996  0.66271  0.16561  1.0000
  H   H4365     1.0  0.70010  0.98215  0.06288  1.0000
  S   S557      1.0  0.68499  0.83856  0.23318  1.0000
  C   C2458     1.0  0.72437  0.69291  0.23446  1.0000
  H   H4366     1.0  0.66490  0.98657  0.03188  1.0000
  C   C2459     1.0  0.49941  0.93667  0.05839  1.0000
  C   C2460     1.0  0.67343  0.77410  0.23827  1.0000
  H   H4367     1.0  0.49905  0.81485  0.16796  1.0000
  C   C2461     1.0  0.66637  0.99166  0.11272  1.0000
  C   C2462     1.0  0.67731  0.96721  0.99421  1.0000
  C   C2463     1.0  0.76564  0.66081  0.20696  1.0000
  C   C2464     1.0  0.49907  0.84906  0.09688  1.0000
  C   C2465     1.0  0.60025  0.95456  0.00820  1.0000
  H   H4368     1.0  0.50141  0.86901  0.03642  1.0000
  C   C2466     1.0  0.78249  0.70591  0.23961  1.0000
  H   H4369     1.0  0.59676  0.98710  0.03364  1.0000
  H   H4370     1.0  0.63826  0.93776  0.99795  1.0000
  H   H4371     1.0  0.81339  0.78160  0.23294  1.0000
  H   H4372     1.0  0.85114  0.66932  0.20474  1.0000
  H   H4373     1.0  0.84519  0.77422  0.22977  1.0000
  C   C2467     1.0  0.76512  0.67596  0.23714  1.0000
  S   S558      1.0  0.67015  0.74898  0.24039  1.0000
  H   H4374     1.0  0.58745  0.96523  0.00463  1.0000
  H   H4375     1.0  0.88039  0.79645  0.23346  1.0000
  H   H4376     1.0  0.99595  0.66919  0.17532  1.0000
  H   H4377     1.0  0.60428  0.98717  0.05760  1.0000
  H   H4378     1.0  0.55927  0.72540  0.24305  1.0000
  H   H4379     1.0  0.61012  0.98939  0.12435  1.0000
  C   C2468     1.0  0.69504  0.79892  0.24084  1.0000
  H   H4380     1.0  0.69442  0.69064  0.22840  1.0000
  C   C2469     1.0  0.87326  0.78303  0.23279  1.0000
  H   H4381     1.0  0.68089  0.88395  0.00738  1.0000
  H   H4382     1.0  0.78228  0.80104  0.23251  1.0000
  C   C2470     1.0  0.83997  0.66064  0.21235  1.0000
  H   H4383     1.0  0.69843  0.90140  0.99940  1.0000
  H   H4384     1.0  0.84691  0.98998  0.23059  1.0000
  H   H4385     1.0  0.66554  0.91883  0.00371  1.0000
  H   H4386     1.0  0.64555  0.89351  0.00006  1.0000
  H   H4387     1.0  0.79025  0.71785  0.23095  1.0000
  H   H4388     1.0  0.78168  0.76432  0.23811  1.0000
  H   H4389     1.0  0.58546  0.87290  0.99694  1.0000
  H   H4390     1.0  0.82375  0.84716  0.24043  1.0000
  H   H4391     1.0  0.71872  0.98245  0.04208  1.0000
  C   C2471     1.0  0.62577  0.99016  0.12087  1.0000
  H   H4392     1.0  0.77710  0.66536  0.24292  1.0000
  S   S559      1.0  0.83933  0.68282  0.24314  1.0000
  H   H4393     1.0  0.69745  0.71239  0.23904  1.0000
  Fe  Fe281     1.0  0.95353  0.79683  0.36047  1.0000
  S   S560      1.0  0.96371  0.76523  0.36945  1.0000
  S   S561      1.0  0.92560  0.81094  0.37622  1.0000
  Fe  Fe282     1.0  0.98563  0.79949  0.32661  1.0000
  H   H4394     1.0  0.95885  0.98283  0.26412  1.0000
  H   H4395     1.0  0.95121  0.90770  0.35278  1.0000
  Fe  Fe283     1.0  0.96595  0.76220  0.33701  1.0000
  S   S562      1.0  0.95224  0.73761  0.32609  1.0000
  C   C2472     1.0  0.64513  0.69289  0.31022  1.0000
  H   H4396     1.0  0.63590  0.70380  0.31889  1.0000
  S   S563      1.0  0.95439  0.79330  0.32860  1.0000
  C   C2473     1.0  0.63588  0.67326  0.31299  1.0000
  Fe  Fe284     1.0  0.83764  0.94333  0.32334  1.0000
  S   S564      1.0  0.80983  0.93858  0.34290  1.0000
  S   S565      1.0  0.84186  0.96932  0.30116  1.0000
  Fe  Fe285     1.0  0.86016  0.90650  0.34095  1.0000
  S   S566      1.0  0.83398  0.89855  0.36196  1.0000
  S   S567      1.0  0.89153  0.89287  0.33553  1.0000
  Fe  Fe286     1.0  0.81667  0.90729  0.33578  1.0000
  S   S568      1.0  0.79224  0.89108  0.32754  1.0000
  Fe  Fe287     1.0  0.82959  0.93070  0.36713  1.0000
  S   S569      1.0  0.82198  0.94114  0.39794  1.0000
  S   S570      1.0  0.84330  0.91294  0.31470  1.0000
  S   S571      1.0  0.85683  0.93761  0.34767  1.0000
  H   H4397     1.0  0.96020  0.94842  0.27061  1.0000
  H   H4398     1.0  0.97131  0.80541  0.24791  1.0000
  C   C2474     1.0  0.89298  0.78178  0.34601  1.0000
  C   C2475     1.0  0.98187  0.91466  0.26818  1.0000
  H   H4399     1.0  0.56363  0.68071  0.24940  1.0000
  H   H4400     1.0  0.93628  0.93265  0.31388  1.0000
  H   H4401     1.0  0.91353  0.80604  0.32274  1.0000
  H   H4402     1.0  0.96068  0.91522  0.29379  1.0000
  H   H4403     1.0  0.49820  0.66155  0.34537  1.0000
  C   C2476     1.0  0.88496  0.77029  0.31607  1.0000
  H   H4404     1.0  0.66021  0.69085  0.31475  1.0000
  C   C2477     1.0  0.87248  0.80386  0.32466  1.0000
  H   H4405     1.0  0.77832  0.97945  0.24608  1.0000
  H   H4406     1.0  0.54600  0.66414  0.25607  1.0000
  S   S572      1.0  0.56587  0.67997  0.34861  1.0000
  Fe  Fe288     1.0  0.99448  0.77457  0.36424  1.0000
  H   H4407     1.0  0.60986  0.68127  0.34215  1.0000
  H   H4408     1.0  0.92705  0.91075  0.34458  1.0000
  C   C2478     1.0  0.85799  0.83853  0.33053  1.0000
  H   H4409     1.0  0.92364  0.76816  0.34377  1.0000
  H   H4410     1.0  0.51316  0.67199  0.25325  1.0000
  H   H4411     1.0  0.80354  0.95760  0.25661  1.0000
  H   H4412     1.0  0.63179  0.70395  0.28336  1.0000
  C   C2479     1.0  0.91764  0.96039  0.31220  1.0000
  H   H4413     1.0  0.87892  0.77812  0.35474  1.0000
  N   N137      1.0  0.81924  0.80523  0.24873  1.0000
  H   H4414     1.0  0.52328  0.71464  0.26736  1.0000
  C   C2480     1.0  0.93561  0.94666  0.30405  1.0000
  H   H4415     1.0  0.49886  0.66135  0.43433  1.0000
  H   H4416     1.0  0.93163  0.94267  0.29001  1.0000
  H   H4417     1.0  0.98484  0.95698  0.35053  1.0000
  C   C2481     1.0  0.84134  0.97209  0.40726  1.0000
  H   H4418     1.0  0.92603  0.81980  0.26958  1.0000
  C   C2482     1.0  0.83557  0.98459  0.43966  1.0000
  H   H4419     1.0  0.87633  0.78523  0.28755  1.0000
  C   C2483     1.0  0.59075  0.68342  0.28322  1.0000
  H   H4420     1.0  0.98179  0.95294  0.31560  1.0000
  H   H4421     1.0  0.54099  0.70357  0.30423  1.0000
  C   C2484     1.0  0.57542  0.68105  0.32342  1.0000
  C   C2485     1.0  0.58106  0.69881  0.31336  1.0000
  C   C2486     1.0  0.58879  0.69999  0.29336  1.0000
  C   C2487     1.0  0.90841  0.91598  0.45301  1.0000
  H   H4422     1.0  0.98646  0.81490  0.40133  1.0000
  H   H4423     1.0  0.57948  0.71169  0.32109  1.0000
  H   H4424     1.0  0.59316  0.71369  0.28584  1.0000
  H   H4425     1.0  0.84249  0.94211  0.27204  1.0000
  H   H4426     1.0  0.84846  0.97301  0.39240  1.0000
  C   C2488     1.0  0.75752  0.94093  0.31134  1.0000
  H   H4427     1.0  0.69642  0.66109  0.32943  1.0000
  C   C2489     1.0  0.97029  0.95133  0.35445  1.0000
  C   C2490     1.0  0.80819  0.78809  0.24686  1.0000
  H   H4428     1.0  0.96923  0.83637  0.40351  1.0000
  H   H4429     1.0  0.63209  0.68775  0.34886  1.0000
  H   H4430     1.0  0.85615  0.77878  0.30522  1.0000
  C   C2491     1.0  0.90568  0.91309  0.38167  1.0000
  H   H4431     1.0  0.60494  0.67249  0.39709  1.0000
  H   H4432     1.0  0.86647  0.74311  0.30109  1.0000
  H   H4433     1.0  0.77672  0.76621  0.26416  1.0000
  C   C2492     1.0  0.82786  0.95825  0.41332  1.0000
  H   H4434     1.0  0.80792  0.94730  0.43753  1.0000
  H   H4435     1.0  0.96775  0.93278  0.32277  1.0000
  C   C2493     1.0  0.57749  0.66458  0.31322  1.0000
  H   H4436     1.0  0.98519  0.91966  0.29733  1.0000
  C   C2494     1.0  0.84887  0.98681  0.31439  1.0000
  C   C2495     1.0  0.78933  0.88468  0.30393  1.0000
  C   C2496     1.0  0.77099  0.87961  0.30035  1.0000
  C   C2497     1.0  0.76818  0.87407  0.28195  1.0000
  C   C2498     1.0  0.78375  0.87346  0.26691  1.0000
  C   C2499     1.0  0.80204  0.87866  0.27045  1.0000
  C   C2500     1.0  0.80486  0.88412  0.28884  1.0000
  H   H4437     1.0  0.75889  0.87985  0.31194  1.0000
  H   H4438     1.0  0.75403  0.87008  0.27951  1.0000
  H   H4439     1.0  0.81423  0.87822  0.25896  1.0000
  H   H4440     1.0  0.81917  0.88754  0.29146  1.0000
  H   H4441     1.0  0.98587  0.82887  0.42198  1.0000
  H   H4442     1.0  0.98196  0.95237  0.28039  1.0000
  C   C2501     1.0  0.87060  0.89873  0.40847  1.0000
  C   C2502     1.0  0.83558  0.93305  0.26320  1.0000
  H   H4443     1.0  0.61756  0.69185  0.38305  1.0000
  H   H4444     1.0  0.97136  0.83799  0.32802  1.0000
  H   H4445     1.0  0.97055  0.86985  0.34115  1.0000
  C   C2503     1.0  0.94191  0.73922  0.30350  1.0000
  C   C2504     1.0  0.93201  0.72374  0.29951  1.0000
  C   C2505     1.0  0.92410  0.72426  0.28151  1.0000
  C   C2506     1.0  0.92608  0.74028  0.26725  1.0000
  C   C2507     1.0  0.93561  0.75591  0.27142  1.0000
  C   C2508     1.0  0.94351  0.75539  0.28939  1.0000
  H   H4446     1.0  0.93068  0.71115  0.31033  1.0000
  H   H4447     1.0  0.91678  0.71213  0.27856  1.0000
  H   H4448     1.0  0.93707  0.76842  0.26054  1.0000
  H   H4449     1.0  0.95119  0.76731  0.29221  1.0000
  C   C2509     1.0  0.91561  0.83333  0.36458  1.0000
  C   C2510     1.0  0.89735  0.84238  0.37217  1.0000
  C   C2511     1.0  0.88945  0.86047  0.36311  1.0000
  C   C2512     1.0  0.89997  0.86964  0.34664  1.0000
  C   C2513     1.0  0.91814  0.86051  0.33905  1.0000
  C   C2514     1.0  0.92581  0.84232  0.34787  1.0000
  H   H4450     1.0  0.88936  0.83541  0.38508  1.0000
  H   H4451     1.0  0.87540  0.86740  0.36901  1.0000
  H   H4452     1.0  0.92640  0.86758  0.32636  1.0000
  H   H4453     1.0  0.93978  0.83537  0.34193  1.0000
  H   H4454     1.0  0.64347  0.66438  0.30144  1.0000
  H   H4455     1.0  0.93476  0.97589  0.27272  1.0000
  H   H4456     1.0  0.84350  0.90615  0.42735  1.0000
  C   C2515     1.0  0.87453  0.92036  0.40204  1.0000
  S   S573      1.0  0.91740  0.74158  0.24386  1.0000
  H   H4457     1.0  0.87567  0.81958  0.34983  1.0000
  C   C2516     1.0  0.90834  0.79529  0.31435  1.0000
  C   C2517     1.0  0.99678  0.87767  0.32296  1.0000
  N   N138      1.0  0.95549  0.95454  0.30100  1.0000
  H   H4458     1.0  0.89841  0.94876  0.36190  1.0000
  H   H4459     1.0  0.89883  0.76146  0.31073  1.0000
  C   C2518     1.0  0.53394  0.70124  0.26621  1.0000
  C   C2519     1.0  0.97353  0.92300  0.28733  1.0000
  H   H4460     1.0  0.89776  0.79397  0.35279  1.0000
  H   H4461     1.0  0.85906  0.79791  0.33271  1.0000
  H   H4462     1.0  0.96901  0.78048  0.25821  1.0000
  H   H4463     1.0  0.99558  0.85751  0.39824  1.0000
  H   H4464     1.0  0.88152  0.91782  0.44001  1.0000
  H   H4465     1.0  0.87729  0.76024  0.32757  1.0000
  C   C2520     1.0  0.90770  0.80438  0.29282  1.0000
  C   C2521     1.0  0.92658  0.81371  0.28515  1.0000
  H   H4466     1.0  0.89527  0.81599  0.29120  1.0000
  H   H4467     1.0  0.90665  0.79280  0.28335  1.0000
  H   H4468     1.0  0.92829  0.82579  0.29383  1.0000
  H   H4469     1.0  0.93963  0.80265  0.28602  1.0000
  H   H4470     1.0  0.75301  0.96946  0.27606  1.0000
  H   H4471     1.0  0.85021  0.97571  0.25380  1.0000
  H   H4472     1.0  0.92034  0.78302  0.31389  1.0000
  H   H4473     1.0  0.88882  0.82901  0.32714  1.0000
  H   H4474     1.0  0.54863  0.70567  0.26776  1.0000
  H   H4475     1.0  0.89710  0.91650  0.36879  1.0000
  C   C2522     1.0  0.90882  0.76413  0.34971  1.0000
  H   H4476     1.0  0.76888  0.97755  0.29096  1.0000
  C   C2523     1.0  0.62414  0.67499  0.34756  1.0000
  H   H4477     1.0  0.88569  0.75046  0.28234  1.0000
  C   C2524     1.0  0.96641  0.94892  0.31888  1.0000
  N   N139      1.0  0.88965  0.78802  0.32481  1.0000
  H   H4478     1.0  0.86870  0.80861  0.30957  1.0000
  H   H4479     1.0  0.75633  0.68112  0.25043  1.0000
  H   H4480     1.0  0.84380  0.83320  0.33713  1.0000
  H   H4481     1.0  0.86722  0.92489  0.38847  1.0000
  H   H4482     1.0  0.62052  0.67659  0.30917  1.0000
  H   H4483     1.0  0.90907  0.90043  0.41821  1.0000
  H   H4484     1.0  0.90553  0.89701  0.38555  1.0000
  N   N140      1.0  0.53391  0.69366  0.24658  1.0000
  H   H4485     1.0  0.74215  0.93691  0.34068  1.0000
  H   H4486     1.0  0.95511  0.97375  0.33597  1.0000
  C   C2525     1.0  0.87147  0.77391  0.29926  1.0000
  C   C2526     1.0  0.90936  0.75787  0.37163  1.0000
  C   C2527     1.0  0.89923  0.94968  0.31697  1.0000
  C   C2528     1.0  0.87516  0.82270  0.33376  1.0000
  H   H4487     1.0  0.86007  0.85162  0.33759  1.0000
  H   H4488     1.0  0.92139  0.92163  0.41455  1.0000
  H   H4489     1.0  0.51453  0.70765  0.30409  1.0000
  H   H4490     1.0  0.89506  0.75292  0.37837  1.0000
  C   C2529     1.0  0.81073  0.81368  0.26765  1.0000
  C   C2530     1.0  0.61927  0.66514  0.36879  1.0000
  C   C2531     1.0  0.84526  0.98508  0.42038  1.0000
  C   C2532     1.0  0.84154  0.98732  0.33412  1.0000
  H   H4491     1.0  0.94462  0.98408  0.30769  1.0000
  H   H4492     1.0  0.97057  0.91664  0.25774  1.0000
  C   C2533     1.0  0.82474  0.82314  0.27881  1.0000
  C   C2534     1.0  0.81369  0.83119  0.29723  1.0000
  C   C2535     1.0  0.84202  0.98890  0.24657  1.0000
  H   H4493     1.0  0.52582  0.68535  0.31636  1.0000
  H   H4494     1.0  0.75458  0.93637  0.27418  1.0000
  H   H4495     1.0  0.84214  0.78636  0.26243  1.0000
  H   H4496     1.0  0.59428  0.68640  0.37650  1.0000
  H   H4497     1.0  0.79794  0.82485  0.26500  1.0000
  H   H4498     1.0  0.80465  0.80210  0.27858  1.0000
  H   H4499     1.0  0.81109  0.77618  0.25890  1.0000
  H   H4500     1.0  0.86028  0.75756  0.27880  1.0000
  H   H4501     1.0  0.74717  0.95395  0.30736  1.0000
  H   H4502     1.0  0.90064  0.92091  0.46691  1.0000
  H   H4503     1.0  0.96321  0.95735  0.36809  1.0000
  H   H4504     1.0  0.83672  0.81211  0.28380  1.0000
  H   H4505     1.0  0.98649  0.89874  0.27128  1.0000
  H   H4506     1.0  0.94287  0.95183  0.34298  1.0000
  C   C2536     1.0  0.97757  0.79309  0.25793  1.0000
  H   H4507     1.0  0.77879  0.80175  0.25859  1.0000
  N   N141      1.0  0.63578  0.66199  0.33313  1.0000
  H   H4508     1.0  0.81448  0.97020  0.46020  1.0000
  H   H4509     1.0  0.82341  0.83948  0.30401  1.0000
  H   H4510     1.0  0.80050  0.84124  0.29361  1.0000
  H   H4511     1.0  0.80887  0.81907  0.30813  1.0000
  H   H4512     1.0  0.86627  0.92979  0.41294  1.0000
  H   H4513     1.0  0.65262  0.71593  0.28714  1.0000
  C   C2537     1.0  0.92749  0.91635  0.37492  1.0000
  C   C2538     1.0  0.51380  0.68711  0.24591  1.0000
  C   C2539     1.0  0.82216  0.97078  0.44554  1.0000
  H   H4514     1.0  0.65648  0.69170  0.27943  1.0000
  H   H4515     1.0  0.92025  0.96642  0.32563  1.0000
  C   C2540     1.0  0.96791  0.94549  0.28409  1.0000
  H   H4516     1.0  0.92111  0.74555  0.37377  1.0000
  N   N142      1.0  0.77996  0.94996  0.27925  1.0000
  C   C2541     1.0  0.80153  0.95063  0.27191  1.0000
  H   H4517     1.0  0.93461  0.88942  0.36083  1.0000
  H   H4518     1.0  0.97617  0.79753  0.27302  1.0000
  C   C2542     1.0  0.77055  0.93613  0.26894  1.0000
  H   H4519     1.0  0.83608  0.93994  0.24780  1.0000
  C   C2543     1.0  0.81439  0.93063  0.27186  1.0000
  H   H4520     1.0  0.90614  0.75117  0.34285  1.0000
  N   N143      1.0  0.89593  0.92398  0.39857  1.0000
  C   C2544     1.0  0.84066  0.79752  0.24950  1.0000
  H   H4521     1.0  0.97260  0.93511  0.35736  1.0000
  H   H4522     1.0  0.70242  0.76798  0.24773  1.0000
  H   H4523     1.0  0.78621  0.95206  0.30878  1.0000
  H   H4524     1.0  0.88413  0.98521  0.38319  1.0000
  H   H4525     1.0  0.89530  0.94422  0.30364  1.0000
  H   H4526     1.0  0.88670  0.95995  0.32252  1.0000
  H   H4527     1.0  0.91246  0.94925  0.39475  1.0000
  H   H4528     1.0  0.87586  0.77260  0.24598  1.0000
  H   H4529     1.0  0.78657  0.92770  0.30326  1.0000
  H   H4530     1.0  0.77669  0.92069  0.27291  1.0000
  H   H4531     1.0  0.89381  0.93966  0.43542  1.0000
  C   C2545     1.0  0.94647  0.98429  0.27600  1.0000
  C   C2546     1.0  0.89607  0.92347  0.43616  1.0000
  H   H4532     1.0  0.81494  0.92333  0.28694  1.0000
  H   H4533     1.0  0.76710  0.92550  0.33859  1.0000
  C   C2547     1.0  0.87096  0.75511  0.28986  1.0000
  H   H4534     1.0  0.84669  0.88155  0.42048  1.0000
  H   H4535     1.0  0.88812  0.98385  0.35715  1.0000
  H   H4536     1.0  0.87886  0.89205  0.42081  1.0000
  C   C2548     1.0  0.76885  0.97033  0.27737  1.0000
  H   H4537     1.0  0.84431  0.91845  0.26339  1.0000
  C   C2549     1.0  0.98439  0.82984  0.40605  1.0000
  C   C2550     1.0  0.98205  0.86555  0.32985  1.0000
  C   C2551     1.0  0.95400  0.97647  0.29609  1.0000
  H   H4538     1.0  0.91066  0.89972  0.45473  1.0000
  H   H4539     1.0  0.88805  0.95366  0.40593  1.0000
  C   C2552     1.0  0.75733  0.93865  0.33364  1.0000
  C   C2553     1.0  0.60836  0.67996  0.38210  1.0000
  H   H4540     1.0  0.75175  0.92782  0.30730  1.0000
  C   C2554     1.0  0.77529  0.77413  0.24934  1.0000
  H   H4541     1.0  0.76224  0.95177  0.33858  1.0000
  H   H4542     1.0  0.92295  0.92183  0.45034  1.0000
  C   C2555     1.0  0.89717  0.94576  0.39428  1.0000
  H   H4543     1.0  0.50218  0.69630  0.25446  1.0000
  H   H4544     1.0  0.87490  0.88981  0.39601  1.0000
  C   C2556     1.0  0.81842  0.95777  0.43258  1.0000
  H   H4545     1.0  0.90881  0.97946  0.37130  1.0000
  H   H4546     1.0  0.90152  0.93712  0.32838  1.0000
  H   H4547     1.0  0.83990  0.90171  0.40286  1.0000
  H   H4548     1.0  0.79092  0.98942  0.26331  1.0000
  H   H4549     1.0  0.93686  0.91083  0.38681  1.0000
  C   C2557     1.0  0.84885  0.89702  0.41521  1.0000
  H   H4550     1.0  0.99497  0.92192  0.26137  1.0000
  C   C2558     1.0  0.93552  0.90539  0.35720  1.0000
  C   C2559     1.0  0.52926  0.68657  0.28459  1.0000
  H   H4551     1.0  0.96869  0.98169  0.29583  1.0000
  C   C2560     1.0  0.58478  0.66587  0.29322  1.0000
  H   H4552     1.0  0.85735  0.84308  0.31462  1.0000
  H   H4553     1.0  0.83127  0.97725  0.34105  1.0000
  H   H4554     1.0  0.54135  0.67449  0.28555  1.0000
  H   H4555     1.0  0.80828  0.95993  0.28078  1.0000
  C   C2561     1.0  0.89305  0.97733  0.37147  1.0000
  C   C2562     1.0  0.52753  0.69647  0.30342  1.0000
  H   H4556     1.0  0.91269  0.77016  0.37918  1.0000
  H   H4557     1.0  0.80864  0.92084  0.26289  1.0000
  C   C2563     1.0  0.95717  0.95753  0.33796  1.0000
  H   H4558     1.0  0.66227  0.67031  0.34224  1.0000
  S   S574      1.0  0.60057  0.68343  0.25822  1.0000
  H   H4559     1.0  0.83148  0.83527  0.26951  1.0000
  C   C2564     1.0  0.77867  0.94257  0.30082  1.0000
  C   C2565     1.0  0.64656  0.70159  0.28873  1.0000
  H   H4560     1.0  0.72194  0.68587  0.24966  1.0000
  C   C2566     1.0  0.77183  0.94027  0.24634  1.0000
  C   C2567     1.0  0.98249  0.84755  0.32248  1.0000
  H   H4561     1.0  0.91410  0.97299  0.30122  1.0000
  H   H4562     1.0  0.87431  0.95449  0.37462  1.0000
  H   H4563     1.0  0.92917  0.93206  0.37074  1.0000
  C   C2568     1.0  0.89019  0.95558  0.37460  1.0000
  C   C2569     1.0  0.90640  0.91671  0.41645  1.0000
  S   S575      1.0  0.98393  0.80641  0.35774  1.0000
  H   H4564     1.0  0.51527  0.68025  0.28429  1.0000
  H   H4565     1.0  0.82608  0.98707  0.24910  1.0000
  H   H4566     1.0  0.84949  0.80925  0.25180  1.0000
  H   H4567     1.0  0.76999  0.71257  0.24925  1.0000
  H   H4568     1.0  0.79306  0.69679  0.24882  1.0000
  C   C2570     1.0  0.77648  0.98537  0.26046  1.0000
  S   S576      1.0  0.78154  0.86600  0.24358  1.0000
  H   H4569     1.0  0.74868  0.92206  0.24360  1.0000
  C   C2571     1.0  0.54978  0.67669  0.24516  1.0000
  H   H4570     1.0  0.70900  0.80263  0.24410  1.0000
  H   H4571     1.0  0.75939  0.77798  0.24769  1.0000
  C   C2572     1.0  0.78554  0.79280  0.24675  1.0000
  C   C2573     1.0  0.93827  0.97705  0.61270  1.0000
  H   H4572     1.0  0.97268  0.98754  0.59075  1.0000
  H   H4573     1.0  0.94115  0.94118  0.59754  1.0000
  H   H4574     1.0  0.91523  0.94935  0.60307  1.0000
  H   H4575     1.0  0.92593  0.94898  0.57797  1.0000
  H   H4576     1.0  0.92699  0.97096  0.62403  1.0000
  C   C2574     1.0  0.94805  0.98910  0.65140  1.0000
  H   H4577     1.0  0.95228  0.96776  0.61539  1.0000
  C   C2575     1.0  0.92869  0.95176  0.59284  1.0000
  H   H4578     1.0  0.94655  0.97459  0.58120  1.0000
  C   C2576     1.0  0.93361  0.97277  0.59227  1.0000
  H   H4579     1.0  0.94336  0.97437  0.65117  1.0000
  H   H4580     1.0  0.97806  0.97776  0.65733  1.0000
  H   H4581     1.0  0.96056  0.97981  0.67885  1.0000
  C   C2577     1.0  0.96515  0.98691  0.66397  1.0000
  H   H4582     1.0  0.50394  0.66866  0.51443  1.0000
  H   H4583     1.0  0.96876  0.99108  0.62548  1.0000
  H   H4584     1.0  0.92113  0.98268  0.58685  1.0000
  C   C2578     1.0  0.59322  0.88114  0.98405  1.0000
  H   H4585     1.0  0.62568  0.89471  0.96264  1.0000
  C   C2579     1.0  0.65084  0.90203  0.98611  1.0000
  H   H4586     1.0  0.64987  0.94122  0.96498  1.0000
  H   H4587     1.0  0.67520  0.92104  0.97831  1.0000
  H   H4588     1.0  0.49920  0.96241  0.79656  1.0000
  C   C2580     1.0  0.61897  0.90492  0.97353  1.0000
  H   H4589     1.0  0.70728  0.96975  0.98183  1.0000
  H   H4590     1.0  0.61528  0.94404  0.95072  1.0000
  C   C2581     1.0  0.68695  0.98707  0.96360  1.0000
  H   H4591     1.0  0.63716  0.98985  0.97270  1.0000
  H   H4592     1.0  0.65577  0.91991  0.95266  1.0000
  H   H4593     1.0  0.93520  0.66019  0.94189  1.0000
  C   C2582     1.0  0.69193  0.97448  0.98022  1.0000
  C   C2583     1.0  0.66722  0.99275  0.96069  1.0000
  H   H4594     1.0  0.60097  0.87045  0.97419  1.0000
  H   H4595     1.0  0.65583  0.89114  0.97540  1.0000
  C   C2584     1.0  0.65247  0.98601  0.97504  1.0000
  H   H4596     1.0  0.69121  0.88704  0.98192  1.0000
  C   C2585     1.0  0.63924  0.95207  0.92964  1.0000
  C   C2586     1.0  0.64328  0.92868  0.96057  1.0000
  C   C2587     1.0  0.65751  0.97350  0.99188  1.0000
  N   N144      1.0  0.63451  0.91657  0.97860  1.0000
  H   H4597     1.0  0.62942  0.95737  0.91805  1.0000
  H   H4598     1.0  0.61401  0.95640  0.97875  1.0000
  C   C2588     1.0  0.62958  0.93694  0.94456  1.0000
  H   H4599     1.0  0.64184  0.96487  0.93688  1.0000
  H   H4600     1.0  0.69845  0.99159  0.95243  1.0000
  H   H4601     1.0  0.99015  0.67886  0.96076  1.0000
  H   H4602     1.0  0.62658  0.92485  0.93651  1.0000
  H   H4603     1.0  0.65351  0.94556  0.92258  1.0000
  H   H4604     1.0  0.58207  0.89101  0.97622  1.0000
  H   H4605     1.0  0.59698  0.93801  0.98489  1.0000
  C   C2589     1.0  0.66930  0.91080  0.99063  1.0000
  H   H4606     1.0  0.60733  0.91447  0.96618  1.0000
  H   H4607     1.0  0.97072  0.66235  0.98951  1.0000
  C   C2590     1.0  0.99591  0.66475  0.96752  1.0000
  C   C2591     1.0  0.60898  0.94469  0.99003  1.0000
  H   H4608     1.0  0.95719  0.66043  0.95345  1.0000
  C   C2592     1.0  0.60789  0.89291  0.99105  1.0000
