data_image0
_chemical_formula_structural       H5CHC2HCH3CHCH5C2HC2H2CH5CH2CH4C2HCHC2H2CH6CH2NHCH5CHCH2CH2CHNCH3CH4CH3CFeHCFeS2HSFeH2SHCNCHCHCSFeS2FeS2FeHFeS2FeHSFeS2FeCH2S2FeSHCHC6H5CH2CH4C6H6SCSH2C8H4C6H2SH3CH4CHCH3NC10H23FeHCH2CHCHC2HC5SH2CHCHCH5CH7CH2CH8CHCNH4CH2NCHCSC3H2SHC2H3CH7CHCHC2H3SFeNH3CH6CHCH2CHSH2CHC2H3CSH2CH2C2FeHC2H3CFeCHCHCH2SH9SCSH2CH4CHCH3CH2SCH2CH2CH2CSH2CH5CH2FeC3H2C2H3FeS2NH3CHS3HFeS2FeC2FeHCHS2FeS2FeS2FeSFeS3FeS2FeSCFeSFeS3HCH3C8H6SCH2C2H3CHFeC6H4CHC4H4C6H4C6HCNC12H25CH3SHCH4NH7C4HCH3CH2C2H4CH3CHC2HCH7C2HN2HFeC2HC2HC2S2H3C2H5CH4Fe2CH4CH2CHC2HSHC2HCH2CH5CFeCH3SH6CHCH2CS2HCHCH4C2NCH6C4H6CH2NH3C3H2CH6CHNH4NHC2HCH4CH2CH5C3H2CHC3H5CHCH14CH4CH4CH3C2H2CHCH3SHFeS2CHSCFeSHFeS2FeSFeS2FeS2FeS2FeSFeHS2HC2H2CH2C2H3CH2C2HC3HSFeHCHC3H2C6H4C6H4C6H5CHCH6NC6HC3H13SH2CH8CH3C2FeCH2CH5CNCFeSH3CH3CH4C3HNC2H6CH2NC6HCH7CH7C2HSC2H2C2H2C2H5CH4CH4C2H11C2HSH3CH6SCHSHFeS2FeSFeHSCFeSHFeS2FeSFeSHSCFe2CSHSH5FeS2C6H4C7H3C6HCHC2HCHC6H4CH5CH3NC8HC2H28SHC3H3C2H4CH5CH2CFeSCHS2CH3C2HSCSH7SHCH2CHCH5C2H3CH6CH2CHNCHCH2CH5CHCH3FeH7CH6C2HSFeSCFeS2Fe2S3FeS2FeS2FeSFeS3FeS2FeS2FeSFeS3HFeS2H4FeS2C6H4C6H4C4HCH3CNC7H4C4H2C5HCH2C6H6CHCH2C6H7CHC4HC2HCH6CH2C4H2CH2CH4CHCSNC9H17CHC2HCH5NC12H28NC6HCH2CH3CH11CNHC3H3C2HCH2NC11H27SFeCH4NH3CHCH2C2HCH2CNCH2CH4FeH4SCHSH2CHCH2CNH8SH2CH2CHC2HC2HCHSH2CH16CH2CHCHCHC3H7C2H2CHC2H3CSH3C2HNH5C2H3CH2CH2C2SH6C2H2CH2CH8C3H3CH2NSHCH8CFeC3H7CH7CHC2H3CH6CH4CNH5FeHSHFeS2FeS2FeSFeS3FeCSHFeS2FeS2FeSFeHS2FeS2FeSCFeSFeS3CH2CHC6H4C2HC2H2CHCSC6H4C2H2C2SC6H4C6H4C6H4C6H2NC5FeC2H10SHC2H2C2H5NC2SHCHCSH8CH5NC6HC2SCH8CH3CH20C5HC3H14CH5CH4CH2C3H2CSH6CH10CHNHC2HC5H2CFeCH9CH7SH4C2H2CH2CH5CHCH2C2H2CH6CHCHCH2CH2C3H2CHCNH3NHCHCHCH3CH6CHCH3CH6CH2NH2CHCHCHCHCH2C2H3CSHCH3C2HCH2NCHCHC2HCHCH2C3H2CH2C2H4CNH2CH2NC3H4CH6NH2CHC2H2CH4CH2CH3C2H5CHSHFeS2FeSHFeS2H4SFeSCFeSCFeSFeS2FeS2FeS2FeSFeHS2C3HCSH6NC6H5CH2CH2CHC7H3C4HCH2C6H4CHC2H4CH2CH4FeH2CH11CH2CH2SH6CH4CH2C2H2SHC2H2CH2C7HCH2C3H5CHCH2CH3CHSH2NC2HC2H2C4H12SH9C3N2CHC3HCH2CH2CH3CHCH3CHCH2CH2NHCHC2H2NHC2H4SCH3C5H2CHC2HC2H4C2H8CH4SH8CHCH8CH6CH3CH2NC2H2C3HC3HSH12CH2FeH3CH16CH3CHSHCFeSCHFeS2FeS2FeHFeHS2FeS2FeSHFeSFeS3HCH2CH2CH2C2H4CHSH3C6H5SH4C4H4C6H8C2H3CH2C2H3CNH2C2H3NH2C2HCH3CH4CH3CH2C2H2CH6C3H2CHSH2C3H4C2HCSH2CHC3HCH10CHC2H2SCH5C2HC2HC3HCH4CHCHCNH6CNC12H17CH11CHFeHC2H2C2H3CHCHCHC2H2CH3C2H3NH4C2H3C3H2CH2NH3NC2H2CHC4H17CHC3SH2C3H3CH3CH2CHC3SFeHSH2FeSC2H2FeS2CFeSCSCHSFeS2FeSHFeSHFeSFeS3FeS2FeSFeSFeHS2CH2CH3C6H4C6H4SH11CH3CH2CHC6H4C5FeH3C4HSH2C2HCH5C2HCH2NC12H25SCH5SHS3HCH5CNHC2FeC6HCH6CH2CHCH7CHCHC2HCH2CH2NC7H2C3H15CH5CH2CH4C4FeHCH4SH4CH2CH3SC3HCHCNH7CH3NH2CHSH3C3H2C3H2NHC3H3CH5SHC2H9CH2C2HC3H4C2H4CH3SH2CHS2CH3CSH2FeSHSCFeSH2FeSHSFeS2FeSFe2S3FeCSFeS2FeH2S2CHC6H4C2H4CH4C12H2C3H3C5H4C6H4NC12H24SHCH3CH8C2H2C2HFeCHSCH3CH2SHCH6CHC2HCH3CH4CH4CHCFeNH2CH5CH2CHCH3FeCSHC3HSH4CH2NHCHC2HCH5NSH16CH4CNC8HC3H15NCH5CHCH3CHNCH5CHCHC2H2C2HCH4CHCSCH2CHCHCHCHCHFeHSH2CHCH2C4HCHCHFeS2FeSCFeHSH3FeS2H2CSHFeSCSFeS2HSFeSFeS3FeS2FeS2FeHFeHS2H2CH5C2HC6H4CHC2H4CHC5H3CH3C3HCHC6H4C6H3CHCHC2FeHNSCH4C2HFeC4H4CHC2H5SH2CHCH4CHSCHCH7CH6CH3C2HSC2H2CH3CH7CHCFeCH2C3H2NC2HCH6FeCH4CNH3CH2C2H3CH11NH7SH2NHNC10H17C2H3CH2CHC2HC3HCH2CH2CHCH4CH10CH2CHCSHSCHSHC3HSCFeSHFeSCH4SHSH3CHSHS2FeSHFeS2FeSFeS3FeSFeS2FeCFeS3H6C6FeH4CHC6H5C6H4C6H4CHCHC2H4CH2CH3CHC2HFeSCHCH2CH3CH4CH3CH3CFeC2H3CHSNC3HNCH5CH6CH4C2H7CH6CSH3CH2C2H3CH6CH2CHSHCH4SHCH2CHSHCNC3HCHCH2CH4CHFeH13CHCH3C4NCHC2HCH2SH5CNC10H23SCHNC4H5CFeHC2H3CH3C3HCHC2SHC2H4CH2SHCH2CH2CHCH4CNH4CH3S2FeS2FeS2FeS2FeS2FeS2FeSFeS2FeSFeS2FeHFeHS2H3C6H4C4H3C7H4C6H4CHC3H5CHC2HC2H2FeHCH2C2H2C2H3CHCHCH4CHCH4CH2C2H2CH2CHNH4SC2H6NC8HC3H12C2H4CH2CH3CH2CH4CNC11H27C2NC8HC3H11CH8CH5CHNCSC2H4CH6C2H2C2NCH2CHC2H4CHCSCH3SC4HCHSH9CH4NH5C2H2CH8C3H4CH3C2H3CH8CH3C3H3CH2C3H9C2HC3H2CHC2H10CH5CH3C2H5C2SH2C2HCH3CHNC2HSHCHC2H3CSH4SH2FeH2CHNHSCHCHC2HCNFeHSHCH2SC2FeS2FeSHFeSFeS2FeHSFeS2FeCFeS2H2C6H4CHCHCH6CH4CHC6H5C4HCHC7H6NCHSC3H2C4H4CH8CH3CH8SCH5CH7CHCH7CFeC4HCHCH2CH3C3H3CH5NC3SHCSHCHC2H8CH3CH3CH3C2H4CHCHNC5H2CHCH2C2NC8HCNH4NH6CH2SH3SH5SCH6CHCH5C2HCH6CH2SHC2H2CH6SH2CHS2H3CH2SH3C2HCHCH4C2HCH2CH3NCFeCH3CH5CHCH2CH7CH2C2H5C2H2CHCHCHC2HFeS2FeS2FeSFeS3H3CFeS2FeS2HFeSFeS2Fe2S3FeS2FeS2FeSFeS4H2C7H4C3H2C2H3C7H4C3H3CH3C6H4C6H4C6H4C7H2CHNC12H28CH2C2H9CH2SCSC3HCH6N2HC3HC2H4CH3FeH4SCH6SH4CH7C2H2CH3CH2C2H3CHCHCSHCHCH5CH2C3H3FeH2CHCH2NH2CH5CNC7H17CH2CHC2H3SCHCHCH2CH7CH2CH2C2H5CNC12H28NC10HCH28NHCH3CH3C3HCH2CH4CHC3H3C2HCHN2HC3H2CH2CH2CHCH3FeC5HCH4CS2C2H4CH2CH4SH6CH4CH5NC2HCHCSCH6FeS2FeS2FeSFeS3HSH2SFeSHFeS2FeSFeS3CHCS3FeS2FeS2FeSFeS3C6H4C6H5C4HCH2NHC3H2C3HSH2CFeCHCH3CHCHC6H4C6H4C6H7NC3H2C7H6SH8CH5CH2CH3NC11H27CHFeCHCHSH3NH2C2H3NHCH2FeC2HNC4HCHCHCHCH2FeHCH3C3H3CHCHCSC2HC3H2CHCHCH2CHCHCH3CH2CH2CH2CH4NC6H18CH6SH2CH3CHNCHCH5C2H2CH5CH2NH5SHCNC10HCH22CHCH6SH2FeHC2H12C2H3C4H2CHCH3CH7SCHCHCH3C5H3FeCH4CH3CHCHC2HCH4CHCH2CH3CFeS2FeSFeHFeHS2FeSHFeS2FeSFeS3HCHCSHC2H2C4HSC2HCH3CHC2H9C2HCHCH6NH2SC2SHCH3C7H4C2HC2HC2HC2H2CH5SH3CH5FeHC3HCH2C3H10FeH2CH3CH2CH4C4H4C2HFeH5C2H4CH3C2HCHCNHCH2C2HCHC2H2C2H4CHCH2C2H6C2H3CSH4CSH2FeS2FeS2FeSFeS3FeCSFeS2FeHFeCS2CH2CHC6H4CH2CH2CHC8H3C3SHCH3C4H3C2HC4H6CHC2H8C2SCH3FeCHCFeH4CHSH5NHCHC2HCH3SH3CSH2NC10H26CH4CH2CNC2HSFeH2CHCSHC2SHCH2C2H3FeCH4CHCHC2H4C2FeHFeS2FeSH3FeHSH4FeS2H3S2FeS2FeS2FeSFeS3FeS2FeS2FeCFeS3H5C6H5C2H4C4H4C2HCH3FeHC6H2CSC5H3SC6H4C6H2CH4CNHC2HC3H3CH3SH10SNHC3H3C2H5C4H2C2HCHCHNC12H16CH9C2H3NH5C2H4SHCHCSCH5CH4NC12H36CHCH2CHCH2C2HNCH7CHC3HFeHNH3SH3C3HCHCHCH6CHC3H2CH2CH2C3H3CHCH3CH2CHFeCH7CHC2HC2H3CHCH3C3FeS2H2SFeCH2FeS2HSCH3FeSHSFe2S2FeSFeSFeS3FeHSFeS2Fe2NS2HC6HC2HC6H8NC8H3C6H4C7H2CH2CH4C2HC2HCH6CH4NHNC8H2C2H2CH5C2H7SFe2HCH12CHCH4CH4SH2CH4CSH6CHCH3CH6C2NCH2C2H2C2H2CH3C4NC11H26S2CH4CH2CSHCH4CH2NCHC5H2CHC2H14SCH2CH2CHCH4CHC2H3NHCH6C2HCHCHCHSHSCSHC2H5CHCH2CHFeH3CH7CH6C3H2CHC2H9C2H3CH3C2HCH6C2HCH7CH5CH6C2NCH4SCHCH4C2H2CH2CHCHCH4C
_chemical_formula_sum              "H4608 C2592 N144 Fe288 S576"
_cell_length_a       68.1225
_cell_length_b       68.4482
_cell_length_c       68.47
_cell_angle_alpha    81.4201
_cell_angle_beta     81.3585
_cell_angle_gamma    81.4743

_space_group_name_H-M_alt    "P 1"
_space_group_IT_number       1

loop_
  _space_group_symop_operation_xyz
  'x, y, z'

loop_
  _atom_site_type_symbol
  _atom_site_label
  _atom_site_symmetry_multiplicity
  _atom_site_fract_x
  _atom_site_fract_y
  _atom_site_fract_z
  _atom_site_occupancy
  H   H1        1.0  0.44409  0.12701  0.03023  1.0000
  H   H2        1.0  0.45263  0.10122  0.02670  1.0000
  H   H3        1.0  0.47265  0.15529  0.04455  1.0000
  H   H4        1.0  0.01569  0.26919  0.99446  1.0000
  H   H5        1.0  0.09216  0.27663  0.98667  1.0000
  C   C1        1.0  0.47646  0.11889  0.02804  1.0000
  H   H6        1.0  0.29574  0.01784  0.03257  1.0000
  C   C2        1.0  0.48664  0.15600  0.05070  1.0000
  C   C3        1.0  0.45600  0.11681  0.02258  1.0000
  H   H7        1.0  0.46341  0.11940  0.05905  1.0000
  C   C4        1.0  0.47511  0.99689  0.15232  1.0000
  H   H8        1.0  0.09098  0.28444  0.03484  1.0000
  H   H9        1.0  0.46819  0.00777  0.14142  1.0000
  H   H10       1.0  0.48124  0.18824  0.04830  1.0000
  C   C5        1.0  0.47753  0.11271  0.05074  1.0000
  H   H11       1.0  0.48380  0.11508  0.10279  1.0000
  C   C6        1.0  0.07363  0.30443  0.01393  1.0000
  H   H12       1.0  0.47676  0.09636  0.05342  1.0000
  H   H13       1.0  0.06019  0.31581  0.01512  1.0000
  H   H14       1.0  0.31515  0.00177  0.05958  1.0000
  H   H15       1.0  0.47931  0.13443  0.02296  1.0000
  H   H16       1.0  0.45599  0.12084  0.00623  1.0000
  C   C7        1.0  0.00580  0.27802  0.98459  1.0000
  C   C8        1.0  0.31240  0.99247  0.04851  1.0000
  H   H17       1.0  0.29076  0.99400  0.02770  1.0000
  C   C9        1.0  0.48411  0.10183  0.09509  1.0000
  C   C10       1.0  0.29362  0.00242  0.03947  1.0000
  H   H18       1.0  0.46901  0.10157  0.09097  1.0000
  H   H19       1.0  0.47756  0.13822  0.07775  1.0000
  C   C11       1.0  0.07810  0.29648  0.03509  1.0000
  H   H20       1.0  0.47749  0.08385  0.12364  1.0000
  H   H21       1.0  0.46999  0.17575  0.07144  1.0000
  H   H22       1.0  0.06974  0.29196  0.00731  1.0000
  H   H23       1.0  0.10552  0.30370  0.00396  1.0000
  H   H24       1.0  0.28038  0.00310  0.05112  1.0000
  C   C12       1.0  0.09160  0.31398  0.00135  1.0000
  H   H25       1.0  0.29082  0.98617  0.98905  1.0000
  H   H26       1.0  0.06482  0.29024  0.04385  1.0000
  C   C13       1.0  0.48347  0.17535  0.06007  1.0000
  H   H27       1.0  0.48865  0.06959  0.10377  1.0000
  H   H28       1.0  0.48781  0.10924  0.01916  1.0000
  H   H29       1.0  0.08151  0.30863  0.04265  1.0000
  H   H30       1.0  0.32513  0.99269  0.03643  1.0000
  C   C14       1.0  0.19935  0.02591  0.47293  1.0000
  C   C15       1.0  0.17001  0.02915  0.45433  1.0000
  H   H31       1.0  0.15470  0.03716  0.45311  1.0000
  C   C16       1.0  0.16035  0.00617  0.43248  1.0000
  H   H32       1.0  0.99012  0.21206  0.46210  1.0000
  C   C17       1.0  0.17013  0.00725  0.45090  1.0000
  C   C18       1.0  0.01087  0.02432  0.30686  1.0000
  H   H33       1.0  0.16841  0.01403  0.41896  1.0000
  H   H34       1.0  0.16180  0.99861  0.46360  1.0000
  C   C19       1.0  0.18451  0.06813  0.45869  1.0000
  H   H35       1.0  0.02260  0.09335  0.32705  1.0000
  H   H36       1.0  0.17954  0.03599  0.44121  1.0000
  H   H37       1.0  0.01126  0.04084  0.33940  1.0000
  H   H38       1.0  0.20716  0.02859  0.45745  1.0000
  H   H39       1.0  0.00995  0.03345  0.27484  1.0000
  H   H40       1.0  0.14440  0.01285  0.43439  1.0000
  C   C20       1.0  0.01507  0.08050  0.33486  1.0000
  H   H41       1.0  0.15693  0.06003  0.47513  1.0000
  H   H42       1.0  0.04572  0.02489  0.26365  1.0000
  N   N1        1.0  0.99334  0.03728  0.31685  1.0000
  H   H43       1.0  0.02511  0.07137  0.34507  1.0000
  C   C21       1.0  0.03934  0.01889  0.27888  1.0000
  H   H44       1.0  0.23426  0.00027  0.46156  1.0000
  H   H45       1.0  0.18896  0.09929  0.45133  1.0000
  H   H46       1.0  0.02495  0.06321  0.31083  1.0000
  H   H47       1.0  0.02287  0.02002  0.31666  1.0000
  H   H48       1.0  0.18574  0.99989  0.44822  1.0000
  C   C22       1.0  0.01052  0.06817  0.31959  1.0000
  H   H49       1.0  0.18652  0.09053  0.47765  1.0000
  C   C23       1.0  0.99822  0.15652  0.47369  1.0000
  H   H50       1.0  0.19947  0.99312  0.47522  1.0000
  H   H51       1.0  0.17924  0.06815  0.44412  1.0000
  C   C24       1.0  0.02059  0.03261  0.28586  1.0000
  H   H52       1.0  0.02482  0.04764  0.28551  1.0000
  H   H53       1.0  0.05086  0.01786  0.28901  1.0000
  C   C25       1.0  0.17309  0.05435  0.47522  1.0000
  H   H54       1.0  0.03556  0.00372  0.27838  1.0000
  N   N2        1.0  0.17701  0.03234  0.47339  1.0000
  C   C26       1.0  0.22895  0.99901  0.47779  1.0000
  H   H55       1.0  0.00083  0.07828  0.30974  1.0000
  H   H56       1.0  0.00152  0.99749  0.33846  1.0000
  H   H57       1.0  0.16091  0.99030  0.43031  1.0000
  C   C27       1.0  0.00032  0.04994  0.33008  1.0000
  H   H58       1.0  0.00517  0.16659  0.46185  1.0000
  H   H59       1.0  0.00099  0.08640  0.34376  1.0000
  H   H60       1.0  0.20090  0.06339  0.45716  1.0000
  H   H61       1.0  0.00625  0.00992  0.30464  1.0000
  C   C28       1.0  0.18091  0.08961  0.46342  1.0000
  H   H62       1.0  0.99665  0.01559  0.35576  1.0000
  H   H63       1.0  0.16468  0.09531  0.46469  1.0000
  H   H64       1.0  0.99055  0.05972  0.29103  1.0000
  C   C29       1.0  0.98977  0.00815  0.34568  1.0000
  Fe  Fe1       1.0  0.44214  0.29164  0.62329  1.0000
  H   H65       1.0  0.01094  0.24861  0.66442  1.0000
  C   C30       1.0  0.05936  0.05524  0.62080  1.0000
  Fe  Fe2       1.0  0.44064  0.25711  0.60044  1.0000
  S   S1        1.0  0.43818  0.27759  0.57159  1.0000
  S   S2        1.0  0.44155  0.22401  0.59864  1.0000
  H   H66       1.0  0.46357  0.09778  0.71719  1.0000
  S   S3        1.0  0.44481  0.06437  0.64295  1.0000
  Fe  Fe3       1.0  0.41656  0.29851  0.58969  1.0000
  H   H67       1.0  0.17144  0.02430  0.50526  1.0000
  H   H68       1.0  0.09527  0.99185  0.66185  1.0000
  S   S4        1.0  0.41679  0.27662  0.61772  1.0000
  H   H69       1.0  0.03157  0.04180  0.62839  1.0000
  C   C31       1.0  0.99186  0.20698  0.50527  1.0000
  N   N3        1.0  0.99232  0.19506  0.63679  1.0000
  C   C32       1.0  0.11917  0.99272  0.60695  1.0000
  H   H70       1.0  0.00674  0.22165  0.52411  1.0000
  C   C33       1.0  0.48107  0.29022  0.65407  1.0000
  H   H71       1.0  0.00373  0.21368  0.66726  1.0000
  C   C34       1.0  0.08493  0.05044  0.58013  1.0000
  S   S5        1.0  0.41414  0.00500  0.59413  1.0000
  Fe  Fe4       1.0  0.07058  0.14894  0.55204  1.0000
  S   S6        1.0  0.05094  0.13041  0.54144  1.0000
  S   S7        1.0  0.10252  0.13631  0.55772  1.0000
  Fe  Fe5       1.0  0.03563  0.18253  0.56059  1.0000
  S   S8        1.0  0.01349  0.16524  0.55150  1.0000
  S   S9        1.0  0.01924  0.21289  0.56766  1.0000
  Fe  Fe6       1.0  0.02933  0.13836  0.56793  1.0000
  H   H72       1.0  0.44538  0.29258  0.70132  1.0000
  Fe  Fe7       1.0  0.03677  0.15895  0.52579  1.0000
  S   S10       1.0  0.04935  0.15569  0.57964  1.0000
  S   S11       1.0  0.05848  0.17744  0.53377  1.0000
  Fe  Fe8       1.0  0.22300  0.02433  0.55754  1.0000
  H   H73       1.0  0.34226  0.01850  0.66361  1.0000
  S   S12       1.0  0.25481  0.03194  0.55586  1.0000
  Fe  Fe9       1.0  0.18030  0.03642  0.54612  1.0000
  S   S13       1.0  0.17182  0.00548  0.55621  1.0000
  S   S14       1.0  0.15729  0.05830  0.52996  1.0000
  Fe  Fe10      1.0  0.18744  0.00665  0.58251  1.0000
  C   C35       1.0  0.06509  0.30415  0.55882  1.0000
  H   H74       1.0  0.03280  0.09273  0.54173  1.0000
  H   H75       1.0  0.43373  0.29487  0.72648  1.0000
  S   S15       1.0  0.19406  0.03831  0.57371  1.0000
  S   S16       1.0  0.20981  0.02490  0.52908  1.0000
  Fe  Fe11      1.0  0.39095  0.98485  0.60888  1.0000
  S   S17       1.0  0.02876  0.28329  0.61594  1.0000
  H   H76       1.0  0.99647  0.19874  0.49226  1.0000
  C   C36       1.0  0.11358  0.03269  0.55861  1.0000
  H   H77       1.0  0.99712  0.06572  0.54543  1.0000
  C   C37       1.0  0.02295  0.23246  0.58060  1.0000
  C   C38       1.0  0.00780  0.24875  0.58197  1.0000
  C   C39       1.0  0.00953  0.26445  0.59251  1.0000
  C   C40       1.0  0.02638  0.26397  0.60207  1.0000
  C   C41       1.0  0.04158  0.24768  0.60074  1.0000
  C   C42       1.0  0.04001  0.23212  0.58984  1.0000
  H   H78       1.0  0.41225  0.99390  0.55183  1.0000
  H   H79       1.0  0.10987  0.01917  0.72348  1.0000
  H   H80       1.0  0.05470  0.24717  0.60804  1.0000
  H   H81       1.0  0.05186  0.21977  0.58879  1.0000
  H   H82       1.0  0.09736  0.06072  0.54909  1.0000
  C   C43       1.0  0.08390  0.08264  0.59204  1.0000
  H   H83       1.0  0.47742  0.29943  0.70920  1.0000
  H   H84       1.0  0.41459  0.00817  0.66875  1.0000
  C   C44       1.0  0.37901  0.02627  0.68518  1.0000
  H   H85       1.0  0.99097  0.06054  0.57204  1.0000
  H   H86       1.0  0.06787  0.29778  0.62060  1.0000
  H   H87       1.0  0.38069  0.02797  0.66864  1.0000
  H   H88       1.0  0.99323  0.17955  0.67790  1.0000
  C   C45       1.0  0.11684  0.11398  0.55043  1.0000
  C   C46       1.0  0.11271  0.10502  0.53467  1.0000
  C   C47       1.0  0.12526  0.08805  0.52860  1.0000
  C   C48       1.0  0.14175  0.07946  0.53854  1.0000
  C   C49       1.0  0.14550  0.08804  0.55470  1.0000
  C   C50       1.0  0.13326  0.10532  0.56042  1.0000
  H   H89       1.0  0.10024  0.11156  0.52673  1.0000
  H   H90       1.0  0.12221  0.08158  0.51607  1.0000
  H   H91       1.0  0.15813  0.08168  0.56247  1.0000
  H   H92       1.0  0.13666  0.11213  0.57258  1.0000
  H   H93       1.0  0.06382  0.05573  0.54848  1.0000
  H   H94       1.0  0.16835  0.00547  0.49145  1.0000
  S   S18       1.0  0.01582  0.11268  0.58656  1.0000
  C   C51       1.0  0.27108  0.01923  0.57292  1.0000
  S   S19       1.0  0.31306  0.98783  0.61812  1.0000
  H   H95       1.0  0.37042  0.28126  0.61768  1.0000
  H   H96       1.0  0.47320  0.27769  0.53774  1.0000
  C   C52       1.0  0.06940  0.02526  0.71660  1.0000
  C   C53       1.0  0.26382  0.00771  0.59039  1.0000
  C   C54       1.0  0.43706  0.04783  0.62887  1.0000
  C   C55       1.0  0.44767  0.04293  0.61075  1.0000
  C   C56       1.0  0.44054  0.02976  0.60023  1.0000
  C   C57       1.0  0.42305  0.02105  0.60794  1.0000
  C   C58       1.0  0.41263  0.02580  0.62617  1.0000
  C   C59       1.0  0.41944  0.03936  0.63635  1.0000
  H   H97       1.0  0.46120  0.04944  0.60475  1.0000
  H   H98       1.0  0.44865  0.02627  0.58608  1.0000
  H   H99       1.0  0.39908  0.01939  0.63221  1.0000
  H   H100      1.0  0.41096  0.04342  0.65011  1.0000
  C   C60       1.0  0.44924  0.20413  0.61672  1.0000
  C   C61       1.0  0.45777  0.20715  0.63322  1.0000
  C   C62       1.0  0.46461  0.19067  0.64660  1.0000
  C   C63       1.0  0.46329  0.17109  0.64342  1.0000
  C   C64       1.0  0.45453  0.16815  0.62708  1.0000
  C   C65       1.0  0.44747  0.18459  0.61387  1.0000
  H   H101      1.0  0.45914  0.22212  0.63564  1.0000
  H   H102      1.0  0.34729  0.29661  0.61272  1.0000
  S   S20       1.0  0.44070  0.31454  0.59632  1.0000
  H   H103      1.0  0.00298  0.13528  0.52118  1.0000
  H   H104      1.0  0.99692  0.22519  0.62323  1.0000
  H   H105      1.0  0.06718  0.11237  0.58612  1.0000
  C   C66       1.0  0.30493  0.01103  0.58243  1.0000
  H   H106      1.0  0.14025  0.01153  0.52475  1.0000
  H   H107      1.0  0.32071  0.01224  0.57919  1.0000
  H   H108      1.0  0.04253  0.07716  0.60114  1.0000
  H   H109      1.0  0.04454  0.04283  0.64911  1.0000
  C   C67       1.0  0.39945  0.02415  0.69254  1.0000
  H   H110      1.0  0.04048  0.06161  0.56392  1.0000
  C   C68       1.0  0.14262  0.02761  0.49467  1.0000
  H   H111      1.0  0.99843  0.20046  0.60469  1.0000
  H   H112      1.0  0.02139  0.22018  0.64610  1.0000
  H   H113      1.0  0.47626  0.22860  0.50891  1.0000
  N   N4        1.0  0.34261  0.05342  0.60730  1.0000
  C   C69       1.0  0.35572  0.06995  0.60231  1.0000
  C   C70       1.0  0.32146  0.06108  0.60297  1.0000
  C   C71       1.0  0.34186  0.04658  0.62944  1.0000
  C   C72       1.0  0.35110  0.03578  0.59640  1.0000
  C   C73       1.0  0.35415  0.03992  0.57336  1.0000
  C   C74       1.0  0.32607  0.03246  0.63880  1.0000
  C   C75       1.0  0.31876  0.07735  0.58481  1.0000
  C   C76       1.0  0.29738  0.07997  0.57961  1.0000
  C   C77       1.0  0.36547  0.02187  0.56406  1.0000
  C   C78       1.0  0.32719  0.02631  0.66105  1.0000
  H   H114      1.0  0.34903  0.08258  0.61077  1.0000
  H   H115      1.0  0.35635  0.07637  0.58643  1.0000
  H   H116      1.0  0.31348  0.04839  0.60137  1.0000
  H   H117      1.0  0.31267  0.06808  0.61582  1.0000
  H   H118      1.0  0.33884  0.05969  0.63786  1.0000
  H   H119      1.0  0.35660  0.03855  0.63297  1.0000
  H   H120      1.0  0.36561  0.02873  0.60140  1.0000
  H   H121      1.0  0.34120  0.02387  0.60031  1.0000
  H   H122      1.0  0.36285  0.05253  0.56788  1.0000
  H   H123      1.0  0.33939  0.04304  0.56775  1.0000
  H   H124      1.0  0.32856  0.01873  0.63163  1.0000
  H   H125      1.0  0.31057  0.03962  0.63726  1.0000
  H   H126      1.0  0.32168  0.09186  0.58847  1.0000
  H   H127      1.0  0.32906  0.07405  0.57130  1.0000
  H   H128      1.0  0.29401  0.06603  0.57505  1.0000
  H   H129      1.0  0.28639  0.08396  0.59257  1.0000
  H   H130      1.0  0.29563  0.09209  0.56702  1.0000
  H   H131      1.0  0.48739  0.06909  0.71919  1.0000
  H   H132      1.0  0.35670  0.00911  0.56785  1.0000
  H   H133      1.0  0.36781  0.02550  0.54759  1.0000
  H   H134      1.0  0.99468  0.09604  0.56127  1.0000
  H   H135      1.0  0.32383  0.03956  0.66916  1.0000
  H   H136      1.0  0.06940  0.04093  0.62032  1.0000
  Fe  Fe12      1.0  0.20213  0.99427  0.54148  1.0000
  H   H137      1.0  0.11669  0.01922  0.51500  1.0000
  C   C79       1.0  0.13267  0.01331  0.51120  1.0000
  H   H138      1.0  0.03793  0.07161  0.52809  1.0000
  H   H139      1.0  0.47612  0.19522  0.57901  1.0000
  C   C80       1.0  0.27696  0.99823  0.60395  1.0000
  H   H140      1.0  0.42983  0.01597  0.71863  1.0000
  C   C81       1.0  0.16567  0.02175  0.49156  1.0000
  H   H141      1.0  0.12569  0.03501  0.54612  1.0000
  C   C82       1.0  0.02971  0.18734  0.62289  1.0000
  C   C83       1.0  0.01051  0.21382  0.51067  1.0000
  H   H142      1.0  0.10855  0.00096  0.59754  1.0000
  C   C84       1.0  0.44587  0.01719  0.68210  1.0000
  C   C85       1.0  0.04995  0.17744  0.62879  1.0000
  C   C86       1.0  0.48755  0.21618  0.50412  1.0000
  C   C87       1.0  0.13882  0.99741  0.60458  1.0000
  C   C88       1.0  0.43085  0.00059  0.71470  1.0000
  S   S21       1.0  0.46612  0.27044  0.60841  1.0000
  H   H143      1.0  0.13475  0.27751  0.58510  1.0000
  H   H144      1.0  0.41637  0.99515  0.72140  1.0000
  C   C89       1.0  0.99250  0.98469  0.69499  1.0000
  H   H145      1.0  0.09405  0.02032  0.68103  1.0000
  C   C90       1.0  0.00604  0.15200  0.49190  1.0000
  H   H146      1.0  0.47611  0.00049  0.68372  1.0000
  C   C91       1.0  0.04040  0.05106  0.63483  1.0000
  H   H147      1.0  0.02767  0.18156  0.60912  1.0000
  H   H148      1.0  0.03020  0.20355  0.61933  1.0000
  H   H149      1.0  0.14344  0.00935  0.59346  1.0000
  H   H150      1.0  0.45310  0.15320  0.62467  1.0000
  H   H151      1.0  0.02600  0.01226  0.65216  1.0000
  C   C92       1.0  0.08936  0.00725  0.65588  1.0000
  H   H152      1.0  0.06186  0.03354  0.72900  1.0000
  H   H153      1.0  0.00497  0.08968  0.62366  1.0000
  H   H154      1.0  0.05886  0.09933  0.61003  1.0000
  H   H155      1.0  0.05012  0.16102  0.63201  1.0000
  H   H156      1.0  0.06192  0.18070  0.61629  1.0000
  H   H157      1.0  0.05322  0.18330  0.64208  1.0000
  H   H158      1.0  0.00167  0.25421  0.64069  1.0000
  C   C93       1.0  0.48674  0.28263  0.52938  1.0000
  H   H159      1.0  0.05669  0.08801  0.52637  1.0000
  H   H160      1.0  0.24798  0.00643  0.59367  1.0000
  C   C94       1.0  0.05316  0.06805  0.55432  1.0000
  H   H161      1.0  0.10022  0.28919  0.59878  1.0000
  H   H162      1.0  0.03670  0.08322  0.69376  1.0000
  H   H163      1.0  0.06835  0.29353  0.58977  1.0000
  H   H164      1.0  0.20592  0.03514  0.48177  1.0000
  H   H165      1.0  0.07736  0.00657  0.64676  1.0000
  H   H166      1.0  0.05859  0.28224  0.54159  1.0000
  H   H167      1.0  0.06893  0.30521  0.65449  1.0000
  H   H168      1.0  0.01615  0.07372  0.68587  1.0000
  C   C95       1.0  0.99203  0.21699  0.63811  1.0000
  H   H169      1.0  0.39016  0.08699  0.58421  1.0000
  C   C96       1.0  0.01665  0.00469  0.66419  1.0000
  N   N5        1.0  0.43358  0.00102  0.69227  1.0000
  H   H170      1.0  0.39672  0.02294  0.70903  1.0000
  H   H171      1.0  0.09209  0.07425  0.60423  1.0000
  H   H172      1.0  0.13882  0.04277  0.49917  1.0000
  H   H173      1.0  0.03091  0.06520  0.63790  1.0000
  C   C97       1.0  0.99888  0.11878  0.60722  1.0000
  H   H174      1.0  0.17684  0.05698  0.48985  1.0000
  H   H175      1.0  0.47804  0.27651  0.64971  1.0000
  N   N6        1.0  0.05436  0.02152  0.70395  1.0000
  C   C98       1.0  0.06421  0.01024  0.68693  1.0000
  H   H176      1.0  0.99459  0.24927  0.57479  1.0000
  C   C99       1.0  0.04475  0.04154  0.69494  1.0000
  S   S22       1.0  0.47727  0.11065  0.62133  1.0000
  C   C100      1.0  0.02366  0.07490  0.69890  1.0000
  C   C101      1.0  0.08134  0.01966  0.67282  1.0000
  C   C102      1.0  0.03028  0.05419  0.70945  1.0000
  H   H177      1.0  0.13339  0.99850  0.50624  1.0000
  H   H178      1.0  0.34687  0.27421  0.63033  1.0000
  S   S23       1.0  0.36690  0.99318  0.63332  1.0000
  H   H179      1.0  0.05271  0.00814  0.67771  1.0000
  C   C103      1.0  0.00537  0.22260  0.65240  1.0000
  C   C104      1.0  0.12906  0.29364  0.58271  1.0000
  H   H180      1.0  0.03590  0.03949  0.68316  1.0000
  H   H181      1.0  0.05634  0.05102  0.68751  1.0000
  H   H182      1.0  0.07997  0.03521  0.70778  1.0000
  C   C105      1.0  0.99619  0.10420  0.62362  1.0000
  H   H183      1.0  0.47963  0.02992  0.65774  1.0000
  H   H184      1.0  0.23638  0.00905  0.48481  1.0000
  H   H185      1.0  0.07621  0.03486  0.66586  1.0000
  H   H186      1.0  0.34105  0.30373  0.64798  1.0000
  H   H187      1.0  0.12165  0.98754  0.55109  1.0000
  H   H188      1.0  0.43873  0.03195  0.68622  1.0000
  H   H189      1.0  0.45975  0.14063  0.57531  1.0000
  C   C106      1.0  0.04467  0.08095  0.53655  1.0000
  H   H190      1.0  0.20181  0.00206  0.49789  1.0000
  C   C107      1.0  0.46770  0.01512  0.68668  1.0000
  H   H191      1.0  0.45353  0.27470  0.72151  1.0000
  C   C108      1.0  0.02057  0.98395  0.66876  1.0000
  C   C109      1.0  0.35522  0.28706  0.62448  1.0000
  H   H192      1.0  0.38364  0.31047  0.62770  1.0000
  H   H193      1.0  0.44613  0.01875  0.66566  1.0000
  H   H194      1.0  0.44071  0.18215  0.60126  1.0000
  S   S24       1.0  0.02716  0.16278  0.49508  1.0000
  Fe  Fe13      1.0  0.46235  0.29195  0.58065  1.0000
  N   N7        1.0  0.07169  0.06940  0.58446  1.0000
  H   H195      1.0  0.11348  0.06131  0.56750  1.0000
  H   H196      1.0  0.08827  0.99590  0.71608  1.0000
  H   H197      1.0  0.01289  0.08347  0.70936  1.0000
  C   C110      1.0  0.37779  0.06419  0.60648  1.0000
  H   H198      1.0  0.38300  0.09440  0.60892  1.0000
  H   H199      1.0  0.10331  0.02336  0.55433  1.0000
  H   H200      1.0  0.46221  0.98844  0.71976  1.0000
  H   H201      1.0  0.38548  0.05206  0.59792  1.0000
  H   H202      1.0  0.02385  0.01438  0.70938  1.0000
  H   H203      1.0  0.07594  0.03932  0.57678  1.0000
  C   C111      1.0  0.41316  0.00568  0.68529  1.0000
  H   H204      1.0  0.27105  0.98967  0.61759  1.0000
  C   C112      1.0  0.38970  0.08187  0.60043  1.0000
  H   H205      1.0  0.37861  0.05935  0.62256  1.0000
  H   H206      1.0  0.40533  0.07728  0.60375  1.0000
  C   C113      1.0  0.99702  0.13891  0.50712  1.0000
  H   H207      1.0  0.07558  0.08737  0.55552  1.0000
  S   S25       1.0  0.17739  0.99168  0.61318  1.0000
  H   H208      1.0  0.09189  0.04321  0.59355  1.0000
  H   H209      1.0  0.47121  0.19309  0.65933  1.0000
  C   C114      1.0  0.47902  0.03118  0.67382  1.0000
  H   H210      1.0  0.48062  0.16465  0.55341  1.0000
  C   C115      1.0  0.06361  0.08043  0.56598  1.0000
  C   C116      1.0  0.00035  0.24459  0.65528  1.0000
  H   H211      1.0  0.09587  0.08747  0.58014  1.0000
  H   H212      1.0  0.01655  0.04706  0.71499  1.0000
  H   H213      1.0  0.12055  0.02485  0.57168  1.0000
  C   C117      1.0  0.05751  0.28454  0.55745  1.0000
  S   S26       1.0  0.47489  0.09118  0.66823  1.0000
  H   H214      1.0  0.36422  0.28857  0.65283  1.0000
  H   H215      1.0  0.45302  0.98939  0.65479  1.0000
  C   C118      1.0  0.46552  0.30571  0.65691  1.0000
  H   H216      1.0  0.38035  0.01760  0.56933  1.0000
  H   H217      1.0  0.05245  0.09323  0.56992  1.0000
  C   C119      1.0  0.29755  0.99979  0.60007  1.0000
  C   C120      1.0  0.10251  0.05287  0.56312  1.0000
  Fe  Fe14      1.0  0.48222  0.11997  0.65003  1.0000
  H   H218      1.0  0.33571  0.99729  0.54452  1.0000
  C   C121      1.0  0.05424  0.06408  0.59970  1.0000
  C   C122      1.0  0.10625  0.29634  0.58398  1.0000
  H   H219      1.0  0.07713  0.12735  0.61267  1.0000
  H   H220      1.0  0.36947  0.03964  0.69029  1.0000
  H   H221      1.0  0.29745  0.02967  0.55548  1.0000
  C   C123      1.0  0.29171  0.02084  0.56900  1.0000
  Fe  Fe15      1.0  0.47236  0.08075  0.63911  1.0000
  C   C124      1.0  0.00086  0.01557  0.67515  1.0000
  H   H222      1.0  0.03735  0.05625  0.72241  1.0000
  C   C125      1.0  0.07219  0.10212  0.59908  1.0000
  H   H223      1.0  0.10176  0.01405  0.64607  1.0000
  C   C126      1.0  0.08540  0.11284  0.60899  1.0000
  H   H224      1.0  0.25483  0.99265  0.53848  1.0000
  H   H225      1.0  0.07073  0.99495  0.69235  1.0000
  S   S27       1.0  0.99710  0.04166  0.66941  1.0000
  H   H226      1.0  0.10240  0.28795  0.57271  1.0000
  H   H227      1.0  0.06670  0.06561  0.62742  1.0000
  H   H228      1.0  0.09926  0.11579  0.59882  1.0000
  H   H229      1.0  0.04156  0.28491  0.56410  1.0000
  H   H230      1.0  0.99775  0.27691  0.59331  1.0000
  H   H231      1.0  0.02172  0.20068  0.51399  1.0000
  H   H232      1.0  0.08957  0.10374  0.62294  1.0000
  H   H233      1.0  0.37135  0.01296  0.69118  1.0000
  H   H234      1.0  0.04661  0.05282  0.59465  1.0000
  S   S28       1.0  0.44139  0.30331  0.65251  1.0000
  C   C127      1.0  0.15251  0.98670  0.61673  1.0000
  S   S29       1.0  0.47302  0.15067  0.65986  1.0000
  H   H235      1.0  0.46781  0.01717  0.70243  1.0000
  H   H236      1.0  0.01715  0.18459  0.65391  1.0000
  C   C128      1.0  0.08173  0.00667  0.72662  1.0000
  H   H237      1.0  0.40473  0.99268  0.68987  1.0000
  H   H238      1.0  0.06654  0.27175  0.56531  1.0000
  H   H239      1.0  0.98934  0.14869  0.59432  1.0000
  H   H240      1.0  0.47161  0.04624  0.67670  1.0000
  C   C129      1.0  0.35656  0.29887  0.64139  1.0000
  H   H241      1.0  0.01105  0.16666  0.64055  1.0000
  C   C130      1.0  0.46370  0.30381  0.71934  1.0000
  H   H242      1.0  0.47151  0.13156  0.55240  1.0000
  H   H243      1.0  0.40614  0.03804  0.68679  1.0000
  H   H244      1.0  0.04774  0.31150  0.58628  1.0000
  C   C131      1.0  0.03797  0.01065  0.71634  1.0000
  H   H245      1.0  0.13589  0.30003  0.56779  1.0000
  H   H246      1.0  0.31601  0.01596  0.66721  1.0000
  S   S30       1.0  0.21718  0.99316  0.56860  1.0000
  C   C132      1.0  0.44810  0.29065  0.71715  1.0000
  H   H247      1.0  0.08063  0.30383  0.55109  1.0000
  H   H248      1.0  0.47410  0.23252  0.56139  1.0000
  C   C133      1.0  0.20621  0.00409  0.48153  1.0000
  H   H249      1.0  0.48429  0.26926  0.50331  1.0000
  H   H250      1.0  0.13375  0.30098  0.59436  1.0000
  C   C134      1.0  0.06385  0.30792  0.58080  1.0000
  H   H251      1.0  0.34922  0.98850  0.52211  1.0000
  H   H252      1.0  0.28720  0.98460  0.55078  1.0000
  C   C135      1.0  0.47435  0.13553  0.56678  1.0000
  S   S31       1.0  0.38587  0.31346  0.58205  1.0000
  H   H253      1.0  0.01740  0.22385  0.49807  1.0000
  H   H254      1.0  0.47724  0.16118  0.59185  1.0000
  C   C136      1.0  0.01231  0.18287  0.63959  1.0000
  H   H255      1.0  0.48088  0.20817  0.49431  1.0000
  H   H256      1.0  0.48160  0.12196  0.57529  1.0000
  H   H257      1.0  0.39390  0.30977  0.65904  1.0000
  H   H258      1.0  0.37077  0.30809  0.67421  1.0000
  H   H259      1.0  0.09033  0.30828  0.62241  1.0000
  C   C137      1.0  0.47700  0.09936  0.72398  1.0000
  H   H260      1.0  0.38678  0.30760  0.70487  1.0000
  H   H261      1.0  0.41058  0.30958  0.68936  1.0000
  Fe  Fe16      1.0  0.00746  0.31242  0.61357  1.0000
  C   C138      1.0  0.44663  0.98685  0.72646  1.0000
  C   C139      1.0  0.04152  0.98752  0.71913  1.0000
  C   C140      1.0  0.07391  0.31152  0.62224  1.0000
  H   H262      1.0  0.48233  0.12488  0.70176  1.0000
  H   H263      1.0  0.99035  0.17704  0.61383  1.0000
  C   C141      1.0  0.34345  0.98386  0.53792  1.0000
  C   C142      1.0  0.48799  0.15193  0.56285  1.0000
  H   H264      1.0  0.05546  0.31621  0.55066  1.0000
  H   H265      1.0  0.23329  0.98343  0.48448  1.0000
  H   H266      1.0  0.13588  0.02725  0.48099  1.0000
  Fe  Fe17      1.0  0.02233  0.11785  0.84597  1.0000
  S   S32       1.0  0.01372  0.14604  0.82583  1.0000
  S   S33       1.0  0.05172  0.09996  0.83484  1.0000
  N   N8        1.0  0.47861  0.06856  0.75104  1.0000
  H   H267      1.0  0.12658  0.05036  0.79540  1.0000
  H   H268      1.0  0.42134  0.04999  0.91704  1.0000
  H   H269      1.0  0.17191  0.99471  0.87577  1.0000
  C   C143      1.0  0.01616  0.06341  0.81761  1.0000
  H   H270      1.0  0.99696  0.23203  0.79731  1.0000
  S   S34       1.0  0.01242  0.13230  0.87402  1.0000
  S   S35       1.0  0.08400  0.01202  0.87094  1.0000
  S   S36       1.0  0.00115  0.19232  0.85845  1.0000
  H   H271      1.0  0.47524  0.07240  0.78218  1.0000
  Fe  Fe18      1.0  0.06347  0.26606  0.89516  1.0000
  S   S37       1.0  0.03696  0.28687  0.88634  1.0000
  S   S38       1.0  0.06395  0.23266  0.89498  1.0000
  Fe  Fe19      1.0  0.08461  0.30071  0.90357  1.0000
  C   C144      1.0  0.00777  0.04947  0.78899  1.0000
  C   C145      1.0  0.37909  0.01923  0.86146  1.0000
  Fe  Fe20      1.0  0.03933  0.30160  0.91280  1.0000
  H   H272      1.0  0.02341  0.31059  0.81193  1.0000
  C   C146      1.0  0.99166  0.18092  0.92469  1.0000
  H   H273      1.0  0.47723  0.28172  0.77838  1.0000
  S   S39       1.0  0.06475  0.27965  0.92301  1.0000
  S   S40       1.0  0.08587  0.28482  0.87674  1.0000
  Fe  Fe21      1.0  0.41827  0.17002  0.91119  1.0000
  S   S41       1.0  0.41380  0.14911  0.93993  1.0000
  S   S42       1.0  0.41204  0.20374  0.91101  1.0000
  Fe  Fe22      1.0  0.43440  0.13588  0.88761  1.0000
  S   S43       1.0  0.43254  0.11264  0.91424  1.0000
  S   S44       1.0  0.44492  0.12631  0.85747  1.0000
  Fe  Fe23      1.0  0.40201  0.12901  0.92205  1.0000
  S   S45       1.0  0.37649  0.11033  0.93494  1.0000
  Fe  Fe24      1.0  0.44453  0.13431  0.92968  1.0000
  S   S46       1.0  0.46980  0.12327  0.94845  1.0000
  S   S47       1.0  0.40334  0.15153  0.89446  1.0000
  S   S48       1.0  0.44946  0.15600  0.90196  1.0000
  Fe  Fe25      1.0  0.30018  0.02349  0.86307  1.0000
  S   S49       1.0  0.27753  0.04860  0.87280  1.0000
  S   S50       1.0  0.31534  0.02292  0.83167  1.0000
  Fe  Fe26      1.0  0.30083  0.00212  0.90516  1.0000
  S   S51       1.0  0.27841  0.02581  0.91821  1.0000
  C   C147      1.0  0.01971  0.08199  0.78396  1.0000
  Fe  Fe27      1.0  0.26181  0.02431  0.89217  1.0000
  S   S52       1.0  0.22856  0.01973  0.89701  1.0000
  Fe  Fe28      1.0  0.29655  0.04765  0.89750  1.0000
  S   S53       1.0  0.30686  0.07670  0.90303  1.0000
  S   S54       1.0  0.28346  0.99944  0.88057  1.0000
  S   S55       1.0  0.31981  0.02384  0.88636  1.0000
  H   H274      1.0  0.19444  0.07386  0.88066  1.0000
  C   C148      1.0  0.13557  0.07435  0.86142  1.0000
  H   H275      1.0  0.37351  0.00370  0.77424  1.0000
  H   H276      1.0  0.12272  0.01745  0.91671  1.0000
  H   H277      1.0  0.47140  0.11959  0.88739  1.0000
  C   C149      1.0  0.48144  0.11231  0.83862  1.0000
  C   C150      1.0  0.44339  0.06376  0.89476  1.0000
  C   C151      1.0  0.35990  0.09740  0.92520  1.0000
  C   C152      1.0  0.36030  0.09651  0.90480  1.0000
  C   C153      1.0  0.34502  0.08828  0.89797  1.0000
  C   C154      1.0  0.32946  0.08046  0.91145  1.0000
  C   C155      1.0  0.32978  0.08054  0.93184  1.0000
  C   C156      1.0  0.34486  0.08884  0.93862  1.0000
  H   H278      1.0  0.37181  0.10293  0.89424  1.0000
  H   H279      1.0  0.34468  0.08893  0.88214  1.0000
  H   H280      1.0  0.31766  0.07520  0.94243  1.0000
  H   H281      1.0  0.34432  0.08939  0.95441  1.0000
  H   H282      1.0  0.09118  0.03440  0.83142  1.0000
  H   H283      1.0  0.05566  0.04255  0.88759  1.0000
  S   S56       1.0  0.11392  0.30822  0.91131  1.0000
  C   C157      1.0  0.47979  0.11561  0.87357  1.0000
  H   H284      1.0  0.08494  0.09454  0.86861  1.0000
  H   H285      1.0  0.07889  0.06903  0.81797  1.0000
  C   C158      1.0  0.00083  0.29837  0.95297  1.0000
  C   C159      1.0  0.36934  0.03442  0.92314  1.0000
  H   H286      1.0  0.46891  0.22133  0.86089  1.0000
  H   H287      1.0  0.36469  0.03625  0.82694  1.0000
  H   H288      1.0  0.34092  0.99142  0.78081  1.0000
  C   C160      1.0  0.47042  0.11758  0.85644  1.0000
  H   H289      1.0  0.99390  0.16512  0.93155  1.0000
  Fe  Fe29      1.0  0.10691  0.99169  0.85320  1.0000
  C   C161      1.0  0.45688  0.24574  0.87752  1.0000
  C   C162      1.0  0.44193  0.25223  0.89238  1.0000
  C   C163      1.0  0.42810  0.23936  0.90230  1.0000
  C   C164      1.0  0.42936  0.21974  0.89783  1.0000
  C   C165      1.0  0.44425  0.21336  0.88289  1.0000
  C   C166      1.0  0.45775  0.22634  0.87270  1.0000
  H   H290      1.0  0.44098  0.26715  0.89620  1.0000
  H   H291      1.0  0.41657  0.24452  0.91374  1.0000
  H   H292      1.0  0.44517  0.19849  0.87898  1.0000
  H   H293      1.0  0.48344  0.06761  0.89121  1.0000
  C   C167      1.0  0.34867  0.99799  0.81993  1.0000
  H   H294      1.0  0.41426  0.07595  0.90872  1.0000
  C   C168      1.0  0.22429  0.01231  0.85906  1.0000
  C   C169      1.0  0.21611  0.01170  0.87910  1.0000
  C   C170      1.0  0.19717  0.00518  0.88501  1.0000
  C   C171      1.0  0.18647  0.99956  0.87102  1.0000
  H   H295      1.0  0.47568  0.02999  0.74116  1.0000
  H   H296      1.0  0.19069  0.00465  0.90047  1.0000
  H   H297      1.0  0.10594  0.10282  0.87672  1.0000
  H   H298      1.0  0.16279  0.04002  0.83212  1.0000
  C   C172      1.0  0.01883  0.20305  0.86879  1.0000
  C   C173      1.0  0.03588  0.19178  0.87568  1.0000
  C   C174      1.0  0.04952  0.20104  0.88366  1.0000
  C   C175      1.0  0.04639  0.22167  0.88471  1.0000
  C   C176      1.0  0.02920  0.23288  0.87806  1.0000
  C   C177      1.0  0.01549  0.22361  0.87024  1.0000
  H   H299      1.0  0.03863  0.17593  0.87477  1.0000
  H   H300      1.0  0.06271  0.19218  0.88885  1.0000
  H   H301      1.0  0.02640  0.24865  0.87907  1.0000
  H   H302      1.0  0.02507  0.04402  0.85598  1.0000
  C   C178      1.0  0.05970  0.07527  0.84494  1.0000
  C   C179      1.0  0.05306  0.06767  0.86452  1.0000
  C   C180      1.0  0.06061  0.04824  0.87231  1.0000
  C   C181      1.0  0.07450  0.03615  0.86047  1.0000
  C   C182      1.0  0.08073  0.04363  0.84074  1.0000
  C   C183      1.0  0.07359  0.06320  0.83310  1.0000
  H   H303      1.0  0.04244  0.07688  0.87380  1.0000
  C   C184      1.0  0.38132  0.03393  0.82514  1.0000
  N   N9        1.0  0.32960  0.15552  0.91154  1.0000
  C   C185      1.0  0.31589  0.14009  0.91145  1.0000
  C   C186      1.0  0.34825  0.15195  0.89675  1.0000
  C   C187      1.0  0.33587  0.15294  0.93217  1.0000
  C   C188      1.0  0.31926  0.17651  0.90757  1.0000
  C   C189      1.0  0.31020  0.18220  0.88778  1.0000
  C   C190      1.0  0.29625  0.14151  0.92621  1.0000
  C   C191      1.0  0.35308  0.16461  0.93469  1.0000
  C   C192      1.0  0.34586  0.14458  0.87693  1.0000
  C   C193      1.0  0.36531  0.14445  0.86250  1.0000
  C   C194      1.0  0.29686  0.20225  0.88753  1.0000
  C   C195      1.0  0.28384  0.12508  0.92462  1.0000
  C   C196      1.0  0.45730  0.06593  0.74964  1.0000
  H   H304      1.0  0.32410  0.12490  0.91477  1.0000
  H   H305      1.0  0.31138  0.14042  0.89651  1.0000
  H   H306      1.0  0.35585  0.16563  0.89303  1.0000
  H   H307      1.0  0.35930  0.14024  0.90359  1.0000
  H   H308      1.0  0.34058  0.13690  0.93713  1.0000
  H   H309      1.0  0.32303  0.15759  0.94328  1.0000
  H   H310      1.0  0.30727  0.17976  0.92005  1.0000
  H   H311      1.0  0.32988  0.18744  0.90733  1.0000
  H   H312      1.0  0.30093  0.17104  0.88527  1.0000
  H   H313      1.0  0.32240  0.18389  0.87519  1.0000
  H   H314      1.0  0.29939  0.13967  0.94185  1.0000
  H   H315      1.0  0.28692  0.15603  0.92295  1.0000
  H   H316      1.0  0.34907  0.18089  0.93086  1.0000
  H   H317      1.0  0.36711  0.15988  0.92516  1.0000
  H   H318      1.0  0.34211  0.12909  0.87988  1.0000
  H   H319      1.0  0.33387  0.15377  0.86927  1.0000
  H   H320      1.0  0.36970  0.15969  0.85868  1.0000
  H   H321      1.0  0.37760  0.13436  0.86915  1.0000
  H   H322      1.0  0.36321  0.13901  0.84855  1.0000
  H   H323      1.0  0.29103  0.20627  0.87296  1.0000
  H   H324      1.0  0.28390  0.20142  0.89947  1.0000
  H   H325      1.0  0.30550  0.21416  0.88964  1.0000
  H   H326      1.0  0.28018  0.12595  0.90921  1.0000
  H   H327      1.0  0.29219  0.11018  0.92879  1.0000
  H   H328      1.0  0.11956  0.26512  0.96115  1.0000
  C   C197      1.0  0.99031  0.23152  0.95953  1.0000
  H   H329      1.0  0.06478  0.23047  0.93866  1.0000
  H   H330      1.0  0.35109  0.99074  0.86492  1.0000
  H   H331      1.0  0.02666  0.24181  0.96694  1.0000
  S   S57       1.0  0.44165  0.99554  0.80509  1.0000
  H   H332      1.0  0.00862  0.21337  0.81493  1.0000
  C   C198      1.0  0.19945  0.07067  0.86511  1.0000
  H   H333      1.0  0.12435  0.04280  0.83164  1.0000
  H   H334      1.0  0.45448  0.03795  0.77010  1.0000
  H   H335      1.0  0.04858  0.03223  0.81881  1.0000
  H   H336      1.0  0.23882  0.01729  0.85426  1.0000
  N   N10       1.0  0.48424  0.31297  0.74489  1.0000
  H   H337      1.0  0.37697  0.99740  0.90980  1.0000
  H   H338      1.0  0.10390  0.27459  0.94187  1.0000
  H   H339      1.0  0.29746  0.99616  0.95246  1.0000
  H   H340      1.0  0.17269  0.08580  0.85373  1.0000
  H   H341      1.0  0.01599  0.03083  0.82791  1.0000
  H   H342      1.0  0.01499  0.25365  0.91683  1.0000
  H   H343      1.0  0.10336  0.30857  0.95153  1.0000
  C   C199      1.0  0.04937  0.03140  0.80262  1.0000
  C   C200      1.0  0.47614  0.19874  0.92445  1.0000
  C   C201      1.0  0.19443  0.00080  0.85084  1.0000
  C   C202      1.0  0.99924  0.19414  0.93731  1.0000
  H   H344      1.0  0.07236  0.02025  0.77969  1.0000
  C   C203      1.0  0.02920  0.09829  0.79153  1.0000
  H   H345      1.0  0.10701  0.02758  0.89775  1.0000
  H   H346      1.0  0.12484  0.06915  0.82385  1.0000
  H   H347      1.0  0.12522  0.00589  0.89432  1.0000
  C   C204      1.0  0.36835  0.99684  0.76251  1.0000
  H   H348      1.0  0.10419  0.10415  0.85036  1.0000
  H   H349      1.0  0.20873  0.08227  0.85737  1.0000
  C   C205      1.0  0.47309  0.17006  0.97778  1.0000
  C   C206      1.0  0.15234  0.05379  0.83500  1.0000
  H   H350      1.0  0.10704  0.06730  0.85372  1.0000
  H   H351      1.0  0.38161  0.98876  0.75432  1.0000
  H   H352      1.0  0.03962  0.02059  0.80030  1.0000
  H   H353      1.0  0.44285  0.07579  0.88199  1.0000
  C   C207      1.0  0.01876  0.29922  0.80415  1.0000
  H   H354      1.0  0.99059  0.19239  0.95240  1.0000
  H   H355      1.0  0.10801  0.06559  0.87978  1.0000
  H   H356      1.0  0.00391  0.07596  0.81953  1.0000
  C   C208      1.0  0.40834  0.00208  0.87807  1.0000
  H   H357      1.0  0.12403  0.03672  0.86357  1.0000
  C   C209      1.0  0.48755  0.07836  0.73118  1.0000
  C   C210      1.0  0.42190  0.98664  0.86572  1.0000
  H   H358      1.0  0.14924  0.03539  0.80210  1.0000
  C   C211      1.0  0.45817  0.07148  0.82596  1.0000
  H   H359      1.0  0.13945  0.07943  0.87493  1.0000
  H   H360      1.0  0.10713  0.99887  0.74324  1.0000
  H   H361      1.0  0.38185  0.03420  0.86384  1.0000
  H   H362      1.0  0.02352  0.23852  0.82770  1.0000
  H   H363      1.0  0.41333  0.05776  0.89261  1.0000
  H   H364      1.0  0.47198  0.10858  0.73621  1.0000
  H   H365      1.0  0.21982  0.00802  0.82952  1.0000
  C   C212      1.0  0.21346  0.00704  0.84504  1.0000
  C   C213      1.0  0.18148  0.07078  0.85409  1.0000
  H   H366      1.0  0.16653  0.05542  0.88051  1.0000
  N   N11       1.0  0.47497  0.04479  0.87656  1.0000
  N   N12       1.0  0.14838  0.05505  0.85710  1.0000
  H   H367      1.0  0.02523  0.04191  0.76062  1.0000
  Fe  Fe30      1.0  0.15050  0.98449  0.83595  1.0000
  C   C214      1.0  0.00202  0.30961  0.79165  1.0000
  C   C215      1.0  0.02980  0.27566  0.83216  1.0000
  H   H368      1.0  0.06280  0.24294  0.96038  1.0000
  C   C216      1.0  0.05105  0.26870  0.82188  1.0000
  C   C217      1.0  0.48430  0.31200  0.76704  1.0000
  H   H369      1.0  0.15260  0.02689  0.89507  1.0000
  C   C218      1.0  0.06575  0.26260  0.83714  1.0000
  C   C219      1.0  0.11248  0.07418  0.86512  1.0000
  S   S58       1.0  0.47965  0.30664  0.89499  1.0000
  S   S59       1.0  0.00947  0.31131  0.92983  1.0000
  H   H370      1.0  0.01093  0.12335  0.77661  1.0000
  H   H371      1.0  0.02550  0.26397  0.84451  1.0000
  H   H372      1.0  0.03133  0.28862  0.83964  1.0000
  C   C220      1.0  0.37552  0.01004  0.89754  1.0000
  C   C221      1.0  0.13922  0.03684  0.86752  1.0000
  H   H373      1.0  0.05680  0.28094  0.81104  1.0000
  H   H374      1.0  0.05117  0.25568  0.81397  1.0000
  H   H375      1.0  0.00135  0.03467  0.86286  1.0000
  H   H376      1.0  0.38196  0.04144  0.89293  1.0000
  H   H377      1.0  0.00219  0.06117  0.85764  1.0000
  C   C222      1.0  0.10132  0.09525  0.86521  1.0000
  H   H378      1.0  0.03354  0.12936  0.78360  1.0000
  H   H379      1.0  0.08092  0.25793  0.82949  1.0000
  H   H380      1.0  0.06660  0.27540  0.84504  1.0000
  H   H381      1.0  0.06108  0.24996  0.84815  1.0000
  Fe  Fe31      1.0  0.47909  0.29305  0.86720  1.0000
  Fe  Fe32      1.0  0.00153  0.15965  0.85393  1.0000
  C   C223      1.0  0.12226  0.02034  0.90039  1.0000
  H   H382      1.0  0.02899  0.06747  0.82384  1.0000
  H   H383      1.0  0.36266  0.14488  0.96055  1.0000
  H   H384      1.0  0.47429  0.11428  0.82527  1.0000
  H   H385      1.0  0.99202  0.05592  0.79356  1.0000
  C   C224      1.0  0.16847  0.05435  0.86426  1.0000
  H   H386      1.0  0.11705  0.29904  0.97140  1.0000
  H   H387      1.0  0.45271  0.16230  0.95964  1.0000
  C   C225      1.0  0.99532  0.03499  0.76180  1.0000
  H   H388      1.0  0.13397  0.04830  0.89672  1.0000
  C   C226      1.0  0.00986  0.04825  0.76629  1.0000
  C   C227      1.0  0.45462  0.04368  0.88858  1.0000
  H   H389      1.0  0.48698  0.04340  0.90442  1.0000
  S   S60       1.0  0.47516  0.26086  0.86476  1.0000
  H   H390      1.0  0.99361  0.21717  0.96918  1.0000
  C   C228      1.0  0.45718  0.05711  0.84523  1.0000
  C   C229      1.0  0.99173  0.30344  0.84324  1.0000
  H   H391      1.0  0.38665  0.04791  0.82735  1.0000
  C   C230      1.0  0.47156  0.01693  0.80951  1.0000
  H   H392      1.0  0.47293  0.00412  0.89686  1.0000
  H   H393      1.0  0.44600  0.00429  0.85369  1.0000
  C   C231      1.0  0.42179  0.06161  0.90385  1.0000
  H   H394      1.0  0.99652  0.03477  0.74549  1.0000
  H   H395      1.0  0.45591  0.03353  0.90274  1.0000
  H   H396      1.0  0.44487  0.03684  0.88057  1.0000
  H   H397      1.0  0.26963  0.12663  0.93492  1.0000
  H   H398      1.0  0.00220  0.23240  0.86528  1.0000
  C   C232      1.0  0.44668  0.05337  0.76785  1.0000
  Fe  Fe33      1.0  0.05904  0.30671  0.87018  1.0000
  C   C233      1.0  0.38909  0.01661  0.84005  1.0000
  H   H399      1.0  0.01521  0.18838  0.93836  1.0000
  H   H400      1.0  0.44201  0.06036  0.85347  1.0000
  H   H401      1.0  0.41810  0.04255  0.77821  1.0000
  S   S61       1.0  0.18101  0.99564  0.83218  1.0000
  H   H402      1.0  0.42883  0.98978  0.75542  1.0000
  H   H403      1.0  0.00623  0.21679  0.91281  1.0000
  H   H404      1.0  0.00001  0.18202  0.90939  1.0000
  H   H405      1.0  0.45386  0.22420  0.93070  1.0000
  H   H406      1.0  0.36999  0.16948  0.95758  1.0000
  H   H407      1.0  0.36980  0.02200  0.93559  1.0000
  C   C234      1.0  0.13385  0.05422  0.82426  1.0000
  H   H408      1.0  0.17770  0.03980  0.86227  1.0000
  C   C235      1.0  0.48322  0.02451  0.87058  1.0000
  H   H409      1.0  0.46157  0.02994  0.80469  1.0000
  H   H410      1.0  0.02170  0.10141  0.80648  1.0000
  C   C236      1.0  0.47867  0.08117  0.76735  1.0000
  S   S62       1.0  0.12334  0.00206  0.82353  1.0000
  S   S63       1.0  0.99334  0.10584  0.84639  1.0000
  H   H411      1.0  0.05351  0.06197  0.79587  1.0000
  C   C237      1.0  0.00794  0.04539  0.83138  1.0000
  H   H412      1.0  0.47328  0.06919  0.81736  1.0000
  C   C238      1.0  0.04349  0.05239  0.79157  1.0000
  H   H413      1.0  0.02642  0.08143  0.76816  1.0000
  H   H414      1.0  0.20895  0.05598  0.86543  1.0000
  H   H415      1.0  0.99090  0.27242  0.84257  1.0000
  H   H416      1.0  0.38700  0.03072  0.80971  1.0000
  C   C239      1.0  0.07091  0.02316  0.79540  1.0000
  C   C240      1.0  0.01371  0.28679  0.96559  1.0000
  N   N13       1.0  0.02191  0.06139  0.79570  1.0000
  C   C241      1.0  0.14012  0.05022  0.80268  1.0000
  H   H417      1.0  0.47137  0.07501  0.86124  1.0000
  H   H418      1.0  0.48657  0.04234  0.77176  1.0000
  H   H419      1.0  0.36257  0.02045  0.86168  1.0000
  H   H420      1.0  0.03212  0.29508  0.79334  1.0000
  H   H421      1.0  0.46644  0.09390  0.76693  1.0000
  H   H422      1.0  0.44695  0.06877  0.81680  1.0000
  C   C242      1.0  0.13787  0.03389  0.89061  1.0000
  C   C243      1.0  0.05617  0.23213  0.95357  1.0000
  C   C244      1.0  0.46549  0.99792  0.81106  1.0000
  C   C245      1.0  0.46649  0.15768  0.96609  1.0000
  H   H423      1.0  0.48017  0.18014  0.86629  1.0000
  H   H424      1.0  0.03360  0.22224  0.92804  1.0000
  H   H425      1.0  0.02601  0.21066  0.95250  1.0000
  H   H426      1.0  0.44617  0.06024  0.78162  1.0000
  H   H427      1.0  0.00621  0.06320  0.75786  1.0000
  H   H428      1.0  0.09349  0.02305  0.74640  1.0000
  C   C246      1.0  0.45991  0.20960  0.93837  1.0000
  H   H429      1.0  0.02576  0.26286  0.79529  1.0000
  H   H430      1.0  0.44783  0.00634  0.74867  1.0000
  N   N14       1.0  0.38594  0.00366  0.87793  1.0000
  H   H431      1.0  0.44740  0.20049  0.94314  1.0000
  H   H432      1.0  0.18762  0.06810  0.83862  1.0000
  H   H433      1.0  0.07637  0.28629  0.96740  1.0000
  C   C247      1.0  0.32900  0.99944  0.82955  1.0000
  C   C248      1.0  0.35771  0.16095  0.95619  1.0000
  C   C249      1.0  0.02429  0.22498  0.94245  1.0000
  H   H434      1.0  0.14798  0.02310  0.86220  1.0000
  H   H435      1.0  0.13891  0.08648  0.84909  1.0000
  C   C250      1.0  0.02699  0.11792  0.77763  1.0000
  H   H436      1.0  0.35921  0.01412  0.89691  1.0000
  H   H437      1.0  0.04801  0.05204  0.77533  1.0000
  H   H438      1.0  0.45472  0.08710  0.82929  1.0000
  H   H439      1.0  0.41211  0.99739  0.89351  1.0000
  H   H440      1.0  0.04538  0.09388  0.79245  1.0000
  H   H441      1.0  0.39818  0.02462  0.90803  1.0000
  C   C251      1.0  0.03420  0.23979  0.95174  1.0000
  H   H442      1.0  0.03366  0.25452  0.94247  1.0000
  N   N15       1.0  0.01373  0.28122  0.81866  1.0000
  H   H443      1.0  0.45376  0.30580  0.75082  1.0000
  H   H444      1.0  0.47284  0.01926  0.86210  1.0000
  H   H445      1.0  0.15994  0.06650  0.82695  1.0000
  H   H446      1.0  0.08147  0.03368  0.79668  1.0000
  N   N16       1.0  0.00263  0.23118  0.93928  1.0000
  H   H447      1.0  0.14897  0.06188  0.79423  1.0000
  C   C252      1.0  0.10384  0.26864  0.95788  1.0000
  C   C253      1.0  0.47766  0.13932  0.96288  1.0000
  H   H448      1.0  0.03494  0.11606  0.76250  1.0000
  C   C254      1.0  0.01002  0.22803  0.80572  1.0000
  H   H449      1.0  0.35495  0.01127  0.81298  1.0000
  H   H450      1.0  0.00358  0.08773  0.78355  1.0000
  H   H451      1.0  0.00910  0.03393  0.79650  1.0000
  H   H452      1.0  0.35359  0.03890  0.92017  1.0000
  C   C255      1.0  0.01064  0.24372  0.81925  1.0000
  H   H453      1.0  0.07198  0.99925  0.73910  1.0000
  H   H454      1.0  0.23988  0.98635  0.93826  1.0000
  C   C256      1.0  0.48836  0.05169  0.88911  1.0000
  H   H455      1.0  0.48205  0.18470  0.93310  1.0000
  H   H456      1.0  0.45095  0.06874  0.90609  1.0000
  H   H457      1.0  0.34913  0.98718  0.89175  1.0000
  H   H458      1.0  0.41348  0.01699  0.87332  1.0000
  H   H459      1.0  0.05757  0.21753  0.96316  1.0000
  C   C257      1.0  0.48723  0.00764  0.88788  1.0000
  C   C258      1.0  0.00098  0.25171  0.92731  1.0000
  C   C259      1.0  0.47371  0.05939  0.85781  1.0000
  H   H460      1.0  0.09691  0.25462  0.96067  1.0000
  H   H461      1.0  0.02402  0.22651  0.79510  1.0000
  C   C260      1.0  0.01255  0.26450  0.80694  1.0000
  H   H462      1.0  0.48548  0.22428  0.90554  1.0000
  C   C261      1.0  0.42518  0.05179  0.76502  1.0000
  C   C262      1.0  0.38260  0.02823  0.90442  1.0000
  C   C263      1.0  0.00918  0.04648  0.85328  1.0000
  H   H463      1.0  0.42494  0.04453  0.75160  1.0000
  H   H464      1.0  0.46885  0.19513  0.91224  1.0000
  H   H465      1.0  0.47204  0.28538  0.74599  1.0000
  H   H466      1.0  0.02969  0.28493  0.96093  1.0000
  H   H467      1.0  0.99195  0.04542  0.82967  1.0000
  C   C264      1.0  0.46805  0.30160  0.74129  1.0000
  H   H468      1.0  0.99875  0.01947  0.76906  1.0000
  C   C265      1.0  0.99694  0.21621  0.92768  1.0000
  H   H469      1.0  0.99965  0.26334  0.93736  1.0000
  H   H470      1.0  0.99728  0.29903  0.78304  1.0000
  H   H471      1.0  0.37467  0.04741  0.92777  1.0000
  H   H472      1.0  0.45645  0.05923  0.73599  1.0000
  H   H473      1.0  0.07520  0.00887  0.80472  1.0000
  H   H474      1.0  0.26642  0.98468  0.93956  1.0000
  H   H475      1.0  0.01059  0.98422  0.73156  1.0000
  H   H476      1.0  0.36124  0.00888  0.75209  1.0000
  H   H477      1.0  0.03436  0.01574  0.73133  1.0000
  H   H478      1.0  0.34434  0.16590  0.96655  1.0000
  H   H479      1.0  0.99428  0.28477  0.89839  1.0000
  H   H480      1.0  0.99942  0.26812  0.79855  1.0000
  H   H481      1.0  0.00127  0.29991  0.85543  1.0000
  H   H482      1.0  0.48828  0.05817  0.84791  1.0000
  C   C266      1.0  0.99385  0.28549  0.83131  1.0000
  H   H483      1.0  0.99667  0.24409  0.82991  1.0000
  H   H484      1.0  0.99462  0.24296  0.96746  1.0000
  H   H485      1.0  0.38606  0.00249  0.83570  1.0000
  H   H486      1.0  0.41627  0.06678  0.76351  1.0000
  C   C267      1.0  0.09906  0.01241  0.73545  1.0000
  H   H487      1.0  0.46605  0.21208  0.95181  1.0000
  H   H488      1.0  0.45877  0.04186  0.84115  1.0000
  H   H489      1.0  0.40547  0.01684  0.83870  1.0000
  H   H490      1.0  0.47691  0.29981  0.80775  1.0000
  C   C268      1.0  0.10149  0.30325  0.96771  1.0000
  H   H491      1.0  0.33605  0.98491  0.74790  1.0000
  H   H492      1.0  0.44799  0.08073  0.74772  1.0000
  H   H493      1.0  0.48515  0.11449  0.78386  1.0000
  C   C269      1.0  0.09194  0.28368  0.97104  1.0000
  C   C270      1.0  0.44433  0.99113  0.74803  1.0000
  H   H494      1.0  0.46427  0.18416  0.98032  1.0000
  H   H495      1.0  0.44884  0.98996  0.87793  1.0000
  C   C271      1.0  0.44384  0.98996  0.86324  1.0000
  H   H496      1.0  0.41772  0.98705  0.85066  1.0000
  C   C272      1.0  0.38019  0.98351  0.87630  1.0000
  H   H497      1.0  0.06045  0.31284  0.98019  1.0000
  H   H498      1.0  0.03444  0.50566  0.10025  1.0000
  H   H499      1.0  0.25790  0.54550  0.99054  1.0000
  S   S64       1.0  0.44757  0.62591  0.08559  1.0000
  H   H500      1.0  0.08881  0.62121  0.06943  1.0000
  Fe  Fe34      1.0  0.39319  0.59574  0.00280  1.0000
  S   S65       1.0  0.36781  0.61879  0.01229  1.0000
  S   S66       1.0  0.41799  0.58197  0.02155  1.0000
  C   C273      1.0  0.13553  0.49574  0.16153  1.0000
  H   H501      1.0  0.08665  0.63530  0.08936  1.0000
  S   S67       1.0  0.31502  0.60347  0.00281  1.0000
  C   C274      1.0  0.47932  0.59331  0.18750  1.0000
  Fe  Fe35      1.0  0.02465  0.53887  0.17846  1.0000
  S   S68       1.0  0.05325  0.52485  0.19009  1.0000
  H   H502      1.0  0.36607  0.53265  0.98431  1.0000
  Fe  Fe36      1.0  0.04086  0.57833  0.16395  1.0000
  S   S69       1.0  0.07072  0.56781  0.17443  1.0000
  S   S70       1.0  0.03437  0.60743  0.14490  1.0000
  Fe  Fe37      1.0  0.06899  0.53988  0.16152  1.0000
  S   S71       1.0  0.09160  0.52467  0.13867  1.0000
  Fe  Fe38      1.0  0.05230  0.55417  0.20203  1.0000
  S   S72       1.0  0.04020  0.55156  0.14928  1.0000
  S   S73       1.0  0.02263  0.56699  0.19221  1.0000
  Fe  Fe39      1.0  0.22439  0.54506  0.03508  1.0000
  S   S74       1.0  0.21074  0.54792  0.00673  1.0000
  S   S75       1.0  0.25788  0.53672  0.03550  1.0000
  Fe  Fe40      1.0  0.18385  0.55441  0.06027  1.0000
  S   S76       1.0  0.16733  0.55849  0.03382  1.0000
  S   S77       1.0  0.16843  0.56066  0.09102  1.0000
  Fe  Fe41      1.0  0.18703  0.53106  0.02493  1.0000
  S   S78       1.0  0.16928  0.51155  0.01246  1.0000
  Fe  Fe42      1.0  0.19224  0.57497  0.01769  1.0000
  H   H503      1.0  0.46955  0.56936  0.09187  1.0000
  S   S79       1.0  0.20203  0.52563  0.05270  1.0000
  S   S80       1.0  0.20745  0.57342  0.04482  1.0000
  H   H504      1.0  0.16895  0.50265  0.07144  1.0000
  C   C275      1.0  0.42790  0.62276  0.13805  1.0000
  C   C276      1.0  0.14804  0.60708  0.01038  1.0000
  H   H505      1.0  0.99340  0.55952  0.14055  1.0000
  H   H506      1.0  0.29509  0.55120  0.98603  1.0000
  C   C277      1.0  0.99092  0.46412  0.16673  1.0000
  H   H507      1.0  0.05651  0.64228  0.06099  1.0000
  H   H508      1.0  0.12408  0.54441  0.03321  1.0000
  C   C278      1.0  0.20510  0.46349  0.99256  1.0000
  C   C279      1.0  0.19829  0.48050  0.00223  1.0000
  H   H509      1.0  0.08093  0.63507  0.12278  1.0000
  H   H510      1.0  0.34833  0.53880  0.00565  1.0000
  H   H511      1.0  0.99830  0.33509  0.98549  1.0000
  C   C280      1.0  0.00891  0.46854  0.17167  1.0000
  H   H512      1.0  0.20705  0.48471  0.01250  1.0000
  H   H513      1.0  0.40447  0.64803  0.14081  1.0000
  C   C281      1.0  0.44726  0.55641  0.18265  1.0000
  C   C282      1.0  0.00927  0.61124  0.14105  1.0000
  H   H514      1.0  0.11677  0.61071  0.02217  1.0000
  C   C283      1.0  0.20086  0.45845  0.10596  1.0000
  C   C284      1.0  0.00409  0.61997  0.12245  1.0000
  C   C285      1.0  0.99434  0.60596  0.15651  1.0000
  H   H515      1.0  0.03416  0.64007  0.07840  1.0000
  S   S81       1.0  0.18760  0.60208  0.99500  1.0000
  Fe  Fe43      1.0  0.34891  0.60315  0.99674  1.0000
  H   H516      1.0  0.10691  0.62604  0.12487  1.0000
  C   C286      1.0  0.20282  0.51011  0.11597  1.0000
  H   H517      1.0  0.20331  0.42969  0.12478  1.0000
  C   C287      1.0  0.08352  0.62089  0.08563  1.0000
  C   C288      1.0  0.11377  0.55697  0.02662  1.0000
  C   C289      1.0  0.12807  0.60179  0.07236  1.0000
  H   H518      1.0  0.22713  0.52814  0.11247  1.0000
  H   H519      1.0  0.13100  0.51204  0.15831  1.0000
  C   C290      1.0  0.11184  0.53617  0.12479  1.0000
  C   C291      1.0  0.12001  0.53038  0.10610  1.0000
  C   C292      1.0  0.13692  0.53831  0.09518  1.0000
  C   C293      1.0  0.14614  0.55165  0.10320  1.0000
  C   C294      1.0  0.13785  0.55759  0.12179  1.0000
  C   C295      1.0  0.12062  0.55010  0.13243  1.0000
  H   H520      1.0  0.11329  0.51959  0.10010  1.0000
  H   H521      1.0  0.14312  0.53372  0.08083  1.0000
  H   H522      1.0  0.14496  0.56785  0.12814  1.0000
  H   H523      1.0  0.11459  0.55451  0.14690  1.0000
  C   C296      1.0  0.29970  0.58453  0.01237  1.0000
  C   C297      1.0  0.27912  0.58865  0.01079  1.0000
  C   C298      1.0  0.26622  0.57417  0.01795  1.0000
  C   C299      1.0  0.27376  0.55535  0.02679  1.0000
  C   C300      1.0  0.29437  0.55115  0.02834  1.0000
  C   C301      1.0  0.30729  0.56572  0.02124  1.0000
  H   H524      1.0  0.27310  0.60318  0.00403  1.0000
  H   H525      1.0  0.25042  0.57759  0.01662  1.0000
  H   H526      1.0  0.30032  0.53664  0.03518  1.0000
  H   H527      1.0  0.32304  0.56248  0.02278  1.0000
  C   C302      1.0  0.44022  0.61413  0.06696  1.0000
  C   C303      1.0  0.42075  0.61953  0.06184  1.0000
  C   C304      1.0  0.41401  0.61028  0.04749  1.0000
  C   C305      1.0  0.42653  0.59514  0.03843  1.0000
  C   C306      1.0  0.44598  0.58963  0.04367  1.0000
  C   C307      1.0  0.45291  0.59926  0.05766  1.0000
  H   H528      1.0  0.99408  0.54247  0.07146  1.0000
  H   H529      1.0  0.39892  0.61439  0.04384  1.0000
  H   H530      1.0  0.45575  0.57790  0.03679  1.0000
  H   H531      1.0  0.46797  0.59503  0.06138  1.0000
  H   H532      1.0  0.99778  0.62816  0.98984  1.0000
  C   C308      1.0  0.44693  0.60682  0.20374  1.0000
  H   H533      1.0  0.11196  0.54298  0.99201  1.0000
  C   C309      1.0  0.45819  0.55890  0.09618  1.0000
  H   H534      1.0  0.01045  0.60208  0.05722  1.0000
  H   H535      1.0  0.09908  0.55186  0.02639  1.0000
  H   H536      1.0  0.43312  0.61684  0.20304  1.0000
  H   H537      1.0  0.19758  0.49826  0.09013  1.0000
  H   H538      1.0  0.39997  0.61050  0.14523  1.0000
  H   H539      1.0  0.03301  0.64290  0.01966  1.0000
  N   N17       1.0  0.42246  0.58609  0.13687  1.0000
  C   C310      1.0  0.40517  0.57421  0.13834  1.0000
  C   C311      1.0  0.43229  0.58141  0.15575  1.0000
  C   C312      1.0  0.41394  0.60792  0.13464  1.0000
  C   C313      1.0  0.43754  0.58271  0.11875  1.0000
  C   C314      1.0  0.44742  0.56105  0.11716  1.0000
  C   C315      1.0  0.39362  0.57773  0.11995  1.0000
  H   H540      1.0  0.11204  0.57740  0.99976  1.0000
  C   C316      1.0  0.43376  0.55959  0.16622  1.0000
  C   C317      1.0  0.01336  0.52086  0.12215  1.0000
  C   C318      1.0  0.37651  0.56498  0.12320  1.0000
  H   H541      1.0  0.01770  0.53990  0.09407  1.0000
  H   H542      1.0  0.39419  0.57744  0.15165  1.0000
  H   H543      1.0  0.41005  0.55798  0.14095  1.0000
  H   H544      1.0  0.44762  0.58603  0.15292  1.0000
  H   H545      1.0  0.42379  0.59029  0.16742  1.0000
  H   H546      1.0  0.08868  0.63290  0.15720  1.0000
  H   H547      1.0  0.40959  0.61277  0.11943  1.0000
  H   H548      1.0  0.43078  0.58854  0.10487  1.0000
  H   H549      1.0  0.45007  0.59158  0.11798  1.0000
  H   H550      1.0  0.43640  0.55027  0.12044  1.0000
  H   H551      1.0  0.45883  0.55693  0.12758  1.0000
  H   H552      1.0  0.38695  0.59351  0.11702  1.0000
  H   H553      1.0  0.40366  0.57367  0.10643  1.0000
  S   S82       1.0  0.99520  0.52695  0.17970  1.0000
  H   H554      1.0  0.41866  0.55616  0.17332  1.0000
  H   H555      1.0  0.43970  0.54861  0.15581  1.0000
  C   C319      1.0  0.45025  0.59465  0.22172  1.0000
  H   H556      1.0  0.03413  0.49374  0.12560  1.0000
  H   H557      1.0  0.01561  0.62382  0.11041  1.0000
  H   H558      1.0  0.38238  0.54888  0.12548  1.0000
  H   H559      1.0  0.36563  0.56876  0.13631  1.0000
  H   H560      1.0  0.36851  0.56781  0.10985  1.0000
  H   H561      1.0  0.16478  0.54814  0.98281  1.0000
  H   H562      1.0  0.32157  0.52675  0.99104  1.0000
  H   H563      1.0  0.05386  0.62002  0.10364  1.0000
  C   C320      1.0  0.46809  0.58167  0.22242  1.0000
  H   H564      1.0  0.21917  0.45466  0.99537  1.0000
  H   H565      1.0  0.02458  0.49115  0.17915  1.0000
  H   H566      1.0  0.21157  0.46810  0.09709  1.0000
  C   C321      1.0  0.00485  0.59970  0.07338  1.0000
  C   C322      1.0  0.08687  0.61916  0.15119  1.0000
  Fe  Fe44      1.0  0.47800  0.62096  0.09699  1.0000
  C   C323      1.0  0.14871  0.60900  0.06876  1.0000
  H   H567      1.0  0.99829  0.59926  0.17093  1.0000
  H   H568      1.0  0.15687  0.60399  0.08187  1.0000
  C   C324      1.0  0.12662  0.54820  0.99180  1.0000
  H   H569      1.0  0.11969  0.60908  0.06000  1.0000
  H   H570      1.0  0.44776  0.54083  0.19016  1.0000
  H   H571      1.0  0.12196  0.48872  0.16825  1.0000
  H   H572      1.0  0.22657  0.51557  0.09129  1.0000
  H   H573      1.0  0.41748  0.64683  0.11582  1.0000
  C   C325      1.0  0.46142  0.60622  0.18671  1.0000
  N   N18       1.0  0.99068  0.55326  0.11094  1.0000
  C   C326      1.0  0.03323  0.50837  0.11601  1.0000
  Fe  Fe45      1.0  0.37690  0.63577  0.98240  1.0000
  S   S83       1.0  0.47960  0.63642  0.12348  1.0000
  H   H574      1.0  0.21209  0.49699  0.12294  1.0000
  H   H575      1.0  0.11896  0.62195  0.09430  1.0000
  H   H576      1.0  0.45881  0.61578  0.17304  1.0000
  C   C327      1.0  0.05056  0.64050  0.07709  1.0000
  H   H577      1.0  0.14640  0.49296  0.17252  1.0000
  H   H578      1.0  0.37832  0.64669  0.03810  1.0000
  H   H579      1.0  0.12347  0.36481  0.98516  1.0000
  C   C328      1.0  0.12135  0.62178  0.99093  1.0000
  H   H580      1.0  0.20865  0.53721  0.09595  1.0000
  H   H581      1.0  0.13044  0.58549  0.07165  1.0000
  H   H582      1.0  0.15794  0.60274  0.05583  1.0000
  H   H583      1.0  0.32750  0.56308  0.98342  1.0000
  C   C329      1.0  0.21322  0.44026  0.11597  1.0000
  C   C330      1.0  0.11694  0.60637  0.09305  1.0000
  C   C331      1.0  0.01076  0.48795  0.17506  1.0000
  H   H584      1.0  0.07126  0.61592  0.15597  1.0000
  N   N19       1.0  0.17467  0.48887  0.11393  1.0000
  C   C332      1.0  0.18828  0.50377  0.10337  1.0000
  C   C333      1.0  0.16264  0.49773  0.13169  1.0000
  H   H585      1.0  0.17910  0.51761  0.09743  1.0000
  H   H586      1.0  0.14676  0.49659  0.10129  1.0000
  H   H587      1.0  0.15650  0.51352  0.12719  1.0000
  H   H588      1.0  0.17242  0.49823  0.14320  1.0000
  H   H589      1.0  0.19438  0.51868  0.12780  1.0000
  H   H590      1.0  0.15878  0.48123  0.05009  1.0000
  C   C334      1.0  0.17971  0.49144  0.99923  1.0000
  H   H591      1.0  0.22322  0.43241  0.10442  1.0000
  H   H592      1.0  0.42988  0.62135  0.15401  1.0000
  N   N20       1.0  0.09499  0.60364  0.09736  1.0000
  C   C335      1.0  0.08899  0.60328  0.11956  1.0000
  C   C336      1.0  0.09241  0.58399  0.09105  1.0000
  C   C337      1.0  0.06055  0.62120  0.08780  1.0000
  C   C338      1.0  0.09143  0.62221  0.12847  1.0000
  C   C339      1.0  0.07446  0.57334  0.10216  1.0000
  C   C340      1.0  0.07068  0.55670  0.09114  1.0000
  H   H593      1.0  0.22268  0.44486  0.12593  1.0000
  C   C341      1.0  0.00096  0.57807  0.07958  1.0000
  H   H594      1.0  0.09774  0.59027  0.12757  1.0000
  H   H595      1.0  0.07316  0.60087  0.12398  1.0000
  H   H596      1.0  0.09170  0.58578  0.07472  1.0000
  H   H597      1.0  0.10575  0.57286  0.09359  1.0000
  H   H598      1.0  0.02195  0.55044  0.11465  1.0000
  H   H599      1.0  0.05687  0.60882  0.08080  1.0000
  H   H600      1.0  0.13590  0.53523  0.99912  1.0000
  C   C342      1.0  0.16835  0.48565  0.98613  1.0000
  H   H601      1.0  0.07782  0.56655  0.11728  1.0000
  H   H602      1.0  0.06031  0.58348  0.10422  1.0000
  H   H603      1.0  0.08448  0.54603  0.08865  1.0000
  H   H604      1.0  0.05891  0.54842  0.10023  1.0000
  H   H605      1.0  0.06559  0.56301  0.07657  1.0000
  H   H606      1.0  0.01540  0.56863  0.07623  1.0000
  H   H607      1.0  0.99083  0.61004  0.07610  1.0000
  C   C343      1.0  0.99447  0.50292  0.17380  1.0000
  C   C344      1.0  0.35200  0.52901  0.99370  1.0000
  H   H608      1.0  0.12551  0.59676  0.10436  1.0000
  S   S84       1.0  0.37344  0.57828  0.98977  1.0000
  C   C345      1.0  0.16030  0.48536  0.10030  1.0000
  C   C346      1.0  0.16782  0.48684  0.07759  1.0000
  H   H609      1.0  0.44729  0.56194  0.08520  1.0000
  H   H610      1.0  0.11149  0.56908  0.03619  1.0000
  C   C347      1.0  0.12272  0.56477  0.00556  1.0000
  C   C348      1.0  0.14464  0.48697  0.14242  1.0000
  H   H611      1.0  0.19224  0.45293  0.09587  1.0000
  H   H612      1.0  0.19496  0.47165  0.13352  1.0000
  C   C349      1.0  0.18636  0.46946  0.12160  1.0000
  C   C350      1.0  0.15320  0.47954  0.06629  1.0000
  H   H613      1.0  0.13260  0.48870  0.13279  1.0000
  H   H614      1.0  0.09258  0.32732  0.00858  1.0000
  H   H615      1.0  0.15466  0.47071  0.10526  1.0000
  H   H616      1.0  0.15183  0.46355  0.07136  1.0000
  H   H617      1.0  0.46276  0.55914  0.17630  1.0000
  C   C351      1.0  0.01145  0.54178  0.10967  1.0000
  H   H618      1.0  0.18269  0.47820  0.07423  1.0000
  H   H619      1.0  0.41073  0.63084  0.06913  1.0000
  H   H620      1.0  0.14915  0.47084  0.14660  1.0000
  H   H621      1.0  0.13821  0.48846  0.06848  1.0000
  C   C352      1.0  0.21712  0.52355  0.10308  1.0000
  H   H622      1.0  0.01297  0.52250  0.13808  1.0000
  H   H623      1.0  0.02136  0.45684  0.17317  1.0000
  H   H624      1.0  0.13680  0.57035  0.00687  1.0000
  H   H625      1.0  0.17602  0.45867  0.12899  1.0000
  C   C353      1.0  0.16218  0.61003  0.99357  1.0000
  C   C354      1.0  0.12767  0.61305  0.00911  1.0000
  H   H626      1.0  0.15284  0.60019  0.02435  1.0000
  H   H627      1.0  0.14719  0.62551  0.06574  1.0000
  H   H628      1.0  0.06199  0.33762  0.98383  1.0000
  H   H629      1.0  0.46590  0.54347  0.09567  1.0000
  H   H630      1.0  0.35451  0.51331  0.00079  1.0000
  H   H631      1.0  0.09729  0.60664  0.15766  1.0000
  H   H632      1.0  0.12599  0.32808  0.99132  1.0000
  H   H633      1.0  0.44140  0.56657  0.19402  1.0000
  H   H634      1.0  0.00121  0.58157  0.11053  1.0000
  H   H635      1.0  0.04602  0.51595  0.11797  1.0000
  H   H636      1.0  0.48612  0.63948  0.16890  1.0000
  C   C355      1.0  0.48252  0.58101  0.20540  1.0000
  C   C356      1.0  0.41923  0.64434  0.13192  1.0000
  H   H637      1.0  0.00257  0.44602  0.22665  1.0000
  S   S85       1.0  0.09573  0.62877  0.98984  1.0000
  H   H638      1.0  0.44283  0.62001  0.12939  1.0000
  H   H639      1.0  0.15381  0.49373  0.98412  1.0000
  H   H640      1.0  0.00094  0.51252  0.12082  1.0000
  C   C357      1.0  0.99215  0.57459  0.10183  1.0000
  H   H641      1.0  0.01627  0.60340  0.08175  1.0000
  H   H642      1.0  0.99006  0.57516  0.07017  1.0000
  H   H643      1.0  0.99487  0.51930  0.08752  1.0000
  H   H644      1.0  0.48003  0.63336  0.20659  1.0000
  H   H645      1.0  0.02343  0.58539  0.22772  1.0000
  H   H646      1.0  0.45575  0.64045  0.23029  1.0000
  S   S86       1.0  0.99730  0.64916  0.04671  1.0000
  C   C358      1.0  0.33489  0.53153  0.98106  1.0000
  H   H647      1.0  0.07801  0.55898  0.46773  1.0000
  S   S87       1.0  0.44050  0.55415  0.29125  1.0000
  H   H648      1.0  0.02469  0.53430  0.26455  1.0000
  Fe  Fe46      1.0  0.44648  0.60327  0.31042  1.0000
  S   S88       1.0  0.41792  0.59859  0.30024  1.0000
  S   S89       1.0  0.44909  0.63090  0.32354  1.0000
  Fe  Fe47      1.0  0.42260  0.56808  0.31765  1.0000
  S   S90       1.0  0.40040  0.55201  0.34068  1.0000
  Fe  Fe48      1.0  0.43819  0.58542  0.27479  1.0000
  H   H649      1.0  0.24572  0.49485  0.46838  1.0000
  S   S91       1.0  0.45000  0.57378  0.32942  1.0000
  C   C359      1.0  0.00384  0.54375  0.30073  1.0000
  Fe  Fe49      1.0  0.29289  0.58035  0.46439  1.0000
  S   S92       1.0  0.31918  0.56215  0.44904  1.0000
  H   H650      1.0  0.24041  0.64218  0.40020  1.0000
  Fe  Fe50      1.0  0.26249  0.56586  0.44346  1.0000
  S   S93       1.0  0.28638  0.54650  0.42603  1.0000
  S   S94       1.0  0.22967  0.56399  0.44267  1.0000
  Fe  Fe51      1.0  0.29919  0.53803  0.45495  1.0000
  S   S95       1.0  0.30871  0.50588  0.46620  1.0000
  Fe  Fe52      1.0  0.30450  0.57225  0.42138  1.0000
  S   S96       1.0  0.32052  0.58718  0.39255  1.0000
  H   H651      1.0  0.31909  0.61495  0.42184  1.0000
  S   S97       1.0  0.27929  0.59233  0.43650  1.0000
  C   C360      1.0  0.44732  0.64286  0.26126  1.0000
  Fe  Fe53      1.0  0.46743  0.56226  0.30206  1.0000
  Fe  Fe54      1.0  0.08626  0.61554  0.47743  1.0000
  C   C361      1.0  0.99491  0.52496  0.27530  1.0000
  S   S98       1.0  0.15827  0.63346  0.45839  1.0000
  H   H652      1.0  0.02383  0.50247  0.25131  1.0000
  S   S99       1.0  0.06026  0.60570  0.46542  1.0000
  H   H653      1.0  0.47070  0.57206  0.23609  1.0000
  H   H654      1.0  0.41798  0.59389  0.43850  1.0000
  H   H655      1.0  0.16028  0.59011  0.46501  1.0000
  H   H656      1.0  0.47137  0.60933  0.40048  1.0000
  H   H657      1.0  0.39605  0.46213  0.45947  1.0000
  Fe  Fe55      1.0  0.01584  0.60354  0.36524  1.0000
  S   S100      1.0  0.04609  0.59963  0.37666  1.0000
  S   S101      1.0  0.01219  0.62934  0.34117  1.0000
  C   C362      1.0  0.05664  0.60464  0.44052  1.0000
  C   C363      1.0  0.03798  0.60055  0.43682  1.0000
  C   C364      1.0  0.03439  0.59938  0.41732  1.0000
  C   C365      1.0  0.04958  0.60189  0.40133  1.0000
  C   C366      1.0  0.06826  0.60589  0.40504  1.0000
  C   C367      1.0  0.07173  0.60747  0.42451  1.0000
  H   H658      1.0  0.02623  0.59826  0.44913  1.0000
  H   H659      1.0  0.02002  0.59608  0.41470  1.0000
  H   H660      1.0  0.08013  0.60776  0.39277  1.0000
  H   H661      1.0  0.08617  0.61055  0.42714  1.0000
  C   C368      1.0  0.04269  0.57164  0.24943  1.0000
  C   C369      1.0  0.02651  0.58469  0.24283  1.0000
  C   C370      1.0  0.01431  0.59700  0.25579  1.0000
  C   C371      1.0  0.01793  0.59622  0.27557  1.0000
  C   C372      1.0  0.03429  0.58342  0.28215  1.0000
  C   C373      1.0  0.04664  0.57122  0.26909  1.0000
  C   C374      1.0  0.36099  0.61041  0.41693  1.0000
  H   H662      1.0  0.48001  0.40959  0.30319  1.0000
  H   H663      1.0  0.03741  0.58287  0.29728  1.0000
  H   H664      1.0  0.05924  0.56130  0.27427  1.0000
  C   C375      1.0  0.21015  0.58354  0.44718  1.0000
  C   C376      1.0  0.21324  0.60355  0.44258  1.0000
  C   C377      1.0  0.19711  0.61869  0.44573  1.0000
  C   C378      1.0  0.17795  0.61397  0.45405  1.0000
  C   C379      1.0  0.17496  0.59395  0.45874  1.0000
  C   C380      1.0  0.19091  0.57883  0.45497  1.0000
  H   H665      1.0  0.22792  0.60735  0.43631  1.0000
  C   C381      1.0  0.20559  0.56037  0.39625  1.0000
  H   H666      1.0  0.40295  0.62854  0.39181  1.0000
  C   C382      1.0  0.47621  0.39510  0.31148  1.0000
  C   C383      1.0  0.39141  0.61438  0.43022  1.0000
  H   H667      1.0  0.00489  0.63389  0.41510  1.0000
  C   C384      1.0  0.01748  0.51699  0.24366  1.0000
  H   H668      1.0  0.48561  0.62496  0.29610  1.0000
  C   C385      1.0  0.37878  0.56246  0.35551  1.0000
  C   C386      1.0  0.36910  0.55005  0.37111  1.0000
  C   C387      1.0  0.35151  0.55745  0.38285  1.0000
  C   C388      1.0  0.34326  0.57737  0.37897  1.0000
  C   C389      1.0  0.35304  0.58987  0.36352  1.0000
  C   C390      1.0  0.37075  0.58250  0.35190  1.0000
  H   H669      1.0  0.37515  0.53452  0.37399  1.0000
  H   H670      1.0  0.34418  0.54764  0.39465  1.0000
  H   H671      1.0  0.34677  0.60529  0.36034  1.0000
  H   H672      1.0  0.37792  0.59219  0.33986  1.0000
  C   C391      1.0  0.39647  0.61772  0.38493  1.0000
  H   H673      1.0  0.99782  0.55393  0.31206  1.0000
  H   H674      1.0  0.26949  0.61749  0.31032  1.0000
  H   H675      1.0  0.00461  0.51481  0.23635  1.0000
  H   H676      1.0  0.46787  0.61840  0.37508  1.0000
  H   H677      1.0  0.38188  0.62494  0.38034  1.0000
  C   C392      1.0  0.01110  0.53221  0.25838  1.0000
  H   H678      1.0  0.99169  0.63270  0.44983  1.0000
  H   H679      1.0  0.48505  0.52254  0.34548  1.0000
  H   H680      1.0  0.20746  0.55111  0.38393  1.0000
  N   N21       1.0  0.25334  0.58698  0.37704  1.0000
  C   C393      1.0  0.27492  0.57789  0.37724  1.0000
  C   C394      1.0  0.24892  0.60348  0.39007  1.0000
  C   C395      1.0  0.24033  0.57107  0.38641  1.0000
  C   C396      1.0  0.24820  0.59447  0.35624  1.0000
  C   C397      1.0  0.26519  0.60219  0.34047  1.0000
  C   C398      1.0  0.28078  0.55794  0.36831  1.0000
  C   C399      1.0  0.21749  0.57808  0.39030  1.0000
  C   C400      1.0  0.26175  0.62084  0.38448  1.0000
  H   H681      1.0  0.47751  0.38408  0.30083  1.0000
  C   C401      1.0  0.25698  0.61264  0.32149  1.0000
  C   C402      1.0  0.30348  0.55243  0.36474  1.0000
  H   H682      1.0  0.01407  0.55221  0.28966  1.0000
  H   H683      1.0  0.27859  0.57508  0.39277  1.0000
  H   H684      1.0  0.28536  0.58841  0.36951  1.0000
  H   H685      1.0  0.23315  0.61062  0.39008  1.0000
  H   H686      1.0  0.25044  0.59711  0.40583  1.0000
  H   H687      1.0  0.24519  0.56383  0.40092  1.0000
  H   H688      1.0  0.24214  0.55895  0.37687  1.0000
  H   H689      1.0  0.24293  0.58251  0.34971  1.0000
  H   H690      1.0  0.23526  0.60651  0.35683  1.0000
  H   H691      1.0  0.27648  0.58959  0.33622  1.0000
  H   H692      1.0  0.27319  0.61276  0.34597  1.0000
  H   H693      1.0  0.27467  0.54564  0.37885  1.0000
  H   H694      1.0  0.27472  0.55866  0.35403  1.0000
  H   H695      1.0  0.21198  0.58705  0.37687  1.0000
  H   H696      1.0  0.21409  0.58721  0.40279  1.0000
  H   H697      1.0  0.27798  0.61549  0.38404  1.0000
  H   H698      1.0  0.25868  0.62922  0.36989  1.0000
  H   H699      1.0  0.48699  0.64030  0.25855  1.0000
  H   H700      1.0  0.46042  0.39732  0.31862  1.0000
  H   H701      1.0  0.48514  0.37366  0.33575  1.0000
  H   H702      1.0  0.24936  0.60235  0.31499  1.0000
  H   H703      1.0  0.43328  0.63618  0.26194  1.0000
  H   H704      1.0  0.24625  0.62602  0.32469  1.0000
  H   H705      1.0  0.30978  0.55018  0.37908  1.0000
  H   H706      1.0  0.30717  0.53832  0.35802  1.0000
  H   H707      1.0  0.31064  0.56428  0.35446  1.0000
  H   H708      1.0  0.37994  0.56125  0.41001  1.0000
  H   H709      1.0  0.18835  0.56339  0.45834  1.0000
  S   S102      1.0  0.05794  0.55531  0.23380  1.0000
  H   H710      1.0  0.02209  0.51410  0.30238  1.0000
  C   C403      1.0  0.32564  0.62255  0.43206  1.0000
  C   C404      1.0  0.37148  0.54628  0.43908  1.0000
  C   C405      1.0  0.38221  0.58088  0.43209  1.0000
  H   H711      1.0  0.00188  0.60707  0.25046  1.0000
  H   H712      1.0  0.38697  0.53915  0.44078  1.0000
  H   H713      1.0  0.04328  0.52031  0.32654  1.0000
  C   C406      1.0  0.41051  0.61327  0.36604  1.0000
  C   C407      1.0  0.41427  0.60923  0.43104  1.0000
  H   H714      1.0  0.36911  0.46437  0.46294  1.0000
  H   H715      1.0  0.35612  0.57126  0.42217  1.0000
  H   H716      1.0  0.31527  0.62284  0.44620  1.0000
  H   H717      1.0  0.03022  0.54514  0.32738  1.0000
  C   C408      1.0  0.42169  0.62337  0.44276  1.0000
  H   H718      1.0  0.38579  0.58935  0.39137  1.0000
  H   H719      1.0  0.23284  0.62522  0.46499  1.0000
  H   H720      1.0  0.42283  0.61056  0.41588  1.0000
  H   H721      1.0  0.35154  0.61934  0.44704  1.0000
  H   H722      1.0  0.18943  0.56588  0.39969  1.0000
  C   C409      1.0  0.34603  0.61146  0.43634  1.0000
  H   H723      1.0  0.23744  0.52133  0.46809  1.0000
  H   H724      1.0  0.47725  0.51512  0.29492  1.0000
  C   C410      1.0  0.01655  0.52614  0.31176  1.0000
  Fe  Fe56      1.0  0.99878  0.60955  0.32505  1.0000
  S   S103      1.0  0.00173  0.61180  0.29119  1.0000
  C   C411      1.0  0.24891  0.64570  0.47588  1.0000
  H   H725      1.0  0.42578  0.60713  0.36963  1.0000
  S   S104      1.0  0.46623  0.59252  0.28406  1.0000
  S   S105      1.0  0.43171  0.59594  0.24282  1.0000
  C   C412      1.0  0.37178  0.56542  0.42438  1.0000
  H   H726      1.0  0.06771  0.62870  0.28724  1.0000
  H   H727      1.0  0.47303  0.58219  0.37946  1.0000
  H   H728      1.0  0.10722  0.54324  0.47976  1.0000
  C   C413      1.0  0.05119  0.63149  0.28757  1.0000
  C   C414      1.0  0.38294  0.45479  0.46702  1.0000
  H   H729      1.0  0.38381  0.44016  0.46153  1.0000
  S   S106      1.0  0.00501  0.58278  0.34756  1.0000
  C   C415      1.0  0.47779  0.64430  0.33995  1.0000
  S   S107      1.0  0.09843  0.64487  0.46905  1.0000
  H   H730      1.0  0.35452  0.60263  0.40672  1.0000
  H   H731      1.0  0.37547  0.58247  0.44772  1.0000
  H   H732      1.0  0.34359  0.59631  0.44367  1.0000
  H   H733      1.0  0.45311  0.63835  0.27581  1.0000
  H   H734      1.0  0.38425  0.61410  0.44600  1.0000
  H   H735      1.0  0.08613  0.52791  0.45155  1.0000
  H   H736      1.0  0.98904  0.56594  0.27012  1.0000
  S   S108      1.0  0.27411  0.55545  0.47266  1.0000
  H   H737      1.0  0.36352  0.53567  0.43343  1.0000
  C   C416      1.0  0.03485  0.53298  0.31790  1.0000
  H   H738      1.0  0.27540  0.63274  0.45767  1.0000
  H   H739      1.0  0.21058  0.55103  0.40977  1.0000
  C   C417      1.0  0.46254  0.63553  0.24425  1.0000
  H   H740      1.0  0.00553  0.54639  0.24965  1.0000
  C   C418      1.0  0.47361  0.63560  0.32405  1.0000
  H   H741      1.0  0.04667  0.64813  0.46958  1.0000
  H   H742      1.0  0.04713  0.62443  0.27539  1.0000
  H   H743      1.0  0.36352  0.54948  0.45388  1.0000
  H   H744      1.0  0.48617  0.51804  0.37207  1.0000
  H   H745      1.0  0.05184  0.55826  0.46764  1.0000
  C   C419      1.0  0.25641  0.63570  0.39966  1.0000
  C   C420      1.0  0.48645  0.58978  0.37907  1.0000
  H   H746      1.0  0.07109  0.54717  0.43735  1.0000
  H   H747      1.0  0.46464  0.61907  0.24682  1.0000
  H   H748      1.0  0.00756  0.52015  0.32566  1.0000
  C   C421      1.0  0.48270  0.64382  0.24331  1.0000
  H   H749      1.0  0.39783  0.57381  0.43322  1.0000
  H   H750      1.0  0.40850  0.58947  0.40084  1.0000
  H   H751      1.0  0.36108  0.62597  0.40936  1.0000
  H   H752      1.0  0.26373  0.51224  0.46479  1.0000
  H   H753      1.0  0.25922  0.62832  0.41472  1.0000
  H   H754      1.0  0.02686  0.64061  0.44300  1.0000
  C   C422      1.0  0.06645  0.54884  0.46910  1.0000
  H   H755      1.0  0.00155  0.51021  0.28210  1.0000
  H   H756      1.0  0.05960  0.52675  0.45210  1.0000
  C   C423      1.0  0.26410  0.64620  0.45700  1.0000
  H   H757      1.0  0.05382  0.64245  0.37255  1.0000
  N   N22       1.0  0.38206  0.60100  0.41961  1.0000
  C   C424      1.0  0.07112  0.53682  0.45151  1.0000
  H   H758      1.0  0.04498  0.53834  0.30454  1.0000
  C   C425      1.0  0.39358  0.59832  0.39936  1.0000
  H   H759      1.0  0.40479  0.60244  0.35844  1.0000
  H   H760      1.0  0.41164  0.62722  0.35555  1.0000
  C   C426      1.0  0.24892  0.50891  0.47279  1.0000
  H   H761      1.0  0.43808  0.61954  0.44300  1.0000
  H   H762      1.0  0.41423  0.62205  0.45841  1.0000
  H   H763      1.0  0.38848  0.63023  0.42357  1.0000
  H   H764      1.0  0.19947  0.63415  0.44176  1.0000
  H   H765      1.0  0.46595  0.64796  0.35175  1.0000
  C   C427      1.0  0.47892  0.61055  0.38488  1.0000
  H   H766      1.0  0.32706  0.63815  0.42531  1.0000
  C   C428      1.0  0.99738  0.64847  0.41958  1.0000
  H   H767      1.0  0.98931  0.50095  0.31544  1.0000
  H   H768      1.0  0.03870  0.64263  0.40889  1.0000
  H   H769      1.0  0.25640  0.64707  0.44365  1.0000
  Fe  Fe57      1.0  0.12810  0.62756  0.47606  1.0000
  H   H770      1.0  0.20217  0.64255  0.47537  1.0000
  H   H771      1.0  0.41865  0.63904  0.43577  1.0000
  H   H772      1.0  0.48769  0.39900  0.33786  1.0000
  H   H773      1.0  0.04421  0.62438  0.30211  1.0000
  H   H774      1.0  0.01664  0.64582  0.38265  1.0000
  H   H775      1.0  0.23350  0.58781  0.47765  1.0000
  H   H776      1.0  0.26581  0.64799  0.39537  1.0000
  C   C429      1.0  0.23837  0.62665  0.47915  1.0000
  H   H777      1.0  0.02922  0.52250  0.23193  1.0000
  H   H778      1.0  0.48748  0.59473  0.34707  1.0000
  H   H779      1.0  0.01621  0.64974  0.27549  1.0000
  H   H780      1.0  0.48861  0.47930  0.29156  1.0000
  H   H781      1.0  0.48765  0.55827  0.34618  1.0000
  H   H782      1.0  0.40888  0.41410  0.55681  1.0000
  C   C430      1.0  0.09935  0.49461  0.72562  1.0000
  C   C431      1.0  0.22821  0.58702  0.49386  1.0000
  H   H783      1.0  0.00867  0.44329  0.63414  1.0000
  S   S109      1.0  0.41224  0.63057  0.52866  1.0000
  Fe  Fe58      1.0  0.42921  0.50404  0.67263  1.0000
  S   S110      1.0  0.40628  0.49182  0.69624  1.0000
  C   C432      1.0  0.44529  0.59175  0.59460  1.0000
  Fe  Fe59      1.0  0.39736  0.53238  0.65081  1.0000
  S   S111      1.0  0.37201  0.52194  0.67351  1.0000
  S   S112      1.0  0.39444  0.54808  0.61927  1.0000
  Fe  Fe60      1.0  0.39234  0.52337  0.69655  1.0000
  Fe  Fe61      1.0  0.38858  0.49117  0.67148  1.0000
  S   S113      1.0  0.38010  0.46183  0.66676  1.0000
  S   S114      1.0  0.41652  0.53606  0.67382  1.0000
  S   S115      1.0  0.41249  0.50133  0.64783  1.0000
  Fe  Fe62      1.0  0.29814  0.46233  0.57732  1.0000
  S   S116      1.0  0.29848  0.43252  0.56729  1.0000
  S   S117      1.0  0.29948  0.49296  0.56017  1.0000
  Fe  Fe63      1.0  0.29495  0.44539  0.62118  1.0000
  S   S118      1.0  0.29519  0.41396  0.61526  1.0000
  S   S119      1.0  0.29221  0.45776  0.65012  1.0000
  Fe  Fe64      1.0  0.31965  0.42076  0.59005  1.0000
  S   S120      1.0  0.35152  0.40526  0.58338  1.0000
  Fe  Fe65      1.0  0.27401  0.42814  0.59313  1.0000
  S   S121      1.0  0.24492  0.41628  0.59189  1.0000
  S   S122      1.0  0.32084  0.45125  0.59807  1.0000
  S   S123      1.0  0.27224  0.45883  0.60116  1.0000
  Fe  Fe66      1.0  0.09817  0.44822  0.63064  1.0000
  S   S124      1.0  0.12488  0.45031  0.64588  1.0000
  S   S125      1.0  0.08784  0.41735  0.63555  1.0000
  Fe  Fe67      1.0  0.09277  0.49288  0.61714  1.0000
  S   S126      1.0  0.11818  0.49807  0.63219  1.0000
  S   S127      1.0  0.07484  0.51884  0.60017  1.0000
  Fe  Fe68      1.0  0.13475  0.47122  0.61893  1.0000
  S   S128      1.0  0.16582  0.47768  0.60441  1.0000
  Fe  Fe69      1.0  0.10635  0.47695  0.65798  1.0000
  S   S129      1.0  0.10860  0.47833  0.69065  1.0000
  S   S130      1.0  0.10973  0.46706  0.60240  1.0000
  S   S131      1.0  0.07916  0.47384  0.64425  1.0000
  H   H784      1.0  0.33397  0.46016  0.55416  1.0000
  Fe  Fe70      1.0  0.10958  0.60400  0.51363  1.0000
  S   S132      1.0  0.12137  0.57974  0.53725  1.0000
  S   S133      1.0  0.12280  0.63293  0.50819  1.0000
  H   H785      1.0  0.48109  0.59804  0.58548  1.0000
  H   H786      1.0  0.21807  0.51579  0.50236  1.0000
  H   H787      1.0  0.46394  0.48431  0.72775  1.0000
  H   H788      1.0  0.22404  0.49003  0.50091  1.0000
  Fe  Fe71      1.0  0.00747  0.35771  0.60331  1.0000
  S   S134      1.0  0.02411  0.38479  0.59344  1.0000
  S   S135      1.0  0.00781  0.33721  0.63210  1.0000
  C   C433      1.0  0.06995  0.40870  0.62373  1.0000
  C   C434      1.0  0.06049  0.42061  0.60853  1.0000
  C   C435      1.0  0.04639  0.41308  0.59954  1.0000
  C   C436      1.0  0.04143  0.39370  0.60576  1.0000
  C   C437      1.0  0.05084  0.38179  0.62099  1.0000
  C   C438      1.0  0.06506  0.38925  0.62989  1.0000
  H   H789      1.0  0.06415  0.43557  0.60363  1.0000
  H   H790      1.0  0.03931  0.42234  0.58765  1.0000
  H   H791      1.0  0.04734  0.36677  0.62572  1.0000
  H   H792      1.0  0.07234  0.37993  0.64162  1.0000
  C   C439      1.0  0.08766  0.53502  0.58168  1.0000
  C   C440      1.0  0.07708  0.55260  0.57305  1.0000
  C   C441      1.0  0.08713  0.56637  0.55922  1.0000
  C   C442      1.0  0.10782  0.56256  0.55378  1.0000
  C   C443      1.0  0.11835  0.54497  0.56240  1.0000
  C   C444      1.0  0.10832  0.53115  0.57613  1.0000
  H   H793      1.0  0.06113  0.55580  0.57746  1.0000
  H   H794      1.0  0.07904  0.58025  0.55334  1.0000
  H   H795      1.0  0.13440  0.54206  0.55853  1.0000
  H   H796      1.0  0.11664  0.51768  0.58271  1.0000
  C   C445      1.0  0.44611  0.58617  0.56008  1.0000
  C   C446      1.0  0.07165  0.52561  0.71128  1.0000
  C   C447      1.0  0.08188  0.51191  0.69857  1.0000
  C   C448      1.0  0.09574  0.49632  0.70572  1.0000
  H   H797      1.0  0.45636  0.57215  0.63167  1.0000
  C   C449      1.0  0.41258  0.36111  0.62336  1.0000
  H   H798      1.0  0.06076  0.53750  0.70573  1.0000
  H   H799      1.0  0.07894  0.51323  0.68333  1.0000
  H   H800      1.0  0.99489  0.34298  0.71364  1.0000
  C   C450      1.0  0.34410  0.40846  0.52399  1.0000
  N   N23       1.0  0.00078  0.40607  0.66130  1.0000
  C   C451      1.0  0.47593  0.59625  0.57123  1.0000
  C   C452      1.0  0.22258  0.43312  0.59418  1.0000
  C   C453      1.0  0.20409  0.42602  0.60092  1.0000
  C   C454      1.0  0.18641  0.43940  0.60422  1.0000
  C   C455      1.0  0.18711  0.45995  0.60018  1.0000
  C   C456      1.0  0.20542  0.46694  0.59255  1.0000
  C   C457      1.0  0.22305  0.45363  0.58961  1.0000
  H   H801      1.0  0.20351  0.41014  0.60408  1.0000
  H   H802      1.0  0.17231  0.43382  0.60989  1.0000
  H   H803      1.0  0.20604  0.48280  0.58935  1.0000
  H   H804      1.0  0.23704  0.45925  0.58397  1.0000
  C   C458      1.0  0.35577  0.34504  0.58362  1.0000
  C   C459      1.0  0.34774  0.36517  0.58438  1.0000
  C   C460      1.0  0.36053  0.37966  0.58294  1.0000
  C   C461      1.0  0.38133  0.37382  0.58082  1.0000
  H   H805      1.0  0.34578  0.33392  0.58459  1.0000
  H   H806      1.0  0.33170  0.36946  0.58587  1.0000
  C   C462      1.0  0.38934  0.35365  0.58054  1.0000
  C   C463      1.0  0.31396  0.35736  0.65266  1.0000
  C   C464      1.0  0.30470  0.51487  0.52372  1.0000
  C   C465      1.0  0.30285  0.49586  0.53408  1.0000
  C   C466      1.0  0.30327  0.47978  0.52354  1.0000
  H   H807      1.0  0.12488  0.53722  0.51942  1.0000
  C   C467      1.0  0.37658  0.33912  0.58198  1.0000
  H   H808      1.0  0.30447  0.52734  0.53183  1.0000
  H   H809      1.0  0.30173  0.46513  0.53152  1.0000
  C   C468      1.0  0.35554  0.46139  0.66215  1.0000
  C   C469      1.0  0.34004  0.47632  0.66731  1.0000
  C   C470      1.0  0.32042  0.47507  0.66395  1.0000
  C   C471      1.0  0.31649  0.45925  0.65489  1.0000
  C   C472      1.0  0.33211  0.44466  0.64930  1.0000
  C   C473      1.0  0.35151  0.44555  0.65325  1.0000
  H   H810      1.0  0.34309  0.48852  0.67429  1.0000
  H   H811      1.0  0.30836  0.48641  0.66823  1.0000
  H   H812      1.0  0.32914  0.43242  0.64231  1.0000
  H   H813      1.0  0.36340  0.43394  0.64934  1.0000
  H   H814      1.0  0.24253  0.54428  0.55831  1.0000
  H   H815      1.0  0.02525  0.46861  0.64417  1.0000
  C   C474      1.0  0.39673  0.31816  0.69613  1.0000
  H   H816      1.0  0.07908  0.39220  0.55870  1.0000
  C   C475      1.0  0.30652  0.51796  0.50288  1.0000
  H   H817      1.0  0.36798  0.42631  0.49555  1.0000
  H   H818      1.0  0.39134  0.38496  0.57950  1.0000
  C   C476      1.0  0.38911  0.61427  0.59309  1.0000
  C   C477      1.0  0.38943  0.60883  0.61369  1.0000
  C   C478      1.0  0.39106  0.58863  0.62205  1.0000
  C   C479      1.0  0.39225  0.57373  0.60985  1.0000
  C   C480      1.0  0.39168  0.57919  0.58930  1.0000
  C   C481      1.0  0.39010  0.59934  0.58094  1.0000
  H   H819      1.0  0.38865  0.62030  0.62319  1.0000
  H   H820      1.0  0.39142  0.58463  0.63790  1.0000
  H   H821      1.0  0.39260  0.56776  0.57975  1.0000
  H   H822      1.0  0.38975  0.60334  0.56509  1.0000
  H   H823      1.0  0.47740  0.46593  0.63260  1.0000
  H   H824      1.0  0.43610  0.63214  0.59689  1.0000
  H   H825      1.0  0.31209  0.40683  0.53209  1.0000
  C   C482      1.0  0.18423  0.64109  0.50414  1.0000
  H   H826      1.0  0.43728  0.46229  0.69016  1.0000
  C   C483      1.0  0.02928  0.45281  0.65034  1.0000
  C   C484      1.0  0.30687  0.50195  0.49228  1.0000
  C   C485      1.0  0.06275  0.53095  0.52609  1.0000
  C   C486      1.0  0.05082  0.56272  0.50782  1.0000
  H   H827      1.0  0.38263  0.46704  0.49397  1.0000
  C   C487      1.0  0.04920  0.57506  0.52535  1.0000
  C   C488      1.0  0.07752  0.51159  0.52903  1.0000
  H   H828      1.0  0.07231  0.36722  0.58707  1.0000
  C   C489      1.0  0.03377  0.59361  0.52289  1.0000
  H   H829      1.0  0.41069  0.33286  0.64081  1.0000
  H   H830      1.0  0.04737  0.52676  0.52725  1.0000
  H   H831      1.0  0.39418  0.40060  0.69122  1.0000
  H   H832      1.0  0.01386  0.37586  0.69414  1.0000
  H   H833      1.0  0.06379  0.58008  0.52591  1.0000
  H   H834      1.0  0.04434  0.56637  0.53982  1.0000
  C   C490      1.0  0.33428  0.58875  0.48609  1.0000
  H   H835      1.0  0.03796  0.60330  0.50879  1.0000
  H   H836      1.0  0.38633  0.41549  0.52246  1.0000
  C   C491      1.0  0.36523  0.44135  0.50048  1.0000
  C   C492      1.0  0.25298  0.62083  0.54025  1.0000
  C   C493      1.0  0.38606  0.33156  0.67995  1.0000
  C   C494      1.0  0.22775  0.62858  0.51551  1.0000
  H   H837      1.0  0.26147  0.49469  0.49893  1.0000
  H   H838      1.0  0.12746  0.55824  0.50031  1.0000
  C   C495      1.0  0.45024  0.56918  0.60189  1.0000
  H   H839      1.0  0.36186  0.32521  0.62042  1.0000
  H   H840      1.0  0.24060  0.46160  0.51379  1.0000
  C   C496      1.0  0.26049  0.45507  0.70382  1.0000
  H   H841      1.0  0.10470  0.52307  0.49928  1.0000
  H   H842      1.0  0.31070  0.63361  0.49795  1.0000
  H   H843      1.0  0.25740  0.44349  0.55274  1.0000
  H   H844      1.0  0.34560  0.63807  0.50100  1.0000
  C   C497      1.0  0.03299  0.35529  0.67683  1.0000
  H   H845      1.0  0.39739  0.44286  0.49266  1.0000
  C   C498      1.0  0.45309  0.59026  0.53744  1.0000
  S   S136      1.0  0.38783  0.53470  0.72671  1.0000
  N   N24       1.0  0.43557  0.42561  0.63351  1.0000
  C   C499      1.0  0.44392  0.40534  0.62750  1.0000
  C   C500      1.0  0.41927  0.43557  0.62116  1.0000
  C   C501      1.0  0.45254  0.43827  0.62933  1.0000
  C   C502      1.0  0.42801  0.42445  0.65543  1.0000
  C   C503      1.0  0.41102  0.41151  0.66323  1.0000
  C   C504      1.0  0.46071  0.39330  0.63909  1.0000
  C   C505      1.0  0.40587  0.42203  0.61438  1.0000
  C   C506      1.0  0.38871  0.43450  0.60433  1.0000
  C   C507      1.0  0.40693  0.40927  0.68597  1.0000
  H   H846      1.0  0.08144  0.48458  0.54996  1.0000
  H   H847      1.0  0.44982  0.40690  0.61133  1.0000
  H   H848      1.0  0.43204  0.39560  0.62921  1.0000
  H   H849      1.0  0.40921  0.44706  0.62922  1.0000
  H   H850      1.0  0.42592  0.44380  0.60700  1.0000
  H   H851      1.0  0.46038  0.43728  0.61393  1.0000
  H   H852      1.0  0.24160  0.58551  0.50155  1.0000
  H   H853      1.0  0.41473  0.39634  0.65882  1.0000
  H   H854      1.0  0.39697  0.41884  0.65757  1.0000
  H   H855      1.0  0.01868  0.58934  0.52279  1.0000
  H   H856      1.0  0.45514  0.39006  0.65517  1.0000
  H   H857      1.0  0.41481  0.41281  0.60328  1.0000
  H   H858      1.0  0.39930  0.41185  0.62693  1.0000
  H   H859      1.0  0.02688  0.41681  0.66881  1.0000
  H   H860      1.0  0.37905  0.44397  0.61477  1.0000
  H   H861      1.0  0.39458  0.44416  0.59086  1.0000
  H   H862      1.0  0.34955  0.35058  0.66674  1.0000
  C   C508      1.0  0.46456  0.47229  0.62439  1.0000
  H   H863      1.0  0.99682  0.37481  0.66625  1.0000
  C   C509      1.0  0.44183  0.57927  0.52567  1.0000
  C   C510      1.0  0.24024  0.46076  0.53014  1.0000
  H   H864      1.0  0.15066  0.52629  0.62698  1.0000
  C   C511      1.0  0.07297  0.37867  0.55637  1.0000
  H   H865      1.0  0.06867  0.50590  0.56117  1.0000
  H   H866      1.0  0.24981  0.55171  0.53194  1.0000
  H   H867      1.0  0.11224  0.59236  0.60575  1.0000
  H   H868      1.0  0.47392  0.40139  0.63750  1.0000
  H   H869      1.0  0.03588  0.55790  0.50785  1.0000
  N   N25       1.0  0.33490  0.54020  0.60201  1.0000
  C   C512      1.0  0.31622  0.53145  0.61177  1.0000
  C   C513      1.0  0.33837  0.55613  0.61374  1.0000
  C   C514      1.0  0.33113  0.55036  0.58146  1.0000
  C   C515      1.0  0.35310  0.52465  0.59987  1.0000
  C   C516      1.0  0.35423  0.50616  0.61609  1.0000
  C   C517      1.0  0.30813  0.51784  0.59950  1.0000
  C   C518      1.0  0.34774  0.56250  0.56980  1.0000
  C   C519      1.0  0.34041  0.54978  0.63608  1.0000
  C   C520      1.0  0.34122  0.56784  0.64653  1.0000
  C   C521      1.0  0.37453  0.49331  0.61311  1.0000
  C   C522      1.0  0.29316  0.50536  0.61264  1.0000
  C   C523      1.0  0.34412  0.56912  0.54813  1.0000
  H   H870      1.0  0.30385  0.54359  0.61512  1.0000
  H   H871      1.0  0.31848  0.52276  0.62647  1.0000
  H   H872      1.0  0.35240  0.56248  0.60727  1.0000
  H   H873      1.0  0.32604  0.56879  0.61271  1.0000
  H   H874      1.0  0.31681  0.56067  0.58238  1.0000
  H   H875      1.0  0.32923  0.53917  0.57185  1.0000
  H   H876      1.0  0.35445  0.51851  0.58548  1.0000
  H   H877      1.0  0.36700  0.53167  0.59901  1.0000
  H   H878      1.0  0.34261  0.49662  0.61530  1.0000
  H   H879      1.0  0.35199  0.51030  0.63134  1.0000
  H   H880      1.0  0.30025  0.52706  0.58753  1.0000
  H   H881      1.0  0.32039  0.50761  0.59239  1.0000
  H   H882      1.0  0.36273  0.55357  0.56975  1.0000
  H   H883      1.0  0.34794  0.57623  0.57658  1.0000
  H   H884      1.0  0.32773  0.54224  0.64423  1.0000
  H   H885      1.0  0.35458  0.53980  0.63756  1.0000
  H   H886      1.0  0.34344  0.56284  0.66233  1.0000
  H   H887      1.0  0.35389  0.57594  0.63927  1.0000
  H   H888      1.0  0.32704  0.57817  0.64618  1.0000
  H   H889      1.0  0.37702  0.48790  0.59832  1.0000
  H   H890      1.0  0.38677  0.50197  0.61432  1.0000
  H   H891      1.0  0.37501  0.48020  0.62478  1.0000
  H   H892      1.0  0.28079  0.51503  0.62036  1.0000
  H   H893      1.0  0.28667  0.49672  0.60332  1.0000
  H   H894      1.0  0.30078  0.49473  0.62388  1.0000
  H   H895      1.0  0.32940  0.57849  0.54741  1.0000
  H   H896      1.0  0.35598  0.57811  0.54031  1.0000
  H   H897      1.0  0.34457  0.55601  0.54019  1.0000
  N   N26       1.0  0.36196  0.43976  0.52294  1.0000
  C   C524      1.0  0.35770  0.46050  0.52890  1.0000
  C   C525      1.0  0.25315  0.54062  0.54500  1.0000
  C   C526      1.0  0.34344  0.42959  0.53003  1.0000
  C   C527      1.0  0.37949  0.42728  0.53191  1.0000
  C   C528      1.0  0.20493  0.64205  0.49108  1.0000
  C   C529      1.0  0.35019  0.46167  0.55128  1.0000
  H   H898      1.0  0.35137  0.44905  0.49438  1.0000
  C   C530      1.0  0.35289  0.48164  0.55732  1.0000
  H   H899      1.0  0.34612  0.46971  0.52034  1.0000
  H   H900      1.0  0.37103  0.46848  0.52483  1.0000
  C   C531      1.0  0.21837  0.56801  0.50019  1.0000
  H   H901      1.0  0.33000  0.43898  0.52466  1.0000
  H   H902      1.0  0.37431  0.41895  0.54658  1.0000
  H   H903      1.0  0.39114  0.44792  0.54780  1.0000
  C   C532      1.0  0.06895  0.34277  0.57068  1.0000
  H   H904      1.0  0.35803  0.44953  0.56103  1.0000
  H   H905      1.0  0.23974  0.59908  0.52901  1.0000
  H   H906      1.0  0.34636  0.48237  0.57310  1.0000
  H   H907      1.0  0.36903  0.48335  0.55583  1.0000
  H   H908      1.0  0.34509  0.49416  0.54791  1.0000
  H   H909      1.0  0.48214  0.33592  0.71958  1.0000
  H   H910      1.0  0.05035  0.53451  0.63820  1.0000
  H   H911      1.0  0.21395  0.56592  0.51657  1.0000
  H   H912      1.0  0.14475  0.52690  0.60197  1.0000
  H   H913      1.0  0.24083  0.62303  0.55281  1.0000
  H   H914      1.0  0.25312  0.52112  0.49847  1.0000
  C   C533      1.0  0.02290  0.37644  0.67920  1.0000
  N   N27       1.0  0.06706  0.54506  0.50724  1.0000
  H   H915      1.0  0.08502  0.53174  0.64642  1.0000
  C   C534      1.0  0.34855  0.33893  0.65733  1.0000
  C   C535      1.0  0.46740  0.46643  0.67748  1.0000
  C   C536      1.0  0.21314  0.60580  0.49806  1.0000
  H   H916      1.0  0.03501  0.38573  0.67861  1.0000
  H   H917      1.0  0.05704  0.43932  0.68782  1.0000
  H   H918      1.0  0.04826  0.48933  0.72510  1.0000
  C   C537      1.0  0.44422  0.62009  0.56841  1.0000
  C   C538      1.0  0.14990  0.53557  0.61228  1.0000
  H   H919      1.0  0.18552  0.63926  0.52025  1.0000
  C   C539      1.0  0.06580  0.44348  0.69864  1.0000
  H   H920      1.0  0.37253  0.35535  0.62502  1.0000
  H   H921      1.0  0.20450  0.60268  0.51310  1.0000
  N   N28       1.0  0.22458  0.45698  0.66352  1.0000
  C   C540      1.0  0.22457  0.44084  0.65067  1.0000
  C   C541      1.0  0.23127  0.47552  0.65088  1.0000
  C   C542      1.0  0.23976  0.44931  0.67779  1.0000
  C   C543      1.0  0.20445  0.46171  0.67568  1.0000
  C   C544      1.0  0.18611  0.46781  0.66412  1.0000
  C   C545      1.0  0.21988  0.42031  0.66203  1.0000
  C   C546      1.0  0.24469  0.46462  0.69041  1.0000
  C   C547      1.0  0.22463  0.48077  0.62986  1.0000
  C   C548      1.0  0.23000  0.50118  0.62001  1.0000
  C   C549      1.0  0.16649  0.46841  0.67832  1.0000
  C   C550      1.0  0.21684  0.40618  0.64780  1.0000
  H   H922      1.0  0.03224  0.45237  0.66591  1.0000
  H   H923      1.0  0.23951  0.43826  0.64152  1.0000
  H   H924      1.0  0.21392  0.44543  0.63956  1.0000
  H   H925      1.0  0.22646  0.48874  0.65898  1.0000
  H   H926      1.0  0.24797  0.47410  0.64807  1.0000
  H   H927      1.0  0.25419  0.44320  0.66946  1.0000
  H   H928      1.0  0.23467  0.43670  0.68866  1.0000
  H   H929      1.0  0.20119  0.44899  0.68729  1.0000
  H   H930      1.0  0.20471  0.47423  0.68424  1.0000
  H   H931      1.0  0.18527  0.45737  0.65347  1.0000
  H   H932      1.0  0.18660  0.48306  0.65603  1.0000
  H   H933      1.0  0.23254  0.41305  0.67013  1.0000
  H   H934      1.0  0.20607  0.42181  0.67282  1.0000
  H   H935      1.0  0.31617  0.36932  0.66115  1.0000
  H   H936      1.0  0.25079  0.47747  0.68081  1.0000
  H   H937      1.0  0.23260  0.46965  0.62030  1.0000
  H   H938      1.0  0.20842  0.48072  0.62998  1.0000
  H   H939      1.0  0.24638  0.50156  0.61891  1.0000
  H   H940      1.0  0.22571  0.50416  0.60472  1.0000
  H   H941      1.0  0.22185  0.51306  0.62867  1.0000
  H   H942      1.0  0.16453  0.45336  0.68641  1.0000
  H   H943      1.0  0.16606  0.47899  0.68925  1.0000
  H   H944      1.0  0.15368  0.47344  0.66966  1.0000
  H   H945      1.0  0.22979  0.40486  0.63588  1.0000
  H   H946      1.0  0.21531  0.39115  0.65611  1.0000
  H   H947      1.0  0.20291  0.41164  0.64101  1.0000
  H   H948      1.0  0.35814  0.39883  0.52725  1.0000
  S   S137      1.0  0.29415  0.60163  0.48607  1.0000
  Fe  Fe72      1.0  0.38781  0.63777  0.50918  1.0000
  C   C551      1.0  0.24241  0.48124  0.53613  1.0000
  H   H949      1.0  0.24140  0.47939  0.55268  1.0000
  H   H950      1.0  0.25803  0.48410  0.53069  1.0000
  H   H951      1.0  0.25663  0.50898  0.55363  1.0000
  H   H952      1.0  0.34044  0.42783  0.54656  1.0000
  N   N29       1.0  0.45331  0.59873  0.57326  1.0000
  H   H953      1.0  0.04307  0.35517  0.66251  1.0000
  H   H954      1.0  0.20590  0.48808  0.55365  1.0000
  H   H955      1.0  0.22162  0.51731  0.55308  1.0000
  C   C552      1.0  0.45224  0.45514  0.68657  1.0000
  H   H956      1.0  0.44439  0.42582  0.69753  1.0000
  C   C553      1.0  0.25187  0.51959  0.54075  1.0000
  H   H957      1.0  0.27190  0.44884  0.52855  1.0000
  H   H958      1.0  0.42224  0.43955  0.65959  1.0000
  C   C554      1.0  0.45628  0.43439  0.69052  1.0000
  C   C555      1.0  0.37993  0.34786  0.63807  1.0000
  H   H959      1.0  0.40328  0.33447  0.61658  1.0000
  C   C556      1.0  0.01212  0.44093  0.64975  1.0000
  H   H960      1.0  0.09151  0.58996  0.68059  1.0000
  H   H961      1.0  0.42585  0.43182  0.54589  1.0000
  C   C557      1.0  0.24938  0.50682  0.49527  1.0000
  N   N30       1.0  0.22748  0.49861  0.52930  1.0000
  C   C558      1.0  0.23024  0.51703  0.53789  1.0000
  H   H962      1.0  0.07947  0.37460  0.54143  1.0000
  H   H963      1.0  0.22608  0.45541  0.53772  1.0000
  C   C559      1.0  0.20675  0.49332  0.53738  1.0000
  H   H964      1.0  0.04315  0.44670  0.64128  1.0000
  H   H965      1.0  0.20342  0.48069  0.53043  1.0000
  H   H966      1.0  0.30667  0.34563  0.66297  1.0000
  H   H967      1.0  0.44191  0.48673  0.71587  1.0000
  Fe  Fe73      1.0  0.09231  0.64797  0.50177  1.0000
  H   H968      1.0  0.23177  0.64393  0.51448  1.0000
  H   H969      1.0  0.44055  0.41897  0.66425  1.0000
  H   H970      1.0  0.42031  0.40133  0.69260  1.0000
  H   H971      1.0  0.26857  0.54157  0.54792  1.0000
  S   S138      1.0  0.00991  0.33284  0.58478  1.0000
  C   C560      1.0  0.48681  0.61079  0.55496  1.0000
  H   H972      1.0  0.37263  0.34014  0.68738  1.0000
  S   S139      1.0  0.46213  0.49242  0.67134  1.0000
  H   H973      1.0  0.00983  0.40683  0.70090  1.0000
  H   H974      1.0  0.34297  0.40944  0.50786  1.0000
  C   C561      1.0  0.05223  0.44690  0.71807  1.0000
  H   H975      1.0  0.40434  0.37190  0.61273  1.0000
  C   C562      1.0  0.25724  0.44495  0.53639  1.0000
  H   H976      1.0  0.02870  0.41270  0.64385  1.0000
  H   H977      1.0  0.25500  0.43029  0.53258  1.0000
  C   C563      1.0  0.34247  0.62426  0.49698  1.0000
  N   N31       1.0  0.22143  0.62544  0.49612  1.0000
  H   H978      1.0  0.21507  0.62778  0.52772  1.0000
  H   H979      1.0  0.08729  0.56743  0.49774  1.0000
  H   H980      1.0  0.15672  0.51537  0.54179  1.0000
  H   H981      1.0  0.05232  0.34658  0.57301  1.0000
  H   H982      1.0  0.26281  0.51666  0.52758  1.0000
  H   H983      1.0  0.22394  0.53066  0.52873  1.0000
  H   H984      1.0  0.43450  0.46786  0.62294  1.0000
  H   H985      1.0  0.08256  0.61546  0.67214  1.0000
  S   S140      1.0  0.07868  0.61931  0.50997  1.0000
  H   H986      1.0  0.40537  0.34934  0.57902  1.0000
  H   H987      1.0  0.34117  0.32723  0.66769  1.0000
  C   C564      1.0  0.16925  0.50345  0.54480  1.0000
  H   H988      1.0  0.45096  0.59995  0.60502  1.0000
  H   H989      1.0  0.02166  0.34508  0.67724  1.0000
  C   C565      1.0  0.07822  0.36168  0.57268  1.0000
  H   H990      1.0  0.19097  0.52382  0.54022  1.0000
  C   C566      1.0  0.22881  0.50258  0.50688  1.0000
  C   C567      1.0  0.18903  0.51013  0.53424  1.0000
  H   H991      1.0  0.09236  0.51525  0.53112  1.0000
  C   C568      1.0  0.32660  0.39802  0.53521  1.0000
  C   C569      1.0  0.09775  0.31874  0.57995  1.0000
  H   H992      1.0  0.04057  0.45955  0.71453  1.0000
  C   C570      1.0  0.07032  0.49807  0.54780  1.0000
  H   H993      1.0  0.34019  0.36078  0.63166  1.0000
  S   S141      1.0  0.38308  0.61215  0.49391  1.0000
  H   H994      1.0  0.13810  0.53360  0.49513  1.0000
  H   H995      1.0  0.16950  0.50043  0.56118  1.0000
  C   C571      1.0  0.41399  0.42358  0.54286  1.0000
  H   H996      1.0  0.30383  0.36398  0.64143  1.0000
  H   H997      1.0  0.07919  0.50294  0.51631  1.0000
  H   H998      1.0  0.16637  0.48976  0.53938  1.0000
  H   H999      1.0  0.33118  0.57485  0.48236  1.0000
  H   H1000     1.0  0.07156  0.62150  0.57917  1.0000
  H   H1001     1.0  0.05063  0.52906  0.49155  1.0000
  H   H1002     1.0  0.42873  0.59534  0.59704  1.0000
  H   H1003     1.0  0.10546  0.32727  0.58848  1.0000
  H   H1004     1.0  0.25716  0.64606  0.48861  1.0000
  H   H1005     1.0  0.18750  0.51404  0.51817  1.0000
  H   H1006     1.0  0.47382  0.37543  0.61529  1.0000
  H   H1007     1.0  0.46613  0.56368  0.59713  1.0000
  H   H1008     1.0  0.44052  0.56050  0.59582  1.0000
  H   H1009     1.0  0.07680  0.34096  0.60833  1.0000
  H   H1010     1.0  0.04205  0.34968  0.68918  1.0000
  H   H1011     1.0  0.46400  0.43270  0.63956  1.0000
  C   C572      1.0  0.08566  0.61257  0.58335  1.0000
  H   H1012     1.0  0.07309  0.60442  0.61362  1.0000
  H   H1013     1.0  0.09524  0.62279  0.58729  1.0000
  C   C573      1.0  0.09313  0.60226  0.66810  1.0000
  H   H1014     1.0  0.01730  0.38070  0.64831  1.0000
  C   C574      1.0  0.35813  0.60910  0.49303  1.0000
  H   H1015     1.0  0.11808  0.58364  0.63881  1.0000
  C   C575      1.0  0.10574  0.53921  0.49620  1.0000
  H   H1016     1.0  0.44179  0.46266  0.64746  1.0000
  C   C576      1.0  0.40219  0.34246  0.62972  1.0000
  C   C577      1.0  0.06522  0.53514  0.48943  1.0000
  C   C578      1.0  0.08088  0.59672  0.60101  1.0000
  H   H1017     1.0  0.08959  0.60918  0.63724  1.0000
  H   H1018     1.0  0.09350  0.60556  0.57020  1.0000
  H   H1019     1.0  0.41350  0.36823  0.63667  1.0000
  H   H1020     1.0  0.09006  0.55390  0.52133  1.0000
  H   H1021     1.0  0.40100  0.32742  0.70642  1.0000
  H   H1022     1.0  0.25932  0.63505  0.53504  1.0000
  H   H1023     1.0  0.05645  0.38231  0.55694  1.0000
  C   C579      1.0  0.35397  0.59129  0.48777  1.0000
  C   C580      1.0  0.08834  0.59615  0.64892  1.0000
  H   H1024     1.0  0.07024  0.58777  0.59672  1.0000
  H   H1025     1.0  0.10862  0.60620  0.66609  1.0000
  C   C581      1.0  0.00910  0.38426  0.66294  1.0000
  H   H1026     1.0  0.43049  0.57002  0.63009  1.0000
  C   C582      1.0  0.10015  0.58291  0.60621  1.0000
  C   C583      1.0  0.10323  0.57817  0.64252  1.0000
  H   H1027     1.0  0.06611  0.57405  0.63144  1.0000
  H   H1028     1.0  0.10464  0.57438  0.59325  1.0000
  H   H1029     1.0  0.07269  0.59276  0.65180  1.0000
  C   C584      1.0  0.99677  0.41741  0.69674  1.0000
  S   S142      1.0  0.47871  0.39851  0.68677  1.0000
  H   H1030     1.0  0.23118  0.47029  0.70014  1.0000
  H   H1031     1.0  0.10472  0.56684  0.65587  1.0000
  H   H1032     1.0  0.42800  0.35690  0.61602  1.0000
  C   C585      1.0  0.06920  0.32861  0.60543  1.0000
  C   C586      1.0  0.46930  0.32316  0.66329  1.0000
  H   H1033     1.0  0.42286  0.46326  0.72458  1.0000
  N   N32       1.0  0.09864  0.56873  0.62546  1.0000
  H   H1034     1.0  0.14192  0.56315  0.62450  1.0000
  H   H1035     1.0  0.32737  0.38311  0.53038  1.0000
  H   H1036     1.0  0.27463  0.44968  0.69470  1.0000
  H   H1037     1.0  0.07657  0.52191  0.48794  1.0000
  H   H1038     1.0  0.07815  0.43123  0.70126  1.0000
  C   C587      1.0  0.07831  0.56155  0.62969  1.0000
  C   C588      1.0  0.13585  0.55496  0.61445  1.0000
  H   H1039     1.0  0.07544  0.55502  0.61661  1.0000
  H   H1040     1.0  0.13650  0.56383  0.59947  1.0000
  H   H1041     1.0  0.05142  0.52924  0.66460  1.0000
  C   C589      1.0  0.39653  0.43836  0.53586  1.0000
  H   H1042     1.0  0.16522  0.53897  0.60609  1.0000
  H   H1043     1.0  0.48209  0.58074  0.56851  1.0000
  C   C590      1.0  0.24512  0.61363  0.52317  1.0000
  H   H1044     1.0  0.30568  0.47041  0.49441  1.0000
  H   H1045     1.0  0.26379  0.46627  0.71265  1.0000
  C   C591      1.0  0.11413  0.55073  0.62283  1.0000
  C   C592      1.0  0.32274  0.62173  0.49523  1.0000
  S   S143      1.0  0.11636  0.59797  0.48170  1.0000
  H   H1046     1.0  0.99873  0.44706  0.65938  1.0000
  H   H1047     1.0  0.07744  0.55138  0.66196  1.0000
  H   H1048     1.0  0.07232  0.45728  0.69193  1.0000
  H   H1049     1.0  0.22908  0.55500  0.49591  1.0000
  H   H1050     1.0  0.03313  0.60232  0.53547  1.0000
  H   H1051     1.0  0.40297  0.42415  0.69119  1.0000
  C   C593      1.0  0.07492  0.54581  0.64826  1.0000
  C   C594      1.0  0.05348  0.54067  0.65139  1.0000
  H   H1052     1.0  0.04255  0.55408  0.65396  1.0000
  H   H1053     1.0  0.44723  0.58231  0.50952  1.0000
  C   C595      1.0  0.01795  0.41837  0.65628  1.0000
  H   H1054     1.0  0.33075  0.33734  0.63323  1.0000
  H   H1055     1.0  0.37932  0.42449  0.59976  1.0000
  C   C596      1.0  0.44673  0.46073  0.63162  1.0000
  H   H1056     1.0  0.25790  0.61147  0.51137  1.0000
  H   H1057     1.0  0.39646  0.34215  0.67228  1.0000
  H   H1058     1.0  0.10947  0.54140  0.61280  1.0000
  H   H1059     1.0  0.11522  0.54102  0.63730  1.0000
  H   H1060     1.0  0.46029  0.48807  0.62708  1.0000
  H   H1061     1.0  0.05574  0.49328  0.54651  1.0000
  H   H1062     1.0  0.39357  0.44815  0.71641  1.0000
  H   H1063     1.0  0.30783  0.53273  0.49500  1.0000
  C   C597      1.0  0.30549  0.48279  0.50261  1.0000
  C   C598      1.0  0.33397  0.34853  0.64210  1.0000
  C   C599      1.0  0.46801  0.37326  0.63141  1.0000
  H   H1064     1.0  0.44906  0.54845  0.62924  1.0000
  H   H1065     1.0  0.45064  0.60626  0.53162  1.0000
  H   H1066     1.0  0.37882  0.35958  0.64799  1.0000
  C   C600      1.0  0.38012  0.31906  0.66515  1.0000
  H   H1067     1.0  0.07300  0.34033  0.55481  1.0000
  H   H1068     1.0  0.17704  0.62847  0.50117  1.0000
  N   N33       1.0  0.36924  0.33066  0.64855  1.0000
  S   S144      1.0  0.38834  0.63967  0.58294  1.0000
  H   H1069     1.0  0.45127  0.57010  0.56415  1.0000
  C   C601      1.0  0.36830  0.31684  0.63362  1.0000
  H   H1070     1.0  0.42782  0.62084  0.56821  1.0000
  H   H1071     1.0  0.06302  0.53831  0.53942  1.0000
  H   H1072     1.0  0.25506  0.44239  0.71429  1.0000
  H   H1073     1.0  0.45768  0.51746  0.70886  1.0000
  H   H1074     1.0  0.48034  0.36527  0.63962  1.0000
  H   H1075     1.0  0.42943  0.58768  0.56245  1.0000
  H   H1076     1.0  0.45722  0.33508  0.66571  1.0000
  H   H1077     1.0  0.45573  0.36380  0.63389  1.0000
  C   C602      1.0  0.44630  0.56478  0.62460  1.0000
  Fe  Fe74      1.0  0.39162  0.64900  0.54943  1.0000
  C   C603      1.0  0.48678  0.45676  0.67256  1.0000
  C   C604      1.0  0.08724  0.55217  0.50613  1.0000
  C   C605      1.0  0.44853  0.51396  0.72350  1.0000
  H   H1078     1.0  0.04484  0.43333  0.72337  1.0000
  H   H1079     1.0  0.32730  0.39587  0.55151  1.0000
  H   H1080     1.0  0.43313  0.52181  0.72262  1.0000
  H   H1081     1.0  0.45774  0.31939  0.71411  1.0000
  H   H1082     1.0  0.26510  0.60956  0.54572  1.0000
  H   H1083     1.0  0.99875  0.40859  0.62964  1.0000
  H   H1084     1.0  0.09477  0.35867  0.57166  1.0000
  C   C606      1.0  0.44684  0.63447  0.58307  1.0000
  H   H1085     1.0  0.44435  0.56294  0.53035  1.0000
  H   H1086     1.0  0.40236  0.44798  0.52245  1.0000
  H   H1087     1.0  0.46927  0.58476  0.53427  1.0000
  H   H1088     1.0  0.20218  0.60668  0.48730  1.0000
  H   H1089     1.0  0.42550  0.58450  0.52795  1.0000
  H   H1090     1.0  0.05317  0.57352  0.49418  1.0000
  H   H1091     1.0  0.48167  0.61165  0.54026  1.0000
  C   C607      1.0  0.31868  0.60410  0.48946  1.0000
  H   H1092     1.0  0.05280  0.33387  0.60779  1.0000
  C   C608      1.0  0.38307  0.45203  0.48958  1.0000
  C   C609      1.0  0.47529  0.42464  0.68455  1.0000
  H   H1093     1.0  0.07281  0.46402  0.72746  1.0000
  H   H1094     1.0  0.42053  0.41390  0.53123  1.0000
  H   H1095     1.0  0.01088  0.49849  0.72848  1.0000
  C   C610      1.0  0.12519  0.54232  0.50321  1.0000
  H   H1096     1.0  0.46926  0.47196  0.60819  1.0000
  H   H1097     1.0  0.48413  0.62609  0.55917  1.0000
  H   H1098     1.0  0.36601  0.57941  0.48508  1.0000
  H   H1099     1.0  0.45723  0.36639  0.71598  1.0000
  H   H1100     1.0  0.44997  0.62649  0.55314  1.0000
  H   H1101     1.0  0.07050  0.33111  0.64529  1.0000
  C   C611      1.0  0.44818  0.49147  0.72810  1.0000
  H   H1102     1.0  0.20488  0.56871  0.49268  1.0000
  H   H1103     1.0  0.46218  0.63189  0.58731  1.0000
  H   H1104     1.0  0.02446  0.51930  0.72815  1.0000
  H   H1105     1.0  0.00191  0.43222  0.69182  1.0000
  C   C612      1.0  0.06482  0.31745  0.64265  1.0000
  N   N34       1.0  0.07532  0.32408  0.58426  1.0000
  H   H1106     1.0  0.10309  0.32348  0.56398  1.0000
  H   H1107     1.0  0.98893  0.42401  0.72727  1.0000
  H   H1108     1.0  0.04823  0.32012  0.64374  1.0000
  H   H1109     1.0  0.25048  0.61403  0.48099  1.0000
  H   H1110     1.0  0.03462  0.34738  0.80929  1.0000
  Fe  Fe75      1.0  0.38135  0.59783  0.96110  1.0000
  H   H1111     1.0  0.39888  0.64634  0.85633  1.0000
  S   S145      1.0  0.38437  0.58937  0.92956  1.0000
  H   H1112     1.0  0.34089  0.49319  0.76983  1.0000
  Fe  Fe76      1.0  0.36088  0.49306  0.88193  1.0000
  S   S146      1.0  0.33154  0.49495  0.86966  1.0000
  S   S147      1.0  0.36461  0.50657  0.90969  1.0000
  Fe  Fe77      1.0  0.38000  0.45779  0.85927  1.0000
  S   S148      1.0  0.35205  0.45690  0.84608  1.0000
  S   S149      1.0  0.40743  0.43701  0.84857  1.0000
  Fe  Fe78      1.0  0.35074  0.49019  0.84019  1.0000
  S   S150      1.0  0.34090  0.50179  0.80970  1.0000
  Fe  Fe79      1.0  0.33512  0.46159  0.87598  1.0000
  S   S151      1.0  0.31189  0.44278  0.89363  1.0000
  S   S152      1.0  0.37982  0.49101  0.85192  1.0000
  S   S153      1.0  0.36339  0.45966  0.88981  1.0000
  Fe  Fe80      1.0  0.46450  0.33475  0.87908  1.0000
  C   C613      1.0  0.34624  0.39343  0.89752  1.0000
  S   S154      1.0  0.43887  0.35388  0.89515  1.0000
  H   H1113     1.0  0.36669  0.41576  0.89556  1.0000
  Fe  Fe81      1.0  0.20017  0.43056  0.89701  1.0000
  S   S155      1.0  0.19378  0.45651  0.91436  1.0000
  S   S156      1.0  0.22651  0.43198  0.87237  1.0000
  Fe  Fe82      1.0  0.16270  0.41178  0.91850  1.0000
  S   S157      1.0  0.15474  0.43644  0.93799  1.0000
  S   S158      1.0  0.13648  0.39346  0.92092  1.0000
  Fe  Fe83      1.0  0.16185  0.45705  0.91003  1.0000
  S   S159      1.0  0.14086  0.48539  0.90406  1.0000
  Fe  Fe84      1.0  0.18748  0.43368  0.94065  1.0000
  H   H1114     1.0  0.10201  0.45825  0.85299  1.0000
  S   S160      1.0  0.16836  0.43298  0.89030  1.0000
  S   S161      1.0  0.19539  0.40715  0.92360  1.0000
  Fe  Fe85      1.0  0.08170  0.51259  0.81538  1.0000
  S   S162      1.0  0.08116  0.54347  0.79868  1.0000
  S   S163      1.0  0.11063  0.49311  0.82022  1.0000
  Fe  Fe86      1.0  0.03695  0.51229  0.81795  1.0000
  S   S164      1.0  0.03258  0.54342  0.80177  1.0000
  C   C614      1.0  0.00175  0.48027  0.81464  1.0000
  Fe  Fe87      1.0  0.06005  0.53348  0.78097  1.0000
  S   S165      1.0  0.06102  0.54036  0.74724  1.0000
  Fe  Fe88      1.0  0.05411  0.55100  0.82095  1.0000
  S   S166      1.0  0.04811  0.58086  0.83377  1.0000
  S   S167      1.0  0.06282  0.50203  0.79599  1.0000
  S   S168      1.0  0.05619  0.52055  0.83881  1.0000
  C   C615      1.0  0.21812  0.51916  0.96207  1.0000
  H   H1115     1.0  0.01327  0.33842  0.78470  1.0000
  H   H1116     1.0  0.46454  0.40387  0.91473  1.0000
  C   C616      1.0  0.41086  0.63173  0.91749  1.0000
  H   H1117     1.0  0.09192  0.50667  0.75366  1.0000
  C   C617      1.0  0.05842  0.58997  0.85259  1.0000
  C   C618      1.0  0.05373  0.61027  0.85511  1.0000
  C   C619      1.0  0.36185  0.40294  0.90607  1.0000
  C   C620      1.0  0.07485  0.60619  0.88159  1.0000
  C   C621      1.0  0.07949  0.58587  0.87909  1.0000
  C   C622      1.0  0.07120  0.57776  0.86485  1.0000
  H   H1118     1.0  0.04397  0.61990  0.84562  1.0000
  H   H1119     1.0  0.08947  0.57629  0.88836  1.0000
  H   H1120     1.0  0.07469  0.56208  0.86332  1.0000
  H   H1121     1.0  0.17129  0.54410  0.84134  1.0000
  C   C623      1.0  0.46033  0.34634  0.74360  1.0000
  C   C624      1.0  0.37546  0.35058  0.87080  1.0000
  H   H1122     1.0  0.13484  0.41652  0.82825  1.0000
  C   C625      1.0  0.13890  0.42923  0.83440  1.0000
  C   C626      1.0  0.12018  0.33228  0.91269  1.0000
  H   H1123     1.0  0.41795  0.43023  0.73886  1.0000
  H   H1124     1.0  0.12930  0.36397  0.95866  1.0000
  C   C627      1.0  0.06190  0.61835  0.86945  1.0000
  H   H1125     1.0  0.16882  0.41408  0.83839  1.0000
  C   C628      1.0  0.02493  0.34771  0.82332  1.0000
  S   S169      1.0  0.40302  0.61343  0.97336  1.0000
  C   C629      1.0  0.13297  0.48856  0.88045  1.0000
  C   C630      1.0  0.11398  0.49872  0.87764  1.0000
  C   C631      1.0  0.10715  0.50069  0.85902  1.0000
  C   C632      1.0  0.11931  0.49245  0.84319  1.0000
  C   C633      1.0  0.13850  0.48279  0.84584  1.0000
  C   C634      1.0  0.14532  0.48079  0.86446  1.0000
  H   H1126     1.0  0.10431  0.50455  0.89005  1.0000
  H   H1127     1.0  0.09233  0.50814  0.85711  1.0000
  H   H1128     1.0  0.14802  0.47657  0.83356  1.0000
  H   H1129     1.0  0.16012  0.47320  0.86645  1.0000
  C   C635      1.0  0.13101  0.36976  0.91713  1.0000
  C   C636      1.0  0.11100  0.36751  0.91597  1.0000
  H   H1130     1.0  0.09958  0.38024  0.91687  1.0000
  H   H1131     1.0  0.10186  0.34243  0.95614  1.0000
  C   C637      1.0  0.12755  0.54391  0.88945  1.0000
  C   C638      1.0  0.47026  0.41620  0.75029  1.0000
  S   S170      1.0  0.46157  0.32031  0.85255  1.0000
  C   C639      1.0  0.28845  0.43993  0.88693  1.0000
  C   C640      1.0  0.28177  0.44943  0.86914  1.0000
  C   C641      1.0  0.26282  0.44680  0.86473  1.0000
  C   C642      1.0  0.25020  0.43516  0.87830  1.0000
  C   C643      1.0  0.25692  0.42572  0.89608  1.0000
  C   C644      1.0  0.27608  0.42782  0.90017  1.0000
  H   H1132     1.0  0.29121  0.45869  0.85874  1.0000
  H   H1133     1.0  0.25781  0.45401  0.85085  1.0000
  H   H1134     1.0  0.24748  0.41647  0.90650  1.0000
  H   H1135     1.0  0.28133  0.42004  0.91372  1.0000
  C   C645      1.0  0.41495  0.41359  0.86167  1.0000
  C   C646      1.0  0.42741  0.39926  0.85130  1.0000
  C   C647      1.0  0.43477  0.38086  0.86142  1.0000
  C   C648      1.0  0.42972  0.37671  0.88201  1.0000
  C   C649      1.0  0.41726  0.39104  0.89242  1.0000
  C   C650      1.0  0.40988  0.40944  0.88228  1.0000
  H   H1136     1.0  0.43159  0.40246  0.83538  1.0000
  H   H1137     1.0  0.44445  0.36993  0.85328  1.0000
  H   H1138     1.0  0.41352  0.38796  0.90841  1.0000
  H   H1139     1.0  0.40079  0.42064  0.89047  1.0000
  C   C651      1.0  0.37974  0.56605  0.92391  1.0000
  C   C652      1.0  0.37660  0.56422  0.90444  1.0000
  C   C653      1.0  0.37247  0.54602  0.89958  1.0000
  C   C654      1.0  0.37139  0.52945  0.91422  1.0000
  C   C655      1.0  0.37486  0.53123  0.93359  1.0000
  C   C656      1.0  0.37915  0.54935  0.93837  1.0000
  H   H1140     1.0  0.37724  0.57698  0.89306  1.0000
  H   H1141     1.0  0.36987  0.54489  0.88461  1.0000
  H   H1142     1.0  0.37423  0.51849  0.94499  1.0000
  H   H1143     1.0  0.38204  0.55041  0.95325  1.0000
  C   C657      1.0  0.37690  0.52274  0.74975  1.0000
  C   C658      1.0  0.38133  0.52788  0.76760  1.0000
  C   C659      1.0  0.37144  0.52039  0.78620  1.0000
  C   C660      1.0  0.35660  0.50805  0.78712  1.0000
  C   C661      1.0  0.35253  0.50249  0.76930  1.0000
  C   C662      1.0  0.36287  0.50950  0.75072  1.0000
  H   H1144     1.0  0.39205  0.53821  0.76701  1.0000
  H   H1145     1.0  0.37449  0.52506  0.79973  1.0000
  N   N35       1.0  0.13253  0.55994  0.83156  1.0000
  C   C663      1.0  0.13576  0.53980  0.82428  1.0000
  C   C664      1.0  0.12420  0.55755  0.85340  1.0000
  C   C665      1.0  0.11659  0.57283  0.82052  1.0000
  C   C666      1.0  0.03333  0.58701  0.93436  1.0000
  C   C667      1.0  0.14204  0.53999  0.80144  1.0000
  Fe  Fe89      1.0  0.08048  0.64200  0.91782  1.0000
  C   C668      1.0  0.06304  0.46295  0.84549  1.0000
  C   C669      1.0  0.07394  0.44575  0.85827  1.0000
  H   H1146     1.0  0.40360  0.47470  0.74102  1.0000
  H   H1147     1.0  0.12171  0.53273  0.82802  1.0000
  H   H1148     1.0  0.14683  0.52929  0.83223  1.0000
  H   H1149     1.0  0.12019  0.57230  0.85884  1.0000
  H   H1150     1.0  0.11007  0.55063  0.85558  1.0000
  H   H1151     1.0  0.10251  0.56576  0.82319  1.0000
  H   H1152     1.0  0.00427  0.50397  0.79031  1.0000
  H   H1153     1.0  0.09233  0.62185  0.81591  1.0000
  H   H1154     1.0  0.43454  0.46896  0.88658  1.0000
  H   H1155     1.0  0.09927  0.44282  0.83545  1.0000
  S   S171      1.0  0.05468  0.32204  0.83957  1.0000
  H   H1156     1.0  0.16685  0.62136  0.96238  1.0000
  C   C670      1.0  0.00568  0.35843  0.82394  1.0000
  C   C671      1.0  0.01896  0.33756  0.85888  1.0000
  H   H1157     1.0  0.99707  0.33380  0.76791  1.0000
  H   H1158     1.0  0.14653  0.50767  0.80201  1.0000
  C   C672      1.0  0.33066  0.55348  0.97125  1.0000
  C   C673      1.0  0.99412  0.46213  0.82152  1.0000
  H   H1159     1.0  0.46357  0.45733  0.75242  1.0000
  H   H1160     1.0  0.36419  0.34030  0.87694  1.0000
  H   H1161     1.0  0.06790  0.43193  0.85682  1.0000
  H   H1162     1.0  0.02948  0.60572  0.90607  1.0000
  H   H1163     1.0  0.03677  0.32217  0.95591  1.0000
  N   N36       1.0  0.43138  0.46449  0.75337  1.0000
  C   C674      1.0  0.42361  0.46093  0.77527  1.0000
  C   C675      1.0  0.48061  0.33454  0.73611  1.0000
  S   S172      1.0  0.20233  0.43645  0.96742  1.0000
  H   H1164     1.0  0.01826  0.64008  0.89009  1.0000
  C   C676      1.0  0.40415  0.47436  0.78219  1.0000
  H   H1165     1.0  0.00055  0.36626  0.81040  1.0000
  C   C677      1.0  0.39693  0.46839  0.80419  1.0000
  S   S173      1.0  0.06237  0.63566  0.94783  1.0000
  H   H1166     1.0  0.43530  0.46302  0.78429  1.0000
  H   H1167     1.0  0.42069  0.44530  0.77995  1.0000
  H   H1168     1.0  0.44434  0.48944  0.76020  1.0000
  H   H1169     1.0  0.42175  0.49642  0.74942  1.0000
  H   H1170     1.0  0.28722  0.49226  0.95088  1.0000
  H   H1171     1.0  0.40124  0.43839  0.76017  1.0000
  H   H1172     1.0  0.40676  0.49017  0.78043  1.0000
  H   H1173     1.0  0.39189  0.47315  0.77364  1.0000
  C   C678      1.0  0.03499  0.47054  0.75164  1.0000
  H   H1174     1.0  0.39353  0.45277  0.80688  1.0000
  H   H1175     1.0  0.40842  0.47002  0.81355  1.0000
  H   H1176     1.0  0.38304  0.47819  0.80883  1.0000
  H   H1177     1.0  0.46641  0.41111  0.84898  1.0000
  H   H1178     1.0  0.05868  0.63410  0.87060  1.0000
  N   N37       1.0  0.25502  0.47811  0.93657  1.0000
  C   C679      1.0  0.27671  0.47846  0.92793  1.0000
  C   C680      1.0  0.24342  0.47515  0.92038  1.0000
  C   C681      1.0  0.11098  0.59457  0.82550  1.0000
  C   C682      1.0  0.00925  0.32685  0.77679  1.0000
  C   C683      1.0  0.26155  0.44017  0.94873  1.0000
  C   C684      1.0  0.29143  0.47889  0.94304  1.0000
  H   H1179     1.0  0.15828  0.52118  0.77989  1.0000
  C   C685      1.0  0.24431  0.49121  0.90179  1.0000
  C   C686      1.0  0.22853  0.48976  0.88859  1.0000
  S   S174      1.0  0.05900  0.32373  0.89571  1.0000
  C   C687      1.0  0.31284  0.47954  0.93251  1.0000
  H   H1180     1.0  0.10294  0.59491  0.84076  1.0000
  H   H1181     1.0  0.27838  0.49180  0.91663  1.0000
  H   H1182     1.0  0.28217  0.46562  0.91947  1.0000
  H   H1183     1.0  0.24916  0.46078  0.91462  1.0000
  H   H1184     1.0  0.22752  0.47375  0.92646  1.0000
  H   H1185     1.0  0.16651  0.44093  0.83663  1.0000
  H   H1186     1.0  0.44892  0.42341  0.87524  1.0000
  H   H1187     1.0  0.12441  0.60227  0.82429  1.0000
  C   C688      1.0  0.12473  0.57186  0.96038  1.0000
  H   H1188     1.0  0.27747  0.43952  0.94214  1.0000
  H   H1189     1.0  0.25289  0.43523  0.93829  1.0000
  H   H1190     1.0  0.27423  0.56362  0.94849  1.0000
  C   C689      1.0  0.44423  0.43901  0.90067  1.0000
  H   H1191     1.0  0.02006  0.57897  0.93777  1.0000
  H   H1192     1.0  0.44746  0.33887  0.74183  1.0000
  H   H1193     1.0  0.24188  0.50651  0.90588  1.0000
  H   H1194     1.0  0.25923  0.48899  0.89267  1.0000
  H   H1195     1.0  0.22996  0.47450  0.88442  1.0000
  H   H1196     1.0  0.21326  0.49357  0.89645  1.0000
  H   H1197     1.0  0.23055  0.50035  0.87470  1.0000
  H   H1198     1.0  0.16700  0.42920  0.81463  1.0000
  H   H1199     1.0  0.25254  0.51042  0.93439  1.0000
  H   H1200     1.0  0.31021  0.61579  0.92660  1.0000
  H   H1201     1.0  0.32301  0.48063  0.94344  1.0000
  H   H1202     1.0  0.31827  0.46577  0.92550  1.0000
  H   H1203     1.0  0.31365  0.49262  0.92082  1.0000
  H   H1204     1.0  0.99615  0.31698  0.83365  1.0000
  H   H1205     1.0  0.12262  0.44824  0.89121  1.0000
  H   H1206     1.0  0.36435  0.41783  0.93125  1.0000
  H   H1207     1.0  0.47560  0.37114  0.93283  1.0000
  H   H1208     1.0  0.34502  0.55732  0.96268  1.0000
  H   H1209     1.0  0.10252  0.56061  0.94651  1.0000
  H   H1210     1.0  0.20295  0.55804  0.82994  1.0000
  C   C690      1.0  0.32106  0.54779  0.93980  1.0000
  C   C691      1.0  0.30664  0.55114  0.92385  1.0000
  C   C692      1.0  0.32820  0.59072  0.94187  1.0000
  C   C693      1.0  0.47975  0.40207  0.85471  1.0000
  C   C694      1.0  0.08908  0.50822  0.73835  1.0000
  H   H1211     1.0  0.14263  0.52987  0.86438  1.0000
  C   C695      1.0  0.31673  0.54273  0.90482  1.0000
  C   C696      1.0  0.99308  0.35869  0.84205  1.0000
  C   C697      1.0  0.01361  0.64254  0.92262  1.0000
  H   H1212     1.0  0.29780  0.58491  0.94413  1.0000
  H   H1213     1.0  0.07616  0.58891  0.94973  1.0000
  H   H1214     1.0  0.46120  0.39311  0.89390  1.0000
  H   H1215     1.0  0.13258  0.44326  0.82585  1.0000
  H   H1216     1.0  0.33579  0.55207  0.93253  1.0000
  H   H1217     1.0  0.32392  0.53139  0.94383  1.0000
  H   H1218     1.0  0.30164  0.56716  0.91964  1.0000
  H   H1219     1.0  0.29346  0.54317  0.92948  1.0000
  H   H1220     1.0  0.33407  0.58459  0.92773  1.0000
  H   H1221     1.0  0.03319  0.43217  0.75589  1.0000
  H   H1222     1.0  0.40807  0.34824  0.86567  1.0000
  H   H1223     1.0  0.12447  0.55887  0.89455  1.0000
  H   H1224     1.0  0.15148  0.32162  0.91363  1.0000
  H   H1225     1.0  0.33983  0.42232  0.92341  1.0000
  C   C698      1.0  0.45814  0.43172  0.88233  1.0000
  H   H1226     1.0  0.38547  0.37636  0.87945  1.0000
  H   H1227     1.0  0.32959  0.55077  0.89794  1.0000
  H   H1228     1.0  0.32218  0.52663  0.90806  1.0000
  H   H1229     1.0  0.30588  0.54455  0.89389  1.0000
  H   H1230     1.0  0.34050  0.58900  0.95116  1.0000
  C   C699      1.0  0.14559  0.35313  0.91604  1.0000
  H   H1231     1.0  0.39814  0.32534  0.86551  1.0000
  H   H1232     1.0  0.44367  0.37584  0.73806  1.0000
  H   H1233     1.0  0.13422  0.44324  0.86078  1.0000
  H   H1234     1.0  0.18994  0.58009  0.81735  1.0000
  C   C700      1.0  0.33657  0.37409  0.87434  1.0000
  H   H1235     1.0  0.39917  0.62681  0.92954  1.0000
  H   H1236     1.0  0.43890  0.42216  0.76038  1.0000
  C   C701      1.0  0.35912  0.40036  0.86216  1.0000
  C   C702      1.0  0.36611  0.39385  0.84125  1.0000
  C   C703      1.0  0.31679  0.38793  0.87081  1.0000
  H   H1237     1.0  0.37400  0.40661  0.81060  1.0000
  H   H1238     1.0  0.35360  0.42107  0.82409  1.0000
  C   C704      1.0  0.30135  0.37638  0.86523  1.0000
  S   S175      1.0  0.08637  0.61556  0.89945  1.0000
  H   H1239     1.0  0.33286  0.36230  0.88690  1.0000
  H   H1240     1.0  0.34100  0.36613  0.86110  1.0000
  H   H1241     1.0  0.10755  0.53043  0.96275  1.0000
  H   H1242     1.0  0.41754  0.45980  0.90757  1.0000
  H   H1243     1.0  0.33380  0.40554  0.89512  1.0000
  H   H1244     1.0  0.34661  0.41278  0.86113  1.0000
  C   C705      1.0  0.42787  0.45555  0.89428  1.0000
  H   H1245     1.0  0.35542  0.38519  0.83678  1.0000
  H   H1246     1.0  0.05717  0.42270  0.76261  1.0000
  H   H1247     1.0  0.30983  0.39452  0.88446  1.0000
  H   H1248     1.0  0.31939  0.40017  0.85852  1.0000
  H   H1249     1.0  0.47151  0.40111  0.75896  1.0000
  H   H1250     1.0  0.16415  0.57100  0.94014  1.0000
  H   H1251     1.0  0.11399  0.41449  0.89273  1.0000
  H   H1252     1.0  0.30696  0.37013  0.85107  1.0000
  H   H1253     1.0  0.29781  0.36412  0.87725  1.0000
  H   H1254     1.0  0.28730  0.38660  0.86318  1.0000
  C   C706      1.0  0.02658  0.41625  0.79381  1.0000
  H   H1255     1.0  0.17571  0.54908  0.81491  1.0000
  N   N38       1.0  0.05277  0.45473  0.75390  1.0000
  H   H1256     1.0  0.20154  0.52184  0.96534  1.0000
  C   C707      1.0  0.06628  0.46160  0.76631  1.0000
  C   C708      1.0  0.04516  0.43557  0.76382  1.0000
  H   H1257     1.0  0.47513  0.38823  0.86355  1.0000
  C   C709      1.0  0.07507  0.52371  0.73128  1.0000
  C   C710      1.0  0.16170  0.42830  0.83085  1.0000
  C   C711      1.0  0.03634  0.43513  0.78616  1.0000
  C   C712      1.0  0.08506  0.44681  0.77100  1.0000
  C   C713      1.0  0.09674  0.45493  0.78474  1.0000
  H   H1258     1.0  0.16656  0.46490  0.96582  1.0000
  H   H1259     1.0  0.43478  0.62245  0.93616  1.0000
  C   C714      1.0  0.43071  0.61943  0.92188  1.0000
  Fe  Fe90      1.0  0.08754  0.64471  0.96048  1.0000
  C   C715      1.0  0.15592  0.61907  0.97543  1.0000
  H   H1260     1.0  0.07205  0.47546  0.75862  1.0000
  H   H1261     1.0  0.05768  0.46576  0.78056  1.0000
  H   H1262     1.0  0.26646  0.40995  0.96367  1.0000
  H   H1263     1.0  0.44287  0.62289  0.90966  1.0000
  H   H1264     1.0  0.09932  0.59756  0.93774  1.0000
  H   H1265     1.0  0.02747  0.47393  0.76649  1.0000
  H   H1266     1.0  0.02338  0.46508  0.74475  1.0000
  H   H1267     1.0  0.25879  0.46432  0.96669  1.0000
  H   H1268     1.0  0.25367  0.49790  0.95870  1.0000
  C   C716      1.0  0.99982  0.34842  0.85954  1.0000
  H   H1269     1.0  0.02476  0.44799  0.78855  1.0000
  H   H1270     1.0  0.04819  0.43548  0.79553  1.0000
  H   H1271     1.0  0.08100  0.43215  0.77836  1.0000
  H   H1272     1.0  0.09535  0.44453  0.75711  1.0000
  H   H1273     1.0  0.10168  0.46942  0.77769  1.0000
  H   H1274     1.0  0.08738  0.45710  0.79916  1.0000
  H   H1275     1.0  0.11024  0.44427  0.78772  1.0000
  S   S176      1.0  0.35621  0.62201  0.96754  1.0000
  H   H1276     1.0  0.00266  0.38501  0.89140  1.0000
  H   H1277     1.0  0.19741  0.56165  0.96713  1.0000
  H   H1278     1.0  0.13732  0.53397  0.89941  1.0000
  H   H1279     1.0  0.46938  0.31806  0.77431  1.0000
  C   C717      1.0  0.35293  0.41084  0.92567  1.0000
  C   C718      1.0  0.25255  0.46137  0.95345  1.0000
  H   H1280     1.0  0.23643  0.46049  0.95865  1.0000
  H   H1281     1.0  0.01912  0.62065  0.95790  1.0000
  C   C719      1.0  0.03145  0.33700  0.84073  1.0000
  H   H1282     1.0  0.01207  0.50839  0.75137  1.0000
  H   H1283     1.0  0.03593  0.34782  0.95997  1.0000
  C   C720      1.0  0.36830  0.41179  0.82526  1.0000
  H   H1284     1.0  0.14047  0.41727  0.86569  1.0000
  H   H1285     1.0  0.43678  0.42646  0.90935  1.0000
  H   H1286     1.0  0.09030  0.34760  0.91223  1.0000
  H   H1287     1.0  0.34821  0.39853  0.93710  1.0000
  H   H1288     1.0  0.42924  0.60332  0.92316  1.0000
  C   C721      1.0  0.10567  0.34900  0.91339  1.0000
  H   H1289     1.0  0.04683  0.46480  0.85123  1.0000
  C   C722      1.0  0.06605  0.33235  0.95302  1.0000
  H   H1290     1.0  0.37911  0.42100  0.82875  1.0000
  H   H1291     1.0  0.08879  0.42288  0.89019  1.0000
  C   C723      1.0  0.00583  0.61803  0.95135  1.0000
  C   C724      1.0  0.32202  0.61305  0.93660  1.0000
  H   H1292     1.0  0.37516  0.39206  0.90903  1.0000
  H   H1293     1.0  0.05296  0.55907  0.93278  1.0000
  C   C725      1.0  0.13102  0.42899  0.85687  1.0000
  H   H1294     1.0  0.20072  0.56994  0.94073  1.0000
  H   H1295     1.0  0.45477  0.42975  0.77559  1.0000
  H   H1296     1.0  0.41900  0.45051  0.88409  1.0000
  H   H1297     1.0  0.15153  0.55266  0.86781  1.0000
  H   H1298     1.0  0.12231  0.38755  0.87852  1.0000
  H   H1299     1.0  0.03806  0.58882  0.94877  1.0000
  C   C726      1.0  0.48352  0.36631  0.91861  1.0000
  H   H1300     1.0  0.04827  0.49823  0.74860  1.0000
  C   C727      1.0  0.26053  0.42508  0.96758  1.0000
  H   H1301     1.0  0.48442  0.42251  0.75008  1.0000
  C   C728      1.0  0.17548  0.46920  0.97589  1.0000
  H   H1302     1.0  0.02059  0.41623  0.80983  1.0000
  H   H1303     1.0  0.09668  0.36814  0.87102  1.0000
  C   C729      1.0  0.15474  0.52061  0.79631  1.0000
  H   H1304     1.0  0.12488  0.58524  0.96781  1.0000
  H   H1305     1.0  0.37443  0.35473  0.85472  1.0000
  C   C730      1.0  0.43590  0.48583  0.74873  1.0000
  C   C731      1.0  0.03965  0.49090  0.73997  1.0000
  C   C732      1.0  0.15687  0.55937  0.97212  1.0000
  H   H1306     1.0  0.13072  0.63147  0.96002  1.0000
  H   H1307     1.0  0.07213  0.34659  0.94741  1.0000
  C   C733      1.0  0.17132  0.56131  0.95222  1.0000
  H   H1308     1.0  0.17640  0.54646  0.94724  1.0000
  C   C734      1.0  0.14013  0.33446  0.91410  1.0000
  N   N39       1.0  0.13640  0.55389  0.97082  1.0000
  H   H1309     1.0  0.04601  0.57111  0.90908  1.0000
  H   H1310     1.0  0.46126  0.44477  0.87105  1.0000
  H   H1311     1.0  0.45515  0.51955  0.73513  1.0000
  N   N40       1.0  0.31411  0.55798  0.95817  1.0000
  H   H1312     1.0  0.04164  0.34101  0.93513  1.0000
  C   C735      1.0  0.10282  0.57008  0.95827  1.0000
  H   H1313     1.0  0.34005  0.38221  0.90950  1.0000
  C   C736      1.0  0.18996  0.57022  0.95460  1.0000
  H   H1314     1.0  0.10483  0.60842  0.79581  1.0000
  C   C737      1.0  0.05015  0.57370  0.92350  1.0000
  H   H1315     1.0  0.02389  0.32941  0.87240  1.0000
  H   H1316     1.0  0.12470  0.51525  0.93298  1.0000
  H   H1317     1.0  0.11321  0.53766  0.89071  1.0000
  C   C738      1.0  0.04372  0.33606  0.95096  1.0000
  H   H1318     1.0  0.21724  0.50624  0.93554  1.0000
  H   H1319     1.0  0.07317  0.32097  0.94329  1.0000
  H   H1320     1.0  0.38303  0.42949  0.73480  1.0000
  H   H1321     1.0  0.40755  0.62813  0.90316  1.0000
  H   H1322     1.0  0.47048  0.37536  0.73313  1.0000
  H   H1323     1.0  0.16900  0.51838  0.80284  1.0000
  C   C739      1.0  0.18856  0.56810  0.83016  1.0000
  H   H1324     1.0  0.15065  0.55246  0.79491  1.0000
  C   C740      1.0  0.09707  0.60678  0.81133  1.0000
  H   H1325     1.0  0.04262  0.61510  0.92230  1.0000
  H   H1326     1.0  0.46826  0.41472  0.73477  1.0000
  H   H1327     1.0  0.06472  0.46000  0.82979  1.0000
  C   C741      1.0  0.45781  0.36724  0.73196  1.0000
  H   H1328     1.0  0.03761  0.40273  0.79215  1.0000
  H   H1329     1.0  0.12183  0.35640  0.86496  1.0000
  H   H1330     1.0  0.15263  0.57915  0.81312  1.0000
  H   H1331     1.0  0.09073  0.60028  0.96361  1.0000
  H   H1332     1.0  0.21751  0.48896  0.95787  1.0000
  H   H1333     1.0  0.38108  0.38483  0.84113  1.0000
  C   C742      1.0  0.19372  0.45785  0.97931  1.0000
  H   H1334     1.0  0.99640  0.45464  0.83623  1.0000
  H   H1335     1.0  0.12837  0.54195  0.79390  1.0000
  N   N41       1.0  0.01024  0.62104  0.92887  1.0000
  H   H1336     1.0  0.04007  0.64360  0.90022  1.0000
  H   H1337     1.0  0.10818  0.36956  0.84528  1.0000
  C   C743      1.0  0.09162  0.59047  0.95191  1.0000
  H   H1338     1.0  0.18577  0.57480  0.84429  1.0000
  C   C744      1.0  0.13806  0.54528  0.86801  1.0000
  H   H1339     1.0  0.18587  0.58594  0.95748  1.0000
  C   C745      1.0  0.40678  0.44242  0.74424  1.0000
  H   H1340     1.0  0.06417  0.58068  0.92066  1.0000
  C   C746      1.0  0.99869  0.48986  0.79564  1.0000
  H   H1341     1.0  0.99010  0.34846  0.87354  1.0000
  C   C747      1.0  0.22415  0.50203  0.94952  1.0000
  H   H1342     1.0  0.45249  0.44495  0.91073  1.0000
  H   H1343     1.0  0.12129  0.57412  0.80416  1.0000
  C   C748      1.0  0.11088  0.36958  0.86088  1.0000
  C   C749      1.0  0.45068  0.45092  0.74869  1.0000
  H   H1344     1.0  0.15029  0.58084  0.83889  1.0000
  H   H1345     1.0  0.16099  0.35456  0.91708  1.0000
  H   H1346     1.0  0.01390  0.41578  0.78550  1.0000
  C   C750      1.0  0.15132  0.56998  0.82804  1.0000
  S   S177      1.0  0.01409  0.49100  0.83053  1.0000
  H   H1347     1.0  0.14121  0.49856  0.94823  1.0000
  C   C751      1.0  0.02363  0.64787  0.90092  1.0000
  H   H1348     1.0  0.39818  0.33456  0.88883  1.0000
  H   H1349     1.0  0.47802  0.46103  0.88911  1.0000
  H   H1350     1.0  0.47348  0.35867  0.91186  1.0000
  C   C752      1.0  0.12274  0.52227  0.96329  1.0000
  C   C753      1.0  0.13548  0.62474  0.97406  1.0000
  H   H1351     1.0  0.10807  0.43183  0.92380  1.0000
  C   C754      1.0  0.31025  0.58036  0.95320  1.0000
  H   H1352     1.0  0.22366  0.53300  0.95399  1.0000
  H   H1353     1.0  0.37170  0.40737  0.86559  1.0000
  N   N42       1.0  0.47736  0.41888  0.88671  1.0000
  C   C755      1.0  0.02913  0.60780  0.92198  1.0000
  H   H1354     1.0  0.00345  0.60245  0.95712  1.0000
  C   C756      1.0  0.12613  0.50737  0.94819  1.0000
  H   H1355     1.0  0.08924  0.40451  0.86465  1.0000
  C   C757      1.0  0.17163  0.55622  0.82872  1.0000
  C   C758      1.0  0.41607  0.46215  0.74037  1.0000
  H   H1356     1.0  0.13205  0.57575  0.94495  1.0000
  C   C759      1.0  0.45243  0.42940  0.75992  1.0000
  H   H1357     1.0  0.22422  0.51534  0.97653  1.0000
  C   C760      1.0  0.11919  0.38861  0.86301  1.0000
  H   H1358     1.0  0.45965  0.34814  0.75955  1.0000
  H   H1359     1.0  0.10365  0.40858  0.84109  1.0000
  C   C761      1.0  0.37164  0.36894  0.88238  1.0000
  C   C762      1.0  0.39621  0.33902  0.87289  1.0000
  C   C763      1.0  0.10444  0.40749  0.85735  1.0000
  H   H1360     1.0  0.06904  0.47706  0.84601  1.0000
  H   H1361     1.0  0.33930  0.52122  0.96967  1.0000
  C   C764      1.0  0.13929  0.53629  0.95918  1.0000
  H   H1362     1.0  0.15319  0.52625  0.96251  1.0000
  H   H1363     1.0  0.07023  0.44879  0.87395  1.0000
  C   C765      1.0  0.09944  0.44466  0.91554  1.0000
  C   C766      1.0  0.10148  0.33789  0.97245  1.0000
  H   H1364     1.0  0.14162  0.54146  0.94287  1.0000
  H   H1365     1.0  0.13371  0.38889  0.85319  1.0000
  H   H1366     1.0  0.10183  0.45849  0.92103  1.0000
  H   H1367     1.0  0.08325  0.44305  0.91860  1.0000
  C   C767      1.0  0.10422  0.42659  0.88495  1.0000
  N   N43       1.0  0.35353  0.38410  0.87864  1.0000
  H   H1368     1.0  0.08344  0.59953  0.81176  1.0000
  H   H1369     1.0  0.29160  0.46542  0.95428  1.0000
  C   C768      1.0  0.24727  0.49753  0.94474  1.0000
  H   H1370     1.0  0.11477  0.49685  0.95199  1.0000
  H   H1371     1.0  0.37062  0.36244  0.89839  1.0000
  N   N44       1.0  0.10916  0.42677  0.86268  1.0000
  C   C769      1.0  0.10665  0.44592  0.89321  1.0000
  C   C770      1.0  0.13145  0.35570  0.97356  1.0000
  C   C771      1.0  0.47226  0.40016  0.89998  1.0000
  H   H1372     1.0  0.35916  0.50557  0.73712  1.0000
  H   H1373     1.0  0.09803  0.45924  0.88579  1.0000
  H   H1374     1.0  0.33524  0.62006  0.92877  1.0000
  H   H1375     1.0  0.48349  0.42955  0.91326  1.0000
  C   C772      1.0  0.09687  0.44389  0.85172  1.0000
  H   H1376     1.0  0.99636  0.62021  0.90260  1.0000
  H   H1377     1.0  0.45386  0.45002  0.73236  1.0000
  H   H1378     1.0  0.99771  0.58565  0.91691  1.0000
  H   H1379     1.0  0.11008  0.48261  0.73127  1.0000
  H   H1380     1.0  0.29635  0.53384  0.96891  1.0000
  H   H1381     1.0  0.48689  0.38747  0.82801  1.0000
  N   N45       1.0  0.09076  0.31974  0.97917  1.0000
  H   H1382     1.0  0.02335  0.64704  0.93238  1.0000
  H   H1383     1.0  0.12303  0.51356  0.97833  1.0000
  C   C773      1.0  0.99283  0.61759  0.91909  1.0000
  H   H1384     1.0  0.09445  0.56389  0.97240  1.0000
  C   C774      1.0  0.27493  0.56070  0.96470  1.0000
  C   C775      1.0  0.38898  0.44402  0.73260  1.0000
  H   H1385     1.0  0.02240  0.32150  0.76638  1.0000
  H   H1386     1.0  0.07632  0.43826  0.73572  1.0000
  C   C776      1.0  0.06933  0.32541  0.97506  1.0000
  H   H1387     1.0  0.13322  0.32647  0.96518  1.0000
  H   H1388     1.0  0.99556  0.36137  0.95677  1.0000
  H   H1389     1.0  0.09319  0.35083  0.97966  1.0000
  H   H1390     1.0  0.24479  0.42483  0.97475  1.0000
  C   C777      1.0  0.06449  0.45122  0.73393  1.0000
  H   H1391     1.0  0.37679  0.45546  0.73792  1.0000
  H   H1392     1.0  0.31639  0.62009  0.95034  1.0000
  C   C778      1.0  0.12374  0.33549  0.97615  1.0000
  H   H1393     1.0  0.37192  0.64786  0.92393  1.0000
  H   H1394     1.0  0.14770  0.35354  0.97488  1.0000
  H   H1395     1.0  0.98958  0.64737  0.95737  1.0000
  C   C779      1.0  0.02050  0.50504  0.73682  1.0000
  C   C780      1.0  0.29563  0.55005  0.96989  1.0000
  H   H1396     1.0  0.15549  0.57380  0.97817  1.0000
  H   H1397     1.0  0.26015  0.53400  0.96803  1.0000
  H   H1398     1.0  0.30520  0.58725  0.96719  1.0000
  H   H1399     1.0  0.26964  0.42878  0.97835  1.0000
  H   H1400     1.0  0.24349  0.55679  0.97083  1.0000
  C   C781      1.0  0.25814  0.54842  0.97411  1.0000
  H   H1401     1.0  0.27173  0.57529  0.97062  1.0000
  S   S178      1.0  0.10670  0.64933  0.93098  1.0000
  H   H1402     1.0  0.98893  0.40917  0.89563  1.0000
  Fe  Fe91      1.0  0.01078  0.83644  0.11522  1.0000
  S   S179      1.0  0.02137  0.80768  0.13321  1.0000
  S   S180      1.0  0.02795  0.85344  0.08864  1.0000
  Fe  Fe92      1.0  0.00587  0.82205  0.16013  1.0000
  S   S181      1.0  0.01762  0.81852  0.19051  1.0000
  H   H1403     1.0  0.17763  0.81692  0.02492  1.0000
  Fe  Fe93      1.0  0.12454  0.82533  0.01297  1.0000
  S   S182      1.0  0.14937  0.80176  0.00376  1.0000
  S   S183      1.0  0.11331  0.81978  0.04610  1.0000
  H   H1404     1.0  0.41000  0.75058  0.98889  1.0000
  H   H1405     1.0  0.05162  0.80807  0.99019  1.0000
  H   H1406     1.0  0.47177  0.88783  0.08332  1.0000
  H   H1407     1.0  0.18297  0.87384  0.09656  1.0000
  S   S184      1.0  0.14088  0.85028  0.99617  1.0000
  Fe  Fe94      1.0  0.43858  0.94370  0.15240  1.0000
  S   S185      1.0  0.41042  0.92971  0.16424  1.0000
  C   C782      1.0  0.05633  0.74885  0.01590  1.0000
  Fe  Fe95      1.0  0.46004  0.90525  0.13782  1.0000
  S   S186      1.0  0.43418  0.88811  0.14904  1.0000
  C   C783      1.0  0.46075  0.83560  0.20458  1.0000
  Fe  Fe96      1.0  0.41499  0.91517  0.13580  1.0000
  S   S187      1.0  0.39644  0.91553  0.10999  1.0000
  Fe  Fe97      1.0  0.43201  0.90373  0.17636  1.0000
  S   S188      1.0  0.44156  0.93145  0.12336  1.0000
  S   S189      1.0  0.45944  0.91864  0.16575  1.0000
  Fe  Fe98      1.0  0.27542  0.88034  0.03293  1.0000
  S   S190      1.0  0.29061  0.89458  0.00427  1.0000
  S   S191      1.0  0.24197  0.87743  0.03377  1.0000
  Fe  Fe99      1.0  0.31284  0.88189  0.05441  1.0000
  S   S192      1.0  0.32995  0.89600  0.02653  1.0000
  S   S193      1.0  0.32559  0.87629  0.08436  1.0000
  Fe  Fe100     1.0  0.30078  0.91500  0.02207  1.0000
  S   S194      1.0  0.29719  0.94828  0.01335  1.0000
  Fe  Fe101     1.0  0.31802  0.87410  0.01143  1.0000
  H   H1408     1.0  0.19915  0.78668  0.01682  1.0000
  S   S195      1.0  0.28402  0.90237  0.05071  1.0000
  S   S196      1.0  0.30260  0.85830  0.03945  1.0000
  C   C784      1.0  0.01167  0.67345  0.11347  1.0000
  C   C785      1.0  0.36461  0.84375  0.00644  1.0000
  C   C786      1.0  0.38270  0.83147  0.00909  1.0000
  H   H1409     1.0  0.15970  0.76998  0.10764  1.0000
  C   C787      1.0  0.18860  0.81949  0.05272  1.0000
  S   S197      1.0  0.10731  0.82322  0.98812  1.0000
  H   H1410     1.0  0.35770  0.85328  0.01751  1.0000
  H   H1411     1.0  0.15026  0.66377  0.00822  1.0000
  H   H1412     1.0  0.03945  0.78269  0.05207  1.0000
  H   H1413     1.0  0.01172  0.81612  0.01641  1.0000
  H   H1414     1.0  0.39608  0.69475  0.01199  1.0000
  H   H1415     1.0  0.48377  0.80055  0.20637  1.0000
  N   N46       1.0  0.04192  0.72601  0.99545  1.0000
  C   C788      1.0  0.37749  0.90316  0.10331  1.0000
  C   C789      1.0  0.36477  0.89226  0.11737  1.0000
  C   C790      1.0  0.34918  0.88395  0.11130  1.0000
  C   C791      1.0  0.34607  0.88633  0.09114  1.0000
  C   C792      1.0  0.35916  0.89672  0.07704  1.0000
  C   C793      1.0  0.37466  0.90512  0.08310  1.0000
  H   H1416     1.0  0.36666  0.89057  0.13296  1.0000
  H   H1417     1.0  0.33927  0.87583  0.12237  1.0000
  H   H1418     1.0  0.35735  0.89822  0.06145  1.0000
  H   H1419     1.0  0.38458  0.91318  0.07201  1.0000
  H   H1420     1.0  0.00065  0.92372  0.20233  1.0000
  C   C794      1.0  0.99916  0.91514  0.17319  1.0000
  H   H1421     1.0  0.14624  0.69975  0.99839  1.0000
  H   H1422     1.0  0.47008  0.95837  0.09577  1.0000
  C   C795      1.0  0.37653  0.97162  0.08149  1.0000
  H   H1423     1.0  0.35753  0.96602  0.03114  1.0000
  H   H1424     1.0  0.43755  0.72192  0.01211  1.0000
  C   C796      1.0  0.19049  0.85748  0.07084  1.0000
  H   H1425     1.0  0.14864  0.80975  0.06553  1.0000
  C   C797      1.0  0.14124  0.85818  0.06074  1.0000
  C   C798      1.0  0.21016  0.84323  0.99679  1.0000
  C   C799      1.0  0.19947  0.85818  0.00751  1.0000
  C   C800      1.0  0.20947  0.86868  0.01843  1.0000
  C   C801      1.0  0.23035  0.86459  0.01864  1.0000
  C   C802      1.0  0.24113  0.85012  0.00736  1.0000
  C   C803      1.0  0.23109  0.83954  0.99654  1.0000
  H   H1426     1.0  0.18348  0.86160  0.00735  1.0000
  H   H1427     1.0  0.20098  0.88003  0.02684  1.0000
  H   H1428     1.0  0.25718  0.84678  0.00728  1.0000
  C   C804      1.0  0.18294  0.68149  0.98682  1.0000
  C   C805      1.0  0.02645  0.83565  0.20350  1.0000
  C   C806      1.0  0.02581  0.85604  0.19664  1.0000
  C   C807      1.0  0.03250  0.86894  0.20788  1.0000
  H   H1429     1.0  0.07276  0.76782  0.02850  1.0000
  C   C808      1.0  0.47633  0.97056  0.10083  1.0000
  H   H1430     1.0  0.02035  0.86183  0.18261  1.0000
  H   H1431     1.0  0.03215  0.88460  0.20231  1.0000
  C   C809      1.0  0.05169  0.84380  0.07699  1.0000
  C   C810      1.0  0.06336  0.82751  0.08621  1.0000
  C   C811      1.0  0.08216  0.82028  0.07649  1.0000
  C   C812      1.0  0.08925  0.82896  0.05729  1.0000
  C   C813      1.0  0.07744  0.84503  0.04789  1.0000
  C   C814      1.0  0.05886  0.85259  0.05784  1.0000
  H   H1432     1.0  0.05808  0.82070  0.10099  1.0000
  H   H1433     1.0  0.09127  0.80792  0.08390  1.0000
  H   H1434     1.0  0.08282  0.85193  0.03317  1.0000
  H   H1435     1.0  0.04996  0.86526  0.05062  1.0000
  C   C815      1.0  0.06552  0.67647  0.02404  1.0000
  H   H1436     1.0  0.47440  0.82257  0.06660  1.0000
  C   C816      1.0  0.43867  0.68090  0.01382  1.0000
  C   C817      1.0  0.00246  0.65695  0.02102  1.0000
  H   H1437     1.0  0.25490  0.94274  0.03050  1.0000
  H   H1438     1.0  0.23518  0.67380  0.98447  1.0000
  H   H1439     1.0  0.42655  0.82333  0.19308  1.0000
  H   H1440     1.0  0.01088  0.76714  0.06082  1.0000
  C   C818      1.0  0.29740  0.92020  0.10139  1.0000
  H   H1441     1.0  0.00603  0.66266  0.10575  1.0000
  H   H1442     1.0  0.44291  0.66688  0.05293  1.0000
  C   C819      1.0  0.21956  0.67277  0.99167  1.0000
  H   H1443     1.0  0.19791  0.83058  0.04386  1.0000
  H   H1444     1.0  0.36845  0.93186  0.02057  1.0000
  H   H1445     1.0  0.21443  0.80408  0.02206  1.0000
  H   H1446     1.0  0.42221  0.75756  0.00811  1.0000
  Fe  Fe102     1.0  0.16452  0.82662  0.98517  1.0000
  H   H1447     1.0  0.18047  0.68877  0.00064  1.0000
  H   H1448     1.0  0.05985  0.78404  0.08655  1.0000
  C   C820      1.0  0.03392  0.82848  0.22168  1.0000
  H   H1449     1.0  0.02734  0.80667  0.08784  1.0000
  H   H1450     1.0  0.07040  0.77530  0.00250  1.0000
  H   H1451     1.0  0.20557  0.87936  0.08055  1.0000
  H   H1452     1.0  0.18189  0.86926  0.06141  1.0000
  H   H1453     1.0  0.11806  0.88212  0.05266  1.0000
  H   H1454     1.0  0.02611  0.83593  0.05275  1.0000
  H   H1455     1.0  0.43535  0.85056  0.06032  1.0000
  H   H1456     1.0  0.25541  0.88982  0.98748  1.0000
  H   H1457     1.0  0.21793  0.92036  0.98199  1.0000
  H   H1458     1.0  0.38971  0.83152  0.02225  1.0000
  H   H1459     1.0  0.04923  0.75607  0.98626  1.0000
  C   C821      1.0  0.05350  0.70553  0.99924  1.0000
  H   H1460     1.0  0.39247  0.69656  0.03794  1.0000
  H   H1461     1.0  0.03849  0.83763  0.02080  1.0000
  C   C822      1.0  0.00853  0.71311  0.01173  1.0000
  H   H1462     1.0  0.35929  0.94765  0.09137  1.0000
  H   H1463     1.0  0.28694  0.90989  0.09931  1.0000
  S   S198      1.0  0.99273  0.76728  0.12033  1.0000
  H   H1464     1.0  0.17838  0.78740  0.07840  1.0000
  H   H1465     1.0  0.46149  0.70005  0.99942  1.0000
  H   H1466     1.0  0.45836  0.78976  0.09993  1.0000
  H   H1467     1.0  0.14394  0.77808  0.08825  1.0000
  H   H1468     1.0  0.14101  0.79145  0.10963  1.0000
  H   H1469     1.0  0.41010  0.65837  0.04076  1.0000
  C   C823      1.0  0.18384  0.80689  0.03742  1.0000
  H   H1470     1.0  0.33548  0.97841  0.08265  1.0000
  H   H1471     1.0  0.46849  0.86120  0.13945  1.0000
  H   H1472     1.0  0.01402  0.89740  0.12062  1.0000
  H   H1473     1.0  0.18194  0.72093  0.98855  1.0000
  C   C824      1.0  0.19646  0.86727  0.08733  1.0000
  H   H1474     1.0  0.44135  0.66898  0.08867  1.0000
  H   H1475     1.0  0.15580  0.72937  0.98719  1.0000
  C   C825      1.0  0.15716  0.81511  0.07588  1.0000
  C   C826      1.0  0.34292  0.96968  0.07046  1.0000
  H   H1476     1.0  0.04820  0.70323  0.03233  1.0000
  H   H1477     1.0  0.01603  0.69787  0.01603  1.0000
  S   S199      1.0  0.33375  0.85976  0.98491  1.0000
  H   H1478     1.0  0.04196  0.75758  0.02123  1.0000
  C   C827      1.0  0.15889  0.84442  0.05074  1.0000
  C   C828      1.0  0.48379  0.85570  0.13446  1.0000
  H   H1479     1.0  0.39552  0.76310  0.00872  1.0000
  H   H1480     1.0  0.16886  0.85398  0.04052  1.0000
  C   C829      1.0  0.47457  0.66966  0.99998  1.0000
  H   H1481     1.0  0.45434  0.84800  0.21340  1.0000
  H   H1482     1.0  0.14661  0.86771  0.07003  1.0000
  C   C830      1.0  0.04526  0.77806  0.09010  1.0000
  C   C831      1.0  0.02316  0.72880  0.01016  1.0000
  C   C832      1.0  0.47455  0.96629  0.17502  1.0000
  C   C833      1.0  0.40095  0.66667  0.02949  1.0000
  C   C834      1.0  0.13012  0.87197  0.04514  1.0000
  C   C835      1.0  0.99700  0.84371  0.04262  1.0000
  C   C836      1.0  0.46497  0.89253  0.21916  1.0000
  H   H1483     1.0  0.07583  0.67079  0.01137  1.0000
  C   C837      1.0  0.46746  0.78001  0.04852  1.0000
  H   H1484     1.0  0.45408  0.68859  0.07417  1.0000
  H   H1485     1.0  0.02925  0.79473  0.02069  1.0000
  C   C838      1.0  0.03391  0.79702  0.05810  1.0000
  C   C839      1.0  0.17811  0.84014  0.07967  1.0000
  C   C840      1.0  0.39184  0.81936  0.99461  1.0000
  H   H1486     1.0  0.18789  0.82931  0.08895  1.0000
  H   H1487     1.0  0.46597  0.68747  0.02382  1.0000
  H   H1488     1.0  0.18175  0.66544  0.99212  1.0000
  H   H1489     1.0  0.17288  0.79652  0.04404  1.0000
  H   H1490     1.0  0.46555  0.83781  0.03819  1.0000
  C   C841      1.0  0.45176  0.84048  0.18455  1.0000
  H   H1491     1.0  0.42313  0.71409  0.99596  1.0000
  C   C842      1.0  0.42932  0.83892  0.18769  1.0000
  H   H1492     1.0  0.36918  0.98069  0.09337  1.0000
  H   H1493     1.0  0.47502  0.86136  0.03573  1.0000
  C   C843      1.0  0.36246  0.95773  0.07734  1.0000
  H   H1494     1.0  0.45890  0.83031  0.17368  1.0000
  H   H1495     1.0  0.45377  0.85594  0.17776  1.0000
  H   H1496     1.0  0.04498  0.69399  0.99590  1.0000
  C   C844      1.0  0.02431  0.80986  0.02507  1.0000
  H   H1497     1.0  0.99716  0.88791  0.22724  1.0000
  S   S200      1.0  0.44351  0.97593  0.15212  1.0000
  H   H1498     1.0  0.43403  0.67953  0.99922  1.0000
  H   H1499     1.0  0.42313  0.84367  0.17336  1.0000
  N   N47       1.0  0.45992  0.85013  0.07710  1.0000
  C   C845      1.0  0.46338  0.82765  0.07914  1.0000
  C   C846      1.0  0.44919  0.85772  0.05916  1.0000
  H   H1500     1.0  0.03415  0.83069  0.98718  1.0000
  C   C847      1.0  0.44709  0.85749  0.09516  1.0000
  C   C848      1.0  0.42672  0.84915  0.10116  1.0000
  H   H1501     1.0  0.00241  0.84654  0.02648  1.0000
  H   H1502     1.0  0.14546  0.82255  0.08648  1.0000
  C   C849      1.0  0.46124  0.85398  0.03870  1.0000
  C   C850      1.0  0.44878  0.86191  0.02173  1.0000
  C   C851      1.0  0.41569  0.85642  0.12037  1.0000
  C   C852      1.0  0.99440  0.68439  0.12629  1.0000
  H   H1503     1.0  0.02314  0.66534  0.12274  1.0000
  H   H1504     1.0  0.44945  0.82151  0.07788  1.0000
  H   H1505     1.0  0.04141  0.77557  0.10655  1.0000
  H   H1506     1.0  0.04711  0.80536  0.05562  1.0000
  H   H1507     1.0  0.99086  0.92749  0.13050  1.0000
  H   H1508     1.0  0.42848  0.69395  0.08569  1.0000
  H   H1509     1.0  0.45547  0.85453  0.10825  1.0000
  H   H1510     1.0  0.44346  0.87402  0.09272  1.0000
  H   H1511     1.0  0.42870  0.83264  0.10371  1.0000
  H   H1512     1.0  0.41683  0.85421  0.08941  1.0000
  H   H1513     1.0  0.18380  0.93895  0.98525  1.0000
  H   H1514     1.0  0.10902  0.67736  0.99408  1.0000
  S   S201      1.0  0.41487  0.80476  0.99755  1.0000
  H   H1515     1.0  0.39019  0.96259  0.08666  1.0000
  H   H1516     1.0  0.00269  0.71352  0.99738  1.0000
  H   H1517     1.0  0.36954  0.67035  0.02487  1.0000
  H   H1518     1.0  0.43526  0.85417  0.02346  1.0000
  H   H1519     1.0  0.44413  0.87820  0.02141  1.0000
  H   H1520     1.0  0.45784  0.85915  0.00728  1.0000
  H   H1521     1.0  0.42448  0.85095  0.13296  1.0000
  H   H1522     1.0  0.41300  0.87294  0.11859  1.0000
  H   H1523     1.0  0.40093  0.85077  0.12399  1.0000
  C   C853      1.0  0.46046  0.68601  0.00975  1.0000
  C   C854      1.0  0.07277  0.76227  0.01406  1.0000
  C   C855      1.0  0.02881  0.79270  0.08105  1.0000
  N   N48       1.0  0.17071  0.82980  0.06473  1.0000
  N   N49       1.0  0.32820  0.95765  0.06485  1.0000
  C   C856      1.0  0.00063  0.90323  0.11301  1.0000
  H   H1524     1.0  0.05179  0.66904  0.02621  1.0000
  C   C857      1.0  0.32180  0.94360  0.08316  1.0000
  C   C858      1.0  0.33743  0.94531  0.04849  1.0000
  C   C859      1.0  0.34625  0.95682  0.02872  1.0000
  H   H1525     1.0  0.47941  0.82475  0.14219  1.0000
  C   C860      1.0  0.30552  0.93066  0.08111  1.0000
  H   H1526     1.0  0.01884  0.68436  0.10197  1.0000
  H   H1527     1.0  0.30206  0.96381  0.04924  1.0000
  C   C861      1.0  0.35651  0.94256  0.01401  1.0000
  H   H1528     1.0  0.47471  0.65525  0.00993  1.0000
  H   H1529     1.0  0.33410  0.96639  0.02143  1.0000
  C   C862      1.0  0.05490  0.74214  0.99553  1.0000
  H   H1530     1.0  0.33465  0.93274  0.08769  1.0000
  H   H1531     1.0  0.34926  0.93364  0.05379  1.0000
  H   H1532     1.0  0.32611  0.93696  0.04447  1.0000
  C   C863      1.0  0.11900  0.67229  0.00578  1.0000
  H   H1533     1.0  0.98978  0.72824  0.16535  1.0000
  C   C864      1.0  0.47175  0.81709  0.09839  1.0000
  H   H1534     1.0  0.31211  0.91898  0.07155  1.0000
  H   H1535     1.0  0.29260  0.93948  0.07444  1.0000
  H   H1536     1.0  0.40610  0.66019  0.01533  1.0000
  C   C865      1.0  0.47333  0.79447  0.09959  1.0000
  H   H1537     1.0  0.00061  0.69587  0.13253  1.0000
  C   C866      1.0  0.46562  0.98010  0.16073  1.0000
  H   H1538     1.0  0.12306  0.86314  0.03642  1.0000
  H   H1539     1.0  0.11633  0.68309  0.01679  1.0000
  C   C867      1.0  0.47980  0.88052  0.07044  1.0000
  H   H1540     1.0  0.00616  0.82762  0.06986  1.0000
  H   H1541     1.0  0.00798  0.91713  0.15819  1.0000
  N   N50       1.0  0.42343  0.69546  0.02442  1.0000
  H   H1542     1.0  0.37070  0.94883  0.06572  1.0000
  C   C868      1.0  0.40272  0.68932  0.02607  1.0000
  H   H1543     1.0  0.22908  0.95079  0.03911  1.0000
  C   C869      1.0  0.42860  0.69769  0.04460  1.0000
  C   C870      1.0  0.43178  0.67846  0.05946  1.0000
  H   H1544     1.0  0.44386  0.87395  0.05867  1.0000
  H   H1545     1.0  0.01006  0.72950  0.22598  1.0000
  N   N51       1.0  0.48336  0.83261  0.20313  1.0000
  H   H1546     1.0  0.04664  0.76348  0.08441  1.0000
  C   C871      1.0  0.43937  0.68287  0.07808  1.0000
  C   C872      1.0  0.48000  0.85761  0.07489  1.0000
  H   H1547     1.0  0.46209  0.82139  0.11199  1.0000
  H   H1548     1.0  0.24431  0.91466  0.00270  1.0000
  H   H1549     1.0  0.99846  0.73218  0.10070  1.0000
  H   H1550     1.0  0.00533  0.91325  0.09934  1.0000
  S   S202      1.0  0.42868  0.88703  0.20798  1.0000
  C   C873      1.0  0.35565  0.84379  0.98935  1.0000
  H   H1551     1.0  0.37361  0.66849  0.05069  1.0000
  H   H1552     1.0  0.44225  0.70527  0.04289  1.0000
  H   H1553     1.0  0.41660  0.70771  0.05238  1.0000
  C   C874      1.0  0.02677  0.65854  0.99111  1.0000
  C   C875      1.0  0.04715  0.82320  0.99468  1.0000
  C   C876      1.0  0.15203  0.78325  0.09907  1.0000
  C   C877      1.0  0.44648  0.88538  0.22496  1.0000
  C   C878      1.0  0.16746  0.79656  0.08816  1.0000
  H   H1554     1.0  0.03321  0.71327  0.22811  1.0000
  H   H1555     1.0  0.23960  0.82814  0.98819  1.0000
  C   C879      1.0  0.00814  0.92626  0.18676  1.0000
  H   H1556     1.0  0.46709  0.95371  0.18213  1.0000
  C   C880      1.0  0.99293  0.67497  0.98979  1.0000
  C   C881      1.0  0.03954  0.86181  0.22632  1.0000
  H   H1557     1.0  0.01470  0.74379  0.00636  1.0000
  C   C882      1.0  0.40594  0.73192  0.01766  1.0000
  C   C883      1.0  0.42345  0.71562  0.01184  1.0000
  H   H1558     1.0  0.38113  0.98163  0.06777  1.0000
  H   H1559     1.0  0.23713  0.92486  0.03660  1.0000
  H   H1560     1.0  0.42130  0.84874  0.19866  1.0000
  H   H1561     1.0  0.40498  0.73417  0.03348  1.0000
  C   C884      1.0  0.24790  0.92958  0.99558  1.0000
  C   C885      1.0  0.40866  0.75194  0.00502  1.0000
  H   H1562     1.0  0.26369  0.93023  0.99768  1.0000
  H   H1563     1.0  0.99692  0.66446  0.15285  1.0000
  H   H1564     1.0  0.48573  0.65809  0.20578  1.0000
  H   H1565     1.0  0.00659  0.94250  0.18148  1.0000
  H   H1566     1.0  0.47780  0.82317  0.00970  1.0000
  H   H1567     1.0  0.36335  0.95117  0.00028  1.0000
  H   H1568     1.0  0.20455  0.85200  0.06173  1.0000
  H   H1569     1.0  0.34770  0.98089  0.05790  1.0000
  C   C886      1.0  0.02180  0.65193  0.01139  1.0000
  H   H1570     1.0  0.07038  0.73767  0.98835  1.0000
  H   H1571     1.0  0.05575  0.81516  0.02391  1.0000
  H   H1572     1.0  0.46506  0.79651  0.04508  1.0000
  H   H1573     1.0  0.31633  0.95211  0.09603  1.0000
  S   S203      1.0  0.19812  0.82870  0.98368  1.0000
  H   H1574     1.0  0.28921  0.93125  0.11103  1.0000
  H   H1575     1.0  0.20875  0.78310  0.04047  1.0000
  H   H1576     1.0  0.42959  0.65452  0.13449  1.0000
  H   H1577     1.0  0.45448  0.82215  0.21289  1.0000
  H   H1578     1.0  0.08772  0.75385  0.01003  1.0000
  H   H1579     1.0  0.21847  0.94225  0.00910  1.0000
  H   H1580     1.0  0.07289  0.67241  0.03775  1.0000
  H   H1581     1.0  0.21708  0.68036  0.00526  1.0000
  C   C887      1.0  0.30968  0.97110  0.05896  1.0000
  H   H1582     1.0  0.19873  0.81002  0.06269  1.0000
  C   C888      1.0  0.06004  0.69907  0.02019  1.0000
  H   H1583     1.0  0.14049  0.88109  0.03486  1.0000
  H   H1584     1.0  0.16540  0.84590  0.09041  1.0000
  H   H1585     1.0  0.23652  0.95998  0.00279  1.0000
  H   H1586     1.0  0.11519  0.65763  0.01355  1.0000
  H   H1587     1.0  0.17540  0.80097  0.09948  1.0000
  H   H1588     1.0  0.20566  0.85623  0.09698  1.0000
  H   H1589     1.0  0.43923  0.66564  0.02207  1.0000
  H   H1590     1.0  0.07357  0.70598  0.02115  1.0000
  C   C889      1.0  0.04205  0.82210  0.01730  1.0000
  H   H1591     1.0  0.01464  0.78621  0.08543  1.0000
  H   H1592     1.0  0.10875  0.73132  0.98595  1.0000
  H   H1593     1.0  0.15237  0.83637  0.04081  1.0000
  H   H1594     1.0  0.13017  0.84933  0.07026  1.0000
  H   H1595     1.0  0.99051  0.89157  0.15090  1.0000
  H   H1596     1.0  0.00770  0.87041  0.04878  1.0000
  C   C890      1.0  0.20275  0.79444  0.02874  1.0000
  H   H1597     1.0  0.05987  0.83198  0.98956  1.0000
  H   H1598     1.0  0.47249  0.88685  0.05708  1.0000
  H   H1599     1.0  0.39138  0.72790  0.01520  1.0000
  C   C891      1.0  0.14085  0.67014  0.99631  1.0000
  H   H1600     1.0  0.02667  0.72875  0.02545  1.0000
  H   H1601     1.0  0.46844  0.89992  0.20426  1.0000
  N   N52       1.0  0.01729  0.80848  0.04716  1.0000
  C   C892      1.0  0.14692  0.69055  0.98616  1.0000
  C   C893      1.0  0.01233  0.82885  0.05380  1.0000
  H   H1602     1.0  0.30978  0.91130  0.10894  1.0000
  H   H1603     1.0  0.34537  0.93422  0.00970  1.0000
  C   C894      1.0  0.23441  0.94431  0.00850  1.0000
  C   C895      1.0  0.23921  0.94039  0.02997  1.0000
  C   C896      1.0  0.99349  0.86375  0.05073  1.0000
  H   H1604     1.0  0.05947  0.73618  0.02748  1.0000
  C   C897      1.0  0.99054  0.71698  0.02757  1.0000
  C   C898      1.0  0.30248  0.95530  0.98756  1.0000
  C   C899      1.0  0.37925  0.66291  0.03620  1.0000
  H   H1605     1.0  0.45556  0.77389  0.04275  1.0000
  S   S204      1.0  0.99737  0.85143  0.14218  1.0000
  H   H1606     1.0  0.02433  0.92072  0.18669  1.0000
  H   H1607     1.0  0.21779  0.65675  0.99603  1.0000
  H   H1608     1.0  0.99084  0.80034  0.06690  1.0000
  H   H1609     1.0  0.48701  0.82079  0.09855  1.0000
  H   H1610     1.0  0.48478  0.84912  0.22722  1.0000
  H   H1611     1.0  0.04178  0.65461  0.98394  1.0000
  H   H1612     1.0  0.46623  0.77590  0.06491  1.0000
  H   H1613     1.0  0.99544  0.71590  0.04250  1.0000
  H   H1614     1.0  0.48566  0.81202  0.18152  1.0000
  H   H1615     1.0  0.05304  0.65358  0.08382  1.0000
  H   H1616     1.0  0.48108  0.86343  0.18947  1.0000
  H   H1617     1.0  0.48337  0.70974  0.03893  1.0000
  C   C900      1.0  0.00146  0.77574  0.04977  1.0000
  H   H1618     1.0  0.46364  0.98138  0.10639  1.0000
  H   H1619     1.0  0.41737  0.67245  0.06453  1.0000
  Fe  Fe103     1.0  0.99148  0.79845  0.12999  1.0000
  H   H1620     1.0  0.14250  0.65936  0.98551  1.0000
  H   H1621     1.0  0.00141  0.89911  0.17891  1.0000
  H   H1622     1.0  0.48355  0.78923  0.08669  1.0000
  C   C901      1.0  0.99859  0.79833  0.05164  1.0000
  H   H1623     1.0  0.03477  0.81273  0.22706  1.0000
  H   H1624     1.0  0.47942  0.74268  0.04813  1.0000
  H   H1625     1.0  0.47960  0.78738  0.11341  1.0000
  H   H1626     1.0  0.99467  0.89054  0.10850  1.0000
  H   H1627     1.0  0.00858  0.77286  0.03465  1.0000
  H   H1628     1.0  0.46986  0.66785  0.98557  1.0000
  H   H1629     1.0  0.29843  0.97338  0.07231  1.0000
  H   H1630     1.0  0.06757  0.70425  0.98874  1.0000
  H   H1631     1.0  0.48293  0.74076  0.01441  1.0000
  H   H1632     1.0  0.01157  0.70373  0.22244  1.0000
  H   H1633     1.0  0.47877  0.95584  0.13026  1.0000
  H   H1634     1.0  0.48137  0.72836  0.98135  1.0000
  H   H1635     1.0  0.48702  0.85297  0.08880  1.0000
  H   H1636     1.0  0.48543  0.97836  0.08803  1.0000
  H   H1637     1.0  0.48810  0.67584  0.05790  1.0000
  H   H1638     1.0  0.48881  0.71026  0.06367  1.0000
  C   C902      1.0  0.48808  0.77204  0.03853  1.0000
  H   H1639     1.0  0.48790  0.77540  0.02223  1.0000
  H   H1640     1.0  0.31524  0.92583  0.98122  1.0000
  H   H1641     1.0  0.21112  0.96022  0.98077  1.0000
  C   C903      1.0  0.48880  0.83360  0.22353  1.0000
  H   H1642     1.0  0.03134  0.76858  0.39794  1.0000
  S   S205      1.0  0.35566  0.82758  0.47204  1.0000
  H   H1643     1.0  0.39121  0.69644  0.45862  1.0000
  C   C904      1.0  0.03741  0.66865  0.44400  1.0000
  Fe  Fe104     1.0  0.37787  0.84935  0.46099  1.0000
  S   S206      1.0  0.39690  0.84013  0.43279  1.0000
  C   C905      1.0  0.01750  0.76508  0.40786  1.0000
  H   H1644     1.0  0.47611  0.89153  0.40689  1.0000
  Fe  Fe105     1.0  0.20592  0.89247  0.42493  1.0000
  S   S207      1.0  0.19103  0.89123  0.45657  1.0000
  S   S208      1.0  0.23995  0.88802  0.41633  1.0000
  Fe  Fe106     1.0  0.16554  0.90225  0.40730  1.0000
  S   S209      1.0  0.14822  0.90231  0.43785  1.0000
  S   S210      1.0  0.14777  0.91170  0.38052  1.0000
  Fe  Fe107     1.0  0.17145  0.91881  0.44568  1.0000
  H   H1645     1.0  0.99479  0.80250  0.24474  1.0000
  Fe  Fe108     1.0  0.16906  0.87481  0.44630  1.0000
  H   H1646     1.0  0.01478  0.74973  0.40666  1.0000
  S   S211      1.0  0.18741  0.92135  0.41438  1.0000
  S   S212      1.0  0.18539  0.87363  0.41533  1.0000
  Fe  Fe109     1.0  0.07615  0.87526  0.30881  1.0000
  S   S213      1.0  0.04899  0.87176  0.33127  1.0000
  S   S214      1.0  0.10603  0.87056  0.32211  1.0000
  Fe  Fe110     1.0  0.05129  0.87555  0.27352  1.0000
  S   S215      1.0  0.02299  0.87233  0.29455  1.0000
  H   H1647     1.0  0.03119  0.85620  0.45790  1.0000
  Fe  Fe111     1.0  0.03249  0.89478  0.31070  1.0000
  S   S216      1.0  0.00902  0.91602  0.32658  1.0000
  Fe  Fe112     1.0  0.04214  0.84985  0.31308  1.0000
  S   S217      1.0  0.03363  0.82035  0.32826  1.0000
  S   S218      1.0  0.05994  0.89995  0.28877  1.0000
  S   S219      1.0  0.07011  0.85150  0.29140  1.0000
  H   H1648     1.0  0.38704  0.86065  0.36139  1.0000
  C   C906      1.0  0.00781  0.82030  0.33510  1.0000
  H   H1649     1.0  0.00479  0.76402  0.43848  1.0000
  H   H1650     1.0  0.34215  0.88850  0.37243  1.0000
  C   C907      1.0  0.05890  0.78625  0.44385  1.0000
  H   H1651     1.0  0.47136  0.71009  0.46277  1.0000
  H   H1652     1.0  0.44373  0.65933  0.25879  1.0000
  C   C908      1.0  0.00353  0.96566  0.28586  1.0000
  H   H1653     1.0  0.30649  0.90227  0.37879  1.0000
  H   H1654     1.0  0.01078  0.78905  0.34633  1.0000
  C   C909      1.0  0.40945  0.72075  0.45011  1.0000
  C   C910      1.0  0.32940  0.90561  0.39671  1.0000
  H   H1655     1.0  0.42143  0.71169  0.44125  1.0000
  H   H1656     1.0  0.08058  0.69190  0.46850  1.0000
  H   H1657     1.0  0.40374  0.89891  0.34062  1.0000
  H   H1658     1.0  0.02396  0.93829  0.28877  1.0000
  C   C911      1.0  0.46011  0.70371  0.36344  1.0000
  H   H1659     1.0  0.05441  0.78782  0.42871  1.0000
  S   S220      1.0  0.45914  0.88435  0.36921  1.0000
  H   H1660     1.0  0.02098  0.73358  0.47079  1.0000
  H   H1661     1.0  0.04611  0.81662  0.44846  1.0000
  H   H1662     1.0  0.32942  0.86283  0.40607  1.0000
  C   C912      1.0  0.13427  0.89937  0.36656  1.0000
  C   C913      1.0  0.13869  0.87898  0.36501  1.0000
  C   C914      1.0  0.12980  0.87043  0.35149  1.0000
  C   C915      1.0  0.11571  0.88191  0.33991  1.0000
  C   C916      1.0  0.11084  0.90217  0.34190  1.0000
  C   C917      1.0  0.12024  0.91084  0.35493  1.0000
  H   H1663     1.0  0.14951  0.86997  0.37369  1.0000
  H   H1664     1.0  0.13388  0.85478  0.34998  1.0000
  H   H1665     1.0  0.10052  0.91136  0.33272  1.0000
  H   H1666     1.0  0.11692  0.92669  0.35566  1.0000
  H   H1667     1.0  0.32411  0.89436  0.40889  1.0000
  S   S221      1.0  0.04734  0.87886  0.24020  1.0000
  H   H1668     1.0  0.07252  0.74518  0.44904  1.0000
  H   H1669     1.0  0.47899  0.67785  0.27495  1.0000
  H   H1670     1.0  0.03985  0.65613  0.35346  1.0000
  H   H1671     1.0  0.02062  0.78317  0.42977  1.0000
  C   C918      1.0  0.24961  0.87154  0.45390  1.0000
  C   C919      1.0  0.25662  0.87909  0.43437  1.0000
  C   C920      1.0  0.27741  0.87925  0.42896  1.0000
  C   C921      1.0  0.29096  0.87210  0.44294  1.0000
  H   H1672     1.0  0.33113  0.83042  0.42660  1.0000
  H   H1673     1.0  0.08814  0.71248  0.47774  1.0000
  H   H1674     1.0  0.28300  0.88501  0.41390  1.0000
  H   H1675     1.0  0.30684  0.87242  0.43868  1.0000
  C   C922      1.0  0.41551  0.85210  0.41651  1.0000
  C   C923      1.0  0.41978  0.87098  0.41864  1.0000
  C   C924      1.0  0.43335  0.88064  0.40414  1.0000
  C   C925      1.0  0.44312  0.87130  0.38771  1.0000
  C   C926      1.0  0.43928  0.85219  0.38593  1.0000
  C   C927      1.0  0.42542  0.84273  0.40019  1.0000
  H   H1676     1.0  0.41231  0.87832  0.43118  1.0000
  H   H1677     1.0  0.43623  0.89545  0.40557  1.0000
  H   H1678     1.0  0.44666  0.84489  0.37333  1.0000
  H   H1679     1.0  0.42220  0.82813  0.39841  1.0000
  H   H1680     1.0  0.15733  0.90182  0.30375  1.0000
  H   H1681     1.0  0.47128  0.71399  0.28057  1.0000
  H   H1682     1.0  0.37541  0.85331  0.40026  1.0000
  H   H1683     1.0  0.22147  0.89189  0.31506  1.0000
  C   C928      1.0  0.45651  0.87337  0.25812  1.0000
  C   C929      1.0  0.44239  0.87572  0.24450  1.0000
  H   H1684     1.0  0.38656  0.90185  0.37437  1.0000
  H   H1685     1.0  0.45316  0.86589  0.27307  1.0000
  H   H1686     1.0  0.42820  0.87003  0.24915  1.0000
  C   C930      1.0  0.22445  0.92517  0.36950  1.0000
  H   H1687     1.0  0.04599  0.83558  0.24699  1.0000
  H   H1688     1.0  0.48380  0.72742  0.34025  1.0000
  C   C931      1.0  0.98964  0.68181  0.28551  1.0000
  C   C932      1.0  0.47911  0.89008  0.23268  1.0000
  H   H1689     1.0  0.02894  0.79314  0.27138  1.0000
  H   H1690     1.0  0.09077  0.71144  0.45118  1.0000
  H   H1691     1.0  0.01697  0.69296  0.41376  1.0000
  C   C933      1.0  0.37303  0.91863  0.43047  1.0000
  N   N53       1.0  0.01233  0.67988  0.28262  1.0000
  H   H1692     1.0  0.48842  0.77423  0.28566  1.0000
  H   H1693     1.0  0.23814  0.65946  0.47419  1.0000
  C   C934      1.0  0.40659  0.78861  0.46329  1.0000
  C   C935      1.0  0.00989  0.70891  0.25339  1.0000
  H   H1694     1.0  0.00639  0.86833  0.25922  1.0000
  H   H1695     1.0  0.01474  0.72014  0.26113  1.0000
  H   H1696     1.0  0.40755  0.73590  0.44184  1.0000
  N   N54       1.0  0.04121  0.75507  0.45778  1.0000
  H   H1697     1.0  0.36706  0.92275  0.39997  1.0000
  H   H1698     1.0  0.04130  0.66836  0.40408  1.0000
  C   C936      1.0  0.46000  0.65584  0.44544  1.0000
  C   C937      1.0  0.46647  0.68328  0.28597  1.0000
  H   H1699     1.0  0.03563  0.68771  0.25859  1.0000
  C   C938      1.0  0.00014  0.82780  0.27042  1.0000
  H   H1700     1.0  0.46236  0.82472  0.24372  1.0000
  H   H1701     1.0  0.17657  0.84523  0.38664  1.0000
  H   H1702     1.0  0.99026  0.86382  0.36034  1.0000
  C   C939      1.0  0.04432  0.65392  0.28475  1.0000
  H   H1703     1.0  0.33341  0.91786  0.40371  1.0000
  H   H1704     1.0  0.01012  0.82498  0.25656  1.0000
  H   H1705     1.0  0.35333  0.89135  0.42234  1.0000
  H   H1706     1.0  0.18734  0.92400  0.31846  1.0000
  C   C940      1.0  0.39000  0.71191  0.45084  1.0000
  H   H1707     1.0  0.31037  0.81720  0.45874  1.0000
  H   H1708     1.0  0.19213  0.91728  0.35307  1.0000
  H   H1709     1.0  0.99734  0.68644  0.40304  1.0000
  C   C941      1.0  0.09232  0.84370  0.47860  1.0000
  H   H1710     1.0  0.47949  0.66038  0.24062  1.0000
  H   H1711     1.0  0.01551  0.65106  0.30106  1.0000
  C   C942      1.0  0.19723  0.87337  0.36087  1.0000
  C   C943      1.0  0.36738  0.89088  0.41183  1.0000
  H   H1712     1.0  0.35316  0.91018  0.37286  1.0000
  H   H1713     1.0  0.35808  0.82714  0.42218  1.0000
  C   C944      1.0  0.98978  0.87530  0.37030  1.0000
  H   H1714     1.0  0.31608  0.92612  0.37322  1.0000
  H   H1715     1.0  0.00608  0.82372  0.45717  1.0000
  H   H1716     1.0  0.45098  0.70114  0.45449  1.0000
  H   H1717     1.0  0.46488  0.69009  0.33657  1.0000
  H   H1718     1.0  0.37242  0.88287  0.35080  1.0000
  H   H1719     1.0  0.24647  0.84805  0.31710  1.0000
  C   C945      1.0  0.34772  0.89702  0.38266  1.0000
  C   C946      1.0  0.42207  0.75402  0.47653  1.0000
  C   C947      1.0  0.34429  0.83414  0.41573  1.0000
  H   H1720     1.0  0.34424  0.86193  0.42618  1.0000
  H   H1721     1.0  0.41811  0.87681  0.35182  1.0000
  C   C948      1.0  0.18309  0.91009  0.31475  1.0000
  H   H1722     1.0  0.37728  0.72107  0.45871  1.0000
  S   S222      1.0  0.35496  0.87599  0.46686  1.0000
  H   H1723     1.0  0.29913  0.92064  0.39565  1.0000
  H   H1724     1.0  0.19377  0.90510  0.30201  1.0000
  C   C949      1.0  0.37520  0.91131  0.41014  1.0000
  C   C950      1.0  0.47328  0.69865  0.34429  1.0000
  C   C951      1.0  0.02487  0.69862  0.33005  1.0000
  H   H1725     1.0  0.23375  0.87117  0.45829  1.0000
  H   H1726     1.0  0.02278  0.78542  0.29775  1.0000
  H   H1727     1.0  0.48672  0.68883  0.34861  1.0000
  H   H1728     1.0  0.35703  0.92085  0.43697  1.0000
  C   C952      1.0  0.41498  0.72058  0.47136  1.0000
  C   C953      1.0  0.18929  0.83886  0.37634  1.0000
  H   H1729     1.0  0.02876  0.78581  0.45959  1.0000
  C   C954      1.0  0.04341  0.77626  0.45968  1.0000
  S   S223      1.0  0.15992  0.94434  0.46382  1.0000
  H   H1730     1.0  0.44609  0.71330  0.35999  1.0000
  H   H1731     1.0  0.16997  0.89827  0.34393  1.0000
  C   C955      1.0  0.99040  0.87276  0.25737  1.0000
  H   H1732     1.0  0.46104  0.71648  0.41982  1.0000
  C   C956      1.0  0.02385  0.74876  0.47260  1.0000
  C   C957      1.0  0.02240  0.79837  0.28586  1.0000
  C   C958      1.0  0.02116  0.65824  0.28614  1.0000
  H   H1733     1.0  0.04137  0.69469  0.32726  1.0000
  C   C959      1.0  0.06078  0.80703  0.44835  1.0000
  H   H1734     1.0  0.03610  0.69256  0.29211  1.0000
  H   H1735     1.0  0.20103  0.93107  0.47176  1.0000
  H   H1736     1.0  0.99526  0.86782  0.38436  1.0000
  H   H1737     1.0  0.43713  0.65478  0.47073  1.0000
  H   H1738     1.0  0.45256  0.68666  0.27879  1.0000
  H   H1739     1.0  0.39816  0.78998  0.47832  1.0000
  H   H1740     1.0  0.99809  0.69058  0.32261  1.0000
  H   H1741     1.0  0.48121  0.80412  0.23813  1.0000
  H   H1742     1.0  0.46827  0.71147  0.37222  1.0000
  H   H1743     1.0  0.30181  0.79410  0.45586  1.0000
  C   C960      1.0  0.99761  0.81357  0.46758  1.0000
  H   H1744     1.0  0.38154  0.90772  0.44085  1.0000
  C   C961      1.0  0.25271  0.86131  0.31995  1.0000
  C   C962      1.0  0.48506  0.66255  0.47176  1.0000
  H   H1745     1.0  0.23197  0.92339  0.38310  1.0000
  H   H1746     1.0  0.99329  0.71055  0.25556  1.0000
  S   S224      1.0  0.47414  0.84902  0.32470  1.0000
  C   C963      1.0  0.21816  0.88021  0.32779  1.0000
  H   H1747     1.0  0.42057  0.79552  0.46196  1.0000
  H   H1748     1.0  0.99998  0.88630  0.36310  1.0000
  H   H1749     1.0  0.23678  0.86172  0.34933  1.0000
  H   H1750     1.0  0.21322  0.86823  0.32104  1.0000
  H   H1751     1.0  0.16299  0.92672  0.29451  1.0000
  C   C964      1.0  0.08118  0.70819  0.46559  1.0000
  C   C965      1.0  0.00459  0.68354  0.41689  1.0000
  H   H1752     1.0  0.07397  0.77750  0.44371  1.0000
  C   C966      1.0  0.01912  0.76733  0.42942  1.0000
  C   C967      1.0  0.36151  0.86265  0.39595  1.0000
  H   H1753     1.0  0.42055  0.76664  0.44485  1.0000
  C   C968      1.0  0.01963  0.69243  0.29569  1.0000
  C   C969      1.0  0.01442  0.68680  0.31837  1.0000
  C   C970      1.0  0.13361  0.84580  0.47004  1.0000
  H   H1754     1.0  0.00476  0.77568  0.40268  1.0000
  C   C971      1.0  0.41138  0.76680  0.45961  1.0000
  H   H1755     1.0  0.05370  0.71442  0.45277  1.0000
  H   H1756     1.0  0.40558  0.87564  0.33073  1.0000
  H   H1757     1.0  0.00000  0.85150  0.32547  1.0000
  H   H1758     1.0  0.37909  0.93307  0.42882  1.0000
  C   C972      1.0  0.31176  0.91418  0.38529  1.0000
  H   H1759     1.0  0.17881  0.88025  0.32743  1.0000
  C   C973      1.0  0.34383  0.85675  0.41168  1.0000
  H   H1760     1.0  0.05233  0.66934  0.36779  1.0000
  C   C974      1.0  0.01068  0.94685  0.29546  1.0000
  N   N55       1.0  0.36466  0.88436  0.39239  1.0000
  H   H1761     1.0  0.39140  0.90993  0.40422  1.0000
  H   H1762     1.0  0.20302  0.83608  0.38382  1.0000
  H   H1763     1.0  0.37806  0.87966  0.41966  1.0000
  H   H1764     1.0  0.27205  0.65950  0.45547  1.0000
  H   H1765     1.0  0.04971  0.66037  0.29659  1.0000
  H   H1766     1.0  0.99249  0.79716  0.28051  1.0000
  C   C975      1.0  0.40441  0.88251  0.34464  1.0000
  N   N56       1.0  0.06788  0.86935  0.39319  1.0000
  C   C976      1.0  0.06441  0.84910  0.38912  1.0000
  C   C977      1.0  0.05368  0.87582  0.41101  1.0000
  C   C978      1.0  0.06326  0.88402  0.37514  1.0000
  C   C979      1.0  0.08934  0.86981  0.39595  1.0000
  C   C980      1.0  0.09746  0.85498  0.41312  1.0000
  C   C981      1.0  0.07869  0.84012  0.37185  1.0000
  C   C982      1.0  0.06382  0.90634  0.37666  1.0000
  C   C983      1.0  0.04769  0.85938  0.42818  1.0000
  C   C984      1.0  0.03575  0.86836  0.44618  1.0000
  C   C985      1.0  0.12012  0.85422  0.41210  1.0000
  C   C986      1.0  0.07260  0.82043  0.36837  1.0000
  C   C987      1.0  0.05603  0.91958  0.35866  1.0000
  H   H1767     1.0  0.04871  0.84971  0.38598  1.0000
  H   H1768     1.0  0.06582  0.83776  0.40236  1.0000
  H   H1769     1.0  0.05989  0.88716  0.41759  1.0000
  H   H1770     1.0  0.03915  0.88334  0.40629  1.0000
  H   H1771     1.0  0.04815  0.88264  0.37149  1.0000
  H   H1772     1.0  0.07405  0.88074  0.36179  1.0000
  H   H1773     1.0  0.09932  0.86740  0.38191  1.0000
  H   H1774     1.0  0.09157  0.88484  0.39887  1.0000
  H   H1775     1.0  0.09433  0.83963  0.41278  1.0000
  H   H1776     1.0  0.09061  0.85993  0.42758  1.0000
  H   H1777     1.0  0.07852  0.85008  0.35758  1.0000
  H   H1778     1.0  0.09432  0.83710  0.37538  1.0000
  H   H1779     1.0  0.07940  0.90916  0.37694  1.0000
  H   H1780     1.0  0.05447  0.91122  0.39020  1.0000
  H   H1781     1.0  0.03805  0.84987  0.42312  1.0000
  H   H1782     1.0  0.06091  0.84974  0.43333  1.0000
  H   H1783     1.0  0.01991  0.69498  0.34624  1.0000
  C   C988      1.0  0.45251  0.65683  0.46554  1.0000
  H   H1784     1.0  0.02205  0.87802  0.44195  1.0000
  H   H1785     1.0  0.12425  0.86927  0.41243  1.0000
  H   H1786     1.0  0.12541  0.84414  0.42507  1.0000
  H   H1787     1.0  0.12785  0.84830  0.39832  1.0000
  H   H1788     1.0  0.05721  0.82279  0.36412  1.0000
  H   H1789     1.0  0.08299  0.81434  0.35595  1.0000
  H   H1790     1.0  0.07321  0.80934  0.38194  1.0000
  H   H1791     1.0  0.06467  0.91521  0.34454  1.0000
  H   H1792     1.0  0.03997  0.91836  0.35847  1.0000
  H   H1793     1.0  0.05755  0.93537  0.35940  1.0000
  H   H1794     1.0  0.43384  0.76232  0.47983  1.0000
  C   C989      1.0  0.44703  0.73374  0.45543  1.0000
  H   H1795     1.0  0.39730  0.79706  0.45204  1.0000
  Fe  Fe113     1.0  0.48068  0.86868  0.34592  1.0000
  H   H1796     1.0  0.15126  0.92123  0.31975  1.0000
  C   C990      1.0  0.03713  0.75314  0.43713  1.0000
  C   C991      1.0  0.46014  0.71361  0.45211  1.0000
  H   H1797     1.0  0.03291  0.68493  0.44080  1.0000
  H   H1798     1.0  0.01306  0.70825  0.29264  1.0000
  C   C992      1.0  0.06005  0.71934  0.46492  1.0000
  C   C993      1.0  0.31396  0.80070  0.46065  1.0000
  H   H1799     1.0  0.45743  0.74450  0.45670  1.0000
  H   H1800     1.0  0.44056  0.73963  0.44150  1.0000
  H   H1801     1.0  0.24579  0.88492  0.33801  1.0000
  C   C994      1.0  0.00082  0.80813  0.28498  1.0000
  H   H1802     1.0  0.18587  0.82438  0.37314  1.0000
  C   C995      1.0  0.46494  0.66028  0.47880  1.0000
  H   H1803     1.0  0.20795  0.90071  0.38102  1.0000
  C   C996      1.0  0.00049  0.80254  0.34381  1.0000
  H   H1804     1.0  0.34368  0.82787  0.40181  1.0000
  C   C997      1.0  0.38400  0.88599  0.37847  1.0000
  C   C998      1.0  0.38568  0.87717  0.35859  1.0000
  H   H1805     1.0  0.26732  0.85619  0.32558  1.0000
  H   H1806     1.0  0.35882  0.85761  0.38198  1.0000
  C   C999      1.0  0.21785  0.90533  0.36721  1.0000
  H   H1807     1.0  0.23129  0.89412  0.36636  1.0000
  H   H1808     1.0  0.48167  0.70035  0.42946  1.0000
  H   H1809     1.0  0.20992  0.86993  0.36977  1.0000
  C   C1000     1.0  0.20628  0.90738  0.34895  1.0000
  C   C1001     1.0  0.23847  0.87227  0.33542  1.0000
  H   H1810     1.0  0.18441  0.87990  0.37106  1.0000
  H   H1811     1.0  0.21469  0.91608  0.33620  1.0000
  H   H1812     1.0  0.20480  0.84559  0.34705  1.0000
  N   N57       1.0  0.20160  0.88840  0.34275  1.0000
  H   H1813     1.0  0.45612  0.68975  0.37272  1.0000
  H   H1814     1.0  0.04509  0.87718  0.45255  1.0000
  H   H1815     1.0  0.25534  0.87134  0.30574  1.0000
  H   H1816     1.0  0.32815  0.79669  0.45094  1.0000
  C   C1002     1.0  0.00069  0.93932  0.31379  1.0000
  C   C1003     1.0  0.01916  0.68750  0.26114  1.0000
  H   H1817     1.0  0.07185  0.81394  0.43682  1.0000
  H   H1818     1.0  0.21130  0.93682  0.37108  1.0000
  H   H1819     1.0  0.01576  0.67244  0.37878  1.0000
  C   C1004     1.0  0.47499  0.88053  0.25224  1.0000
  C   C1005     1.0  0.19237  0.85296  0.35690  1.0000
  C   C1006     1.0  0.06059  0.74217  0.46168  1.0000
  H   H1820     1.0  0.02089  0.71489  0.32588  1.0000
  H   H1821     1.0  0.03412  0.73775  0.43641  1.0000
  C   C1007     1.0  0.18275  0.89349  0.33287  1.0000
  H   H1822     1.0  0.39699  0.87851  0.38606  1.0000
  H   H1823     1.0  0.05064  0.75533  0.42608  1.0000
  N   N58       1.0  0.01288  0.66180  0.42092  1.0000
  H   H1824     1.0  0.01135  0.97154  0.27176  1.0000
  H   H1825     1.0  0.41929  0.70460  0.47698  1.0000
  H   H1826     1.0  0.17842  0.85464  0.34998  1.0000
  N   N59       1.0  0.43103  0.73299  0.47327  1.0000
  C   C1008     1.0  0.28387  0.86450  0.46244  1.0000
  C   C1009     1.0  0.16240  0.91523  0.30780  1.0000
  H   H1827     1.0  0.23519  0.93006  0.35645  1.0000
  H   H1828     1.0  0.46502  0.72616  0.32555  1.0000
  C   C1010     1.0  0.02077  0.65670  0.44079  1.0000
  H   H1829     1.0  0.45022  0.65345  0.43522  1.0000
  C   C1011     1.0  0.48710  0.82058  0.26044  1.0000
  C   C1012     1.0  0.26315  0.86423  0.46777  1.0000
  C   C1013     1.0  0.09936  0.86021  0.46659  1.0000
  C   C1014     1.0  0.03033  0.65763  0.40498  1.0000
  H   H1830     1.0  0.45800  0.70644  0.30460  1.0000
  H   H1831     1.0  0.38681  0.71162  0.43546  1.0000
  H   H1832     1.0  0.00742  0.83819  0.27719  1.0000
  H   H1833     1.0  0.48499  0.83607  0.26412  1.0000
  H   H1834     1.0  0.06609  0.80617  0.46307  1.0000
  H   H1835     1.0  0.01598  0.67721  0.25114  1.0000
  H   H1836     1.0  0.06631  0.74605  0.47485  1.0000
  H   H1837     1.0  0.99423  0.81116  0.30023  1.0000
  H   H1838     1.0  0.02860  0.66912  0.47600  1.0000
  H   H1839     1.0  0.47907  0.81131  0.27293  1.0000
  H   H1840     1.0  0.03177  0.80907  0.28928  1.0000
  H   H1841     1.0  0.48088  0.72691  0.42806  1.0000
  H   H1842     1.0  0.39692  0.76132  0.45916  1.0000
  H   H1843     1.0  0.05151  0.66443  0.43427  1.0000
  H   H1844     1.0  0.12514  0.87384  0.45281  1.0000
  H   H1845     1.0  0.01890  0.67077  0.32307  1.0000
  H   H1846     1.0  0.00979  0.75868  0.46978  1.0000
  C   C1015     1.0  0.99444  0.83768  0.33175  1.0000
  H   H1847     1.0  0.05091  0.71477  0.47928  1.0000
  C   C1016     1.0  0.01664  0.71408  0.23112  1.0000
  C   C1017     1.0  0.47901  0.71772  0.33062  1.0000
  C   C1018     1.0  0.47078  0.70199  0.29341  1.0000
  S   S225      1.0  0.15949  0.84708  0.46525  1.0000
  H   H1848     1.0  0.99273  0.68773  0.44834  1.0000
  H   H1849     1.0  0.08888  0.87230  0.46066  1.0000
  C   C1019     1.0  0.47159  0.71449  0.43106  1.0000
  C   C1020     1.0  0.48008  0.65788  0.43841  1.0000
  C   C1021     1.0  0.04195  0.66429  0.46555  1.0000
  H   H1850     1.0  0.99253  0.85143  0.23714  1.0000
  H   H1851     1.0  0.00863  0.65845  0.45336  1.0000
  H   H1852     1.0  0.99957  0.72078  0.43228  1.0000
  C   C1022     1.0  0.11995  0.86121  0.46228  1.0000
  H   H1853     1.0  0.46418  0.67133  0.29865  1.0000
  H   H1854     1.0  0.05431  0.67246  0.46740  1.0000
  H   H1855     1.0  0.04800  0.77704  0.47440  1.0000
  C   C1023     1.0  0.04029  0.84143  0.23307  1.0000
  H   H1856     1.0  0.99635  0.90304  0.24673  1.0000
  H   H1857     1.0  0.05178  0.65996  0.27006  1.0000
  C   C1024     1.0  0.02503  0.65832  0.38355  1.0000
  H   H1858     1.0  0.48030  0.73871  0.29446  1.0000
  C   C1025     1.0  0.47872  0.81983  0.24109  1.0000
  C   C1026     1.0  0.04397  0.65646  0.36847  1.0000
  C   C1027     1.0  0.98915  0.89133  0.24192  1.0000
  S   S226      1.0  0.48845  0.65616  0.41301  1.0000
  Fe  Fe114     1.0  0.33377  0.85386  0.48036  1.0000
  H   H1859     1.0  0.07959  0.80117  0.61349  1.0000
  S   S227      1.0  0.40415  0.67749  0.53596  1.0000
  H   H1860     1.0  0.44451  0.97099  0.72681  1.0000
  H   H1861     1.0  0.45667  0.94225  0.52893  1.0000
  Fe  Fe115     1.0  0.38043  0.68162  0.51572  1.0000
  S   S228      1.0  0.36372  0.71103  0.50317  1.0000
  C   C1028     1.0  0.32536  0.94239  0.71303  1.0000
  C   C1029     1.0  0.11321  0.97729  0.62143  1.0000
  H   H1862     1.0  0.32302  0.73454  0.50970  1.0000
  H   H1863     1.0  0.01093  0.74069  0.52435  1.0000
  Fe  Fe116     1.0  0.37623  0.96272  0.64914  1.0000
  S   S229      1.0  0.40130  0.95494  0.62505  1.0000
  S   S230      1.0  0.99474  0.79161  0.52621  1.0000
  C   C1030     1.0  0.04402  0.76611  0.65198  1.0000
  Fe  Fe117     1.0  0.37819  0.94379  0.61022  1.0000
  S   S231      1.0  0.38203  0.91441  0.59710  1.0000
  C   C1031     1.0  0.41882  0.93698  0.72894  1.0000
  S   S232      1.0  0.35399  0.94900  0.63587  1.0000
  C   C1032     1.0  0.19610  0.95986  0.50942  1.0000
  H   H1864     1.0  0.04664  0.71040  0.52186  1.0000
  S   S233      1.0  0.37329  0.79731  0.52184  1.0000
  Fe  Fe118     1.0  0.36541  0.87184  0.49738  1.0000
  S   S234      1.0  0.36859  0.90032  0.51002  1.0000
  S   S235      1.0  0.34293  0.85122  0.51103  1.0000
  Fe  Fe119     1.0  0.05860  0.82195  0.51138  1.0000
  S   S236      1.0  0.07611  0.81391  0.53731  1.0000
  H   H1865     1.0  0.32085  0.78898  0.55254  1.0000
  Fe  Fe120     1.0  0.02417  0.79997  0.53153  1.0000
  S   S237      1.0  0.03834  0.79036  0.55972  1.0000
  H   H1866     1.0  0.33407  0.95601  0.56876  1.0000
  Fe  Fe121     1.0  0.04677  0.82167  0.55609  1.0000
  S   S238      1.0  0.03971  0.84496  0.57791  1.0000
  Fe  Fe122     1.0  0.06651  0.78333  0.53864  1.0000
  S   S239      1.0  0.08862  0.75499  0.54175  1.0000
  S   S240      1.0  0.02984  0.83150  0.52976  1.0000
  S   S241      1.0  0.05173  0.79111  0.51093  1.0000
  Fe  Fe123     1.0  0.07416  0.90417  0.65812  1.0000
  S   S242      1.0  0.05498  0.93169  0.64628  1.0000
  S   S243      1.0  0.08175  0.87544  0.64324  1.0000
  Fe  Fe124     1.0  0.08739  0.92598  0.69023  1.0000
  S   S244      1.0  0.06966  0.95498  0.67984  1.0000
  Fe  Fe125     1.0  0.04556  0.93640  0.67830  1.0000
  S   S245      1.0  0.01397  0.94798  0.69052  1.0000
  Fe  Fe126     1.0  0.08061  0.94787  0.64883  1.0000
  H   H1867     1.0  0.02467  0.83026  0.61882  1.0000
  S   S246      1.0  0.06257  0.90738  0.69049  1.0000
  S   S247      1.0  0.10052  0.92036  0.65892  1.0000
  C   C1033     1.0  0.14642  0.97159  0.63158  1.0000
  H   H1868     1.0  0.05248  0.75821  0.63969  1.0000
  H   H1869     1.0  0.44437  0.66615  0.58496  1.0000
  C   C1034     1.0  0.32365  0.81962  0.55288  1.0000
  H   H1870     1.0  0.14661  0.97417  0.57327  1.0000
  H   H1871     1.0  0.07953  0.79165  0.57985  1.0000
  H   H1872     1.0  0.46786  0.91644  0.53200  1.0000
  C   C1035     1.0  0.08418  0.73311  0.53283  1.0000
  C   C1036     1.0  0.06495  0.73036  0.52990  1.0000
  C   C1037     1.0  0.06165  0.71254  0.52364  1.0000
  C   C1038     1.0  0.07752  0.69739  0.51983  1.0000
  C   C1039     1.0  0.09684  0.70018  0.52253  1.0000
  C   C1040     1.0  0.10009  0.71788  0.52919  1.0000
  H   H1873     1.0  0.05252  0.74179  0.53291  1.0000
  H   H1874     1.0  0.29296  0.81472  0.49299  1.0000
  H   H1875     1.0  0.10920  0.68866  0.51968  1.0000
  H   H1876     1.0  0.11501  0.71982  0.53148  1.0000
  C   C1041     1.0  0.05250  0.85396  0.59490  1.0000
  C   C1042     1.0  0.04247  0.86952  0.60538  1.0000
  C   C1043     1.0  0.05138  0.87659  0.61981  1.0000
  C   C1044     1.0  0.07044  0.86805  0.62413  1.0000
  C   C1045     1.0  0.08058  0.85256  0.61353  1.0000
  C   C1046     1.0  0.07178  0.84568  0.59884  1.0000
  H   H1877     1.0  0.02756  0.87605  0.60246  1.0000
  H   H1878     1.0  0.04335  0.88843  0.62786  1.0000
  H   H1879     1.0  0.09532  0.84580  0.61680  1.0000
  H   H1880     1.0  0.07973  0.83378  0.59086  1.0000
  S   S248      1.0  0.06653  0.84296  0.48391  1.0000
  H   H1881     1.0  0.04491  0.73844  0.67217  1.0000
  H   H1882     1.0  0.41273  0.91142  0.54308  1.0000
  H   H1883     1.0  0.42331  0.73914  0.51568  1.0000
  H   H1884     1.0  0.16759  0.66243  0.48361  1.0000
  H   H1885     1.0  0.47035  0.95536  0.66440  1.0000
  H   H1886     1.0  0.06279  0.80075  0.64627  1.0000
  H   H1887     1.0  0.05488  0.82371  0.63252  1.0000
  H   H1888     1.0  0.23869  0.83412  0.53900  1.0000
  H   H1889     1.0  0.42313  0.90018  0.57522  1.0000
  H   H1890     1.0  0.16899  0.97790  0.51965  1.0000
  H   H1891     1.0  0.40883  0.93891  0.56376  1.0000
  C   C1047     1.0  0.10588  0.82812  0.48630  1.0000
  H   H1892     1.0  0.42684  0.65952  0.57065  1.0000
  H   H1893     1.0  0.31661  0.97590  0.53036  1.0000
  H   H1894     1.0  0.32336  0.76931  0.51675  1.0000
  C   C1048     1.0  0.02861  0.78299  0.64358  1.0000
  H   H1895     1.0  0.29756  0.80504  0.55644  1.0000
  H   H1896     1.0  0.12219  0.95512  0.64533  1.0000
  C   C1049     1.0  0.12021  0.97286  0.56017  1.0000
  H   H1897     1.0  0.25241  0.96666  0.53934  1.0000
  C   C1050     1.0  0.37675  0.91090  0.57327  1.0000
  C   C1051     1.0  0.37313  0.92689  0.55838  1.0000
  C   C1052     1.0  0.37074  0.92332  0.53916  1.0000
  C   C1053     1.0  0.37133  0.90380  0.53467  1.0000
  C   C1054     1.0  0.37446  0.88785  0.54968  1.0000
  C   C1055     1.0  0.37729  0.89140  0.56880  1.0000
  H   H1898     1.0  0.37268  0.94197  0.56152  1.0000
  H   H1899     1.0  0.36864  0.93572  0.52756  1.0000
  H   H1900     1.0  0.37502  0.87275  0.54647  1.0000
  H   H1901     1.0  0.38010  0.87890  0.58016  1.0000
  C   C1056     1.0  0.05269  0.82762  0.67192  1.0000
  C   C1057     1.0  0.42052  0.92894  0.71089  1.0000
  C   C1058     1.0  0.40804  0.93727  0.69620  1.0000
  C   C1059     1.0  0.39377  0.95380  0.69944  1.0000
  C   C1060     1.0  0.39247  0.96208  0.71725  1.0000
  Fe  Fe127     1.0  0.42267  0.65921  0.51344  1.0000
  H   H1902     1.0  0.43140  0.91604  0.70836  1.0000
  H   H1903     1.0  0.40930  0.93074  0.68254  1.0000
  H   H1904     1.0  0.04848  0.80759  0.59989  1.0000
  C   C1061     1.0  0.36751  0.73472  0.50821  1.0000
  C   C1062     1.0  0.37491  0.73720  0.52554  1.0000
  C   C1063     1.0  0.37674  0.75645  0.52944  1.0000
  C   C1064     1.0  0.37148  0.77334  0.51594  1.0000
  H   H1905     1.0  0.15525  0.65907  0.50881  1.0000
  S   S249      1.0  0.21063  0.96647  0.52610  1.0000
  H   H1906     1.0  0.37878  0.72434  0.53616  1.0000
  H   H1907     1.0  0.38210  0.75828  0.54307  1.0000
  C   C1065     1.0  0.44118  0.91191  0.62468  1.0000
  C   C1066     1.0  0.00129  0.80964  0.48752  1.0000
  H   H1908     1.0  0.05848  0.84043  0.66191  1.0000
  C   C1067     1.0  0.31259  0.80369  0.54760  1.0000
  H   H1909     1.0  0.07493  0.76677  0.59089  1.0000
  H   H1910     1.0  0.22047  0.94006  0.49629  1.0000
  H   H1911     1.0  0.44992  0.89986  0.63376  1.0000
  H   H1912     1.0  0.39613  0.97519  0.55212  1.0000
  H   H1913     1.0  0.44431  0.89511  0.60021  1.0000
  C   C1068     1.0  0.42825  0.90390  0.54354  1.0000
  C   C1069     1.0  0.43524  0.90566  0.56374  1.0000
  H   H1914     1.0  0.30724  0.76729  0.53942  1.0000
  C   C1070     1.0  0.42434  0.94202  0.55782  1.0000
  H   H1915     1.0  0.42501  0.91046  0.62900  1.0000
  H   H1916     1.0  0.07527  0.77661  0.62476  1.0000
  N   N60       1.0  0.10082  0.87823  0.53343  1.0000
  C   C1071     1.0  0.11314  0.86015  0.54299  1.0000
  C   C1072     1.0  0.09815  0.89445  0.54667  1.0000
  C   C1073     1.0  0.08092  0.87235  0.53087  1.0000
  C   C1074     1.0  0.11108  0.88586  0.51322  1.0000
  C   C1075     1.0  0.13233  0.89166  0.51291  1.0000
  C   C1076     1.0  0.12103  0.84347  0.52966  1.0000
  C   C1077     1.0  0.06499  0.88962  0.52389  1.0000
  C   C1078     1.0  0.08575  0.89014  0.56742  1.0000
  C   C1079     1.0  0.08391  0.90774  0.57926  1.0000
  C   C1080     1.0  0.14197  0.89746  0.49164  1.0000
  C   C1081     1.0  0.13107  0.82496  0.54149  1.0000
  C   C1082     1.0  0.04518  0.88197  0.52324  1.0000
  H   H1917     1.0  0.10419  0.85317  0.55651  1.0000
  H   H1918     1.0  0.12627  0.86441  0.54850  1.0000
  H   H1919     1.0  0.11297  0.89738  0.54968  1.0000
  H   H1920     1.0  0.09142  0.90883  0.53898  1.0000
  H   H1921     1.0  0.07418  0.86402  0.54493  1.0000
  H   H1922     1.0  0.08302  0.86174  0.51966  1.0000
  H   H1923     1.0  0.11193  0.87486  0.50255  1.0000
  H   H1924     1.0  0.10208  0.89945  0.50660  1.0000
  H   H1925     1.0  0.14244  0.87923  0.51983  1.0000
  H   H1926     1.0  0.13157  0.90474  0.52094  1.0000
  H   H1927     1.0  0.10869  0.83891  0.52332  1.0000
  H   H1928     1.0  0.13226  0.84853  0.51714  1.0000
  H   H1929     1.0  0.31361  0.97502  0.56790  1.0000
  H   H1930     1.0  0.06184  0.90118  0.53407  1.0000
  H   H1931     1.0  0.07039  0.88738  0.56615  1.0000
  H   H1932     1.0  0.09317  0.87694  0.57622  1.0000
  H   H1933     1.0  0.07508  0.90431  0.59407  1.0000
  H   H1934     1.0  0.09890  0.91067  0.58169  1.0000
  H   H1935     1.0  0.07610  0.92135  0.57135  1.0000
  H   H1936     1.0  0.48790  0.95270  0.53615  1.0000
  H   H1937     1.0  0.25747  0.85838  0.48278  1.0000
  H   H1938     1.0  0.45774  0.97637  0.69119  1.0000
  H   H1939     1.0  0.43350  0.96924  0.69514  1.0000
  H   H1940     1.0  0.14396  0.82860  0.54783  1.0000
  H   H1941     1.0  0.27690  0.78869  0.54515  1.0000
  S   S250      1.0  0.37703  0.96488  0.68211  1.0000
  C   C1083     1.0  0.44727  0.91004  0.60254  1.0000
  H   H1942     1.0  0.44100  0.96767  0.55668  1.0000
  H   H1943     1.0  0.17603  0.67332  0.50291  1.0000
  H   H1944     1.0  0.44367  0.87414  0.53969  1.0000
  H   H1945     1.0  0.09793  0.77573  0.59322  1.0000
  H   H1946     1.0  0.42184  0.88144  0.52697  1.0000
  S   S251      1.0  0.45561  0.66198  0.50409  1.0000
  H   H1947     1.0  0.13666  0.81343  0.53146  1.0000
  S   S252      1.0  0.38978  0.84670  0.49029  1.0000
  S   S253      1.0  0.10801  0.92275  0.71449  1.0000
  S   S254      1.0  0.07213  0.67548  0.51172  1.0000
  H   H1948     1.0  0.20721  0.95579  0.59575  1.0000
  C   C1084     1.0  0.17599  0.96774  0.50922  1.0000
  H   H1949     1.0  0.33928  0.81836  0.54528  1.0000
  H   H1950     1.0  0.45268  0.71936  0.52948  1.0000
  H   H1951     1.0  0.13151  0.94895  0.59475  1.0000
  H   H1952     1.0  0.04018  0.98202  0.70499  1.0000
  H   H1953     1.0  0.46361  0.91074  0.59921  1.0000
  C   C1085     1.0  0.19396  0.94121  0.48221  1.0000
  N   N61       1.0  0.30666  0.94608  0.56404  1.0000
  H   H1954     1.0  0.00881  0.81909  0.63904  1.0000
  C   C1086     1.0  0.31850  0.92668  0.55882  1.0000
  C   C1087     1.0  0.29726  0.94419  0.58553  1.0000
  Fe  Fe128     1.0  0.34664  0.97892  0.61814  1.0000
  C   C1088     1.0  0.26330  0.97763  0.53716  1.0000
  C   C1089     1.0  0.99031  0.79668  0.50113  1.0000
  C   C1090     1.0  0.31178  0.93600  0.60116  1.0000
  C   C1091     1.0  0.30699  0.90824  0.56301  1.0000
  C   C1092     1.0  0.32089  0.88944  0.55810  1.0000
  C   C1093     1.0  0.20495  0.94634  0.49611  1.0000
  H   H1955     1.0  0.42075  0.96585  0.57686  1.0000
  C   C1094     1.0  0.30057  0.93483  0.62230  1.0000
  H   H1956     1.0  0.27926  0.94086  0.55440  1.0000
  H   H1957     1.0  0.33690  0.95600  0.53143  1.0000
  H   H1958     1.0  0.32443  0.92804  0.54268  1.0000
  H   H1959     1.0  0.33203  0.92304  0.56663  1.0000
  H   H1960     1.0  0.28487  0.93480  0.58796  1.0000
  H   H1961     1.0  0.13258  0.91011  0.48397  1.0000
  C   C1095     1.0  0.12677  0.96685  0.63391  1.0000
  H   H1962     1.0  0.03923  0.87495  0.53824  1.0000
  H   H1963     1.0  0.35635  0.97730  0.54598  1.0000
  C   C1096     1.0  0.12653  0.82919  0.48202  1.0000
  H   H1964     1.0  0.07002  0.89671  0.50867  1.0000
  C   C1097     1.0  0.00650  0.80995  0.61092  1.0000
  H   H1965     1.0  0.32350  0.94586  0.60033  1.0000
  H   H1966     1.0  0.31922  0.92080  0.59895  1.0000
  H   H1967     1.0  0.30057  0.90555  0.57889  1.0000
  H   H1968     1.0  0.29470  0.91021  0.55367  1.0000
  H   H1969     1.0  0.33292  0.88612  0.56786  1.0000
  H   H1970     1.0  0.31225  0.87655  0.56055  1.0000
  H   H1971     1.0  0.32780  0.89125  0.54226  1.0000
  C   C1098     1.0  0.44250  0.65625  0.57410  1.0000
  H   H1972     1.0  0.31436  0.93161  0.71803  1.0000
  C   C1099     1.0  0.24566  0.81834  0.53964  1.0000
  H   H1973     1.0  0.03289  0.97573  0.66026  1.0000
  C   C1100     1.0  0.43554  0.92696  0.58943  1.0000
  C   C1101     1.0  0.00857  0.97389  0.68421  1.0000
  H   H1974     1.0  0.99929  0.79655  0.61747  1.0000
  C   C1102     1.0  0.17399  0.94949  0.48166  1.0000
  H   H1975     1.0  0.28915  0.92444  0.62428  1.0000
  H   H1976     1.0  0.42932  0.71257  0.54298  1.0000
  C   C1103     1.0  0.29644  0.75563  0.51630  1.0000
  H   H1977     1.0  0.31133  0.92933  0.63319  1.0000
  H   H1978     1.0  0.29641  0.95112  0.53503  1.0000
  N   N62       1.0  0.15825  0.93034  0.58365  1.0000
  C   C1104     1.0  0.17505  0.94252  0.58362  1.0000
  C   C1105     1.0  0.13900  0.94384  0.58042  1.0000
  C   C1106     1.0  0.15513  0.91841  0.60408  1.0000
  C   C1107     1.0  0.16335  0.91582  0.56849  1.0000
  C   C1108     1.0  0.16901  0.92463  0.54654  1.0000
  C   C1109     1.0  0.19538  0.93042  0.58815  1.0000
  C   C1110     1.0  0.13591  0.90791  0.60908  1.0000
  H   H1979     1.0  0.34833  0.95431  0.72358  1.0000
  H   H1980     1.0  0.26612  0.82453  0.51320  1.0000
  C   C1111     1.0  0.17739  0.90816  0.53359  1.0000
  C   C1112     1.0  0.21170  0.94392  0.58590  1.0000
  C   C1113     1.0  0.13694  0.89283  0.62788  1.0000
  H   H1981     1.0  0.17056  0.95318  0.59483  1.0000
  H   H1982     1.0  0.17802  0.95212  0.56923  1.0000
  H   H1983     1.0  0.12816  0.93545  0.57557  1.0000
  H   H1984     1.0  0.15085  0.96123  0.55200  1.0000
  H   H1985     1.0  0.15459  0.92816  0.61592  1.0000
  H   H1986     1.0  0.16804  0.90661  0.60617  1.0000
  H   H1987     1.0  0.17566  0.90408  0.57275  1.0000
  H   H1988     1.0  0.15053  0.90757  0.56838  1.0000
  H   H1989     1.0  0.18059  0.93473  0.54494  1.0000
  H   H1990     1.0  0.15549  0.93275  0.54037  1.0000
  H   H1991     1.0  0.19418  0.92286  0.60371  1.0000
  H   H1992     1.0  0.20055  0.91915  0.57780  1.0000
  H   H1993     1.0  0.13368  0.89976  0.59697  1.0000
  H   H1994     1.0  0.12246  0.91902  0.61180  1.0000
  H   H1995     1.0  0.10049  0.81521  0.49545  1.0000
  C   C1114     1.0  0.44120  0.72390  0.49130  1.0000
  H   H1996     1.0  0.43943  0.94119  0.59290  1.0000
  H   H1997     1.0  0.24571  0.81192  0.55553  1.0000
  H   H1998     1.0  0.04722  0.87090  0.51255  1.0000
  H   H1999     1.0  0.31738  0.95720  0.70790  1.0000
  H   H2000     1.0  0.19199  0.90059  0.53790  1.0000
  C   C1115     1.0  0.31142  0.80598  0.52484  1.0000
  H   H2001     1.0  0.22581  0.93507  0.59012  1.0000
  H   H2002     1.0  0.21461  0.95076  0.57016  1.0000
  C   C1116     1.0  0.36469  0.77076  0.49833  1.0000
  H   H2003     1.0  0.14918  0.88045  0.62537  1.0000
  H   H2004     1.0  0.13952  0.90010  0.64057  1.0000
  H   H2005     1.0  0.12260  0.88642  0.63190  1.0000
  H   H2006     1.0  0.04275  0.78287  0.60661  1.0000
  C   C1117     1.0  0.14067  0.96338  0.56587  1.0000
  C   C1118     1.0  0.42820  0.88214  0.54085  1.0000
  C   C1119     1.0  0.45486  0.95755  0.66046  1.0000
  C   C1120     1.0  0.43920  0.71237  0.52853  1.0000
  Fe  Fe129     1.0  0.36628  0.82630  0.50154  1.0000
  H   H2007     1.0  0.15687  0.90212  0.49185  1.0000
  C   C1121     1.0  0.46700  0.93116  0.53722  1.0000
  H   H2008     1.0  0.31587  0.83475  0.54856  1.0000
  H   H2009     1.0  0.44875  0.89455  0.56563  1.0000
  H   H2010     1.0  0.41935  0.92688  0.59501  1.0000
  H   H2011     1.0  0.27526  0.82647  0.53604  1.0000
  S   S255      1.0  0.08886  0.97116  0.62324  1.0000
  H   H2012     1.0  0.44387  0.69662  0.52600  1.0000
  H   H2013     1.0  0.45290  0.65958  0.56024  1.0000
  H   H2014     1.0  0.28999  0.95901  0.58948  1.0000
  H   H2015     1.0  0.12018  0.81869  0.55371  1.0000
  C   C1122     1.0  0.32077  0.96163  0.56092  1.0000
  H   H2016     1.0  0.02577  0.83016  0.65884  1.0000
  H   H2017     1.0  0.29444  0.75900  0.50034  1.0000
  C   C1123     1.0  0.16501  0.96258  0.49534  1.0000
  H   H2018     1.0  0.42553  0.94180  0.54153  1.0000
  H   H2019     1.0  0.30676  0.82195  0.51949  1.0000
  H   H2020     1.0  0.32420  0.81756  0.56920  1.0000
  S   S256      1.0  0.39981  0.66506  0.49232  1.0000
  C   C1124     1.0  0.42787  0.72380  0.51181  1.0000
  C   C1125     1.0  0.03840  0.81838  0.66185  1.0000
  C   C1126     1.0  0.41182  0.97856  0.54855  1.0000
  H   H2021     1.0  0.01252  0.81678  0.49239  1.0000
  C   C1127     1.0  0.04920  0.81071  0.64231  1.0000
  H   H2022     1.0  0.16680  0.89701  0.53502  1.0000
  C   C1128     1.0  0.36247  0.75158  0.49462  1.0000
  N   N63       1.0  0.43909  0.92604  0.56723  1.0000
  H   H2023     1.0  0.43767  0.91084  0.53058  1.0000
  H   H2024     1.0  0.06552  0.81645  0.67590  1.0000
  H   H2025     1.0  0.47092  0.91678  0.56650  1.0000
  H   H2026     1.0  0.11441  0.96323  0.55125  1.0000
  H   H2027     1.0  0.36118  0.78353  0.48757  1.0000
  H   H2028     1.0  0.32895  0.79945  0.48618  1.0000
  H   H2029     1.0  0.05457  0.77179  0.65992  1.0000
  C   C1129     1.0  0.01938  0.81580  0.62555  1.0000
  H   H2030     1.0  0.41880  0.87452  0.55355  1.0000
  H   H2031     1.0  0.17985  0.91472  0.51772  1.0000
  H   H2032     1.0  0.01560  0.80692  0.59661  1.0000
  N   N64       1.0  0.29828  0.79279  0.51843  1.0000
  H   H2033     1.0  0.02303  0.74408  0.65945  1.0000
  H   H2034     1.0  0.99634  0.84048  0.59881  1.0000
  C   C1130     1.0  0.30725  0.77139  0.52308  1.0000
  H   H2035     1.0  0.46405  0.94273  0.56551  1.0000
  S   S257      1.0  0.36996  0.97307  0.59208  1.0000
  H   H2036     1.0  0.44414  0.92649  0.62809  1.0000
  H   H2037     1.0  0.23644  0.81010  0.53246  1.0000
  H   H2038     1.0  0.14410  0.88459  0.48308  1.0000
  C   C1131     1.0  0.29023  0.95182  0.55096  1.0000
  C   C1132     1.0  0.46053  0.92931  0.55999  1.0000
  C   C1133     1.0  0.42560  0.96374  0.56102  1.0000
  H   H2039     1.0  0.32714  0.80291  0.51764  1.0000
  H   H2040     1.0  0.03399  0.89454  0.51830  1.0000
  C   C1134     1.0  0.08161  0.78010  0.59286  1.0000
  C   C1135     1.0  0.07202  0.78820  0.61220  1.0000
  C   C1136     1.0  0.30835  0.73491  0.51932  1.0000
  H   H2041     1.0  0.15696  0.96341  0.64116  1.0000
  H   H2042     1.0  0.04464  0.83318  0.68577  1.0000
  N   N65       1.0  0.03692  0.80071  0.63106  1.0000
  H   H2043     1.0  0.44644  0.94577  0.66936  1.0000
  C   C1137     1.0  0.00962  0.73915  0.50869  1.0000
  C   C1138     1.0  0.16998  0.66017  0.49953  1.0000
  C   C1139     1.0  0.04921  0.79481  0.61198  1.0000
  H   H2044     1.0  0.38197  0.97525  0.71955  1.0000
  H   H2045     1.0  0.28146  0.75496  0.52519  1.0000
  H   H2046     1.0  0.26738  0.78730  0.52294  1.0000
  C   C1140     1.0  0.27730  0.79553  0.52932  1.0000
  H   H2047     1.0  0.13703  0.81715  0.48800  1.0000
  H   H2048     1.0  0.01993  0.77582  0.63477  1.0000
  H   H2049     1.0  0.41425  0.71674  0.51173  1.0000
  H   H2050     1.0  0.31096  0.73067  0.53512  1.0000
  H   H2051     1.0  0.02521  0.75750  0.67977  1.0000
  S   S258      1.0  0.36618  0.65453  0.53092  1.0000
  H   H2052     1.0  0.01757  0.78785  0.65620  1.0000
  C   C1141     1.0  0.26700  0.81740  0.52876  1.0000
  C   C1142     1.0  0.03357  0.75064  0.66673  1.0000
  H   H2053     1.0  0.41680  0.97806  0.53240  1.0000
  H   H2054     1.0  0.32066  0.77647  0.48333  1.0000
  H   H2055     1.0  0.44735  0.70803  0.49007  1.0000
  H   H2056     1.0  0.29312  0.94980  0.62551  1.0000
  H   H2057     1.0  0.01142  0.72304  0.50712  1.0000
  H   H2058     1.0  0.03268  0.80605  0.67258  1.0000
  H   H2059     1.0  0.26856  0.97251  0.56770  1.0000
  H   H2060     1.0  0.28484  0.79174  0.49177  1.0000
  H   H2061     1.0  0.30000  0.72373  0.51517  1.0000
  C   C1143     1.0  0.29709  0.79837  0.49642  1.0000
  H   H2062     1.0  0.45564  0.95601  0.64444  1.0000
  H   H2063     1.0  0.02407  0.76510  0.49779  1.0000
  C   C1144     1.0  0.44259  0.98076  0.68667  1.0000
  C   C1145     1.0  0.32888  0.96866  0.53897  1.0000
  H   H2064     1.0  0.14950  0.96876  0.49505  1.0000
  C   C1146     1.0  0.27768  0.97249  0.55283  1.0000
  C   C1147     1.0  0.98986  0.82678  0.60601  1.0000
  C   C1148     1.0  0.02579  0.74942  0.49475  1.0000
  H   H2065     1.0  0.45427  0.73169  0.49208  1.0000
  H   H2066     1.0  0.10933  0.97515  0.57370  1.0000
  H   H2067     1.0  0.20943  0.65679  0.49211  1.0000
  H   H2068     1.0  0.04049  0.74209  0.49865  1.0000
  C   C1149     1.0  0.48787  0.93769  0.53182  1.0000
  C   C1150     1.0  0.31647  0.79284  0.48233  1.0000
  H   H2069     1.0  0.27163  0.97789  0.52190  1.0000
  H   H2070     1.0  0.41037  0.75395  0.48974  1.0000
  H   H2071     1.0  0.33575  0.93717  0.70016  1.0000
  H   H2072     1.0  0.99448  0.74615  0.50543  1.0000
  C   C1151     1.0  0.44433  0.97821  0.66429  1.0000
  H   H2073     1.0  0.42930  0.97962  0.65942  1.0000
  H   H2074     1.0  0.99139  0.96863  0.63536  1.0000
  H   H2075     1.0  0.05649  0.98147  0.72325  1.0000
  S   S259      1.0  0.30005  0.85475  0.48071  1.0000
  H   H2076     1.0  0.40105  0.72515  0.48120  1.0000
  H   H2077     1.0  0.35689  0.74979  0.48110  1.0000
  C   C1152     1.0  0.33732  0.94389  0.72981  1.0000
  H   H2078     1.0  0.27025  0.94847  0.93498  1.0000
  S   S260      1.0  0.15022  0.82318  0.95818  1.0000
  S   S261      1.0  0.11121  0.87468  0.95347  1.0000
  C   C1153     1.0  0.48278  0.79988  0.87248  1.0000
  H   H2079     1.0  0.42557  0.65770  0.90673  1.0000
  H   H2080     1.0  0.38566  0.69991  0.90332  1.0000
  H   H2081     1.0  0.22473  0.92534  0.95593  1.0000
  C   C1154     1.0  0.40592  0.66865  0.87299  1.0000
  S   S262      1.0  0.09933  0.96403  0.84361  1.0000
  H   H2082     1.0  0.41256  0.66522  0.84157  1.0000
  H   H2083     1.0  0.37603  0.67649  0.88648  1.0000
  Fe  Fe130     1.0  0.12851  0.94897  0.85341  1.0000
  S   S263      1.0  0.13647  0.91630  0.86535  1.0000
  H   H2084     1.0  0.47377  0.96651  0.81918  1.0000
  S   S264      1.0  0.14617  0.95698  0.82343  1.0000
  C   C1155     1.0  0.18852  0.94723  0.97046  1.0000
  Fe  Fe131     1.0  0.05090  0.66811  0.94455  1.0000
  S   S265      1.0  0.06700  0.67444  0.91353  1.0000
  H   H2085     1.0  0.13646  0.92811  0.73977  1.0000
  H   H2086     1.0  0.35836  0.69208  0.92949  1.0000
  Fe  Fe132     1.0  0.09160  0.68113  0.92952  1.0000
  S   S266      1.0  0.10737  0.70909  0.92070  1.0000
  H   H2087     1.0  0.45791  0.88067  0.88829  1.0000
  S   S267      1.0  0.07443  0.67661  0.95990  1.0000
  Fe  Fe133     1.0  0.39792  0.94043  0.81405  1.0000
  S   S268      1.0  0.41632  0.91246  0.80522  1.0000
  S   S269      1.0  0.36552  0.93863  0.82527  1.0000
  Fe  Fe134     1.0  0.43345  0.96427  0.80588  1.0000
  S   S270      1.0  0.45452  0.93780  0.79654  1.0000
  Fe  Fe135     1.0  0.42995  0.93302  0.77943  1.0000
  Fe  Fe136     1.0  0.43850  0.91993  0.82328  1.0000
  S   S271      1.0  0.45290  0.90018  0.84883  1.0000
  S   S272      1.0  0.40990  0.96045  0.78737  1.0000
  S   S273      1.0  0.41907  0.94702  0.83348  1.0000
  Fe  Fe137     1.0  0.44261  0.75688  0.94743  1.0000
  C   C1156     1.0  0.38636  0.89321  0.88566  1.0000
  S   S274      1.0  0.44421  0.72333  0.94763  1.0000
  Fe  Fe138     1.0  0.43907  0.79949  0.92436  1.0000
  S   S275      1.0  0.45024  0.81251  0.94816  1.0000
  S   S276      1.0  0.42887  0.81742  0.89586  1.0000
  Fe  Fe139     1.0  0.47281  0.78506  0.95002  1.0000
  H   H2088     1.0  0.34289  0.66747  0.95544  1.0000
  H   H2089     1.0  0.38881  0.90005  0.91512  1.0000
  S   S277      1.0  0.46357  0.77336  0.92430  1.0000
  S   S278      1.0  0.41722  0.78195  0.94559  1.0000
  C   C1157     1.0  0.06020  0.94487  0.81211  1.0000
  H   H2090     1.0  0.38689  0.97830  0.86186  1.0000
  C   C1158     1.0  0.43486  0.84097  0.88352  1.0000
  C   C1159     1.0  0.44479  0.85321  0.89224  1.0000
  C   C1160     1.0  0.44979  0.87152  0.88163  1.0000
  C   C1161     1.0  0.44453  0.87800  0.86237  1.0000
  C   C1162     1.0  0.43377  0.86618  0.85406  1.0000
  C   C1163     1.0  0.42905  0.84774  0.86455  1.0000
  H   H2091     1.0  0.42959  0.87095  0.83929  1.0000
  H   H2092     1.0  0.42109  0.83854  0.85777  1.0000
  H   H2093     1.0  0.44863  0.84847  0.90710  1.0000
  H   H2094     1.0  0.22958  0.96778  0.90425  1.0000
  C   C1164     1.0  0.35172  0.96205  0.82723  1.0000
  C   C1165     1.0  0.33185  0.96342  0.83632  1.0000
  H   H2095     1.0  0.36967  0.86141  0.89513  1.0000
  H   H2096     1.0  0.14907  0.69659  0.93752  1.0000
  H   H2097     1.0  0.32526  0.95002  0.84252  1.0000
  H   H2098     1.0  0.39427  0.84976  0.89712  1.0000
  C   C1166     1.0  0.12249  0.93694  0.74453  1.0000
  H   H2099     1.0  0.21384  0.96045  0.95444  1.0000
  H   H2100     1.0  0.33844  0.92409  0.77427  1.0000
  H   H2101     1.0  0.40924  0.88564  0.93929  1.0000
  H   H2102     1.0  0.02838  0.71487  0.97318  1.0000
  C   C1167     1.0  0.41183  0.65430  0.91677  1.0000
  C   C1168     1.0  0.39425  0.68422  0.97115  1.0000
  C   C1169     1.0  0.39618  0.68946  0.91218  1.0000
  C   C1170     1.0  0.40497  0.71731  0.96194  1.0000
  C   C1171     1.0  0.42463  0.70871  0.95668  1.0000
  C   C1172     1.0  0.42901  0.68783  0.95870  1.0000
  C   C1173     1.0  0.31121  0.94114  0.97503  1.0000
  C   C1174     1.0  0.01992  0.67026  0.89411  1.0000
  C   C1175     1.0  0.38907  0.66568  0.89059  1.0000
  C   C1176     1.0  0.10331  0.95937  0.76704  1.0000
  C   C1177     1.0  0.08671  0.95980  0.75687  1.0000
  C   C1178     1.0  0.35628  0.67753  0.92530  1.0000
  H   H2103     1.0  0.15602  0.65183  0.93383  1.0000
  H   H2104     1.0  0.06543  0.71913  0.95866  1.0000
  C   C1179     1.0  0.12127  0.94793  0.76068  1.0000
  C   C1180     1.0  0.26933  0.87923  0.96045  1.0000
  C   C1181     1.0  0.25463  0.89437  0.97141  1.0000
  H   H2105     1.0  0.38426  0.65079  0.89078  1.0000
  H   H2106     1.0  0.13430  0.94774  0.76801  1.0000
  H   H2107     1.0  0.39339  0.91033  0.76718  1.0000
  C   C1182     1.0  0.11897  0.75297  0.96182  1.0000
  C   C1183     1.0  0.12258  0.75738  0.94107  1.0000
  C   C1184     1.0  0.11880  0.74391  0.92871  1.0000
  C   C1185     1.0  0.11108  0.72603  0.93686  1.0000
  C   C1186     1.0  0.10721  0.72179  0.95760  1.0000
  H   H2108     1.0  0.35661  0.83895  0.92577  1.0000
  H   H2109     1.0  0.12858  0.77101  0.93455  1.0000
  H   H2110     1.0  0.12193  0.74736  0.91270  1.0000
  H   H2111     1.0  0.38816  0.92489  0.88494  1.0000
  C   C1187     1.0  0.11896  0.88606  0.92905  1.0000
  C   C1188     1.0  0.11049  0.90563  0.92295  1.0000
  C   C1189     1.0  0.11578  0.91515  0.90355  1.0000
  C   C1190     1.0  0.12951  0.90508  0.88999  1.0000
  C   C1191     1.0  0.13799  0.88550  0.89603  1.0000
  C   C1192     1.0  0.13283  0.87604  0.91551  1.0000
  H   H2112     1.0  0.09965  0.91344  0.93329  1.0000
  H   H2113     1.0  0.10903  0.93016  0.89905  1.0000
  H   H2114     1.0  0.14858  0.87756  0.88561  1.0000
  H   H2115     1.0  0.13937  0.86094  0.91997  1.0000
  N   N66       1.0  0.10297  0.89959  0.81151  1.0000
  C   C1193     1.0  0.10532  0.88306  0.79865  1.0000
  C   C1194     1.0  0.09943  0.89091  0.83317  1.0000
  C   C1195     1.0  0.08433  0.91347  0.80682  1.0000
  C   C1196     1.0  0.12069  0.91125  0.80779  1.0000
  C   C1197     1.0  0.14154  0.89977  0.80117  1.0000
  C   C1198     1.0  0.10545  0.89003  0.77594  1.0000
  C   C1199     1.0  0.07809  0.93095  0.81937  1.0000
  C   C1200     1.0  0.11638  0.87563  0.84127  1.0000
  C   C1201     1.0  0.04503  0.72893  0.93732  1.0000
  C   C1202     1.0  0.15845  0.91175  0.80225  1.0000
  C   C1203     1.0  0.11450  0.87339  0.76347  1.0000
  C   C1204     1.0  0.37586  0.66262  0.92587  1.0000
  H   H2116     1.0  0.09289  0.87375  0.80333  1.0000
  H   H2117     1.0  0.11907  0.87254  0.80076  1.0000
  H   H2118     1.0  0.09734  0.90286  0.84295  1.0000
  H   H2119     1.0  0.08535  0.88387  0.83616  1.0000
  H   H2120     1.0  0.07130  0.90496  0.80839  1.0000
  H   H2121     1.0  0.08632  0.92062  0.79105  1.0000
  H   H2122     1.0  0.11845  0.92414  0.79604  1.0000
  H   H2123     1.0  0.12178  0.91817  0.82129  1.0000
  H   H2124     1.0  0.14259  0.89687  0.78551  1.0000
  H   H2125     1.0  0.14447  0.88525  0.81043  1.0000
  H   H2126     1.0  0.08987  0.89485  0.77255  1.0000
  H   H2127     1.0  0.11397  0.90286  0.77098  1.0000
  H   H2128     1.0  0.09069  0.93973  0.81808  1.0000
  H   H2129     1.0  0.07356  0.92562  0.83528  1.0000
  H   H2130     1.0  0.12057  0.86303  0.83238  1.0000
  H   H2131     1.0  0.12973  0.88310  0.84143  1.0000
  H   H2132     1.0  0.30534  0.98318  0.84509  1.0000
  H   H2133     1.0  0.06376  0.95105  0.79625  1.0000
  H   H2134     1.0  0.43253  0.72217  0.90126  1.0000
  H   H2135     1.0  0.17303  0.90356  0.79665  1.0000
  H   H2136     1.0  0.15641  0.92648  0.79295  1.0000
  H   H2137     1.0  0.15886  0.91392  0.81793  1.0000
  H   H2138     1.0  0.42714  0.68900  0.91777  1.0000
  H   H2139     1.0  0.18669  0.93847  0.95862  1.0000
  S   S279      1.0  0.45376  0.76699  0.97296  1.0000
  H   H2140     1.0  0.40140  0.73336  0.96039  1.0000
  C   C1205     1.0  0.35751  0.98195  0.87798  1.0000
  H   H2141     1.0  0.04053  0.71395  0.93754  1.0000
  H   H2142     1.0  0.35803  0.95149  0.89294  1.0000
  H   H2143     1.0  0.43476  0.85693  0.94736  1.0000
  C   C1206     1.0  0.29757  0.97516  0.97940  1.0000
  H   H2144     1.0  0.02881  0.67386  0.87936  1.0000
  H   H2145     1.0  0.24986  0.95319  0.89063  1.0000
  H   H2146     1.0  0.32189  0.93586  0.94477  1.0000
  H   H2147     1.0  0.47544  0.80741  0.98025  1.0000
  H   H2148     1.0  0.41150  0.85192  0.92434  1.0000
  H   H2149     1.0  0.37598  0.91098  0.78977  1.0000
  H   H2150     1.0  0.03212  0.74048  0.93454  1.0000
  H   H2151     1.0  0.02382  0.74114  0.97273  1.0000
  C   C1207     1.0  0.39216  0.88674  0.90701  1.0000
  C   C1208     1.0  0.10590  0.93742  0.73433  1.0000
  H   H2152     1.0  0.10575  0.87889  0.87249  1.0000
  H   H2153     1.0  0.38174  0.82609  0.92642  1.0000
  C   C1209     1.0  0.32710  0.89002  0.93553  1.0000
  C   C1210     1.0  0.40488  0.95376  0.73188  1.0000
  H   H2154     1.0  0.14279  0.67153  0.91832  1.0000
  Fe  Fe140     1.0  0.43031  0.79335  0.96935  1.0000
  C   C1211     1.0  0.39775  0.85873  0.93317  1.0000
  H   H2155     1.0  0.39146  0.87545  0.95899  1.0000
  S   S280      1.0  0.43476  0.92618  0.74713  1.0000
  C   C1212     1.0  0.37983  0.85449  0.90616  1.0000
  H   H2156     1.0  0.25783  0.98042  0.91719  1.0000
  H   H2157     1.0  0.44421  0.68108  0.95470  1.0000
  H   H2158     1.0  0.36995  0.89551  0.88556  1.0000
  C   C1213     1.0  0.33912  0.66971  0.93997  1.0000
  H   H2159     1.0  0.37467  0.71185  0.97317  1.0000
  H   H2160     1.0  0.07502  0.94918  0.73317  1.0000
  S   S281      1.0  0.12445  0.76858  0.97843  1.0000
  H   H2161     1.0  0.16558  0.95930  0.92799  1.0000
  C   C1214     1.0  0.36454  0.83131  0.97517  1.0000
  H   H2162     1.0  0.40950  0.72411  0.91798  1.0000
  H   H2163     1.0  0.09708  0.85844  0.86364  1.0000
  H   H2164     1.0  0.26014  0.91803  0.94800  1.0000
  H   H2165     1.0  0.37683  0.94418  0.76896  1.0000
  H   H2166     1.0  0.18357  0.71077  0.95277  1.0000
  H   H2167     1.0  0.19541  0.87557  0.93478  1.0000
  C   C1215     1.0  0.16986  0.71086  0.96391  1.0000
  H   H2168     1.0  0.42498  0.69065  0.89193  1.0000
  C   C1216     1.0  0.37127  0.83528  0.91673  1.0000
  C   C1217     1.0  0.10997  0.86688  0.86278  1.0000
  H   H2169     1.0  0.36270  0.95345  0.86603  1.0000
  C   C1218     1.0  0.21024  0.95117  0.96892  1.0000
  H   H2170     1.0  0.23032  0.96781  0.87779  1.0000
  H   H2171     1.0  0.02441  0.67880  0.90493  1.0000
  H   H2172     1.0  0.46872  0.79610  0.88179  1.0000
  C   C1219     1.0  0.16858  0.67689  0.95735  1.0000
  H   H2173     1.0  0.15733  0.71725  0.95520  1.0000
  H   H2174     1.0  0.11376  0.87892  0.74744  1.0000
  H   H2175     1.0  0.32219  0.87558  0.94273  1.0000
  H   H2176     1.0  0.47772  0.81913  0.90289  1.0000
  C   C1220     1.0  0.03551  0.72806  0.97489  1.0000
  H   H2177     1.0  0.36218  0.80847  0.90943  1.0000
  H   H2178     1.0  0.32540  0.68067  0.93932  1.0000
  H   H2179     1.0  0.40882  0.88342  0.90470  1.0000
  H   H2180     1.0  0.18251  0.67860  0.94681  1.0000
  C   C1221     1.0  0.25484  0.97822  0.93370  1.0000
  H   H2181     1.0  0.39205  0.69279  0.92785  1.0000
  C   C1222     1.0  0.47830  0.98121  0.81778  1.0000
  Fe  Fe141     1.0  0.12587  0.84615  0.97009  1.0000
  N   N67       1.0  0.39360  0.66809  0.91096  1.0000
  H   H2182     1.0  0.38250  0.81778  0.89231  1.0000
  H   H2183     1.0  0.20783  0.69829  0.97275  1.0000
  C   C1223     1.0  0.41699  0.71828  0.90407  1.0000
  H   H2184     1.0  0.41748  0.65956  0.96765  1.0000
  H   H2185     1.0  0.16933  0.67065  0.91799  1.0000
  H   H2186     1.0  0.33774  0.95976  0.87845  1.0000
  H   H2187     1.0  0.05763  0.74537  0.95551  1.0000
  H   H2188     1.0  0.17533  0.75710  0.97705  1.0000
  C   C1224     1.0  0.34569  0.93765  0.77423  1.0000
  H   H2189     1.0  0.35140  0.68015  0.91032  1.0000
  H   H2190     1.0  0.16512  0.75202  0.95587  1.0000
  C   C1225     1.0  0.38268  0.81924  0.97771  1.0000
  H   H2191     1.0  0.42030  0.65967  0.87607  1.0000
  C   C1226     1.0  0.05236  0.73057  0.95697  1.0000
  H   H2192     1.0  0.28484  0.87955  0.96355  1.0000
  H   H2193     1.0  0.36977  0.90094  0.76875  1.0000
  H   H2194     1.0  0.24377  0.96483  0.97043  1.0000
  Fe  Fe142     1.0  0.11726  0.97347  0.81413  1.0000
  C   C1227     1.0  0.17596  0.74601  0.96659  1.0000
  S   S282      1.0  0.31502  0.97294  0.92025  1.0000
  H   H2195     1.0  0.37980  0.66083  0.94127  1.0000
  C   C1228     1.0  0.11132  0.73506  0.96995  1.0000
  C   C1229     1.0  0.36794  0.93334  0.76509  1.0000
  C   C1230     1.0  0.35389  0.96031  0.87884  1.0000
  H   H2196     1.0  0.13311  0.97152  0.91474  1.0000
  S   S283      1.0  0.10083  0.97409  0.78693  1.0000
  H   H2197     1.0  0.04691  0.93683  0.81381  1.0000
  H   H2198     1.0  0.35732  0.83090  0.96226  1.0000
  H   H2199     1.0  0.36985  0.93429  0.74870  1.0000
  H   H2200     1.0  0.45477  0.98022  0.75647  1.0000
  C   C1231     1.0  0.40050  0.66247  0.85412  1.0000
  H   H2201     1.0  0.13677  0.67750  0.95356  1.0000
  H   H2202     1.0  0.41688  0.84617  0.96678  1.0000
  N   N68       1.0  0.16708  0.68996  0.97358  1.0000
  H   H2203     1.0  0.39153  0.84618  0.94310  1.0000
  C   C1232     1.0  0.15515  0.66785  0.92768  1.0000
  H   H2204     1.0  0.26530  0.86400  0.96573  1.0000
  C   C1233     1.0  0.25986  0.91593  0.96444  1.0000
  C   C1234     1.0  0.41390  0.67561  0.96596  1.0000
  H   H2205     1.0  0.10604  0.86038  0.76765  1.0000
  C   C1235     1.0  0.36388  0.87622  0.93209  1.0000
  H   H2206     1.0  0.26883  0.88235  0.94414  1.0000
  H   H2207     1.0  0.36659  0.88722  0.94148  1.0000
  H   H2208     1.0  0.13046  0.86869  0.76551  1.0000
  H   H2209     1.0  0.41110  0.91065  0.87499  1.0000
  H   H2210     1.0  0.48438  0.84500  0.87550  1.0000
  N   N69       1.0  0.38299  0.86924  0.91940  1.0000
  S   S284      1.0  0.01871  0.67880  0.95492  1.0000
  H   H2211     1.0  0.12481  0.94745  0.92358  1.0000
  H   H2212     1.0  0.17857  0.96162  0.96873  1.0000
  H   H2213     1.0  0.40379  0.96037  0.74541  1.0000
  H   H2214     1.0  0.31269  0.96380  0.74298  1.0000
  H   H2215     1.0  0.40792  0.68465  0.86961  1.0000
  H   H2216     1.0  0.05652  0.95753  0.82104  1.0000
  H   H2217     1.0  0.10154  0.70802  0.96412  1.0000
  H   H2218     1.0  0.17012  0.66082  0.96356  1.0000
  H   H2219     1.0  0.45322  0.97777  0.85582  1.0000
  H   H2220     1.0  0.34534  0.92882  0.73382  1.0000
  H   H2221     1.0  0.37565  0.97838  0.81254  1.0000
  H   H2222     1.0  0.38636  0.97225  0.88810  1.0000
  H   H2223     1.0  0.47973  0.81480  0.86386  1.0000
  H   H2224     1.0  0.33586  0.65539  0.93622  1.0000
  H   H2225     1.0  0.15722  0.93533  0.93641  1.0000
  H   H2226     1.0  0.34962  0.90126  0.91317  1.0000
  C   C1236     1.0  0.42129  0.86031  0.95821  1.0000
  H   H2227     1.0  0.39292  0.88160  0.87594  1.0000
  H   H2228     1.0  0.42075  0.97131  0.87354  1.0000
  H   H2229     1.0  0.12261  0.85657  0.86856  1.0000
  H   H2230     1.0  0.07271  0.96850  0.76166  1.0000
  C   C1237     1.0  0.40414  0.87163  0.94739  1.0000
  N   N70       1.0  0.18525  0.93215  0.90030  1.0000
  C   C1238     1.0  0.19896  0.94750  0.90050  1.0000
  C   C1239     1.0  0.16391  0.94202  0.90363  1.0000
  C   C1240     1.0  0.18949  0.91510  0.91641  1.0000
  C   C1241     1.0  0.18850  0.92413  0.88052  1.0000
  C   C1242     1.0  0.18871  0.93996  0.86173  1.0000
  C   C1243     1.0  0.22171  0.94061  0.89578  1.0000
  C   C1244     1.0  0.17521  0.89887  0.91974  1.0000
  C   C1245     1.0  0.15651  0.94833  0.92463  1.0000
  H   H2231     1.0  0.48121  0.85185  0.91026  1.0000
  C   C1246     1.0  0.19163  0.93007  0.84275  1.0000
  C   C1247     1.0  0.23355  0.95843  0.89194  1.0000
  C   C1248     1.0  0.17985  0.88317  0.93737  1.0000
  H   H2232     1.0  0.19693  0.95273  0.91537  1.0000
  H   H2233     1.0  0.19489  0.96111  0.89010  1.0000
  H   H2234     1.0  0.16183  0.95576  0.89286  1.0000
  H   H2235     1.0  0.15333  0.93238  0.90037  1.0000
  H   H2236     1.0  0.18941  0.92070  0.93084  1.0000
  H   H2237     1.0  0.20489  0.90728  0.91298  1.0000
  H   H2238     1.0  0.20264  0.91367  0.87896  1.0000
  H   H2239     1.0  0.17653  0.91490  0.87975  1.0000
  H   H2240     1.0  0.20108  0.94911  0.86056  1.0000
  H   H2241     1.0  0.17440  0.95005  0.86200  1.0000
  H   H2242     1.0  0.22709  0.93038  0.90862  1.0000
  H   H2243     1.0  0.22531  0.93277  0.88241  1.0000
  H   H2244     1.0  0.17687  0.89109  0.90636  1.0000
  H   H2245     1.0  0.15932  0.90530  0.92290  1.0000
  H   H2246     1.0  0.41463  0.65671  0.93180  1.0000
  N   N71       1.0  0.24596  0.93251  0.97360  1.0000
  C   C1249     1.0  0.31501  0.94682  0.95441  1.0000
  H   H2247     1.0  0.30827  0.93373  0.79363  1.0000
  H   H2248     1.0  0.24366  0.95016  0.93528  1.0000
  H   H2249     1.0  0.17926  0.92114  0.84279  1.0000
  H   H2250     1.0  0.19160  0.94172  0.82958  1.0000
  H   H2251     1.0  0.20615  0.92025  0.84139  1.0000
  C   C1250     1.0  0.41752  0.69566  0.90611  1.0000
  H   H2252     1.0  0.34612  0.93860  0.79026  1.0000
  C   C1251     1.0  0.37726  0.91260  0.77325  1.0000
  H   H2253     1.0  0.17778  0.89007  0.95136  1.0000
  H   H2254     1.0  0.16943  0.87175  0.93934  1.0000
  H   H2255     1.0  0.31493  0.89860  0.92746  1.0000
  C   C1252     1.0  0.39450  0.91254  0.87612  1.0000
  H   H2256     1.0  0.19130  0.74409  0.95833  1.0000
  N   N72       1.0  0.33330  0.95585  0.76481  1.0000
  C   C1253     1.0  0.01239  0.67018  0.98028  1.0000
  H   H2257     1.0  0.05734  0.73106  0.92487  1.0000
  H   H2258     1.0  0.34294  0.87738  0.91002  1.0000
  H   H2259     1.0  0.35714  0.83023  0.89164  1.0000
  H   H2260     1.0  0.39027  0.91663  0.86084  1.0000
  H   H2261     1.0  0.35868  0.86369  0.94296  1.0000
  C   C1254     1.0  0.36808  0.82221  0.90152  1.0000
  H   H2262     1.0  0.32959  0.89858  0.94731  1.0000
  C   C1255     1.0  0.34622  0.88648  0.92093  1.0000
  H   H2263     1.0  0.40892  0.72562  0.89145  1.0000
  C   C1256     1.0  0.30996  0.96662  0.94619  1.0000
  C   C1257     1.0  0.08798  0.94894  0.74064  1.0000
  H   H2264     1.0  0.32358  0.96613  0.79361  1.0000
  H   H2265     1.0  0.12984  0.96272  0.94103  1.0000
  C   C1258     1.0  0.38987  0.70509  0.96916  1.0000
  C   C1259     1.0  0.25554  0.95600  0.94126  1.0000
  H   H2266     1.0  0.20839  0.67477  0.96374  1.0000
  C   C1260     1.0  0.15110  0.68087  0.94450  1.0000
  H   H2267     1.0  0.38949  0.80976  0.96663  1.0000
  H   H2268     1.0  0.27597  0.94639  0.81255  1.0000
  H   H2269     1.0  0.38629  0.67124  0.85002  1.0000
  H   H2270     1.0  0.27557  0.91639  0.96702  1.0000
  C   C1261     1.0  0.13475  0.95811  0.92599  1.0000
  H   H2271     1.0  0.00381  0.67495  0.89270  1.0000
  C   C1262     1.0  0.17064  0.72623  0.97824  1.0000
  S   S285      1.0  0.13435  0.97565  0.86617  1.0000
  C   C1263     1.0  0.02597  0.97871  0.73516  1.0000
  H   H2272     1.0  0.02825  0.96221  0.73589  1.0000
  H   H2273     1.0  0.47209  0.85627  0.94597  1.0000
  C   C1264     1.0  0.36028  0.97935  0.81947  1.0000
  H   H2274     1.0  0.42510  0.86950  0.96882  1.0000
  C   C1265     1.0  0.48837  0.85385  0.94717  1.0000
  H   H2275     1.0  0.48734  0.78879  0.86181  1.0000
  C   C1266     1.0  0.22477  0.93135  0.97018  1.0000
  H   H2276     1.0  0.99923  0.65261  0.92472  1.0000
  C   C1267     1.0  0.35337  0.98257  0.77224  1.0000
  H   H2277     1.0  0.31424  0.93838  0.75380  1.0000
  C   C1268     1.0  0.25335  0.95199  0.96437  1.0000
  H   H2278     1.0  0.23935  0.89292  0.96852  1.0000
  Fe  Fe143     1.0  0.13266  0.80024  0.97812  1.0000
  H   H2279     1.0  0.13508  0.69813  0.97719  1.0000
  S   S286      1.0  0.37466  0.66961  0.98010  1.0000
  H   H2280     1.0  0.35824  0.96801  0.74593  1.0000
  H   H2281     1.0  0.26835  0.95268  0.96863  1.0000
  C   C1269     1.0  0.32335  0.95076  0.74826  1.0000
  H   H2282     1.0  0.29111  0.94845  0.77778  1.0000
  C   C1270     1.0  0.30107  0.94903  0.78906  1.0000
  H   H2283     1.0  0.30880  0.97778  0.77471  1.0000
  H   H2284     1.0  0.28025  0.97172  0.80345  1.0000
  C   C1271     1.0  0.20491  0.68261  0.97714  1.0000
  C   C1272     1.0  0.30123  0.98082  0.95871  1.0000
  C   C1273     1.0  0.31696  0.96323  0.78055  1.0000
  C   C1274     1.0  0.28770  0.95633  0.80725  1.0000
  H   H2285     1.0  0.29664  0.95613  0.81959  1.0000
  C   C1275     1.0  0.34527  0.97283  0.75660  1.0000
  H   H2286     1.0  0.36082  0.97098  0.78272  1.0000
  C   C1276     1.0  0.32061  0.98214  0.83784  1.0000
  H   H2287     1.0  0.02753  0.98266  0.74996  1.0000
  Fe  Fe144     1.0  0.85936  0.09908  0.00296  1.0000
  S   S287      1.0  0.83700  0.12078  0.01860  1.0000
  S   S288      1.0  0.87222  0.06915  0.01828  1.0000
  Fe  Fe145     1.0  0.85558  0.14469  0.00276  1.0000
  S   S289      1.0  0.87151  0.16453  0.01806  1.0000
  C   C1277     1.0  0.79388  0.03126  0.03204  1.0000
  Fe  Fe146     1.0  0.84820  0.99947  0.11996  1.0000
  H   H2288     1.0  0.54271  0.08268  0.01438  1.0000
  S   S290      1.0  0.83774  0.03036  0.10460  1.0000
  H   H2289     1.0  0.64284  0.11006  0.03238  1.0000
  H   H2290     1.0  0.68738  0.10075  0.02027  1.0000
  H   H2291     1.0  0.87211  0.30982  0.22154  1.0000
  Fe  Fe147     1.0  0.89849  0.27653  0.02547  1.0000
  S   S291      1.0  0.92196  0.28170  0.99923  1.0000
  S   S292      1.0  0.87431  0.25734  0.02222  1.0000
  H   H2292     1.0  0.77683  0.02387  0.11465  1.0000
  H   H2293     1.0  0.74769  0.99565  0.05204  1.0000
  C   C1278     1.0  0.66850  0.02892  0.08070  1.0000
  S   S293      1.0  0.87903  0.12232  0.98873  1.0000
  H   H2294     1.0  0.86988  0.01573  0.07477  1.0000
  Fe  Fe148     1.0  0.94226  0.28343  0.02173  1.0000
  S   S294      1.0  0.97492  0.27094  0.01492  1.0000
  C   C1279     1.0  0.50017  0.10229  0.07644  1.0000
  S   S295      1.0  0.91933  0.27610  0.04854  1.0000
  Fe  Fe149     1.0  0.54890  0.05532  0.16010  1.0000
  S   S296      1.0  0.55847  0.02852  0.14397  1.0000
  S   S297      1.0  0.53651  0.08580  0.14488  1.0000
  H   H2295     1.0  0.51095  0.08779  0.03599  1.0000
  S   S298      1.0  0.57278  0.00455  0.18616  1.0000
  Fe  Fe150     1.0  0.58556  0.02463  0.15988  1.0000
  S   S299      1.0  0.61519  0.02026  0.14039  1.0000
  Fe  Fe151     1.0  0.54451  0.01099  0.17168  1.0000
  S   S300      1.0  0.82976  0.99026  0.14934  1.0000
  S   S301      1.0  0.57686  0.05236  0.17472  1.0000
  S   S302      1.0  0.53259  0.03801  0.18685  1.0000
  Fe  Fe152     1.0  0.56049  0.19465  0.02610  1.0000
  S   S303      1.0  0.55229  0.19542  0.99550  1.0000
  S   S304      1.0  0.56416  0.22388  0.03635  1.0000
  Fe  Fe153     1.0  0.55946  0.14940  0.03647  1.0000
  S   S305      1.0  0.55109  0.14716  0.00633  1.0000
  S   S306      1.0  0.56609  0.11887  0.05475  1.0000
  Fe  Fe154     1.0  0.57404  0.16759  0.99436  1.0000
  H   H2296     1.0  0.65607  0.00620  0.01886  1.0000
  Fe  Fe155     1.0  0.52994  0.17492  0.00999  1.0000
  H   H2297     1.0  0.53149  0.08799  0.04962  1.0000
  S   S307      1.0  0.58419  0.16811  0.02391  1.0000
  S   S308      1.0  0.53629  0.17605  0.04118  1.0000
  H   H2298     1.0  0.66779  0.01022  0.13357  1.0000
  H   H2299     1.0  0.78233  0.06443  0.99138  1.0000
  C   C1280     1.0  0.69806  0.00802  0.14112  1.0000
  H   H2300     1.0  0.74162  0.01726  0.11484  1.0000
  H   H2301     1.0  0.66535  0.11916  0.99581  1.0000
  H   H2302     1.0  0.61054  0.10072  0.13119  1.0000
  H   H2303     1.0  0.49669  0.17688  0.06716  1.0000
  H   H2304     1.0  0.50380  0.08339  0.11492  1.0000
  C   C1281     1.0  0.74349  0.00319  0.12526  1.0000
  C   C1282     1.0  0.69585  0.12721  0.98593  1.0000
  H   H2305     1.0  0.74920  0.00591  0.08486  1.0000
  C   C1283     1.0  0.55628  0.11026  0.07952  1.0000
  C   C1284     1.0  0.55843  0.08964  0.08578  1.0000
  C   C1285     1.0  0.55235  0.08200  0.10569  1.0000
  C   C1286     1.0  0.54389  0.09491  0.11957  1.0000
  C   C1287     1.0  0.54085  0.11551  0.11310  1.0000
  C   C1288     1.0  0.54709  0.12319  0.09318  1.0000
  H   H2306     1.0  0.56498  0.07953  0.07516  1.0000
  H   H2307     1.0  0.55407  0.06611  0.11038  1.0000
  H   H2308     1.0  0.67900  0.03313  0.12713  1.0000
  H   H2309     1.0  0.91408  0.11498  0.03891  1.0000
  C   C1289     1.0  0.63208  0.09899  0.03664  1.0000
  H   H2310     1.0  0.88308  0.03146  0.04116  1.0000
  C   C1290     1.0  0.51402  0.11737  0.04372  1.0000
  C   C1291     1.0  0.74655  0.98467  0.06571  1.0000
  H   H2311     1.0  0.77856  0.03472  0.04003  1.0000
  H   H2312     1.0  0.79973  0.99775  0.06040  1.0000
  H   H2313     1.0  0.62292  0.08967  0.09815  1.0000
  H   H2314     1.0  0.58965  0.05051  0.06213  1.0000
  C   C1292     1.0  0.60225  0.26822  0.99637  1.0000
  H   H2315     1.0  0.83022  0.99236  0.20758  1.0000
  C   C1293     1.0  0.59243  0.23469  0.00459  1.0000
  C   C1294     1.0  0.57864  0.24080  0.02050  1.0000
  C   C1295     1.0  0.57638  0.26080  0.02398  1.0000
  C   C1296     1.0  0.58791  0.27452  0.01175  1.0000
  C   C1297     1.0  0.49102  0.16434  0.98610  1.0000
  H   H2316     1.0  0.59426  0.21936  0.00171  1.0000
  H   H2317     1.0  0.56556  0.26569  0.03610  1.0000
  H   H2318     1.0  0.58594  0.28988  0.01431  1.0000
  C   C1298     1.0  0.67794  0.00318  0.99290  1.0000
  H   H2319     1.0  0.90296  0.12921  0.12304  1.0000
  H   H2320     1.0  0.81253  0.00899  0.07619  1.0000
  H   H2321     1.0  0.61943  0.22269  0.07902  1.0000
  C   C1299     1.0  0.76612  0.99484  0.12313  1.0000
  C   C1300     1.0  0.86870  0.00942  0.20275  1.0000
  C   C1301     1.0  0.59779  0.03931  0.07259  1.0000
  H   H2322     1.0  0.67211  0.01712  0.98483  1.0000
  C   C1302     1.0  0.90648  0.10303  0.03523  1.0000
  H   H2323     1.0  0.85904  0.01528  0.19149  1.0000
  C   C1303     1.0  0.87250  0.19059  0.01768  1.0000
  C   C1304     1.0  0.85699  0.20525  0.01214  1.0000
  C   C1305     1.0  0.85794  0.22552  0.01346  1.0000
  C   C1306     1.0  0.87453  0.23156  0.01995  1.0000
  C   C1307     1.0  0.89034  0.21696  0.02485  1.0000
  C   C1308     1.0  0.88921  0.19665  0.02391  1.0000
  H   H2324     1.0  0.84396  0.20093  0.00745  1.0000
  H   H2325     1.0  0.84558  0.23661  0.00966  1.0000
  H   H2326     1.0  0.90317  0.22126  0.02995  1.0000
  H   H2327     1.0  0.65875  0.26274  0.03883  1.0000
  C   C1309     1.0  0.86169  0.05801  0.04178  1.0000
  C   C1310     1.0  0.84526  0.06776  0.05291  1.0000
  C   C1311     1.0  0.83786  0.05885  0.07195  1.0000
  C   C1312     1.0  0.84675  0.04012  0.08003  1.0000
  C   C1313     1.0  0.86289  0.03016  0.06871  1.0000
  C   C1314     1.0  0.87037  0.03912  0.04969  1.0000
  H   H2328     1.0  0.83850  0.08230  0.04700  1.0000
  H   H2329     1.0  0.82537  0.06664  0.08065  1.0000
  H   H2330     1.0  0.92220  0.10515  0.00512  1.0000
  C   C1315     1.0  0.80144  0.06641  0.02166  1.0000
  H   H2331     1.0  0.63053  0.29783  0.02022  1.0000
  C   C1316     1.0  0.77895  0.01050  0.12588  1.0000
  H   H2332     1.0  0.67015  0.02469  0.15271  1.0000
  C   C1317     1.0  0.61486  0.10673  0.99080  1.0000
  C   C1318     1.0  0.78395  0.07614  0.03581  1.0000
  Fe  Fe156     1.0  0.82158  0.12427  0.99092  1.0000
  H   H2333     1.0  0.55050  0.10483  0.02024  1.0000
  N   N73       1.0  0.79809  0.04731  0.01481  1.0000
  S   S309      1.0  0.49895  0.18056  0.00033  1.0000
  C   C1319     1.0  0.79066  0.09199  0.04595  1.0000
  H   H2334     1.0  0.83993  0.03925  0.01892  1.0000
  H   H2335     1.0  0.80457  0.07777  0.00848  1.0000
  H   H2336     1.0  0.81503  0.06422  0.02922  1.0000
  H   H2337     1.0  0.50372  0.14027  0.07381  1.0000
  C   C1320     1.0  0.65512  0.27610  0.02807  1.0000
  C   C1321     1.0  0.60203  0.04934  0.09015  1.0000
  H   H2338     1.0  0.70942  0.01409  0.11008  1.0000
  Fe  Fe157     1.0  0.91364  0.31423  0.00131  1.0000
  C   C1322     1.0  0.80874  0.02684  0.04769  1.0000
  C   C1323     1.0  0.53001  0.26200  0.00535  1.0000
  C   C1324     1.0  0.60431  0.24830  0.99274  1.0000
  C   C1325     1.0  0.75795  0.10212  0.98585  1.0000
  H   H2339     1.0  0.77780  0.06505  0.04775  1.0000
  H   H2340     1.0  0.53711  0.27483  0.00786  1.0000
  H   H2341     1.0  0.49921  0.15701  0.03849  1.0000
  H   H2342     1.0  0.93614  0.15500  0.98695  1.0000
  C   C1326     1.0  0.66089  0.27003  0.00718  1.0000
  H   H2343     1.0  0.64823  0.08309  0.05988  1.0000
  C   C1327     1.0  0.63586  0.30658  0.05578  1.0000
  C   C1328     1.0  0.68633  0.09492  0.00622  1.0000
  H   H2344     1.0  0.57024  0.02885  0.08836  1.0000
  H   H2345     1.0  0.59780  0.08426  0.15022  1.0000
  H   H2346     1.0  0.60250  0.08215  0.06244  1.0000
  H   H2347     1.0  0.79781  0.10314  0.03475  1.0000
  H   H2348     1.0  0.77749  0.09987  0.05452  1.0000
  S   S310      1.0  0.87772  0.98779  0.13143  1.0000
  H   H2349     1.0  0.61164  0.03272  0.06404  1.0000
  H   H2350     1.0  0.67837  0.04083  0.07826  1.0000
  C   C1329     1.0  0.67754  0.01975  0.13835  1.0000
  H   H2351     1.0  0.64839  0.06419  0.08949  1.0000
  C   C1330     1.0  0.51213  0.25982  0.02154  1.0000
  H   H2352     1.0  0.76906  0.02285  0.00679  1.0000
  H   H2353     1.0  0.51736  0.25759  0.03642  1.0000
  H   H2354     1.0  0.59511  0.28506  0.04884  1.0000
  H   H2355     1.0  0.69513  0.13434  0.99969  1.0000
  C   C1331     1.0  0.75736  0.04134  0.98200  1.0000
  H   H2356     1.0  0.81808  0.30156  0.01785  1.0000
  S   S311      1.0  0.64543  0.07768  0.98266  1.0000
  C   C1332     1.0  0.50348  0.98447  0.17048  1.0000
  H   H2357     1.0  0.61685  0.10673  0.03452  1.0000
  C   C1333     1.0  0.90984  0.12305  0.10911  1.0000
  H   H2358     1.0  0.91598  0.13525  0.09843  1.0000
  H   H2359     1.0  0.52968  0.10665  0.00604  1.0000
  H   H2360     1.0  0.65201  0.30113  0.05627  1.0000
  H   H2361     1.0  0.85342  0.01702  0.99294  1.0000
  H   H2362     1.0  0.58137  0.01615  0.06730  1.0000
  H   H2363     1.0  0.62105  0.06437  0.12784  1.0000
  H   H2364     1.0  0.53451  0.00189  0.22537  1.0000
  C   C1334     1.0  0.66887  0.99697  0.01219  1.0000
  H   H2365     1.0  0.61646  0.24091  0.09605  1.0000
  H   H2366     1.0  0.92227  0.11121  0.11275  1.0000
  H   H2367     1.0  0.79365  0.01684  0.02647  1.0000
  H   H2368     1.0  0.96213  0.24306  0.99070  1.0000
  H   H2369     1.0  0.74403  0.04878  0.99077  1.0000
  H   H2370     1.0  0.95941  0.21772  0.98801  1.0000
  C   C1335     1.0  0.62480  0.23645  0.08184  1.0000
  H   H2371     1.0  0.77152  0.99021  0.10821  1.0000
  H   H2372     1.0  0.56610  0.30956  0.03894  1.0000
  H   H2373     1.0  0.55851  0.99350  0.10352  1.0000
  C   C1336     1.0  0.87277  0.02191  0.21591  1.0000
  C   C1337     1.0  0.85335  0.03342  0.98967  1.0000
  H   H2374     1.0  0.67692  0.26368  0.00512  1.0000
  S   S312      1.0  0.88847  0.30956  0.02576  1.0000
  C   C1338     1.0  0.63265  0.08999  0.05837  1.0000
  C   C1339     1.0  0.80143  0.01206  0.06539  1.0000
  H   H2375     1.0  0.50489  0.24664  0.02019  1.0000
  H   H2376     1.0  0.62366  0.27384  0.02765  1.0000
  C   C1340     1.0  0.50209  0.14589  0.98305  1.0000
  H   H2377     1.0  0.63626  0.08722  0.02666  1.0000
  H   H2378     1.0  0.62103  0.27607  0.08275  1.0000
  H   H2379     1.0  0.75161  0.10268  0.00123  1.0000
  C   C1341     1.0  0.68043  0.11198  0.99020  1.0000
  H   H2380     1.0  0.56023  0.30940  0.99407  1.0000
  H   H2381     1.0  0.64862  0.04384  0.06021  1.0000
  H   H2382     1.0  0.59558  0.06190  0.12555  1.0000
  H   H2383     1.0  0.50264  0.08701  0.07205  1.0000
  H   H2384     1.0  0.64103  0.23306  0.08325  1.0000
  H   H2385     1.0  0.82351  0.01997  0.04106  1.0000
  H   H2386     1.0  0.51446  0.10449  0.08142  1.0000
  C   C1342     1.0  0.62120  0.25292  0.06458  1.0000
  H   H2387     1.0  0.86625  0.03737  0.21459  1.0000
  C   C1343     1.0  0.63771  0.05328  0.08991  1.0000
  Fe  Fe158     1.0  0.56170  0.03254  0.20006  1.0000
  C   C1344     1.0  0.49101  0.13771  0.06633  1.0000
  H   H2388     1.0  0.65174  0.25861  0.00487  1.0000
  H   H2389     1.0  0.67482  0.08455  0.00929  1.0000
  C   C1345     1.0  0.83682  0.04409  0.00346  1.0000
  C   C1346     1.0  0.70873  0.00063  0.12136  1.0000
  C   C1347     1.0  0.62859  0.27246  0.06791  1.0000
  H   H2390     1.0  0.72393  0.00413  0.08110  1.0000
  H   H2391     1.0  0.67494  0.01755  0.07067  1.0000
  N   N74       1.0  0.49545  0.11763  0.05886  1.0000
  C   C1348     1.0  0.60267  0.29658  0.05350  1.0000
  C   C1349     1.0  0.81515  0.99139  0.21616  1.0000
  H   H2392     1.0  0.60983  0.09618  0.00328  1.0000
  C   C1350     1.0  0.77431  0.03439  0.99474  1.0000
  H   H2393     1.0  0.54523  0.13910  0.08856  1.0000
  H   H2394     1.0  0.59743  0.08936  0.09535  1.0000
  H   H2395     1.0  0.58721  0.05682  0.09600  1.0000
  H   H2396     1.0  0.78718  0.02734  0.98513  1.0000
  H   H2397     1.0  0.60233  0.02076  0.22759  1.0000
  H   H2398     1.0  0.58492  0.09716  0.13001  1.0000
  Fe  Fe159     1.0  0.91094  0.30975  0.04690  1.0000
  C   C1351     1.0  0.53730  0.09786  0.01838  1.0000
  H   H2399     1.0  0.91729  0.07946  0.05701  1.0000
  H   H2400     1.0  0.62878  0.10255  0.06735  1.0000
  H   H2401     1.0  0.63677  0.04529  0.10535  1.0000
  H   H2402     1.0  0.62921  0.24731  0.05077  1.0000
  C   C1352     1.0  0.61120  0.07966  0.09959  1.0000
  N   N75       1.0  0.61739  0.06386  0.08580  1.0000
  H   H2403     1.0  0.77173  0.08358  0.02721  1.0000
  H   H2404     1.0  0.70701  0.01794  0.14646  1.0000
  H   H2405     1.0  0.50098  0.27341  0.02050  1.0000
  C   C1353     1.0  0.60714  0.07218  0.12221  1.0000
  H   H2406     1.0  0.67088  0.16048  0.98596  1.0000
  H   H2407     1.0  0.83793  0.06030  0.99999  1.0000
  C   C1354     1.0  0.64740  0.03748  0.07615  1.0000
  C   C1355     1.0  0.63851  0.99002  0.12323  1.0000
  H   H2408     1.0  0.61707  0.98648  0.17158  1.0000
  H   H2409     1.0  0.81649  0.02374  0.99984  1.0000
  H   H2410     1.0  0.80141  0.08501  0.05642  1.0000
  C   C1356     1.0  0.87647  0.98923  0.20476  1.0000
  H   H2411     1.0  0.52599  0.12336  0.04951  1.0000
  H   H2412     1.0  0.79501  0.00420  0.12388  1.0000
  H   H2413     1.0  0.60597  0.03738  0.10234  1.0000
  H   H2414     1.0  0.66476  0.28744  0.02937  1.0000
  H   H2415     1.0  0.62134  0.06366  0.05365  1.0000
  H   H2416     1.0  0.70089  0.08639  0.00110  1.0000
  H   H2417     1.0  0.81058  0.04046  0.05380  1.0000
  H   H2418     1.0  0.90129  0.18551  0.02832  1.0000
  H   H2419     1.0  0.64479  0.26910  0.06962  1.0000
  H   H2420     1.0  0.91212  0.14603  0.99461  1.0000
  H   H2421     1.0  0.59597  0.29779  0.06921  1.0000
  N   N76       1.0  0.62495  0.29008  0.05221  1.0000
  H   H2422     1.0  0.63025  0.30442  0.08855  1.0000
  H   H2423     1.0  0.65866  0.28319  0.99571  1.0000
  H   H2424     1.0  0.76642  0.05744  0.01361  1.0000
  H   H2425     1.0  0.73973  0.00785  0.14041  1.0000
  H   H2426     1.0  0.63852  0.02481  0.07864  1.0000
  H   H2427     1.0  0.66803  0.02155  0.09631  1.0000
  H   H2428     1.0  0.53748  0.99591  0.12279  1.0000
  S   S313      1.0  0.78819  0.12055  0.99509  1.0000
  H   H2429     1.0  0.63915  0.00040  0.10968  1.0000
  H   H2430     1.0  0.53406  0.12561  0.12368  1.0000
  N   N77       1.0  0.72936  0.98917  0.12226  1.0000
  H   H2431     1.0  0.93475  0.08725  0.02275  1.0000
  N   N78       1.0  0.89015  0.09462  0.07192  1.0000
  C   C1357     1.0  0.88454  0.07663  0.08618  1.0000
  C   C1358     1.0  0.87147  0.10749  0.06567  1.0000
  C   C1359     1.0  0.90239  0.08711  0.05357  1.0000
  C   C1360     1.0  0.90293  0.10654  0.08052  1.0000
  C   C1361     1.0  0.89405  0.11454  0.10037  1.0000
  C   C1362     1.0  0.90212  0.06145  0.09328  1.0000
  C   C1363     1.0  0.85267  0.10910  0.08163  1.0000
  C   C1364     1.0  0.83634  0.12527  0.07456  1.0000
  C   C1365     1.0  0.73856  0.99543  0.08388  1.0000
  C   C1366     1.0  0.89433  0.04447  0.10819  1.0000
  H   H2432     1.0  0.87522  0.06834  0.07914  1.0000
  H   H2433     1.0  0.87493  0.08095  0.09980  1.0000
  H   H2434     1.0  0.87485  0.12285  0.05955  1.0000
  H   H2435     1.0  0.86636  0.10161  0.05321  1.0000
  H   H2436     1.0  0.89497  0.07564  0.04855  1.0000
  H   H2437     1.0  0.91779  0.09776  0.08247  1.0000
  H   H2438     1.0  0.90637  0.11990  0.06987  1.0000
  H   H2439     1.0  0.88826  0.10278  0.11177  1.0000
  H   H2440     1.0  0.88188  0.12693  0.09768  1.0000
  H   H2441     1.0  0.91120  0.05460  0.08060  1.0000
  H   H2442     1.0  0.91192  0.06870  0.10074  1.0000
  H   H2443     1.0  0.84626  0.09478  0.08464  1.0000
  H   H2444     1.0  0.85606  0.11244  0.09595  1.0000
  H   H2445     1.0  0.82346  0.12652  0.08655  1.0000
  H   H2446     1.0  0.84204  0.13995  0.07077  1.0000
  H   H2447     1.0  0.83092  0.12141  0.06132  1.0000
  H   H2448     1.0  0.60492  0.25522  0.06347  1.0000
  C   C1367     1.0  0.61775  0.07437  0.06472  1.0000
  C   C1368     1.0  0.63263  0.28463  0.03162  1.0000
  H   H2449     1.0  0.88544  0.05027  0.12158  1.0000
  H   H2450     1.0  0.88478  0.03635  0.10128  1.0000
  H   H2451     1.0  0.90712  0.03372  0.11303  1.0000
  C   C1369     1.0  0.78000  0.05202  0.00373  1.0000
  H   H2452     1.0  0.59107  0.12975  0.99813  1.0000
  H   H2453     1.0  0.50177  0.01138  0.14971  1.0000
  C   C1370     1.0  0.49409  0.99900  0.15705  1.0000
  H   H2454     1.0  0.89234  0.11003  0.02952  1.0000
  C   C1371     1.0  0.91991  0.09365  0.01820  1.0000
  C   C1372     1.0  0.59967  0.08970  0.13405  1.0000
  H   H2455     1.0  0.51533  0.25214  0.98381  1.0000
  C   C1373     1.0  0.60407  0.12571  0.98775  1.0000
  C   C1374     1.0  0.62694  0.99568  0.14063  1.0000
  C   C1375     1.0  0.52292  0.09649  0.03778  1.0000
  H   H2456     1.0  0.59246  0.01085  0.09015  1.0000
  C   C1376     1.0  0.58464  0.02278  0.08012  1.0000
  H   H2457     1.0  0.54069  0.24828  0.00745  1.0000
  H   H2458     1.0  0.81403  0.04718  0.98477  1.0000
  C   C1377     1.0  0.81580  0.04004  0.00028  1.0000
  H   H2459     1.0  0.91285  0.08172  0.01362  1.0000
  H   H2460     1.0  0.73317  0.13996  0.98329  1.0000
  C   C1378     1.0  0.98513  0.28117  0.99103  1.0000
  H   H2461     1.0  0.51579  0.14124  0.98952  1.0000
  C   C1379     1.0  0.83044  0.30702  0.00687  1.0000
  H   H2462     1.0  0.90705  0.21787  0.98206  1.0000
  H   H2463     1.0  0.78689  0.01833  0.07319  1.0000
  H   H2464     1.0  0.84261  0.29441  0.00502  1.0000
  H   H2465     1.0  0.86812  0.03702  0.99204  1.0000
  C   C1380     1.0  0.92446  0.14775  0.98212  1.0000
  H   H2466     1.0  0.51146  0.12766  0.02996  1.0000
  H   H2467     1.0  0.95673  0.29561  0.98299  1.0000
  H   H2468     1.0  0.71081  0.11820  0.98412  1.0000
  H   H2469     1.0  0.70527  0.16547  0.98053  1.0000
  H   H2470     1.0  0.56245  0.27521  0.98211  1.0000
  H   H2471     1.0  0.69868  0.99166  0.11606  1.0000
  H   H2472     1.0  0.80393  0.00027  0.20707  1.0000
  H   H2473     1.0  0.77515  0.01494  0.14110  1.0000
  H   H2474     1.0  0.82486  0.31210  0.99229  1.0000
  H   H2475     1.0  0.89605  0.17936  0.98201  1.0000
  C   C1381     1.0  0.55021  0.98543  0.11670  1.0000
  H   H2476     1.0  0.53011  0.30285  0.98273  1.0000
  H   H2477     1.0  0.69556  0.99538  0.15298  1.0000
  C   C1382     1.0  0.69433  0.99125  0.98402  1.0000
  H   H2478     1.0  0.51197  0.27827  0.98314  1.0000
  C   C1383     1.0  0.52350  0.26494  0.98426  1.0000
  S   S314      1.0  0.61872  0.28423  0.98206  1.0000
  H   H2479     1.0  0.60119  0.31550  0.02470  1.0000
  S   S315      1.0  0.52895  0.98358  0.17344  1.0000
  C   C1384     1.0  0.95675  0.23355  0.98133  1.0000
  H   H2480     1.0  0.94038  0.23789  0.98145  1.0000
  S   S316      1.0  0.93539  0.31650  0.02197  1.0000
  H   H2481     1.0  0.61532  0.24331  0.98079  1.0000
  C   C1385     1.0  0.48886  0.08352  0.11020  1.0000
  C   C1386     1.0  0.59608  0.31646  0.04067  1.0000
  C   C1387     1.0  0.62839  0.31579  0.07538  1.0000
  H   H2482     1.0  0.96705  0.03228  0.33811  1.0000
  S   S317      1.0  0.60209  0.30156  0.44230  1.0000
  C   C1388     1.0  0.98156  0.14796  0.47061  1.0000
  Fe  Fe160     1.0  0.54800  0.28915  0.46148  1.0000
  S   S318      1.0  0.56173  0.28809  0.42961  1.0000
  H   H2483     1.0  0.88339  0.99426  0.37413  1.0000
  Fe  Fe161     1.0  0.58939  0.27274  0.44282  1.0000
  S   S319      1.0  0.60730  0.24423  0.43278  1.0000
  C   C1389     1.0  0.96202  0.06259  0.30981  1.0000
  H   H2484     1.0  0.97567  0.15158  0.45652  1.0000
  H   H2485     1.0  0.62540  0.04509  0.30524  1.0000
  H   H2486     1.0  0.96331  0.23956  0.46535  1.0000
  H   H2487     1.0  0.86887  0.03277  0.42994  1.0000
  S   S320      1.0  0.57468  0.27209  0.47423  1.0000
  H   H2488     1.0  0.87284  0.99325  0.45792  1.0000
  S   S321      1.0  0.64730  0.07210  0.44284  1.0000
  H   H2489     1.0  0.82480  0.01289  0.42554  1.0000
  H   H2490     1.0  0.97262  0.19402  0.46549  1.0000
  H   H2491     1.0  0.56365  0.98733  0.24231  1.0000
  C   C1390     1.0  0.71834  0.98519  0.46726  1.0000
  H   H2492     1.0  0.69515  0.19432  0.45483  1.0000
  S   S322      1.0  0.62329  0.00428  0.29432  1.0000
  H   H2493     1.0  0.90280  0.98855  0.24384  1.0000
  S   S323      1.0  0.59924  0.03291  0.38845  1.0000
  S   S324      1.0  0.63829  0.00700  0.34726  1.0000
  Fe  Fe162     1.0  0.93807  0.13200  0.45369  1.0000
  S   S325      1.0  0.95270  0.14483  0.42387  1.0000
  H   H2494     1.0  0.71577  0.00844  0.39459  1.0000
  Fe  Fe163     1.0  0.89799  0.13430  0.43786  1.0000
  S   S326      1.0  0.90946  0.14806  0.40734  1.0000
  S   S327      1.0  0.86635  0.12721  0.44450  1.0000
  Fe  Fe164     1.0  0.93602  0.12460  0.41064  1.0000
  S   S328      1.0  0.94904  0.10205  0.38889  1.0000
  Fe  Fe165     1.0  0.92440  0.16685  0.42386  1.0000
  S   S329      1.0  0.92381  0.20068  0.41720  1.0000
  S   S330      1.0  0.92371  0.11020  0.44075  1.0000
  S   S331      1.0  0.91067  0.15462  0.45407  1.0000
  Fe  Fe166     1.0  0.90455  0.02190  0.27574  1.0000
  S   S332      1.0  0.55907  0.03347  0.23372  1.0000
  Fe  Fe167     1.0  0.91304  0.03883  0.31322  1.0000
  S   S333      1.0  0.93104  0.01014  0.32398  1.0000
  S   S334      1.0  0.90285  0.06517  0.33110  1.0000
  Fe  Fe168     1.0  0.94430  0.00951  0.29195  1.0000
  C   C1391     1.0  0.69057  0.99109  0.42857  1.0000
  Fe  Fe169     1.0  0.90720  0.99515  0.31523  1.0000
  S   S335      1.0  0.65671  0.11735  0.46952  1.0000
  S   S336      1.0  0.92815  0.03952  0.28142  1.0000
  S   S337      1.0  0.88801  0.02382  0.30662  1.0000
  H   H2495     1.0  0.97660  0.03984  0.29195  1.0000
  H   H2496     1.0  0.56392  0.24510  0.41065  1.0000
  H   H2497     1.0  0.60787  0.09715  0.30865  1.0000
  H   H2498     1.0  0.54400  0.22985  0.41330  1.0000
  H   H2499     1.0  0.69969  0.31006  0.46329  1.0000
  H   H2500     1.0  0.82954  0.12108  0.46980  1.0000
  C   C1392     1.0  0.89558  0.24472  0.46175  1.0000
  C   C1393     1.0  0.89633  0.22409  0.46748  1.0000
  C   C1394     1.0  0.90492  0.21053  0.45406  1.0000
  C   C1395     1.0  0.91289  0.21739  0.43462  1.0000
  C   C1396     1.0  0.91227  0.23808  0.42892  1.0000
  C   C1397     1.0  0.90363  0.25170  0.44239  1.0000
  Fe  Fe170     1.0  0.87850  0.29479  0.47394  1.0000
  H   H2501     1.0  0.90556  0.19478  0.45883  1.0000
  H   H2502     1.0  0.91844  0.24360  0.41395  1.0000
  H   H2503     1.0  0.90323  0.26756  0.43776  1.0000
  H   H2504     1.0  0.96259  0.00605  0.36689  1.0000
  C   C1398     1.0  0.74565  0.01406  0.38294  1.0000
  H   H2505     1.0  0.62688  0.00956  0.25170  1.0000
  C   C1399     1.0  0.93511  0.09134  0.37413  1.0000
  C   C1400     1.0  0.94258  0.07259  0.36799  1.0000
  C   C1401     1.0  0.93256  0.06410  0.35538  1.0000
  C   C1402     1.0  0.91539  0.07459  0.34805  1.0000
  C   C1403     1.0  0.90771  0.09314  0.35447  1.0000
  C   C1404     1.0  0.91735  0.10138  0.36759  1.0000
  H   H2506     1.0  0.95618  0.06460  0.37311  1.0000
  H   H2507     1.0  0.93810  0.04950  0.35126  1.0000
  H   H2508     1.0  0.89444  0.10142  0.34892  1.0000
  H   H2509     1.0  0.91146  0.11585  0.37207  1.0000
  H   H2510     1.0  0.58856  0.00428  0.47717  1.0000
  C   C1405     1.0  0.63328  0.06131  0.42823  1.0000
  C   C1406     1.0  0.61274  0.06694  0.42767  1.0000
  C   C1407     1.0  0.60252  0.05807  0.41550  1.0000
  C   C1408     1.0  0.61260  0.04329  0.40398  1.0000
  C   C1409     1.0  0.63307  0.03753  0.40474  1.0000
  C   C1410     1.0  0.64333  0.04664  0.41662  1.0000
  H   H2511     1.0  0.60484  0.07838  0.43630  1.0000
  H   H2512     1.0  0.58671  0.06273  0.41494  1.0000
  H   H2513     1.0  0.64105  0.02635  0.39583  1.0000
  H   H2514     1.0  0.65922  0.04238  0.41671  1.0000
  C   C1411     1.0  0.57697  0.02383  0.25025  1.0000
  C   C1412     1.0  0.57066  0.02150  0.27092  1.0000
  C   C1413     1.0  0.58447  0.01458  0.28463  1.0000
  C   C1414     1.0  0.60487  0.01055  0.27781  1.0000
  C   C1415     1.0  0.61113  0.01264  0.25715  1.0000
  C   C1416     1.0  0.59726  0.01901  0.24343  1.0000
  H   H2515     1.0  0.72324  0.99351  0.47805  1.0000
  H   H2516     1.0  0.67329  0.31561  0.46162  1.0000
  H   H2517     1.0  0.95000  0.05301  0.31523  1.0000
  H   H2518     1.0  0.74649  0.00473  0.37080  1.0000
  C   C1417     1.0  0.61060  0.22157  0.44911  1.0000
  H   H2519     1.0  0.59769  0.98803  0.44476  1.0000
  C   C1418     1.0  0.60576  0.22105  0.46973  1.0000
  H   H2520     1.0  0.83459  0.05290  0.45078  1.0000
  C   C1419     1.0  0.62010  0.18534  0.45387  1.0000
  C   C1420     1.0  0.61813  0.20367  0.44127  1.0000
  H   H2521     1.0  0.73529  0.99119  0.40510  1.0000
  H   H2522     1.0  0.67024  0.22331  0.44724  1.0000
  H   H2523     1.0  0.62546  0.17162  0.44761  1.0000
  H   H2524     1.0  0.62212  0.20391  0.42534  1.0000
  C   C1421     1.0  0.82260  0.17964  0.47801  1.0000
  H   H2525     1.0  0.56561  0.15224  0.45087  1.0000
  H   H2526     1.0  0.63693  0.04055  0.26969  1.0000
  C   C1422     1.0  0.69718  0.20912  0.45850  1.0000
  H   H2527     1.0  0.83050  0.08845  0.45654  1.0000
  H   H2528     1.0  0.63060  0.07019  0.29936  1.0000
  H   H2529     1.0  0.70176  0.98696  0.46937  1.0000
  C   C1423     1.0  0.61446  0.18478  0.47444  1.0000
  H   H2530     1.0  0.87058  0.01892  0.39731  1.0000
  C   C1424     1.0  0.69501  0.01127  0.43364  1.0000
  C   C1425     1.0  0.86490  0.02385  0.44450  1.0000
  H   H2531     1.0  0.83032  0.21574  0.47236  1.0000
  Fe  Fe171     1.0  0.64004  0.09136  0.46846  1.0000
  S   S338      1.0  0.51822  0.27880  0.47439  1.0000
  C   C1426     1.0  0.95436  0.07872  0.29379  1.0000
  H   H2532     1.0  0.53094  0.98477  0.32566  1.0000
  C   C1427     1.0  0.84133  0.11985  0.47905  1.0000
  H   H2533     1.0  0.62471  0.08967  0.33523  1.0000
  H   H2534     1.0  0.70159  0.98523  0.41661  1.0000
  C   C1428     1.0  0.64911  0.26052  0.45139  1.0000
  H   H2535     1.0  0.89972  0.01117  0.35962  1.0000
  H   H2536     1.0  0.56563  0.12805  0.33443  1.0000
  H   H2537     1.0  0.64114  0.06632  0.26313  1.0000
  C   C1429     1.0  0.85167  0.18990  0.44251  1.0000
  H   H2538     1.0  0.80322  0.00797  0.41576  1.0000
  H   H2539     1.0  0.80017  0.07163  0.45770  1.0000
  H   H2540     1.0  0.69268  0.05593  0.47402  1.0000
  H   H2541     1.0  0.55659  0.98993  0.32362  1.0000
  C   C1430     1.0  0.86877  0.18570  0.42595  1.0000
  H   H2542     1.0  0.82893  0.00239  0.33273  1.0000
  H   H2543     1.0  0.86250  0.06516  0.43117  1.0000
  H   H2544     1.0  0.63504  0.27080  0.45395  1.0000
  C   C1431     1.0  0.86878  0.06844  0.44420  1.0000
  H   H2545     1.0  0.61569  0.99868  0.42569  1.0000
  H   H2546     1.0  0.87221  0.18423  0.46425  1.0000
  H   H2547     1.0  0.52949  0.21609  0.44774  1.0000
  C   C1432     1.0  0.95906  0.22446  0.47098  1.0000
  Fe  Fe172     1.0  0.62024  0.99479  0.32797  1.0000
  C   C1433     1.0  0.85733  0.17995  0.46318  1.0000
  C   C1434     1.0  0.83862  0.99123  0.34091  1.0000
  H   H2548     1.0  0.91341  0.08003  0.41504  1.0000
  H   H2549     1.0  0.84811  0.20630  0.44211  1.0000
  H   H2550     1.0  0.83862  0.18383  0.43888  1.0000
  C   C1435     1.0  0.53788  0.22487  0.45530  1.0000
  H   H2551     1.0  0.61588  0.04590  0.33992  1.0000
  S   S339      1.0  0.59258  0.99734  0.35015  1.0000
  N   N79       1.0  0.82821  0.99331  0.26964  1.0000
  C   C1436     1.0  0.57981  0.09859  0.32851  1.0000
  C   C1437     1.0  0.60973  0.01338  0.45231  1.0000
  C   C1438     1.0  0.97482  0.20970  0.46008  1.0000
  H   H2552     1.0  0.66172  0.28560  0.43266  1.0000
  N   N80       1.0  0.86186  0.05505  0.46278  1.0000
  C   C1439     1.0  0.57695  0.12124  0.32311  1.0000
  H   H2553     1.0  0.82562  0.01907  0.29871  1.0000
  H   H2554     1.0  0.86452  0.19320  0.41138  1.0000
  H   H2555     1.0  0.88246  0.19137  0.42855  1.0000
  H   H2556     1.0  0.87205  0.16945  0.42520  1.0000
  H   H2557     1.0  0.85203  0.01345  0.29141  1.0000
  C   C1440     1.0  0.82716  0.07654  0.46895  1.0000
  H   H2558     1.0  0.59172  0.03896  0.31441  1.0000
  H   H2559     1.0  0.51583  0.19915  0.47720  1.0000
  H   H2560     1.0  0.84868  0.02242  0.44662  1.0000
  H   H2561     1.0  0.56610  0.06396  0.34513  1.0000
  H   H2562     1.0  0.55498  0.02514  0.27634  1.0000
  H   H2563     1.0  0.66970  0.00261  0.40718  1.0000
  C   C1441     1.0  0.73038  0.00708  0.40035  1.0000
  H   H2564     1.0  0.89212  0.07322  0.40633  1.0000
  H   H2565     1.0  0.73115  0.02834  0.45449  1.0000
  H   H2566     1.0  0.74384  0.02144  0.42038  1.0000
  H   H2567     1.0  0.52786  0.23908  0.45704  1.0000
  C   C1442     1.0  0.87812  0.02434  0.38242  1.0000
  C   C1443     1.0  0.62981  0.05585  0.26494  1.0000
  H   H2568     1.0  0.69009  0.24907  0.45476  1.0000
  H   H2569     1.0  0.87111  0.10219  0.38060  1.0000
  H   H2570     1.0  0.56493  0.09361  0.32917  1.0000
  H   H2571     1.0  0.62405  0.01975  0.44856  1.0000
  H   H2572     1.0  0.66498  0.03488  0.47264  1.0000
  H   H2573     1.0  0.58364  0.16871  0.45184  1.0000
  H   H2574     1.0  0.86463  0.99456  0.31937  1.0000
  C   C1444     1.0  0.72846  0.01988  0.41756  1.0000
  H   H2575     1.0  0.74283  0.99473  0.44630  1.0000
  H   H2576     1.0  0.76078  0.01248  0.38767  1.0000
  H   H2577     1.0  0.84720  0.11597  0.38797  1.0000
  H   H2578     1.0  0.96716  0.98789  0.34953  1.0000
  H   H2579     1.0  0.63976  0.05246  0.36271  1.0000
  H   H2580     1.0  0.80747  0.99620  0.29662  1.0000
  C   C1445     1.0  0.81370  0.99959  0.23597  1.0000
  S   S340      1.0  0.92186  0.99208  0.28411  1.0000
  H   H2581     1.0  0.89759  0.07545  0.44967  1.0000
  H   H2582     1.0  0.70725  0.21627  0.44607  1.0000
  H   H2583     1.0  0.57159  0.12544  0.30832  1.0000
  C   C1446     1.0  0.70649  0.04940  0.44433  1.0000
  H   H2584     1.0  0.62781  0.04126  0.46937  1.0000
  H   H2585     1.0  0.54441  0.03744  0.35039  1.0000
  C   C1447     1.0  0.97358  0.21291  0.43771  1.0000
  C   C1448     1.0  0.55352  0.04060  0.33568  1.0000
  H   H2586     1.0  0.57561  0.06060  0.30642  1.0000
  H   H2587     1.0  0.88685  0.03124  0.46079  1.0000
  H   H2588     1.0  0.57819  0.08361  0.46858  1.0000
  C   C1449     1.0  0.61196  0.06205  0.28011  1.0000
  H   H2589     1.0  0.64871  0.25371  0.41189  1.0000
  H   H2590     1.0  0.56760  0.21748  0.43786  1.0000
  H   H2591     1.0  0.58479  0.09540  0.34346  1.0000
  H   H2592     1.0  0.88765  0.03572  0.38394  1.0000
  H   H2593     1.0  0.59944  0.06531  0.34983  1.0000
  H   H2594     1.0  0.53934  0.25390  0.42235  1.0000
  C   C1450     1.0  0.56951  0.16330  0.45950  1.0000
  H   H2595     1.0  0.97614  0.22832  0.43119  1.0000
  H   H2596     1.0  0.85582  0.21275  0.47560  1.0000
  C   C1451     1.0  0.55646  0.23063  0.44068  1.0000
  H   H2597     1.0  0.63436  0.27750  0.41605  1.0000
  S   S341      1.0  0.78468  0.99050  0.46596  1.0000
  H   H2598     1.0  0.64818  0.07660  0.35971  1.0000
  C   C1452     1.0  0.85589  0.10087  0.38872  1.0000
  H   H2599     1.0  0.69035  0.02312  0.42161  1.0000
  H   H2600     1.0  0.84416  0.04824  0.29653  1.0000
  H   H2601     1.0  0.55840  0.02631  0.32949  1.0000
  H   H2602     1.0  0.68751  0.28344  0.44940  1.0000
  S   S342      1.0  0.90117  0.31526  0.47512  1.0000
  H   H2603     1.0  0.57942  0.01284  0.30044  1.0000
  C   C1453     1.0  0.89693  0.08005  0.41824  1.0000
  H   H2604     1.0  0.86275  0.08424  0.44570  1.0000
  H   H2605     1.0  0.56381  0.24144  0.44667  1.0000
  C   C1454     1.0  0.71573  0.02772  0.45111  1.0000
  H   H2606     1.0  0.84796  0.01520  0.25629  1.0000
  S   S343      1.0  0.97705  0.00011  0.28223  1.0000
  H   H2607     1.0  0.85982  0.16356  0.46290  1.0000
  C   C1455     1.0  0.88489  0.01445  0.23100  1.0000
  N   N81       1.0  0.71621  0.01268  0.43687  1.0000
  C   C1456     1.0  0.80465  0.07540  0.47149  1.0000
  C   C1457     1.0  0.63521  0.06872  0.35909  1.0000
  C   C1458     1.0  0.62873  0.07331  0.33831  1.0000
  H   H2608     1.0  0.50175  0.23485  0.47979  1.0000
  C   C1459     1.0  0.53575  0.98604  0.23216  1.0000
  H   H2609     1.0  0.62281  0.07372  0.37047  1.0000
  C   C1460     1.0  0.55260  0.18064  0.46077  1.0000
  H   H2610     1.0  0.89960  0.05297  0.43813  1.0000
  H   H2611     1.0  0.65801  0.27652  0.40019  1.0000
  C   C1461     1.0  0.66063  0.26973  0.43178  1.0000
  H   H2612     1.0  0.79809  0.99933  0.24333  1.0000
  H   H2613     1.0  0.87139  0.99611  0.43160  1.0000
  H   H2614     1.0  0.98185  0.98508  0.36976  1.0000
  H   H2615     1.0  0.71669  0.05673  0.43219  1.0000
  C   C1462     1.0  0.64971  0.26932  0.41395  1.0000
  H   H2616     1.0  0.55775  0.98420  0.28864  1.0000
  Fe  Fe173     1.0  0.61151  0.00682  0.37067  1.0000
  H   H2617     1.0  0.93960  0.08637  0.29976  1.0000
  H   H2618     1.0  0.59124  0.12735  0.32284  1.0000
  H   H2619     1.0  0.76657  0.98953  0.28583  1.0000
  H   H2620     1.0  0.95867  0.21017  0.43480  1.0000
  H   H2621     1.0  0.62464  0.05599  0.25027  1.0000
  H   H2622     1.0  0.88987  0.09579  0.41790  1.0000
  H   H2623     1.0  0.57231  0.20032  0.46716  1.0000
  H   H2624     1.0  0.74118  0.02985  0.37701  1.0000
  H   H2625     1.0  0.67582  0.26161  0.42860  1.0000
  H   H2626     1.0  0.54186  0.99322  0.25988  1.0000
  H   H2627     1.0  0.97060  0.31324  0.45921  1.0000
  H   H2628     1.0  0.64408  0.24652  0.44875  1.0000
  H   H2629     1.0  0.60043  0.05221  0.28014  1.0000
  C   C1463     1.0  0.57165  0.05027  0.33825  1.0000
  H   H2630     1.0  0.59507  0.04940  0.46460  1.0000
  C   C1464     1.0  0.83931  0.05626  0.46464  1.0000
  H   H2631     1.0  0.64194  0.06858  0.32770  1.0000
  H   H2632     1.0  0.58727  0.09113  0.29895  1.0000
  H   H2633     1.0  0.55082  0.18758  0.44533  1.0000
  C   C1465     1.0  0.55046  0.24046  0.42053  1.0000
  C   C1466     1.0  0.67903  0.24271  0.46665  1.0000
  C   C1467     1.0  0.83419  0.01400  0.26719  1.0000
  C   C1468     1.0  0.83792  0.02145  0.28646  1.0000
  N   N82       1.0  0.65993  0.25693  0.46952  1.0000
  C   C1469     1.0  0.97434  0.99610  0.35872  1.0000
  H   H2634     1.0  0.69182  0.04973  0.43900  1.0000
  C   C1470     1.0  0.82169  0.99042  0.47833  1.0000
  C   C1471     1.0  0.85885  0.98700  0.33346  1.0000
  H   H2635     1.0  0.95248  0.07216  0.28041  1.0000
  C   C1472     1.0  0.60388  0.00868  0.47516  1.0000
  H   H2636     1.0  0.82538  0.05257  0.27984  1.0000
  H   H2637     1.0  0.59791  0.02424  0.44579  1.0000
  S   S344      1.0  0.86476  0.31409  0.44867  1.0000
  H   H2638     1.0  0.60584  0.07748  0.27464  1.0000
  H   H2639     1.0  0.89257  0.00343  0.44036  1.0000
  H   H2640     1.0  0.81680  0.18911  0.46494  1.0000
  H   H2641     1.0  0.96496  0.08996  0.28939  1.0000
  H   H2642     1.0  0.72191  0.03491  0.41129  1.0000
  C   C1473     1.0  0.83984  0.04371  0.28303  1.0000
  N   N83       1.0  0.84714  0.04974  0.37448  1.0000
  C   C1474     1.0  0.86262  0.03298  0.36793  1.0000
  C   C1475     1.0  0.83419  0.05766  0.35819  1.0000
  C   C1476     1.0  0.85815  0.06639  0.37779  1.0000
  C   C1477     1.0  0.83461  0.04349  0.39396  1.0000
  C   C1478     1.0  0.82259  0.02586  0.39465  1.0000
  C   C1479     1.0  0.89169  0.06825  0.43869  1.0000
  C   C1480     1.0  0.84528  0.08703  0.37950  1.0000
  C   C1481     1.0  0.82886  0.04233  0.34587  1.0000
  C   C1482     1.0  0.81201  0.05143  0.33358  1.0000
  C   C1483     1.0  0.81311  0.01944  0.41592  1.0000
  H   H2643     1.0  0.84401  0.98877  0.24044  1.0000
  H   H2644     1.0  0.87119  0.03815  0.35331  1.0000
  H   H2645     1.0  0.85555  0.02025  0.36512  1.0000
  H   H2646     1.0  0.82002  0.06624  0.36444  1.0000
  H   H2647     1.0  0.84191  0.06841  0.34680  1.0000
  H   H2648     1.0  0.87052  0.06891  0.36537  1.0000
  H   H2649     1.0  0.86557  0.06217  0.39150  1.0000
  H   H2650     1.0  0.84400  0.03995  0.40626  1.0000
  H   H2651     1.0  0.82334  0.05605  0.39837  1.0000
  H   H2652     1.0  0.83211  0.01264  0.38928  1.0000
  H   H2653     1.0  0.81008  0.03051  0.38561  1.0000
  H   H2654     1.0  0.85704  0.09526  0.40462  1.0000
  H   H2655     1.0  0.71757  0.06296  0.46682  1.0000
  H   H2656     1.0  0.83060  0.08576  0.38869  1.0000
  H   H2657     1.0  0.84241  0.09447  0.36444  1.0000
  H   H2658     1.0  0.84219  0.03743  0.33539  1.0000
  H   H2659     1.0  0.82409  0.02890  0.35528  1.0000
  H   H2660     1.0  0.79813  0.05591  0.34352  1.0000
  H   H2661     1.0  0.81640  0.06462  0.32321  1.0000
  H   H2662     1.0  0.80877  0.04022  0.32474  1.0000
  H   H2663     1.0  0.80382  0.03223  0.42247  1.0000
  H   H2664     1.0  0.58013  0.03996  0.34908  1.0000
  H   H2665     1.0  0.82252  0.02506  0.26059  1.0000
  S   S345      1.0  0.80633  0.98795  0.36941  1.0000
  C   C1484     1.0  0.82902  0.98727  0.24918  1.0000
  H   H2666     1.0  0.54402  0.05069  0.32559  1.0000
  N   N84       1.0  0.60200  0.06666  0.31755  1.0000
  C   C1485     1.0  0.61084  0.06217  0.33693  1.0000
  C   C1486     1.0  0.58532  0.05414  0.31812  1.0000
  C   C1487     1.0  0.61838  0.06070  0.30119  1.0000
  C   C1488     1.0  0.59486  0.08855  0.31256  1.0000
  H   H2667     1.0  0.56499  0.23134  0.47876  1.0000
  H   H2668     1.0  0.79718  0.00658  0.27463  1.0000
  H   H2669     1.0  0.94436  0.22453  0.46564  1.0000
  H   H2670     1.0  0.64486  0.00662  0.47288  1.0000
  H   H2671     1.0  0.97315  0.01508  0.32043  1.0000
  C   C1489     1.0  0.89200  0.00668  0.37474  1.0000
  Fe  Fe174     1.0  0.58510  0.30170  0.47305  1.0000
  H   H2672     1.0  0.96449  0.07019  0.32226  1.0000
  C   C1490     1.0  0.87032  0.03347  0.46179  1.0000
  C   C1491     1.0  0.72687  0.99319  0.44574  1.0000
  H   H2673     1.0  0.68431  0.01443  0.44709  1.0000
  H   H2674     1.0  0.87048  0.99117  0.27117  1.0000
  H   H2675     1.0  0.70690  0.02305  0.46564  1.0000
  C   C1492     1.0  0.86089  0.12215  0.47030  1.0000
  H   H2676     1.0  0.94389  0.31378  0.46185  1.0000
  H   H2677     1.0  0.69655  0.07750  0.45616  1.0000
  H   H2678     1.0  0.60044  0.23469  0.47601  1.0000
  C   C1493     1.0  0.70317  0.06212  0.46140  1.0000
  C   C1494     1.0  0.80736  0.99371  0.28096  1.0000
  C   C1495     1.0  0.61193  0.99469  0.44203  1.0000
  H   H2679     1.0  0.79629  0.09002  0.47470  1.0000
  C   C1496     1.0  0.87617  0.00289  0.44360  1.0000
  H   H2680     1.0  0.85156  0.04717  0.27037  1.0000
  C   C1497     1.0  0.67682  0.22191  0.46134  1.0000
  C   C1498     1.0  0.66984  0.99323  0.42188  1.0000
  S   S346      1.0  0.88785  0.03028  0.24846  1.0000
  H   H2681     1.0  0.57503  0.03799  0.47876  1.0000
  C   C1499     1.0  0.89332  0.99447  0.23245  1.0000
  C   C1500     1.0  0.97982  0.02358  0.32986  1.0000
  H   H2682     1.0  0.66731  0.21358  0.47334  1.0000
  H   H2683     1.0  0.53868  0.17434  0.46754  1.0000
  H   H2684     1.0  0.65183  0.28854  0.47155  1.0000
  H   H2685     1.0  0.93974  0.26282  0.47949  1.0000
  C   C1501     1.0  0.98130  0.04967  0.30150  1.0000
  H   H2686     1.0  0.90351  0.00123  0.38486  1.0000
  H   H2687     1.0  0.82459  0.16396  0.47457  1.0000
  S   S347      1.0  0.88488  0.26086  0.47965  1.0000
  H   H2688     1.0  0.65819  0.00001  0.43293  1.0000
  C   C1502     1.0  0.68441  0.28391  0.46565  1.0000
  H   H2689     1.0  0.81669  0.01532  0.23251  1.0000
  H   H2690     1.0  0.86517  0.02428  0.47597  1.0000
  C   C1503     1.0  0.68480  0.30534  0.46928  1.0000
  H   H2691     1.0  0.70430  0.20676  0.47238  1.0000
  H   H2692     1.0  0.93641  0.19375  0.47784  1.0000
  C   C1504     1.0  0.66419  0.27642  0.47498  1.0000
  H   H2693     1.0  0.69689  0.27445  0.47261  1.0000
  C   C1505     1.0  0.58961  0.04290  0.47999  1.0000
  H   H2694     1.0  0.90001  0.05253  0.47565  1.0000
  H   H2695     1.0  0.57205  0.15573  0.47461  1.0000
  H   H2696     1.0  0.89125  0.12233  0.47559  1.0000
  H   H2697     1.0  0.83396  0.04479  0.47677  1.0000
  C   C1506     1.0  0.55736  0.19591  0.47342  1.0000
  N   N85       1.0  0.54201  0.21404  0.47543  1.0000
  H   H2698     1.0  0.78175  0.18088  0.47717  1.0000
  H   H2699     1.0  0.98514  0.20228  0.43021  1.0000
  H   H2700     1.0  0.86620  0.07858  0.47913  1.0000
  H   H2701     1.0  0.62415  0.98351  0.44743  1.0000
  C   C1507     1.0  0.80144  0.99830  0.47971  1.0000
  H   H2702     1.0  0.98764  0.05543  0.34103  1.0000
  H   H2703     1.0  0.68643  0.24029  0.48044  1.0000
  H   H2704     1.0  0.79094  0.99460  0.61854  1.0000
  S   S348      1.0  0.50496  0.06801  0.63416  1.0000
  S   S349      1.0  0.52343  0.05863  0.68597  1.0000
  Fe  Fe175     1.0  0.51019  0.09869  0.61867  1.0000
  S   S350      1.0  0.53031  0.11087  0.59122  1.0000
  S   S351      1.0  0.51521  0.10956  0.64674  1.0000
  Fe  Fe176     1.0  0.62352  0.08996  0.51289  1.0000
  S   S352      1.0  0.63977  0.11498  0.51732  1.0000
  S   S353      1.0  0.60458  0.07065  0.53619  1.0000
  Fe  Fe177     1.0  0.66635  0.10065  0.49826  1.0000
  S   S354      1.0  0.70024  0.09773  0.49905  1.0000
  S   S355      1.0  0.65097  0.07439  0.49627  1.0000
  Fe  Fe178     1.0  0.79415  0.06456  0.55863  1.0000
  S   S356      1.0  0.81278  0.07093  0.52894  1.0000
  S   S357      1.0  0.75994  0.06851  0.56465  1.0000
  Fe  Fe179     1.0  0.83170  0.05083  0.58092  1.0000
  S   S358      1.0  0.85255  0.05531  0.55255  1.0000
  S   S359      1.0  0.84190  0.03866  0.61145  1.0000
  Fe  Fe180     1.0  0.83220  0.08370  0.54632  1.0000
  S   S360      1.0  0.84680  0.11145  0.53759  1.0000
  Fe  Fe181     1.0  0.83119  0.04180  0.53798  1.0000
  S   S361      1.0  0.81218  0.08007  0.57526  1.0000
  S   S362      1.0  0.81176  0.03463  0.56697  1.0000
  Fe  Fe182     1.0  0.94378  0.07595  0.71801  1.0000
  S   S363      1.0  0.97002  0.08547  0.69677  1.0000
  Fe  Fe183     1.0  0.92240  0.06695  0.68357  1.0000
  S   S364      1.0  0.94737  0.07586  0.66044  1.0000
  S   S365      1.0  0.89635  0.05306  0.67564  1.0000
  Fe  Fe184     1.0  0.96815  0.05913  0.68155  1.0000
  H   H2705     1.0  0.64035  0.00467  0.49959  1.0000
  Fe  Fe185     1.0  0.94714  0.10134  0.67763  1.0000
  H   H2706     1.0  0.55784  0.00437  0.54232  1.0000
  S   S366      1.0  0.94336  0.04821  0.70386  1.0000
  S   S367      1.0  0.92049  0.09385  0.69981  1.0000
  H   H2707     1.0  0.96138  0.03428  0.65562  1.0000
  H   H2708     1.0  0.87582  0.18786  0.49868  1.0000
  H   H2709     1.0  0.94143  0.01725  0.62591  1.0000
  C   C1508     1.0  0.85798  0.04410  0.62783  1.0000
  C   C1509     1.0  0.85621  0.03386  0.64717  1.0000
  C   C1510     1.0  0.86808  0.03701  0.66118  1.0000
  C   C1511     1.0  0.88225  0.05042  0.65632  1.0000
  C   C1512     1.0  0.88438  0.06077  0.63686  1.0000
  C   C1513     1.0  0.87217  0.05769  0.62265  1.0000
  H   H2710     1.0  0.84544  0.02335  0.65144  1.0000
  H   H2711     1.0  0.86620  0.02893  0.67604  1.0000
  H   H2712     1.0  0.89518  0.07125  0.63285  1.0000
  H   H2713     1.0  0.87373  0.06576  0.60778  1.0000
  C   C1514     1.0  0.83440  0.99683  0.48986  1.0000
  C   C1515     1.0  0.61565  0.24971  0.51273  1.0000
  C   C1516     1.0  0.85216  0.11516  0.51174  1.0000
  C   C1517     1.0  0.87163  0.11776  0.50298  1.0000
  H   H2714     1.0  0.97691  0.01389  0.69946  1.0000
  H   H2715     1.0  0.82189  0.11416  0.50665  1.0000
  H   H2716     1.0  0.88337  0.11709  0.51217  1.0000
  C   C1518     1.0  0.56333  0.28675  0.54401  1.0000
  C   C1519     1.0  0.71636  0.08914  0.51767  1.0000
  C   C1520     1.0  0.73721  0.08796  0.51202  1.0000
  C   C1521     1.0  0.75070  0.08155  0.52614  1.0000
  C   C1522     1.0  0.74351  0.07631  0.54619  1.0000
  C   C1523     1.0  0.72266  0.07748  0.55189  1.0000
  C   C1524     1.0  0.70914  0.08379  0.53772  1.0000
  H   H2717     1.0  0.74297  0.09204  0.49658  1.0000
  H   H2718     1.0  0.76665  0.08073  0.52148  1.0000
  H   H2719     1.0  0.71691  0.07348  0.56734  1.0000
  H   H2720     1.0  0.69317  0.08465  0.54231  1.0000
  C   C1525     1.0  0.55105  0.09903  0.57654  1.0000
  C   C1526     1.0  0.55431  0.07841  0.57624  1.0000
  C   C1527     1.0  0.57083  0.06985  0.56390  1.0000
  C   C1528     1.0  0.58404  0.08185  0.55159  1.0000
  C   C1529     1.0  0.58070  0.10246  0.55185  1.0000
  C   C1530     1.0  0.56432  0.11096  0.56431  1.0000
  H   H2721     1.0  0.54383  0.06915  0.58509  1.0000
  H   H2722     1.0  0.57325  0.05390  0.56370  1.0000
  H   H2723     1.0  0.59079  0.11184  0.54249  1.0000
  H   H2724     1.0  0.56201  0.12689  0.56452  1.0000
  C   C1531     1.0  0.89138  0.99016  0.63312  1.0000
  H   H2725     1.0  0.96473  0.18877  0.49786  1.0000
  C   C1532     1.0  0.53903  0.08360  0.70663  1.0000
  C   C1533     1.0  0.53474  0.06440  0.70580  1.0000
  C   C1534     1.0  0.97283  0.13452  0.48564  1.0000
  H   H2726     1.0  0.96958  0.16782  0.55300  1.0000
  H   H2727     1.0  0.77473  0.17500  0.50363  1.0000
  H   H2728     1.0  0.53592  0.09538  0.69468  1.0000
  H   H2729     1.0  0.92555  0.23399  0.49561  1.0000
  H   H2730     1.0  0.92246  0.12775  0.63476  1.0000
  C   C1535     1.0  0.52482  0.29846  0.60104  1.0000
  H   H2731     1.0  0.95733  0.26129  0.49693  1.0000
  C   C1536     1.0  0.95388  0.98418  0.65350  1.0000
  C   C1537     1.0  0.50043  0.29227  0.65733  1.0000
  H   H2732     1.0  0.77980  0.02074  0.64048  1.0000
  C   C1538     1.0  0.49192  0.15803  0.58262  1.0000
  C   C1539     1.0  0.97823  0.18622  0.67412  1.0000
  H   H2733     1.0  0.54751  0.24994  0.51810  1.0000
  H   H2734     1.0  0.57839  0.05558  0.50808  1.0000
  Fe  Fe186     1.0  0.50762  0.08001  0.66253  1.0000
  H   H2735     1.0  0.90521  0.00423  0.66379  1.0000
  C   C1540     1.0  0.96522  0.20195  0.58911  1.0000
  H   H2736     1.0  0.97666  0.09853  0.54479  1.0000
  H   H2737     1.0  0.87265  0.28701  0.58005  1.0000
  C   C1541     1.0  0.78708  0.17308  0.49121  1.0000
  C   C1542     1.0  0.49089  0.11100  0.70839  1.0000
  H   H2738     1.0  0.96004  0.15798  0.53391  1.0000
  H   H2739     1.0  0.96131  0.19443  0.64988  1.0000
  C   C1543     1.0  0.96631  0.04347  0.62413  1.0000
  C   C1544     1.0  0.78119  0.00833  0.61342  1.0000
  H   H2740     1.0  0.96329  0.15550  0.62312  1.0000
  H   H2741     1.0  0.91709  0.98501  0.69293  1.0000
  H   H2742     1.0  0.85593  0.05828  0.49433  1.0000
  C   C1545     1.0  0.87501  0.16456  0.52367  1.0000
  H   H2743     1.0  0.89636  0.08006  0.49556  1.0000
  C   C1546     1.0  0.82249  0.30978  0.54816  1.0000
  H   H2744     1.0  0.80054  0.19757  0.49701  1.0000
  C   C1547     1.0  0.62725  0.26067  0.49457  1.0000
  H   H2745     1.0  0.62574  0.04221  0.49514  1.0000
  H   H2746     1.0  0.53894  0.21598  0.51720  1.0000
  H   H2747     1.0  0.60168  0.25937  0.51752  1.0000
  H   H2748     1.0  0.74227  0.08244  0.69032  1.0000
  C   C1548     1.0  0.98058  0.13011  0.50389  1.0000
  H   H2749     1.0  0.53633  0.03425  0.72068  1.0000
  C   C1549     1.0  0.62488  0.03208  0.48408  1.0000
  H   H2750     1.0  0.54252  0.02445  0.61414  1.0000
  H   H2751     1.0  0.95523  0.19251  0.61968  1.0000
  H   H2752     1.0  0.55138  0.31478  0.62207  1.0000
  H   H2753     1.0  0.92963  0.26777  0.52404  1.0000
  C   C1550     1.0  0.59905  0.01839  0.50886  1.0000
  H   H2754     1.0  0.54058  0.24262  0.48585  1.0000
  H   H2755     1.0  0.52667  0.19331  0.54375  1.0000
  C   C1551     1.0  0.50590  0.17852  0.60194  1.0000
  C   C1552     1.0  0.51508  0.16015  0.61534  1.0000
  H   H2756     1.0  0.58404  0.99626  0.54395  1.0000
  H   H2757     1.0  0.92958  0.03228  0.64424  1.0000
  C   C1553     1.0  0.52153  0.16625  0.63377  1.0000
  H   H2758     1.0  0.83013  0.08122  0.61857  1.0000
  H   H2759     1.0  0.49458  0.02950  0.67745  1.0000
  C   C1554     1.0  0.79413  0.01279  0.49247  1.0000
  H   H2760     1.0  0.52966  0.15429  0.57272  1.0000
  N   N86       1.0  0.50379  0.17530  0.58101  1.0000
  H   H2761     1.0  0.52835  0.15206  0.60716  1.0000
  H   H2762     1.0  0.50377  0.14975  0.62064  1.0000
  H   H2763     1.0  0.91839  0.16781  0.49679  1.0000
  H   H2764     1.0  0.61158  0.23568  0.50911  1.0000
  S   S368      1.0  0.85599  0.30853  0.49736  1.0000
  C   C1555     1.0  0.55910  0.23664  0.51844  1.0000
  C   C1556     1.0  0.51054  0.28436  0.49891  1.0000
  H   H2765     1.0  0.56480  0.20743  0.50940  1.0000
  H   H2766     1.0  0.50866  0.17453  0.64238  1.0000
  H   H2767     1.0  0.94406  0.16219  0.50100  1.0000
  H   H2768     1.0  0.82296  0.10172  0.63287  1.0000
  H   H2769     1.0  0.95136  0.01084  0.67901  1.0000
  H   H2770     1.0  0.89114  0.16330  0.52513  1.0000
  N   N87       1.0  0.77168  0.06280  0.62762  1.0000
  C   C1557     1.0  0.76130  0.08085  0.61591  1.0000
  C   C1558     1.0  0.79332  0.06532  0.62810  1.0000
  C   C1559     1.0  0.77147  0.04511  0.61679  1.0000
  C   C1560     1.0  0.76095  0.05846  0.64842  1.0000
  C   C1561     1.0  0.75775  0.07543  0.66162  1.0000
  C   C1562     1.0  0.73896  0.08033  0.61399  1.0000
  C   C1563     1.0  0.78411  0.02536  0.62440  1.0000
  C   C1564     1.0  0.79821  0.08666  0.62885  1.0000
  H   H2771     1.0  0.62246  0.06527  0.58013  1.0000
  C   C1565     1.0  0.74391  0.07028  0.68088  1.0000
  C   C1566     1.0  0.73009  0.09970  0.60248  1.0000
  C   C1567     1.0  0.49073  0.23094  0.55858  1.0000
  H   H2772     1.0  0.76948  0.08321  0.60053  1.0000
  H   H2773     1.0  0.76180  0.09466  0.62234  1.0000
  H   H2774     1.0  0.79946  0.05516  0.64067  1.0000
  H   H2775     1.0  0.80275  0.06060  0.61447  1.0000
  H   H2776     1.0  0.77699  0.04871  0.60064  1.0000
  H   H2777     1.0  0.75595  0.04162  0.61743  1.0000
  H   H2778     1.0  0.74617  0.05359  0.64790  1.0000
  H   H2779     1.0  0.76936  0.04563  0.65689  1.0000
  H   H2780     1.0  0.75093  0.08969  0.65401  1.0000
  H   H2781     1.0  0.77226  0.07744  0.66603  1.0000
  H   H2782     1.0  0.73721  0.06805  0.60576  1.0000
  H   H2783     1.0  0.72990  0.07847  0.62886  1.0000
  C   C1568     1.0  0.97287  0.14142  0.62346  1.0000
  C   C1569     1.0  0.59647  0.05398  0.69495  1.0000
  H   H2784     1.0  0.79583  0.09625  0.61459  1.0000
  H   H2785     1.0  0.78524  0.01203  0.59711  1.0000
  H   H2786     1.0  0.54410  0.28153  0.63257  1.0000
  H   H2787     1.0  0.51149  0.23348  0.50295  1.0000
  C   C1570     1.0  0.96657  0.20174  0.61123  1.0000
  H   H2788     1.0  0.72882  0.06861  0.67755  1.0000
  H   H2789     1.0  0.75022  0.05624  0.68941  1.0000
  C   C1571     1.0  0.54984  0.27997  0.56299  1.0000
  H   H2790     1.0  0.73054  0.11260  0.61043  1.0000
  H   H2791     1.0  0.73849  0.10215  0.58728  1.0000
  H   H2792     1.0  0.71426  0.09880  0.60092  1.0000
  C   C1572     1.0  0.94175  0.01977  0.64146  1.0000
  H   H2793     1.0  0.81509  0.27898  0.55567  1.0000
  H   H2794     1.0  0.97164  0.23127  0.51543  1.0000
  C   C1573     1.0  0.52719  0.17690  0.54700  1.0000
  H   H2795     1.0  0.49558  0.24513  0.56090  1.0000
  H   H2796     1.0  0.51541  0.19050  0.60153  1.0000
  H   H2797     1.0  0.80032  0.02690  0.62192  1.0000
  H   H2798     1.0  0.96767  0.98694  0.65906  1.0000
  C   C1574     1.0  0.80685  0.01924  0.50391  1.0000
  N   N88       1.0  0.57928  0.06513  0.64181  1.0000
  C   C1575     1.0  0.56735  0.08401  0.63330  1.0000
  C   C1576     1.0  0.56732  0.04792  0.64334  1.0000
  C   C1577     1.0  0.58191  0.06763  0.66282  1.0000
  C   C1578     1.0  0.59967  0.06084  0.62987  1.0000
  C   C1579     1.0  0.60155  0.06805  0.60707  1.0000
  C   C1580     1.0  0.57590  0.10356  0.63455  1.0000
  C   C1581     1.0  0.59108  0.04880  0.67561  1.0000
  C   C1582     1.0  0.56054  0.04382  0.62397  1.0000
  C   C1583     1.0  0.54778  0.02669  0.62814  1.0000
  C   C1584     1.0  0.62152  0.05948  0.59627  1.0000
  C   C1585     1.0  0.56798  0.12082  0.61975  1.0000
  H   H2799     1.0  0.96951  0.18673  0.58475  1.0000
  H   H2800     1.0  0.55185  0.08528  0.64129  1.0000
  H   H2801     1.0  0.56538  0.08366  0.61757  1.0000
  H   H2802     1.0  0.57601  0.03373  0.64917  1.0000
  H   H2803     1.0  0.55361  0.05017  0.65430  1.0000
  H   H2804     1.0  0.56720  0.07289  0.67123  1.0000
  H   H2805     1.0  0.59163  0.07938  0.66265  1.0000
  H   H2806     1.0  0.61110  0.06782  0.63555  1.0000
  H   H2807     1.0  0.60499  0.04456  0.63198  1.0000
  H   H2808     1.0  0.60070  0.08453  0.60419  1.0000
  H   H2809     1.0  0.58953  0.06387  0.59999  1.0000
  H   H2810     1.0  0.57146  0.10792  0.64977  1.0000
  H   H2811     1.0  0.59249  0.10164  0.63162  1.0000
  H   H2812     1.0  0.60481  0.04152  0.66733  1.0000
  H   H2813     1.0  0.58005  0.03795  0.67992  1.0000
  H   H2814     1.0  0.55129  0.05704  0.61721  1.0000
  H   H2815     1.0  0.57365  0.03928  0.61320  1.0000
  H   H2816     1.0  0.63088  0.27438  0.49926  1.0000
  H   H2817     1.0  0.53445  0.03007  0.63921  1.0000
  H   H2818     1.0  0.60328  0.20252  0.49818  1.0000
  H   H2819     1.0  0.53088  0.25377  0.63571  1.0000
  H   H2820     1.0  0.63423  0.06395  0.60227  1.0000
  H   H2821     1.0  0.49120  0.20584  0.51757  1.0000
  H   H2822     1.0  0.57285  0.11755  0.60422  1.0000
  H   H2823     1.0  0.55140  0.12347  0.62235  1.0000
  H   H2824     1.0  0.57388  0.13462  0.62158  1.0000
  H   H2825     1.0  0.87932  0.99520  0.64480  1.0000
  C   C1586     1.0  0.51386  0.23705  0.62204  1.0000
  C   C1587     1.0  0.53596  0.26242  0.60318  1.0000
  N   N89       1.0  0.94406  0.10544  0.57140  1.0000
  C   C1588     1.0  0.96423  0.09582  0.57698  1.0000
  C   C1589     1.0  0.92944  0.10708  0.59019  1.0000
  C   C1590     1.0  0.93654  0.09157  0.55978  1.0000
  C   C1591     1.0  0.94483  0.12553  0.55876  1.0000
  C   C1592     1.0  0.96106  0.13811  0.56184  1.0000
  C   C1593     1.0  0.64642  0.24732  0.48672  1.0000
  C   C1594     1.0  0.91478  0.09762  0.55472  1.0000
  C   C1595     1.0  0.93471  0.11909  0.60569  1.0000
  H   H2826     1.0  0.97473  0.01544  0.64118  1.0000
  C   C1596     1.0  0.95818  0.15895  0.55015  1.0000
  C   C1597     1.0  0.50447  0.31009  0.66258  1.0000
  C   C1598     1.0  0.91013  0.08522  0.53961  1.0000
  H   H2827     1.0  0.96252  0.08213  0.58786  1.0000
  H   H2828     1.0  0.97069  0.10548  0.58531  1.0000
  H   H2829     1.0  0.91449  0.11437  0.58654  1.0000
  H   H2830     1.0  0.92717  0.09189  0.59798  1.0000
  H   H2831     1.0  0.93727  0.07622  0.56808  1.0000
  H   H2832     1.0  0.94630  0.09020  0.54535  1.0000
  H   H2833     1.0  0.94735  0.12386  0.54259  1.0000
  H   H2834     1.0  0.93002  0.13488  0.56085  1.0000
  H   H2835     1.0  0.97626  0.13104  0.55646  1.0000
  H   H2836     1.0  0.96078  0.13976  0.57768  1.0000
  H   H2837     1.0  0.57400  0.02219  0.54485  1.0000
  C   C1599     1.0  0.57758  0.29980  0.63426  1.0000
  H   H2838     1.0  0.91221  0.11355  0.54842  1.0000
  H   H2839     1.0  0.90382  0.09501  0.56830  1.0000
  H   H2840     1.0  0.94934  0.11296  0.61078  1.0000
  H   H2841     1.0  0.93481  0.13496  0.59945  1.0000
  H   H2842     1.0  0.80100  0.03039  0.51369  1.0000
  H   H2843     1.0  0.60142  0.02974  0.51811  1.0000
  H   H2844     1.0  0.88095  0.06677  0.51551  1.0000
  H   H2845     1.0  0.50438  0.23903  0.60987  1.0000
  C   C1600     1.0  0.91019  0.99983  0.63328  1.0000
  H   H2846     1.0  0.56283  0.30318  0.54182  1.0000
  H   H2847     1.0  0.66162  0.03059  0.49962  1.0000
  H   H2848     1.0  0.89414  0.08910  0.53733  1.0000
  H   H2849     1.0  0.91954  0.08838  0.52505  1.0000
  H   H2850     1.0  0.91273  0.06906  0.54511  1.0000
  C   C1601     1.0  0.93676  0.00685  0.67673  1.0000
  H   H2851     1.0  0.97639  0.22393  0.64225  1.0000
  N   N90       1.0  0.93757  0.00150  0.65598  1.0000
  C   C1602     1.0  0.52235  0.25637  0.62277  1.0000
  S   S369      1.0  0.95169  0.13120  0.66005  1.0000
  C   C1603     1.0  0.98530  0.06835  0.55817  1.0000
  C   C1604     1.0  0.49780  0.29416  0.53776  1.0000
  H   H2852     1.0  0.97501  0.20170  0.67789  1.0000
  H   H2853     1.0  0.51631  0.21251  0.56958  1.0000
  H   H2854     1.0  0.96358  0.99119  0.62117  1.0000
  H   H2855     1.0  0.51234  0.28012  0.65570  1.0000
  C   C1605     1.0  0.83700  0.11602  0.49982  1.0000
  H   H2856     1.0  0.55811  0.28235  0.53088  1.0000
  H   H2857     1.0  0.54996  0.26363  0.56363  1.0000
  H   H2858     1.0  0.91154  0.26904  0.50687  1.0000
  H   H2859     1.0  0.59074  0.28866  0.63062  1.0000
  H   H2860     1.0  0.62282  0.04297  0.59781  1.0000
  H   H2861     1.0  0.96401  0.17509  0.70342  1.0000
  C   C1606     1.0  0.96194  0.02751  0.64181  1.0000
  C   C1607     1.0  0.53921  0.04924  0.72136  1.0000
  H   H2862     1.0  0.52561  0.19684  0.50000  1.0000
  H   H2863     1.0  0.62211  0.30995  0.66854  1.0000
  C   C1608     1.0  0.60754  0.20278  0.48229  1.0000
  C   C1609     1.0  0.97035  0.12684  0.64000  1.0000
  N   N91       1.0  0.83715  0.30874  0.56296  1.0000
  C   C1610     1.0  0.86711  0.06202  0.48112  1.0000
  H   H2864     1.0  0.55682  0.07262  0.48252  1.0000
  H   H2865     1.0  0.53378  0.17572  0.62944  1.0000
  C   C1611     1.0  0.89324  0.06507  0.50300  1.0000
  H   H2866     1.0  0.80640  0.30193  0.51496  1.0000
  C   C1612     1.0  0.64272  0.01518  0.48575  1.0000
  C   C1613     1.0  0.80231  0.29242  0.52920  1.0000
  H   H2867     1.0  0.50470  0.30708  0.71839  1.0000
  H   H2868     1.0  0.92562  0.17231  0.51994  1.0000
  H   H2869     1.0  0.55990  0.17152  0.54391  1.0000
  H   H2870     1.0  0.82948  0.24175  0.51636  1.0000
  C   C1614     1.0  0.49194  0.19388  0.57166  1.0000
  H   H2871     1.0  0.94313  0.16685  0.55478  1.0000
  C   C1615     1.0  0.57137  0.07757  0.48363  1.0000
  S   S370      1.0  0.84364  0.01967  0.51617  1.0000
  C   C1616     1.0  0.82010  0.08643  0.63163  1.0000
  H   H2872     1.0  0.50228  0.14574  0.55458  1.0000
  H   H2873     1.0  0.89022  0.21859  0.48244  1.0000
  H   H2874     1.0  0.88583  0.99451  0.61843  1.0000
  S   S371      1.0  0.59715  0.30603  0.50066  1.0000
  C   C1617     1.0  0.83615  0.21428  0.50291  1.0000
  C   C1618     1.0  0.55736  0.28475  0.58182  1.0000
  C   C1619     1.0  0.85692  0.29832  0.55413  1.0000
  C   C1620     1.0  0.89416  0.28745  0.55399  1.0000
  H   H2875     1.0  0.97999  0.04984  0.62573  1.0000
  C   C1621     1.0  0.91727  0.99580  0.65421  1.0000
  H   H2876     1.0  0.62152  0.29689  0.58473  1.0000
  S   S372      1.0  0.52925  0.31293  0.66431  1.0000
  H   H2877     1.0  0.98304  0.23650  0.49049  1.0000
  H   H2878     1.0  0.49071  0.19305  0.55587  1.0000
  H   H2879     1.0  0.49579  0.22842  0.54288  1.0000
  H   H2880     1.0  0.50949  0.26808  0.62525  1.0000
  H   H2881     1.0  0.80953  0.17345  0.50967  1.0000
  H   H2882     1.0  0.65491  0.24176  0.49961  1.0000
  H   H2883     1.0  0.51247  0.29340  0.59491  1.0000
  H   H2884     1.0  0.85556  0.28270  0.55249  1.0000
  H   H2885     1.0  0.92580  0.02037  0.67880  1.0000
  C   C1622     1.0  0.54736  0.16752  0.53725  1.0000
  H   H2886     1.0  0.80043  0.06397  0.48416  1.0000
  H   H2887     1.0  0.56088  0.23097  0.53422  1.0000
  H   H2888     1.0  0.91980  0.20368  0.49818  1.0000
  H   H2889     1.0  0.95365  0.05572  0.62355  1.0000
  N   N92       1.0  0.54296  0.28273  0.60088  1.0000
  H   H2890     1.0  0.87017  0.14953  0.52797  1.0000
  H   H2891     1.0  0.84995  0.99045  0.48902  1.0000
  H   H2892     1.0  0.83048  0.08092  0.48292  1.0000
  H   H2893     1.0  0.50435  0.23302  0.63633  1.0000
  H   H2894     1.0  0.78874  0.09390  0.64097  1.0000
  C   C1623     1.0  0.52176  0.29545  0.50753  1.0000
  C   C1624     1.0  0.88762  0.05307  0.48807  1.0000
  H   H2895     1.0  0.82377  0.07653  0.64534  1.0000
  H   H2896     1.0  0.54801  0.15105  0.53905  1.0000
  C   C1625     1.0  0.55416  0.28325  0.61821  1.0000
  H   H2897     1.0  0.57583  0.99911  0.50917  1.0000
  H   H2898     1.0  0.58303  0.06121  0.70374  1.0000
  H   H2899     1.0  0.59315  0.31564  0.56815  1.0000
  H   H2900     1.0  0.52611  0.22464  0.61974  1.0000
  H   H2901     1.0  0.53433  0.28722  0.56192  1.0000
  H   H2902     1.0  0.86128  0.30583  0.53885  1.0000
  H   H2903     1.0  0.92179  0.99412  0.62166  1.0000
  H   H2904     1.0  0.84769  0.15648  0.49879  1.0000
  C   C1626     1.0  0.98783  0.19296  0.61629  1.0000
  C   C1627     1.0  0.93376  0.19380  0.49422  1.0000
  C   C1628     1.0  0.98228  0.10837  0.64014  1.0000
  H   H2905     1.0  0.92887  0.28715  0.50320  1.0000
  H   H2906     1.0  0.84875  0.20917  0.51177  1.0000
  H   H2907     1.0  0.78807  0.29942  0.53697  1.0000
  H   H2908     1.0  0.56184  0.29990  0.57830  1.0000
  C   C1629     1.0  0.57755  0.01278  0.51532  1.0000
  H   H2909     1.0  0.52700  0.15274  0.64357  1.0000
  H   H2910     1.0  0.49961  0.14432  0.59046  1.0000
  H   H2911     1.0  0.56974  0.29480  0.64920  1.0000
  C   C1630     1.0  0.66224  0.02360  0.48588  1.0000
  C   C1631     1.0  0.87151  0.17261  0.50223  1.0000
  H   H2912     1.0  0.56628  0.27039  0.61910  1.0000
  H   H2913     1.0  0.83362  0.28093  0.58197  1.0000
  H   H2914     1.0  0.60937  0.00493  0.51357  1.0000
  C   C1632     1.0  0.55012  0.22796  0.48640  1.0000
  H   H2915     1.0  0.62931  0.30423  0.55867  1.0000
  H   H2916     1.0  0.57906  0.27980  0.54468  1.0000
  H   H2917     1.0  0.79986  0.27774  0.52562  1.0000
  H   H2918     1.0  0.68198  0.30666  0.48547  1.0000
  H   H2919     1.0  0.89717  0.29618  0.53907  1.0000
  H   H2920     1.0  0.86654  0.17472  0.53412  1.0000
  H   H2921     1.0  0.97578  0.17055  0.64949  1.0000
  H   H2922     1.0  0.55069  0.10247  0.72357  1.0000
  C   C1633     1.0  0.50628  0.22457  0.49294  1.0000
  H   H2923     1.0  0.88669  0.03757  0.49553  1.0000
  H   H2924     1.0  0.96890  0.03690  0.60994  1.0000
  H   H2925     1.0  0.93669  0.23265  0.51774  1.0000
  C   C1634     1.0  0.91895  0.11841  0.62415  1.0000
  C   C1635     1.0  0.82703  0.01123  0.50270  1.0000
  C   C1636     1.0  0.51528  0.30050  0.52675  1.0000
  H   H2926     1.0  0.90380  0.12429  0.62008  1.0000
  H   H2927     1.0  0.84602  0.24352  0.49320  1.0000
  H   H2928     1.0  0.94752  0.18007  0.68448  1.0000
  C   C1637     1.0  0.52449  0.17058  0.56987  1.0000
  H   H2929     1.0  0.61354  0.99507  0.48085  1.0000
  H   H2930     1.0  0.91881  0.10291  0.63179  1.0000
  C   C1638     1.0  0.58548  0.06031  0.49277  1.0000
  C   C1639     1.0  0.92709  0.27124  0.50817  1.0000
  C   C1640     1.0  0.82926  0.29722  0.58244  1.0000
  H   H2931     1.0  0.53570  0.17776  0.57567  1.0000
  H   H2932     1.0  0.57358  0.24111  0.51074  1.0000
  H   H2933     1.0  0.90636  0.01614  0.62907  1.0000
  H   H2934     1.0  0.54934  0.17288  0.52108  1.0000
  H   H2935     1.0  0.62761  0.30990  0.52365  1.0000
  H   H2936     1.0  0.62473  0.24620  0.52529  1.0000
  H   H2937     1.0  0.91719  0.01098  0.71504  1.0000
  H   H2938     1.0  0.56599  0.02485  0.51026  1.0000
  H   H2939     1.0  0.49852  0.03720  0.72718  1.0000
  C   C1641     1.0  0.57316  0.00864  0.53801  1.0000
  C   C1642     1.0  0.94222  0.25811  0.49528  1.0000
  H   H2940     1.0  0.55955  0.18758  0.48830  1.0000
  C   C1643     1.0  0.96301  0.17419  0.68755  1.0000
  C   C1644     1.0  0.56345  0.30257  0.61842  1.0000
  C   C1645     1.0  0.55294  0.22039  0.50844  1.0000
  H   H2941     1.0  0.50312  0.11514  0.71537  1.0000
  H   H2942     1.0  0.85166  0.30340  0.60059  1.0000
  C   C1646     1.0  0.49307  0.27781  0.50992  1.0000
  H   H2943     1.0  0.83985  0.17620  0.51303  1.0000
  C   C1647     1.0  0.80532  0.18163  0.49537  1.0000
  C   C1648     1.0  0.49975  0.21380  0.57288  1.0000
  H   H2944     1.0  0.57159  0.27466  0.58361  1.0000
  H   H2945     1.0  0.90694  0.05731  0.50911  1.0000
  H   H2946     1.0  0.52704  0.26162  0.59101  1.0000
  H   H2947     1.0  0.51848  0.30058  0.61668  1.0000
  H   H2948     1.0  0.83275  0.28279  0.53342  1.0000
  H   H2949     1.0  0.54904  0.25058  0.60181  1.0000
  H   H2950     1.0  0.49763  0.10202  0.69628  1.0000
  H   H2951     1.0  0.76537  0.00529  0.61645  1.0000
  H   H2952     1.0  0.97527  0.21213  0.57986  1.0000
  H   H2953     1.0  0.97390  0.11972  0.51546  1.0000
  C   C1649     1.0  0.54736  0.08759  0.72306  1.0000
  H   H2954     1.0  0.60817  0.06414  0.69176  1.0000
  H   H2955     1.0  0.51537  0.17261  0.53967  1.0000
  H   H2956     1.0  0.89283  0.27190  0.55205  1.0000
  H   H2957     1.0  0.60229  0.04017  0.70415  1.0000
  H   H2958     1.0  0.94965  0.20732  0.58605  1.0000
  C   C1650     1.0  0.83257  0.23703  0.50125  1.0000
  H   H2959     1.0  0.96613  0.15825  0.68515  1.0000
  H   H2960     1.0  0.94937  0.19868  0.51820  1.0000
  H   H2961     1.0  0.49531  0.21789  0.58819  1.0000
  C   C1651     1.0  0.84945  0.17231  0.49925  1.0000
  C   C1652     1.0  0.97637  0.18622  0.65186  1.0000
  H   H2962     1.0  0.55666  0.01264  0.63394  1.0000
  H   H2963     1.0  0.90712  0.28732  0.56213  1.0000
  H   H2964     1.0  0.94349  0.00264  0.71672  1.0000
  H   H2965     1.0  0.49109  0.18392  0.60991  1.0000
  H   H2966     1.0  0.77849  0.01896  0.49363  1.0000
  C   C1653     1.0  0.98055  0.09073  0.55931  1.0000
  C   C1654     1.0  0.87605  0.12093  0.48225  1.0000
  S   S373      1.0  0.49063  0.30095  0.56190  1.0000
  H   H2967     1.0  0.83412  0.29156  0.63332  1.0000
  H   H2968     1.0  0.56855  0.08969  0.49323  1.0000
  C   C1655     1.0  0.87504  0.29682  0.56572  1.0000
  C   C1656     1.0  0.95196  0.20028  0.50160  1.0000
  H   H2969     1.0  0.96262  0.21724  0.61482  1.0000
  C   C1657     1.0  0.93026  0.17275  0.50365  1.0000
  H   H2970     1.0  0.88158  0.16296  0.49223  1.0000
  H   H2971     1.0  0.98084  0.09720  0.65297  1.0000
  H   H2972     1.0  0.66444  0.27530  0.49137  1.0000
  C   C1658     1.0  0.93140  0.99036  0.69412  1.0000
  H   H2973     1.0  0.81367  0.28620  0.62191  1.0000
  N   N93       1.0  0.95688  0.22101  0.49344  1.0000
  C   C1659     1.0  0.93965  0.23568  0.50117  1.0000
  C   C1660     1.0  0.81913  0.28959  0.54226  1.0000
  H   H2974     1.0  0.82265  0.20847  0.51143  1.0000
  S   S374      1.0  0.97389  0.31467  0.61686  1.0000
  H   H2975     1.0  0.98616  0.19645  0.51813  1.0000
  C   C1661     1.0  0.97558  0.22495  0.50102  1.0000
  H   H2976     1.0  0.81256  0.29926  0.58465  1.0000
  C   C1662     1.0  0.92917  0.99807  0.71426  1.0000
  C   C1663     1.0  0.83546  0.30250  0.60178  1.0000
  H   H2977     1.0  0.87788  0.31164  0.56847  1.0000
  H   H2978     1.0  0.64111  0.23408  0.48257  1.0000
  H   H2979     1.0  0.83833  0.27221  0.61742  1.0000
  C   C1664     1.0  0.62396  0.30983  0.57319  1.0000
  S   S375      1.0  0.61403  0.16216  0.49092  1.0000
  H   H2980     1.0  0.67492  0.01139  0.48566  1.0000
  H   H2981     1.0  0.57228  0.30728  0.60404  1.0000
  H   H2982     1.0  0.81954  0.24303  0.49317  1.0000
  H   H2983     1.0  0.54133  0.30668  0.71168  1.0000
  S   S376      1.0  0.61149  0.10552  0.48499  1.0000
  H   H2984     1.0  0.58298  0.31421  0.63488  1.0000
  H   H2985     1.0  0.61713  0.26506  0.48298  1.0000
  Fe  Fe187     1.0  0.62908  0.13013  0.48838  1.0000
  H   H2986     1.0  0.59961  0.06599  0.49386  1.0000
  H   H2987     1.0  0.92507  0.98611  0.72639  1.0000
  C   C1665     1.0  0.52270  0.20756  0.48653  1.0000
  H   H2988     1.0  0.97187  0.06201  0.55590  1.0000
  N   N94       1.0  0.60432  0.02548  0.48700  1.0000
  H   H2989     1.0  0.53529  0.30046  0.49927  1.0000
  S   S377      1.0  0.95185  0.12341  0.48250  1.0000
  C   C1666     1.0  0.54198  0.30201  0.72786  1.0000
  H   H2990     1.0  0.52376  0.30954  0.53305  1.0000
  C   C1667     1.0  0.83002  0.28713  0.61965  1.0000
  H   H2991     1.0  0.79083  0.15689  0.49004  1.0000
  C   C1668     1.0  0.98742  0.13751  0.60717  1.0000
  C   C1669     1.0  0.98882  0.00555  0.69064  1.0000
  H   H2992     1.0  0.98489  0.24761  0.66302  1.0000
  C   C1670     1.0  0.84132  0.20722  0.48201  1.0000
  N   N95       1.0  0.84253  0.18512  0.48101  1.0000
  Fe  Fe188     1.0  0.86088  0.12701  0.96346  1.0000
  H   H2993     1.0  0.97018  0.30918  0.94940  1.0000
  S   S378      1.0  0.87391  0.13475  0.93119  1.0000
  H   H2994     1.0  0.86244  0.17697  0.91481  1.0000
  C   C1671     1.0  0.49858  0.08964  0.76760  1.0000
  H   H2995     1.0  0.66725  0.00193  0.82152  1.0000
  H   H2996     1.0  0.71345  0.04189  0.83698  1.0000
  S   S379      1.0  0.96520  0.10799  0.90052  1.0000
  C   C1672     1.0  0.66930  0.01791  0.81763  1.0000
  C   C1673     1.0  0.98049  0.27960  0.90710  1.0000
  Fe  Fe189     1.0  0.54700  0.07184  0.83286  1.0000
  S   S380      1.0  0.57608  0.07444  0.81324  1.0000
  S   S381      1.0  0.53640  0.09369  0.85473  1.0000
  Fe  Fe190     1.0  0.54340  0.03111  0.82190  1.0000
  S   S382      1.0  0.57295  0.03035  0.80192  1.0000
  H   H2997     1.0  0.50365  0.07920  0.73138  1.0000
  Fe  Fe191     1.0  0.58476  0.04277  0.82627  1.0000
  S   S383      1.0  0.61216  0.02999  0.84231  1.0000
  Fe  Fe192     1.0  0.56133  0.06215  0.79090  1.0000
  S   S384      1.0  0.55605  0.04080  0.84674  1.0000
  S   S385      1.0  0.53131  0.06217  0.80997  1.0000
  Fe  Fe193     1.0  0.71348  0.07118  0.94000  1.0000
  H   H2998     1.0  0.97963  0.04086  0.76713  1.0000
  S   S386      1.0  0.74175  0.08659  0.93551  1.0000
  Fe  Fe194     1.0  0.68107  0.06178  0.91622  1.0000
  S   S387      1.0  0.66609  0.04396  0.94289  1.0000
  S   S388      1.0  0.66903  0.07009  0.88623  1.0000
  Fe  Fe195     1.0  0.67066  0.06834  0.95957  1.0000
  C   C1674     1.0  0.69586  0.01625  0.88179  1.0000
  Fe  Fe196     1.0  0.69707  0.03127  0.94939  1.0000
  S   S389      1.0  0.68367  0.08731  0.93260  1.0000
  S   S390      1.0  0.71214  0.04706  0.92119  1.0000
  H   H2999     1.0  0.74046  0.03650  0.85642  1.0000
  H   H3000     1.0  0.55039  0.04154  0.74991  1.0000
  C   C1675     1.0  0.62478  0.04294  0.85637  1.0000
  C   C1676     1.0  0.63113  0.03330  0.87445  1.0000
  C   C1677     1.0  0.64368  0.04194  0.88450  1.0000
  C   C1678     1.0  0.65067  0.05999  0.87614  1.0000
  C   C1679     1.0  0.64398  0.06980  0.85833  1.0000
  C   C1680     1.0  0.63099  0.06145  0.84861  1.0000
  H   H3001     1.0  0.62664  0.01886  0.88048  1.0000
  H   H3002     1.0  0.64868  0.03418  0.89816  1.0000
  H   H3003     1.0  0.64923  0.08376  0.85170  1.0000
  H   H3004     1.0  0.62651  0.06893  0.83459  1.0000
  C   C1681     1.0  0.72613  0.04457  0.86278  1.0000
  H   H3005     1.0  0.74041  0.00643  0.87358  1.0000
  C   C1682     1.0  0.51113  0.10304  0.85514  1.0000
  H   H3006     1.0  0.61302  0.11224  0.93467  1.0000
  C   C1683     1.0  0.55388  0.28093  0.96938  1.0000
  H   H3007     1.0  0.91602  0.09032  0.82303  1.0000
  H   H3008     1.0  0.75288  0.02834  0.97658  1.0000
  H   H3009     1.0  0.91456  0.12066  0.78315  1.0000
  H   H3010     1.0  0.56324  0.24836  0.93410  1.0000
  H   H3011     1.0  0.70858  0.01571  0.89030  1.0000
  H   H3012     1.0  0.51731  0.27330  0.91135  1.0000
  C   C1684     1.0  0.96736  0.23644  0.95998  1.0000
  H   H3013     1.0  0.51158  0.10725  0.78489  1.0000
  H   H3014     1.0  0.53943  0.31006  0.95711  1.0000
  H   H3015     1.0  0.93118  0.13272  0.97848  1.0000
  H   H3016     1.0  0.70090  0.01349  0.81961  1.0000
  C   C1685     1.0  0.64753  0.18401  0.96221  1.0000
  H   H3017     1.0  0.63106  0.13075  0.89104  1.0000
  C   C1686     1.0  0.96486  0.11813  0.78580  1.0000
  C   C1687     1.0  0.96350  0.09849  0.79469  1.0000
  C   C1688     1.0  0.95760  0.08467  0.78403  1.0000
  C   C1689     1.0  0.95364  0.09010  0.76419  1.0000
  C   C1690     1.0  0.95562  0.10954  0.75515  1.0000
  C   C1691     1.0  0.96095  0.12350  0.76598  1.0000
  H   H3018     1.0  0.96637  0.09415  0.80995  1.0000
  H   H3019     1.0  0.95589  0.06973  0.79121  1.0000
  H   H3020     1.0  0.48900  0.98388  0.86933  1.0000
  H   H3021     1.0  0.51734  0.07266  0.89758  1.0000
  H   H3022     1.0  0.98128  0.21995  0.92446  1.0000
  C   C1692     1.0  0.72792  0.06685  0.85830  1.0000
  C   C1693     1.0  0.75511  0.09432  0.95286  1.0000
  C   C1694     1.0  0.77358  0.10145  0.94592  1.0000
  C   C1695     1.0  0.78424  0.10876  0.95883  1.0000
  H   H3023     1.0  0.56813  0.21223  0.94791  1.0000
  C   C1696     1.0  0.54714  0.05333  0.73798  1.0000
  H   H3024     1.0  0.77961  0.10152  0.93036  1.0000
  C   C1697     1.0  0.63202  0.10137  0.97781  1.0000
  C   C1698     1.0  0.89963  0.12811  0.92350  1.0000
  C   C1699     1.0  0.91119  0.11341  0.93485  1.0000
  C   C1700     1.0  0.93136  0.10759  0.92771  1.0000
  C   C1701     1.0  0.94020  0.11665  0.90940  1.0000
  C   C1702     1.0  0.92881  0.13183  0.89836  1.0000
  C   C1703     1.0  0.90852  0.13737  0.90530  1.0000
  H   H3025     1.0  0.90447  0.10614  0.94885  1.0000
  H   H3026     1.0  0.94010  0.09585  0.93633  1.0000
  H   H3027     1.0  0.93556  0.13902  0.88436  1.0000
  H   H3028     1.0  0.89966  0.14885  0.89654  1.0000
  H   H3029     1.0  0.54212  0.23450  0.96658  1.0000
  H   H3030     1.0  0.96944  0.25281  0.92166  1.0000
  N   N96       1.0  0.89694  0.19432  0.95190  1.0000
  C   C1704     1.0  0.87942  0.18494  0.94802  1.0000
  H   H3031     1.0  0.96188  0.13864  0.75897  1.0000
  S   S391      1.0  0.50885  0.30241  0.85264  1.0000
  C   C1705     1.0  0.91180  0.19829  0.93342  1.0000
  C   C1706     1.0  0.91411  0.18378  0.91753  1.0000
  C   C1707     1.0  0.86516  0.19846  0.93442  1.0000
  H   H3032     1.0  0.94244  0.31639  0.92068  1.0000
  H   H3033     1.0  0.51123  0.07750  0.76898  1.0000
  C   C1708     1.0  0.73096  0.14681  0.96788  1.0000
  C   C1709     1.0  0.93183  0.18735  0.90145  1.0000
  C   C1710     1.0  0.87568  0.09179  0.89109  1.0000
  C   C1711     1.0  0.90381  0.22498  0.96700  1.0000
  H   H3034     1.0  0.74518  0.16839  0.94560  1.0000
  H   H3035     1.0  0.88447  0.17084  0.94159  1.0000
  H   H3036     1.0  0.94021  0.13888  0.83450  1.0000
  H   H3037     1.0  0.88355  0.31053  0.97550  1.0000
  C   C1712     1.0  0.70326  0.13387  0.91184  1.0000
  H   H3038     1.0  0.88157  0.22444  0.94791  1.0000
  H   H3039     1.0  0.90782  0.21343  0.92538  1.0000
  H   H3040     1.0  0.92691  0.19850  0.93768  1.0000
  H   H3041     1.0  0.90050  0.18588  0.90998  1.0000
  H   H3042     1.0  0.91640  0.16803  0.92417  1.0000
  H   H3043     1.0  0.96462  0.29544  0.86225  1.0000
  H   H3044     1.0  0.87356  0.20761  0.92215  1.0000
  H   H3045     1.0  0.89176  0.28716  0.91204  1.0000
  C   C1713     1.0  0.89168  0.10409  0.87962  1.0000
  H   H3046     1.0  0.54980  0.13006  0.96657  1.0000
  H   H3047     1.0  0.49405  0.27707  0.80846  1.0000
  H   H3048     1.0  0.52971  0.15805  0.95052  1.0000
  C   C1714     1.0  0.91654  0.16002  0.96373  1.0000
  H   H3049     1.0  0.50703  0.05096  0.75572  1.0000
  H   H3050     1.0  0.93253  0.17734  0.88993  1.0000
  H   H3051     1.0  0.93022  0.20301  0.89411  1.0000
  H   H3052     1.0  0.94610  0.18399  0.90798  1.0000
  H   H3053     1.0  0.50232  0.09994  0.75385  1.0000
  H   H3054     1.0  0.92492  0.07340  0.87087  1.0000
  H   H3055     1.0  0.86124  0.09630  0.88496  1.0000
  H   H3056     1.0  0.49666  0.28174  0.92924  1.0000
  S   S392      1.0  0.84343  0.10145  0.97603  1.0000
  C   C1715     1.0  0.50023  0.10871  0.87281  1.0000
  H   H3057     1.0  0.92823  0.11164  0.81510  1.0000
  H   H3058     1.0  0.58587  0.21742  0.96306  1.0000
  H   H3059     1.0  0.63179  0.14442  0.94553  1.0000
  H   H3060     1.0  0.60822  0.01894  0.94747  1.0000
  H   H3061     1.0  0.93249  0.17510  0.82614  1.0000
  C   C1716     1.0  0.49270  0.21199  0.91570  1.0000
  H   H3062     1.0  0.87008  0.18036  0.96236  1.0000
  H   H3063     1.0  0.97604  0.28797  0.92011  1.0000
  H   H3064     1.0  0.51305  0.05967  0.86612  1.0000
  H   H3065     1.0  0.88849  0.11931  0.78232  1.0000
  H   H3066     1.0  0.90614  0.17382  0.83381  1.0000
  H   H3067     1.0  0.53151  0.26094  0.86608  1.0000
  H   H3068     1.0  0.50751  0.10765  0.88599  1.0000
  C   C1717     1.0  0.50408  0.30384  0.73489  1.0000
  H   H3069     1.0  0.64295  0.19547  0.94989  1.0000
  C   C1718     1.0  0.91435  0.10659  0.82381  1.0000
  H   H3070     1.0  0.67160  0.02142  0.80115  1.0000
  H   H3071     1.0  0.91810  0.22475  0.95681  1.0000
  H   H3072     1.0  0.88057  0.24782  0.97801  1.0000
  H   H3073     1.0  0.54250  0.27728  0.93534  1.0000
  H   H3074     1.0  0.51791  0.01451  0.75197  1.0000
  H   H3075     1.0  0.95253  0.11399  0.73996  1.0000
  H   H3076     1.0  0.67937  0.10538  0.97661  1.0000
  C   C1719     1.0  0.49409  0.16996  0.86887  1.0000
  Fe  Fe197     1.0  0.98243  0.12266  0.87264  1.0000
  C   C1720     1.0  0.92144  0.16673  0.83638  1.0000
  C   C1721     1.0  0.51847  0.25864  0.94179  1.0000
  C   C1722     1.0  0.90697  0.18110  0.96823  1.0000
  C   C1723     1.0  0.68731  0.02246  0.82628  1.0000
  H   H3077     1.0  0.51124  0.19312  0.94818  1.0000
  C   C1724     1.0  0.53672  0.24779  0.87649  1.0000
  H   H3078     1.0  0.88049  0.07565  0.89039  1.0000
  C   C1725     1.0  0.50150  0.17338  0.88793  1.0000
  H   H3079     1.0  0.87637  0.21157  0.97223  1.0000
  H   H3080     1.0  0.49499  0.03382  0.81319  1.0000
  C   C1726     1.0  0.57911  0.22237  0.94905  1.0000
  H   H3081     1.0  0.64179  0.12925  0.91399  1.0000
  H   H3082     1.0  0.56731  0.11206  0.97906  1.0000
  H   H3083     1.0  0.51579  0.23020  0.86966  1.0000
  C   C1727     1.0  0.64039  0.12105  0.90156  1.0000
  C   C1728     1.0  0.51980  0.23491  0.88320  1.0000
  C   C1729     1.0  0.52305  0.31090  0.74013  1.0000
  H   H3084     1.0  0.65544  0.02718  0.82341  1.0000
  H   H3085     1.0  0.90504  0.09687  0.78862  1.0000
  H   H3086     1.0  0.59003  0.05202  0.95213  1.0000
  C   C1730     1.0  0.50314  0.00238  0.82129  1.0000
  H   H3087     1.0  0.67590  0.00662  0.91981  1.0000
  H   H3088     1.0  0.72755  0.00852  0.83869  1.0000
  H   H3089     1.0  0.74082  0.07011  0.86490  1.0000
  H   H3090     1.0  0.50673  0.24454  0.88983  1.0000
  H   H3091     1.0  0.76035  0.98991  0.84551  1.0000
  N   N97       1.0  0.51148  0.20181  0.90490  1.0000
  C   C1731     1.0  0.52143  0.18472  0.91815  1.0000
  C   C1732     1.0  0.50717  0.19478  0.88619  1.0000
  C   C1733     1.0  0.52615  0.21687  0.89863  1.0000
  S   S393      1.0  0.53527  0.31116  0.89761  1.0000
  H   H3092     1.0  0.52205  0.04724  0.90939  1.0000
  C   C1734     1.0  0.52557  0.18947  0.93853  1.0000
  S   S394      1.0  0.94553  0.07241  0.75160  1.0000
  H   H3093     1.0  0.64931  0.19170  0.97491  1.0000
  C   C1735     1.0  0.97010  0.30858  0.85262  1.0000
  H   H3094     1.0  0.91930  0.18805  0.97225  1.0000
  C   C1736     1.0  0.53736  0.17147  0.94945  1.0000
  C   C1737     1.0  0.50691  0.26852  0.92472  1.0000
  H   H3095     1.0  0.53584  0.17839  0.91000  1.0000
  H   H3096     1.0  0.51233  0.17219  0.92188  1.0000
  H   H3097     1.0  0.62754  0.02993  0.93035  1.0000
  H   H3098     1.0  0.52050  0.19504  0.87454  1.0000
  H   H3099     1.0  0.54092  0.20939  0.89230  1.0000
  H   H3100     1.0  0.52900  0.22346  0.91162  1.0000
  H   H3101     1.0  0.76138  0.15406  0.96252  1.0000
  H   H3102     1.0  0.90953  0.30485  0.90792  1.0000
  C   C1738     1.0  0.52294  0.05709  0.89494  1.0000
  H   H3103     1.0  0.91073  0.13541  0.86177  1.0000
  H   H3104     1.0  0.56900  0.30394  0.91945  1.0000
  H   H3105     1.0  0.96025  0.31379  0.84083  1.0000
  C   C1739     1.0  0.70902  0.15689  0.96754  1.0000
  H   H3106     1.0  0.70875  0.16838  0.95431  1.0000
  H   H3107     1.0  0.88094  0.10863  0.85127  1.0000
  H   H3108     1.0  0.66482  0.16536  0.94171  1.0000
  C   C1740     1.0  0.63821  0.11497  0.96150  1.0000
  H   H3109     1.0  0.54387  0.28549  0.73091  1.0000
  H   H3110     1.0  0.65134  0.11092  0.95136  1.0000
  H   H3111     1.0  0.92370  0.16765  0.85195  1.0000
  C   C1741     1.0  0.88861  0.21387  0.95964  1.0000
  C   C1742     1.0  0.73435  0.99454  0.86796  1.0000
  H   H3112     1.0  0.53839  0.17434  0.96477  1.0000
  H   H3113     1.0  0.53444  0.20204  0.93695  1.0000
  H   H3114     1.0  0.50730  0.25338  0.95418  1.0000
  H   H3115     1.0  0.58117  0.12572  0.94446  1.0000
  C   C1743     1.0  0.55214  0.24600  0.96638  1.0000
  H   H3116     1.0  0.62362  0.03412  0.95627  1.0000
  C   C1744     1.0  0.68507  0.99772  0.89013  1.0000
  H   H3117     1.0  0.50569  0.17236  0.85580  1.0000
  N   N98       1.0  0.70245  0.01886  0.85958  1.0000
  C   C1745     1.0  0.89506  0.10164  0.85712  1.0000
  C   C1746     1.0  0.89367  0.30277  0.91315  1.0000
  C   C1747     1.0  0.54374  0.30247  0.97165  1.0000
  C   C1748     1.0  0.66717  0.17158  0.95514  1.0000
  C   C1749     1.0  0.93206  0.10161  0.85303  1.0000
  H   H3118     1.0  0.73356  0.08853  0.97863  1.0000
  H   H3119     1.0  0.49642  0.21935  0.92787  1.0000
  C   C1750     1.0  0.77632  0.10950  0.97880  1.0000
  H   H3120     1.0  0.73463  0.13495  0.95803  1.0000
  C   C1751     1.0  0.49103  0.29227  0.80030  1.0000
  H   H3121     1.0  0.56551  0.28246  0.95617  1.0000
  H   H3122     1.0  0.59361  0.09101  0.95934  1.0000
  C   C1752     1.0  0.56905  0.24392  0.94861  1.0000
  C   C1753     1.0  0.93523  0.07851  0.85756  1.0000
  N   N99       1.0  0.59803  0.08892  0.92766  1.0000
  C   C1754     1.0  0.61159  0.06968  0.93223  1.0000
  C   C1755     1.0  0.61016  0.10618  0.92136  1.0000
  C   C1756     1.0  0.58453  0.09276  0.94674  1.0000
  C   C1757     1.0  0.58496  0.08754  0.91209  1.0000
  C   C1758     1.0  0.59591  0.08206  0.89177  1.0000
  C   C1759     1.0  0.60104  0.05068  0.93858  1.0000
  C   C1760     1.0  0.57165  0.11352  0.94665  1.0000
  C   C1761     1.0  0.63124  0.10188  0.90950  1.0000
  H   H3123     1.0  0.52081  0.28760  0.94954  1.0000
  C   C1762     1.0  0.58110  0.07817  0.87857  1.0000
  N   N100      1.0  0.91271  0.11065  0.84511  1.0000
  H   H3124     1.0  0.84176  0.19660  0.91671  1.0000
  H   H3125     1.0  0.62053  0.07114  0.94423  1.0000
  H   H3126     1.0  0.62286  0.06644  0.91925  1.0000
  H   H3127     1.0  0.60148  0.11874  0.91271  1.0000
  N   N101      1.0  0.54014  0.26634  0.96700  1.0000
  H   H3128     1.0  0.51488  0.16226  0.89022  1.0000
  H   H3129     1.0  0.57377  0.08164  0.95083  1.0000
  H   H3130     1.0  0.57407  0.07675  0.91792  1.0000
  H   H3131     1.0  0.57551  0.10199  0.90866  1.0000
  H   H3132     1.0  0.60687  0.06848  0.89347  1.0000
  H   H3133     1.0  0.60360  0.09465  0.88366  1.0000
  C   C1763     1.0  0.70861  0.03943  0.85329  1.0000
  H   H3134     1.0  0.59327  0.04774  0.92639  1.0000
  H   H3135     1.0  0.56181  0.11630  0.93476  1.0000
  S   S395      1.0  0.83795  0.15044  0.97660  1.0000
  H   H3136     1.0  0.64148  0.09249  0.91936  1.0000
  H   H3137     1.0  0.63086  0.09397  0.89668  1.0000
  H   H3138     1.0  0.69622  0.15973  0.92701  1.0000
  S   S396      1.0  0.52638  0.00423  0.82895  1.0000
  H   H3139     1.0  0.87330  0.09436  0.90699  1.0000
  H   H3140     1.0  0.58907  0.07525  0.86370  1.0000
  H   H3141     1.0  0.57359  0.06496  0.88528  1.0000
  H   H3142     1.0  0.56967  0.09138  0.87643  1.0000
  H   H3143     1.0  0.92956  0.16106  0.95194  1.0000
  S   S397      1.0  0.59585  0.16261  0.96703  1.0000
  C   C1764     1.0  0.70450  0.14462  0.92956  1.0000
  H   H3144     1.0  0.51289  0.99093  0.87202  1.0000
  H   H3145     1.0  0.88641  0.11991  0.88158  1.0000
  H   H3146     1.0  0.93359  0.10761  0.86689  1.0000
  H   H3147     1.0  0.50351  0.30070  0.80130  1.0000
  H   H3148     1.0  0.49725  0.02530  0.85991  1.0000
  H   H3149     1.0  0.54130  0.25322  0.88941  1.0000
  C   C1765     1.0  0.68447  0.01789  0.84935  1.0000
  H   H3150     1.0  0.88301  0.10875  0.81845  1.0000
  C   C1766     1.0  0.74597  0.16178  0.96134  1.0000
  H   H3151     1.0  0.89003  0.30526  0.92905  1.0000
  H   H3152     1.0  0.70691  0.11862  0.95117  1.0000
  H   H3153     1.0  0.94512  0.10606  0.84231  1.0000
  H   H3154     1.0  0.49512  0.20529  0.87958  1.0000
  H   H3155     1.0  0.71415  0.07566  0.86495  1.0000
  C   C1767     1.0  0.51088  0.05024  0.88071  1.0000
  C   C1768     1.0  0.61610  0.03235  0.94343  1.0000
  H   H3156     1.0  0.68551  0.02949  0.88611  1.0000
  C   C1769     1.0  0.98024  0.30072  0.95919  1.0000
  H   H3157     1.0  0.49385  0.09198  0.79931  1.0000
  H   H3158     1.0  0.69545  0.05088  0.85622  1.0000
  H   H3159     1.0  0.67156  0.02847  0.85490  1.0000
  H   H3160     1.0  0.57280  0.31322  0.96891  1.0000
  H   H3161     1.0  0.74301  0.17381  0.97105  1.0000
  H   H3162     1.0  0.59122  0.22121  0.93631  1.0000
  C   C1770     1.0  0.97251  0.29262  0.97821  1.0000
  H   H3163     1.0  0.97545  0.18532  0.92375  1.0000
  H   H3164     1.0  0.76235  0.05183  0.96880  1.0000
  S   S398      1.0  0.70048  0.05421  0.96843  1.0000
  H   H3165     1.0  0.96735  0.07409  0.84832  1.0000
  C   C1771     1.0  0.55821  0.11491  0.96651  1.0000
  C   C1772     1.0  0.68383  0.99350  0.91282  1.0000
  H   H3166     1.0  0.58085  0.25326  0.94936  1.0000
  H   H3167     1.0  0.86433  0.31332  0.90548  1.0000
  C   C1773     1.0  0.90151  0.11298  0.79029  1.0000
  H   H3168     1.0  0.51044  0.10080  0.82435  1.0000
  H   H3169     1.0  0.49686  0.01176  0.89790  1.0000
  H   H3170     1.0  0.95805  0.05442  0.86619  1.0000
  H   H3171     1.0  0.68191  0.12799  0.94753  1.0000
  H   H3172     1.0  0.90566  0.15166  0.95910  1.0000
  H   H3173     1.0  0.69906  0.98987  0.91742  1.0000
  S   S399      1.0  0.96997  0.13689  0.79904  1.0000
  H   H3174     1.0  0.73031  0.07157  0.84197  1.0000
  H   H3175     1.0  0.98787  0.24947  0.90048  1.0000
  C   C1774     1.0  0.55801  0.31462  0.97832  1.0000
  H   H3176     1.0  0.92292  0.14506  0.81647  1.0000
  S   S400      1.0  0.70543  0.99863  0.95958  1.0000
  S   S401      1.0  0.56222  0.07832  0.75900  1.0000
  H   H3177     1.0  0.52840  0.24546  0.93680  1.0000
  H   H3178     1.0  0.90553  0.09946  0.88671  1.0000
  H   H3179     1.0  0.49770  0.25795  0.92082  1.0000
  C   C1775     1.0  0.62714  0.13391  0.95821  1.0000
  H   H3180     1.0  0.89613  0.08556  0.85547  1.0000
  H   H3181     1.0  0.55278  0.16856  0.94156  1.0000
  S   S402      1.0  0.97095  0.15057  0.85406  1.0000
  H   H3182     1.0  0.93254  0.07134  0.84491  1.0000
  H   H3183     1.0  0.67862  0.18190  0.95098  1.0000
  H   H3184     1.0  0.55523  0.30748  0.73187  1.0000
  C   C1776     1.0  0.90963  0.13272  0.84639  1.0000
  C   C1777     1.0  0.55125  0.07256  0.73894  1.0000
  H   H3185     1.0  0.68853  0.03852  0.82153  1.0000
  C   C1778     1.0  0.53090  0.27337  0.94808  1.0000
  H   H3186     1.0  0.65558  0.11728  0.89348  1.0000
  C   C1779     1.0  0.85265  0.18639  0.92521  1.0000
  H   H3187     1.0  0.98138  0.28770  0.82205  1.0000
  H   H3188     1.0  0.50404  0.11917  0.96924  1.0000
  H   H3189     1.0  0.72049  0.14627  0.92940  1.0000
  H   H3190     1.0  0.72421  0.04088  0.87916  1.0000
  C   C1780     1.0  0.74758  0.09425  0.97304  1.0000
  C   C1781     1.0  0.49709  0.10157  0.78500  1.0000
  H   H3191     1.0  0.89420  0.13940  0.84366  1.0000
  C   C1782     1.0  0.89659  0.11594  0.81229  1.0000
  H   H3192     1.0  0.96027  0.07778  0.87426  1.0000
  H   H3193     1.0  0.89301  0.13218  0.81296  1.0000
  C   C1783     1.0  0.61000  0.13923  0.97132  1.0000
  H   H3194     1.0  0.71226  0.11891  0.91325  1.0000
  H   H3195     1.0  0.70936  0.14259  0.89782  1.0000
  H   H3196     1.0  0.67950  0.00284  0.85299  1.0000
  N   N102      1.0  0.69367  0.14292  0.96807  1.0000
  C   C1784     1.0  0.71904  0.00295  0.85314  1.0000
  Fe  Fe198     1.0  0.98420  0.13448  0.82767  1.0000
  C   C1785     1.0  0.95656  0.07081  0.86185  1.0000
  H   H3197     1.0  0.96130  0.22681  0.95132  1.0000
  H   H3198     1.0  0.54989  0.23922  0.86860  1.0000
  H   H3199     1.0  0.85464  0.20879  0.94340  1.0000
  C   C1786     1.0  0.92463  0.14505  0.83234  1.0000
  H   H3200     1.0  0.68747  0.13221  0.91085  1.0000
  H   H3201     1.0  0.79828  0.11444  0.95313  1.0000
  H   H3202     1.0  0.53888  0.05650  0.88827  1.0000
  H   H3203     1.0  0.85129  0.03839  0.97382  1.0000
  H   H3204     1.0  0.88386  0.31442  0.88462  1.0000
  C   C1787     1.0  0.49539  0.13341  0.97155  1.0000
  H   H3205     1.0  0.66948  0.00036  0.88641  1.0000
  C   C1788     1.0  0.69635  0.13271  0.94953  1.0000
  H   H3206     1.0  0.51737  0.03474  0.87863  1.0000
  H   H3207     1.0  0.85024  0.31593  0.96343  1.0000
  C   C1789     1.0  0.67298  0.15436  0.97146  1.0000
  H   H3208     1.0  0.66130  0.14434  0.97274  1.0000
  H   H3209     1.0  0.89377  0.25516  0.95368  1.0000
  H   H3210     1.0  0.96832  0.28298  0.89755  1.0000
  H   H3211     1.0  0.50362  0.28312  0.77197  1.0000
  H   H3212     1.0  0.84423  0.17669  0.93696  1.0000
  H   H3213     1.0  0.90566  0.25386  0.97572  1.0000
  H   H3214     1.0  0.71271  0.98977  0.85007  1.0000
  C   C1790     1.0  0.50177  0.10473  0.83806  1.0000
  H   H3215     1.0  0.50577  0.28729  0.73815  1.0000
  H   H3216     1.0  0.96350  0.25234  0.95408  1.0000
  C   C1791     1.0  0.98388  0.25722  0.91398  1.0000
  C   C1792     1.0  0.89540  0.24676  0.96865  1.0000
  H   H3217     1.0  0.52481  0.30650  0.75610  1.0000
  H   H3218     1.0  0.63541  0.17445  0.96697  1.0000
  H   H3219     1.0  0.49070  0.15441  0.87027  1.0000
  H   H3220     1.0  0.50254  0.00164  0.74025  1.0000
  H   H3221     1.0  0.54724  0.10401  0.96885  1.0000
  C   C1793     1.0  0.49776  0.98857  0.87987  1.0000
  C   C1794     1.0  0.50223  0.01282  0.75054  1.0000
  H   H3222     1.0  0.72717  0.98533  0.88107  1.0000
  H   H3223     1.0  0.55957  0.24149  0.98004  1.0000
  C   C1795     1.0  0.49692  0.98347  0.82307  1.0000
  H   H3224     1.0  0.69285  0.98426  0.88368  1.0000
  C   C1796     1.0  0.49111  0.04882  0.75611  1.0000
  H   H3225     1.0  0.49462  0.00714  0.76540  1.0000
  C   C1797     1.0  0.49104  0.03270  0.74239  1.0000
  H   H3226     1.0  0.48971  0.17028  0.90051  1.0000
  C   C1798     1.0  0.48928  0.29095  0.77852  1.0000
  C   C1799     1.0  0.49042  0.01917  0.81439  1.0000
  H   H3227     1.0  0.98871  0.31588  0.80127  1.0000
  Fe  Fe199     1.0  0.63084  0.45002  0.12615  1.0000
  S   S403      1.0  0.60613  0.46649  0.10955  1.0000
  S   S404      1.0  0.62108  0.42929  0.15390  1.0000
  Fe  Fe200     1.0  0.66314  0.47014  0.09710  1.0000
  S   S405      1.0  0.64055  0.48872  0.07891  1.0000
  S   S406      1.0  0.69711  0.46901  0.09134  1.0000
  Fe  Fe201     1.0  0.62196  0.49315  0.10842  1.0000
  S   S407      1.0  0.60535  0.52015  0.12186  1.0000
  Fe  Fe202     1.0  0.62659  0.46021  0.08158  1.0000
  S   S408      1.0  0.61507  0.45344  0.05395  1.0000
  S   S409      1.0  0.64574  0.47694  0.12641  1.0000
  S   S410      1.0  0.65020  0.44137  0.09820  1.0000
  H   H3228     1.0  0.88455  0.36229  0.09507  1.0000
  H   H3229     1.0  0.91390  0.56470  0.12758  1.0000
  H   H3230     1.0  0.68788  0.33338  0.03589  1.0000
  C   C1800     1.0  0.57330  0.32152  0.04327  1.0000
  Fe  Fe203     1.0  0.52228  0.60489  0.09442  1.0000
  S   S411      1.0  0.54615  0.58549  0.07652  1.0000
  S   S412      1.0  0.52725  0.61960  0.12022  1.0000
  Fe  Fe204     1.0  0.61792  0.35706  0.99828  1.0000
  S   S413      1.0  0.64210  0.33171  0.99233  1.0000
  S   S414      1.0  0.61852  0.36640  0.02895  1.0000
  H   H3231     1.0  0.52238  0.53906  0.17455  1.0000
  Fe  Fe205     1.0  0.91638  0.42611  0.17736  1.0000
  S   S415      1.0  0.93059  0.45349  0.16473  1.0000
  Fe  Fe206     1.0  0.93582  0.40301  0.14233  1.0000
  S   S416      1.0  0.95246  0.42854  0.12762  1.0000
  S   S417      1.0  0.94092  0.37352  0.12872  1.0000
  Fe  Fe207     1.0  0.95849  0.43253  0.15801  1.0000
  Fe  Fe208     1.0  0.92361  0.44779  0.13537  1.0000
  S   S418      1.0  0.91558  0.47349  0.11235  1.0000
  S   S419      1.0  0.94482  0.40506  0.17251  1.0000
  S   S420      1.0  0.90641  0.42226  0.14824  1.0000
  Fe  Fe209     1.0  0.78413  0.53493  0.05752  1.0000
  S   S421      1.0  0.80043  0.50676  0.04736  1.0000
  S   S422      1.0  0.74999  0.53950  0.05966  1.0000
  Fe  Fe210     1.0  0.82382  0.55222  0.05893  1.0000
  S   S423      1.0  0.84268  0.52492  0.04820  1.0000
  S   S424      1.0  0.83703  0.57572  0.07243  1.0000
  Fe  Fe211     1.0  0.82032  0.52612  0.02684  1.0000
  S   S425      1.0  0.82773  0.51853  0.99527  1.0000
  Fe  Fe212     1.0  0.82119  0.50746  0.06938  1.0000
  S   S426      1.0  0.82944  0.47819  0.08799  1.0000
  S   S427      1.0  0.80292  0.55495  0.03552  1.0000
  S   S428      1.0  0.80336  0.53424  0.08164  1.0000
  S   S429      1.0  0.94764  0.63134  0.07458  1.0000
  H   H3232     1.0  0.83728  0.33003  0.08721  1.0000
  H   H3233     1.0  0.96218  0.58172  0.13291  1.0000
  C   C1801     1.0  0.89323  0.33919  0.19826  1.0000
  C   C1802     1.0  0.85516  0.59290  0.06537  1.0000
  C   C1803     1.0  0.86378  0.59761  0.04565  1.0000
  C   C1804     1.0  0.87772  0.61158  0.04093  1.0000
  C   C1805     1.0  0.88369  0.62073  0.05584  1.0000
  C   C1806     1.0  0.87550  0.61559  0.07564  1.0000
  C   C1807     1.0  0.86117  0.60201  0.08029  1.0000
  H   H3234     1.0  0.85935  0.59087  0.03395  1.0000
  H   H3235     1.0  0.88380  0.61548  0.02555  1.0000
  H   H3236     1.0  0.60869  0.49725  0.16592  1.0000
  H   H3237     1.0  0.85449  0.59873  0.09557  1.0000
  C   C1808     1.0  0.81943  0.46009  0.00465  1.0000
  C   C1809     1.0  0.82334  0.47896  0.00753  1.0000
  C   C1810     1.0  0.82323  0.49458  0.99181  1.0000
  H   H3238     1.0  0.81962  0.44810  0.01685  1.0000
  H   H3239     1.0  0.82671  0.48135  0.02184  1.0000
  C   C1811     1.0  0.78054  0.39844  0.01767  1.0000
  C   C1812     1.0  0.93197  0.33866  0.08789  1.0000
  H   H3240     1.0  0.95049  0.33312  0.15360  1.0000
  H   H3241     1.0  0.58637  0.46542  0.18444  1.0000
  H   H3242     1.0  0.54430  0.54198  0.01107  1.0000
  C   C1813     1.0  0.89167  0.37603  0.18930  1.0000
  C   C1814     1.0  0.85368  0.47589  0.09431  1.0000
  C   C1815     1.0  0.86852  0.48518  0.08154  1.0000
  C   C1816     1.0  0.88772  0.48382  0.08697  1.0000
  C   C1817     1.0  0.89200  0.47348  0.10532  1.0000
  C   C1818     1.0  0.87733  0.46377  0.11794  1.0000
  C   C1819     1.0  0.85820  0.46480  0.11231  1.0000
  H   H3243     1.0  0.86537  0.49309  0.06732  1.0000
  H   H3244     1.0  0.89927  0.49077  0.07694  1.0000
  H   H3245     1.0  0.88048  0.45599  0.13226  1.0000
  H   H3246     1.0  0.84672  0.45759  0.12223  1.0000
  C   C1820     1.0  0.92933  0.36308  0.11153  1.0000
  C   C1821     1.0  0.90031  0.35846  0.09642  1.0000
  C   C1822     1.0  0.90906  0.36820  0.10914  1.0000
  H   H3247     1.0  0.63450  0.33926  0.09087  1.0000
  H   H3248     1.0  0.90001  0.37930  0.11748  1.0000
  H   H3249     1.0  0.54267  0.54664  0.15611  1.0000
  C   C1823     1.0  0.96897  0.61962  0.13514  1.0000
  H   H3250     1.0  0.96256  0.60697  0.16577  1.0000
  H   H3251     1.0  0.96133  0.47636  0.16034  1.0000
  H   H3252     1.0  0.68038  0.48908  0.01774  1.0000
  C   C1824     1.0  0.71125  0.48911  0.08306  1.0000
  C   C1825     1.0  0.70300  0.50720  0.07331  1.0000
  C   C1826     1.0  0.71510  0.52241  0.06600  1.0000
  C   C1827     1.0  0.73547  0.51978  0.06859  1.0000
  C   C1828     1.0  0.74374  0.50163  0.07818  1.0000
  C   C1829     1.0  0.73168  0.48639  0.08536  1.0000
  H   H3253     1.0  0.68748  0.50917  0.07092  1.0000
  H   H3254     1.0  0.70874  0.53624  0.05815  1.0000
  H   H3255     1.0  0.75940  0.49938  0.08024  1.0000
  H   H3256     1.0  0.73824  0.47239  0.09278  1.0000
  C   C1830     1.0  0.61599  0.42915  0.04723  1.0000
  C   C1831     1.0  0.62070  0.41199  0.06041  1.0000
  C   C1832     1.0  0.62131  0.39298  0.05456  1.0000
  C   C1833     1.0  0.61742  0.39082  0.03543  1.0000
  C   C1834     1.0  0.61271  0.40798  0.02223  1.0000
  C   C1835     1.0  0.61191  0.42703  0.02814  1.0000
  H   H3257     1.0  0.62378  0.41336  0.07516  1.0000
  H   H3258     1.0  0.62480  0.37987  0.06499  1.0000
  H   H3259     1.0  0.60949  0.40657  0.00754  1.0000
  H   H3260     1.0  0.60822  0.44018  0.01782  1.0000
  C   C1836     1.0  0.58904  0.53814  0.10898  1.0000
  C   C1837     1.0  0.59035  0.54041  0.08825  1.0000
  C   C1838     1.0  0.57722  0.55513  0.07842  1.0000
  C   C1839     1.0  0.56270  0.56755  0.08929  1.0000
  C   C1840     1.0  0.56169  0.56548  0.11004  1.0000
  C   C1841     1.0  0.57501  0.55096  0.11981  1.0000
  H   H3261     1.0  0.60170  0.53106  0.07984  1.0000
  H   H3262     1.0  0.57832  0.55699  0.06234  1.0000
  H   H3263     1.0  0.55069  0.57512  0.11852  1.0000
  H   H3264     1.0  0.57437  0.54959  0.13582  1.0000
  C   C1842     1.0  0.61865  0.44656  0.21667  1.0000
  C   C1843     1.0  0.60905  0.43071  0.21381  1.0000
  C   C1844     1.0  0.61002  0.42545  0.19451  1.0000
  C   C1845     1.0  0.62025  0.43621  0.17794  1.0000
  C   C1846     1.0  0.62952  0.45226  0.18085  1.0000
  C   C1847     1.0  0.62887  0.45726  0.20013  1.0000
  C   C1848     1.0  0.68404  0.35421  0.00890  1.0000
  H   H3265     1.0  0.60284  0.41299  0.19239  1.0000
  H   H3266     1.0  0.63756  0.46056  0.16830  1.0000
  C   C1849     1.0  0.77100  0.51560  0.00181  1.0000
  H   H3267     1.0  0.55161  0.52061  0.11437  1.0000
  N   N103      1.0  0.87578  0.42994  0.05525  1.0000
  C   C1850     1.0  0.85838  0.42292  0.06963  1.0000
  C   C1851     1.0  0.89202  0.43369  0.06657  1.0000
  C   C1852     1.0  0.86805  0.44946  0.04365  1.0000
  C   C1853     1.0  0.88405  0.41544  0.04051  1.0000
  C   C1854     1.0  0.89259  0.39421  0.04922  1.0000
  C   C1855     1.0  0.83970  0.42028  0.06027  1.0000
  C   C1856     1.0  0.88409  0.46198  0.03140  1.0000
  C   C1857     1.0  0.89539  0.41969  0.08618  1.0000
  C   C1858     1.0  0.91585  0.42078  0.09223  1.0000
  C   C1859     1.0  0.89904  0.38063  0.03294  1.0000
  C   C1860     1.0  0.82363  0.41215  0.07617  1.0000
  C   C1861     1.0  0.87430  0.47998  0.01861  1.0000
  H   H3268     1.0  0.85334  0.43370  0.08069  1.0000
  H   H3269     1.0  0.86286  0.40851  0.07859  1.0000
  H   H3270     1.0  0.90654  0.43379  0.05660  1.0000
  H   H3271     1.0  0.88860  0.44877  0.07137  1.0000
  H   H3272     1.0  0.85847  0.45931  0.05391  1.0000
  H   H3273     1.0  0.85821  0.44687  0.03293  1.0000
  H   H3274     1.0  0.87264  0.41412  0.03092  1.0000
  H   H3275     1.0  0.89654  0.42123  0.02997  1.0000
  H   H3276     1.0  0.88147  0.38705  0.06046  1.0000
  H   H3277     1.0  0.90623  0.39486  0.05603  1.0000
  H   H3278     1.0  0.83284  0.43477  0.05305  1.0000
  H   H3279     1.0  0.84362  0.40969  0.04910  1.0000
  H   H3280     1.0  0.89487  0.45314  0.02128  1.0000
  H   H3281     1.0  0.89262  0.46778  0.04140  1.0000
  H   H3282     1.0  0.88371  0.42426  0.09843  1.0000
  H   H3283     1.0  0.89448  0.40393  0.08514  1.0000
  H   H3284     1.0  0.91751  0.41135  0.10669  1.0000
  H   H3285     1.0  0.92804  0.41514  0.08098  1.0000
  H   H3286     1.0  0.91750  0.43632  0.09388  1.0000
  H   H3287     1.0  0.88594  0.37776  0.02648  1.0000
  H   H3288     1.0  0.90988  0.38728  0.02092  1.0000
  H   H3289     1.0  0.90648  0.36607  0.03945  1.0000
  H   H3290     1.0  0.81871  0.42263  0.08743  1.0000
  H   H3291     1.0  0.81042  0.41046  0.06911  1.0000
  H   H3292     1.0  0.82940  0.39736  0.08372  1.0000
  H   H3293     1.0  0.86298  0.48922  0.02798  1.0000
  H   H3294     1.0  0.88583  0.48939  0.01092  1.0000
  H   H3295     1.0  0.86690  0.47509  0.00711  1.0000
  C   C1862     1.0  0.93220  0.51313  0.13845  1.0000
  H   H3296     1.0  0.79083  0.37055  0.00646  1.0000
  H   H3297     1.0  0.69973  0.35024  0.00216  1.0000
  C   C1863     1.0  0.67819  0.33643  0.02383  1.0000
  C   C1864     1.0  0.55839  0.46593  0.17252  1.0000
  H   H3298     1.0  0.55429  0.44115  0.15773  1.0000
  H   H3299     1.0  0.71478  0.48389  0.00053  1.0000
  H   H3300     1.0  0.90618  0.57849  0.10490  1.0000
  H   H3301     1.0  0.97163  0.33492  0.98945  1.0000
  H   H3302     1.0  0.87003  0.40806  0.16997  1.0000
  H   H3303     1.0  0.95378  0.64553  0.21167  1.0000
  H   H3304     1.0  0.86106  0.31807  0.19875  1.0000
  H   H3305     1.0  0.96701  0.32203  0.17160  1.0000
  H   H3306     1.0  0.57599  0.43680  0.17063  1.0000
  C   C1865     1.0  0.55692  0.51021  0.17617  1.0000
  H   H3307     1.0  0.59399  0.52141  0.16521  1.0000
  H   H3308     1.0  0.53143  0.63827  0.22129  1.0000
  S   S430      1.0  0.89946  0.33116  0.07054  1.0000
  C   C1866     1.0  0.56516  0.46970  0.22147  1.0000
  S   S431      1.0  0.49818  0.59191  0.16670  1.0000
  C   C1867     1.0  0.91403  0.48092  0.21194  1.0000
  C   C1868     1.0  0.84242  0.36962  0.00357  1.0000
  C   C1869     1.0  0.84748  0.39076  0.00486  1.0000
  H   H3309     1.0  0.77519  0.51135  0.98657  1.0000
  C   C1870     1.0  0.92224  0.35399  0.17975  1.0000
  H   H3310     1.0  0.94427  0.33661  0.19846  1.0000
  H   H3311     1.0  0.94784  0.46040  0.22900  1.0000
  H   H3312     1.0  0.85422  0.39111  0.01846  1.0000
  H   H3313     1.0  0.83385  0.40181  0.00510  1.0000
  H   H3314     1.0  0.89150  0.33499  0.18356  1.0000
  H   H3315     1.0  0.61312  0.53033  0.19020  1.0000
  N   N104      1.0  0.90459  0.35694  0.19566  1.0000
  N   N105      1.0  0.68540  0.39223  0.00565  1.0000
  H   H3316     1.0  0.53676  0.50017  0.12009  1.0000
  C   C1871     1.0  0.79761  0.38284  0.01066  1.0000
  C   C1872     1.0  0.68672  0.40814  0.01825  1.0000
  C   C1873     1.0  0.68185  0.37324  0.01924  1.0000
  H   H3317     1.0  0.95882  0.62545  0.19639  1.0000
  C   C1874     1.0  0.89395  0.59151  0.13131  1.0000
  C   C1875     1.0  0.66762  0.41384  0.03264  1.0000
  H   H3318     1.0  0.77137  0.40407  0.00540  1.0000
  H   H3319     1.0  0.85578  0.34598  0.03425  1.0000
  H   H3320     1.0  0.58334  0.51290  0.20335  1.0000
  H   H3321     1.0  0.97495  0.51909  0.06056  1.0000
  C   C1876     1.0  0.66977  0.43172  0.04274  1.0000
  H   H3322     1.0  0.85178  0.32786  0.00371  1.0000
  H   H3323     1.0  0.81886  0.35547  0.06524  1.0000
  H   H3324     1.0  0.80623  0.38986  0.99710  1.0000
  Fe  Fe213     1.0  0.49834  0.60864  0.13518  1.0000
  H   H3325     1.0  0.69124  0.42182  0.00872  1.0000
  H   H3326     1.0  0.69874  0.40321  0.02791  1.0000
  H   H3327     1.0  0.69194  0.37029  0.03100  1.0000
  H   H3328     1.0  0.66642  0.37483  0.02754  1.0000
  S   S432      1.0  0.50533  0.63260  0.07935  1.0000
  C   C1877     1.0  0.91165  0.34357  0.08571  1.0000
  H   H3329     1.0  0.72741  0.39508  0.00925  1.0000
  H   H3330     1.0  0.94093  0.32719  0.07994  1.0000
  H   H3331     1.0  0.66486  0.40123  0.04450  1.0000
  H   H3332     1.0  0.65429  0.41782  0.02473  1.0000
  H   H3333     1.0  0.62900  0.52342  0.16813  1.0000
  H   H3334     1.0  0.76743  0.44600  0.00541  1.0000
  S   S433      1.0  0.59454  0.34144  0.98872  1.0000
  H   H3335     1.0  0.82348  0.33204  0.05543  1.0000
  H   H3336     1.0  0.87626  0.36277  0.16895  1.0000
  H   H3337     1.0  0.57928  0.47238  0.22621  1.0000
  H   H3338     1.0  0.92986  0.36759  0.17598  1.0000
  C   C1878     1.0  0.69295  0.48382  0.02662  1.0000
  H   H3339     1.0  0.75578  0.37384  0.99411  1.0000
  H   H3340     1.0  0.65364  0.39637  0.00280  1.0000
  H   H3341     1.0  0.62798  0.50602  0.19068  1.0000
  H   H3342     1.0  0.65689  0.43417  0.05448  1.0000
  H   H3343     1.0  0.68369  0.42919  0.04989  1.0000
  H   H3344     1.0  0.66977  0.44534  0.03170  1.0000
  H   H3345     1.0  0.56579  0.53800  0.18275  1.0000
  C   C1879     1.0  0.97738  0.46953  0.22628  1.0000
  C   C1880     1.0  0.53330  0.54446  0.02447  1.0000
  H   H3346     1.0  0.78660  0.41128  0.02173  1.0000
  H   H3347     1.0  0.74044  0.45036  0.00655  1.0000
  C   C1881     1.0  0.98396  0.62373  0.11937  1.0000
  H   H3348     1.0  0.86033  0.39530  0.15299  1.0000
  H   H3349     1.0  0.56756  0.32362  0.05898  1.0000
  H   H3350     1.0  0.51920  0.53872  0.02314  1.0000
  C   C1882     1.0  0.92605  0.37364  0.21516  1.0000
  H   H3351     1.0  0.95686  0.47220  0.20522  1.0000
  H   H3352     1.0  0.95844  0.54067  0.06776  1.0000
  C   C1883     1.0  0.57551  0.47665  0.17685  1.0000
  C   C1884     1.0  0.98426  0.62633  0.98337  1.0000
  H   H3353     1.0  0.90199  0.32581  0.20563  1.0000
  H   H3354     1.0  0.96914  0.53261  0.11224  1.0000
  H   H3355     1.0  0.97721  0.62931  0.21130  1.0000
  C   C1885     1.0  0.82240  0.34227  0.01594  1.0000
  H   H3356     1.0  0.77076  0.39186  0.03069  1.0000
  C   C1886     1.0  0.50809  0.63851  0.18930  1.0000
  H   H3357     1.0  0.94179  0.52522  0.13620  1.0000
  C   C1887     1.0  0.97500  0.47939  0.16468  1.0000
  S   S434      1.0  0.94381  0.62696  0.13213  1.0000
  H   H3358     1.0  0.80959  0.33746  0.02679  1.0000
  C   C1888     1.0  0.83062  0.34475  0.05813  1.0000
  H   H3359     1.0  0.96205  0.51146  0.20631  1.0000
  C   C1889     1.0  0.75472  0.45466  0.99826  1.0000
  H   H3360     1.0  0.96296  0.34875  0.16554  1.0000
  H   H3361     1.0  0.93433  0.50147  0.19673  1.0000
  H   H3362     1.0  0.70718  0.40362  0.98188  1.0000
  H   H3363     1.0  0.95925  0.51731  0.08425  1.0000
  H   H3364     1.0  0.81645  0.34584  0.00133  1.0000
  C   C1890     1.0  0.76981  0.53825  0.00005  1.0000
  H   H3365     1.0  0.57614  0.45294  0.14718  1.0000
  H   H3366     1.0  0.91711  0.35200  0.16555  1.0000
  C   C1891     1.0  0.98270  0.55361  0.13276  1.0000
  C   C1892     1.0  0.61903  0.51778  0.18149  1.0000
  C   C1893     1.0  0.84536  0.33674  0.07307  1.0000
  H   H3367     1.0  0.72954  0.46644  0.03182  1.0000
  H   H3368     1.0  0.80121  0.36767  0.03985  1.0000
  H   H3369     1.0  0.78447  0.54290  0.99300  1.0000
  Fe  Fe214     1.0  0.94225  0.64571  0.10243  1.0000
  H   H3370     1.0  0.59672  0.48895  0.20152  1.0000
  H   H3371     1.0  0.68234  0.50003  0.20964  1.0000
  C   C1894     1.0  0.49227  0.64209  0.20775  1.0000
  H   H3372     1.0  0.56124  0.49750  0.12803  1.0000
  C   C1895     1.0  0.97668  0.49862  0.16844  1.0000
  H   H3373     1.0  0.77162  0.47918  0.99049  1.0000
  H   H3374     1.0  0.56907  0.33562  0.03363  1.0000
  N   N106      1.0  0.56908  0.49407  0.18852  1.0000
  H   H3375     1.0  0.89400  0.37899  0.15673  1.0000
  H   H3376     1.0  0.74559  0.51581  0.02519  1.0000
  C   C1896     1.0  0.95549  0.47330  0.22148  1.0000
  H   H3377     1.0  0.63638  0.46947  0.20226  1.0000
  H   H3378     1.0  0.85231  0.39069  0.17942  1.0000
  H   H3379     1.0  0.52996  0.56077  0.02511  1.0000
  H   H3380     1.0  0.67428  0.35633  0.99699  1.0000
  H   H3381     1.0  0.54931  0.46022  0.18645  1.0000
  C   C1897     1.0  0.81513  0.45669  0.98614  1.0000
  N   N107      1.0  0.88847  0.54239  0.11061  1.0000
  C   C1898     1.0  0.87245  0.52890  0.11740  1.0000
  C   C1899     1.0  0.88891  0.55033  0.08879  1.0000
  C   C1900     1.0  0.89146  0.53466  0.07417  1.0000
  C   C1901     1.0  0.85116  0.53739  0.11232  1.0000
  C   C1902     1.0  0.91060  0.52176  0.13594  1.0000
  C   C1903     1.0  0.89035  0.54468  0.05280  1.0000
  C   C1904     1.0  0.83587  0.52362  0.12252  1.0000
  H   H3382     1.0  0.87104  0.52488  0.13386  1.0000
  H   H3383     1.0  0.87675  0.51446  0.11133  1.0000
  H   H3384     1.0  0.87064  0.57002  0.11745  1.0000
  H   H3385     1.0  0.87503  0.56055  0.08629  1.0000
  H   H3386     1.0  0.87946  0.52496  0.07791  1.0000
  H   H3387     1.0  0.90621  0.52533  0.07438  1.0000
  H   H3388     1.0  0.84623  0.55225  0.11723  1.0000
  H   H3389     1.0  0.85070  0.53876  0.09605  1.0000
  H   H3390     1.0  0.90582  0.53307  0.14628  1.0000
  H   H3391     1.0  0.90130  0.50941  0.14065  1.0000
  H   H3392     1.0  0.87537  0.55337  0.05151  1.0000
  H   H3393     1.0  0.90199  0.55482  0.04810  1.0000
  H   H3394     1.0  0.89270  0.53316  0.04255  1.0000
  H   H3395     1.0  0.83577  0.52145  0.13893  1.0000
  H   H3396     1.0  0.82067  0.53034  0.11927  1.0000
  H   H3397     1.0  0.83929  0.50892  0.11691  1.0000
  H   H3398     1.0  0.69418  0.46735  0.03001  1.0000
  C   C1905     1.0  0.96553  0.63697  0.20208  1.0000
  H   H3399     1.0  0.98131  0.53823  0.14031  1.0000
  H   H3400     1.0  0.54232  0.50539  0.17488  1.0000
  C   C1906     1.0  0.64031  0.33260  0.07696  1.0000
  H   H3401     1.0  0.74654  0.48540  0.98583  1.0000
  C   C1907     1.0  0.86220  0.39784  0.98704  1.0000
  C   C1908     1.0  0.96171  0.56560  0.13741  1.0000
  H   H3402     1.0  0.54532  0.52928  0.19991  1.0000
  H   H3403     1.0  0.91980  0.38883  0.20924  1.0000
  H   H3404     1.0  0.79504  0.44879  0.04612  1.0000
  S   S435      1.0  0.89405  0.42672  0.20566  1.0000
  C   C1909     1.0  0.95425  0.56278  0.15971  1.0000
  H   H3405     1.0  0.72244  0.36955  0.01316  1.0000
  C   C1910     1.0  0.72396  0.38283  0.00188  1.0000
  H   H3406     1.0  0.60118  0.42233  0.22645  1.0000
  C   C1911     1.0  0.49942  0.64670  0.16993  1.0000
  H   H3407     1.0  0.51289  0.62235  0.18891  1.0000
  H   H3408     1.0  0.85305  0.34887  0.07637  1.0000
  C   C1912     1.0  0.76636  0.47854  0.03029  1.0000
  H   H3409     1.0  0.75003  0.46209  0.05621  1.0000
  H   H3410     1.0  0.96383  0.55555  0.09697  1.0000
  H   H3411     1.0  0.56446  0.51271  0.16055  1.0000
  H   H3412     1.0  0.85690  0.35981  0.00097  1.0000
  H   H3413     1.0  0.58382  0.48151  0.16206  1.0000
  H   H3414     1.0  0.95052  0.56087  0.12951  1.0000
  H   H3415     1.0  0.76111  0.44682  0.03735  1.0000
  C   C1913     1.0  0.60188  0.50934  0.17493  1.0000
  H   H3416     1.0  0.72720  0.48958  0.04085  1.0000
  H   H3417     1.0  0.90650  0.60052  0.13005  1.0000
  C   C1914     1.0  0.66827  0.39790  0.99335  1.0000
  H   H3418     1.0  0.76705  0.48997  0.04008  1.0000
  H   H3419     1.0  0.66920  0.38731  0.98228  1.0000
  C   C1915     1.0  0.56677  0.44816  0.16132  1.0000
  C   C1916     1.0  0.90095  0.57313  0.12064  1.0000
  H   H3420     1.0  0.54126  0.48551  0.20521  1.0000
  H   H3421     1.0  0.84586  0.36884  0.04285  1.0000
  H   H3422     1.0  0.66229  0.33942  0.03039  1.0000
  H   H3423     1.0  0.93969  0.57225  0.16269  1.0000
  H   H3424     1.0  0.95214  0.54698  0.16496  1.0000
  C   C1917     1.0  0.53708  0.54481  0.17228  1.0000
  N   N108      1.0  0.65244  0.55563  0.10664  1.0000
  C   C1918     1.0  0.65233  0.54344  0.09003  1.0000
  C   C1919     1.0  0.65485  0.54170  0.12570  1.0000
  C   C1920     1.0  0.63214  0.56798  0.10953  1.0000
  C   C1921     1.0  0.66839  0.56951  0.10221  1.0000
  C   C1922     1.0  0.68802  0.56262  0.08892  1.0000
  C   C1923     1.0  0.64595  0.55539  0.07038  1.0000
  C   C1924     1.0  0.62777  0.57955  0.12786  1.0000
  C   C1925     1.0  0.67392  0.52625  0.12574  1.0000
  C   C1926     1.0  0.67367  0.51252  0.14555  1.0000
  C   C1927     1.0  0.70406  0.57609  0.08871  1.0000
  C   C1928     1.0  0.65209  0.54336  0.05285  1.0000
  C   C1929     1.0  0.60844  0.59405  0.12713  1.0000
  H   H3425     1.0  0.64195  0.53196  0.09492  1.0000
  H   H3426     1.0  0.66716  0.53477  0.08646  1.0000
  H   H3427     1.0  0.65511  0.55026  0.13822  1.0000
  H   H3428     1.0  0.64168  0.53332  0.12992  1.0000
  H   H3429     1.0  0.62005  0.55843  0.11080  1.0000
  H   H3430     1.0  0.62997  0.57923  0.09624  1.0000
  H   H3431     1.0  0.66250  0.58426  0.09451  1.0000
  H   H3432     1.0  0.67253  0.57289  0.11637  1.0000
  H   H3433     1.0  0.68519  0.56319  0.07329  1.0000
  H   H3434     1.0  0.69440  0.54722  0.09390  1.0000
  H   H3435     1.0  0.62938  0.55916  0.07199  1.0000
  H   H3436     1.0  0.65261  0.56954  0.06665  1.0000
  H   H3437     1.0  0.64018  0.58816  0.12853  1.0000
  H   H3438     1.0  0.62569  0.56906  0.14183  1.0000
  H   H3439     1.0  0.67528  0.51664  0.11378  1.0000
  H   H3440     1.0  0.68744  0.53388  0.12410  1.0000
  H   H3441     1.0  0.68715  0.50117  0.14493  1.0000
  H   H3442     1.0  0.67383  0.52117  0.15801  1.0000
  H   H3443     1.0  0.66020  0.50465  0.14855  1.0000
  H   H3444     1.0  0.71768  0.57106  0.07867  1.0000
  H   H3445     1.0  0.69866  0.59177  0.08317  1.0000
  H   H3446     1.0  0.70830  0.57533  0.10388  1.0000
  H   H3447     1.0  0.66865  0.53986  0.05007  1.0000
  H   H3448     1.0  0.64528  0.52928  0.05586  1.0000
  H   H3449     1.0  0.64682  0.55216  0.03920  1.0000
  H   H3450     1.0  0.59557  0.58595  0.12663  1.0000
  H   H3451     1.0  0.60533  0.60176  0.14065  1.0000
  H   H3452     1.0  0.60980  0.60549  0.11383  1.0000
  N   N109      1.0  0.55937  0.50036  0.05851  1.0000
  C   C1930     1.0  0.54591  0.51125  0.04368  1.0000
  C   C1931     1.0  0.55881  0.47817  0.05996  1.0000
  C   C1932     1.0  0.55077  0.50653  0.07872  1.0000
  C   C1933     1.0  0.58065  0.50519  0.05359  1.0000
  C   C1934     1.0  0.58908  0.50970  0.03125  1.0000
  C   C1935     1.0  0.54182  0.53425  0.04336  1.0000
  C   C1936     1.0  0.56180  0.49621  0.09650  1.0000
  C   C1937     1.0  0.56387  0.46864  0.04036  1.0000
  C   C1938     1.0  0.56095  0.44660  0.04411  1.0000
  C   C1939     1.0  0.61156  0.51099  0.02879  1.0000
  H   H3453     1.0  0.63547  0.31882  0.04306  1.0000
  C   C1940     1.0  0.55220  0.50416  0.11591  1.0000
  H   H3454     1.0  0.53106  0.50561  0.04671  1.0000
  H   H3455     1.0  0.55196  0.50813  0.02833  1.0000
  H   H3456     1.0  0.56963  0.46980  0.06985  1.0000
  H   H3457     1.0  0.54370  0.47449  0.06694  1.0000
  H   H3458     1.0  0.53473  0.50406  0.08232  1.0000
  H   H3459     1.0  0.55099  0.52278  0.07869  1.0000
  H   H3460     1.0  0.58221  0.51863  0.06019  1.0000
  H   H3461     1.0  0.59110  0.49304  0.06069  1.0000
  H   H3462     1.0  0.58173  0.52425  0.02467  1.0000
  H   H3463     1.0  0.58669  0.49833  0.02230  1.0000
  H   H3464     1.0  0.53063  0.53809  0.05625  1.0000
  H   H3465     1.0  0.55563  0.54063  0.04436  1.0000
  H   H3466     1.0  0.57766  0.49904  0.09384  1.0000
  H   H3467     1.0  0.56127  0.47991  0.09891  1.0000
  H   H3468     1.0  0.55422  0.47594  0.02900  1.0000
  H   H3469     1.0  0.57978  0.46924  0.03427  1.0000
  H   H3470     1.0  0.54505  0.44479  0.04961  1.0000
  H   H3471     1.0  0.56525  0.43992  0.03000  1.0000
  H   H3472     1.0  0.57057  0.43833  0.05518  1.0000
  H   H3473     1.0  0.61716  0.51476  0.01278  1.0000
  H   H3474     1.0  0.61467  0.52271  0.03709  1.0000
  H   H3475     1.0  0.61980  0.49645  0.03434  1.0000
  H   H3476     1.0  0.88146  0.60100  0.12439  1.0000
  H   H3477     1.0  0.90633  0.49153  0.18200  1.0000
  H   H3478     1.0  0.93278  0.50522  0.15377  1.0000
  H   H3479     1.0  0.56823  0.45620  0.21379  1.0000
  H   H3480     1.0  0.96411  0.51018  0.16728  1.0000
  H   H3481     1.0  0.83555  0.37049  0.98963  1.0000
  N   N110      1.0  0.82929  0.36051  0.02138  1.0000
  H   H3482     1.0  0.93813  0.50226  0.12777  1.0000
  C   C1941     1.0  0.73027  0.48252  0.02688  1.0000
  H   H3483     1.0  0.97147  0.63652  0.98978  1.0000
  H   H3484     1.0  0.54837  0.47619  0.16310  1.0000
  H   H3485     1.0  0.86510  0.41314  0.98823  1.0000
  C   C1942     1.0  0.74207  0.37759  0.98667  1.0000
  H   H3486     1.0  0.71027  0.50660  0.01193  1.0000
  H   H3487     1.0  0.91138  0.51755  0.10553  1.0000
  H   H3488     1.0  0.78150  0.47621  0.02164  1.0000
  C   C1943     1.0  0.90846  0.53058  0.11398  1.0000
  C   C1944     1.0  0.97633  0.54404  0.10133  1.0000
  C   C1945     1.0  0.67745  0.48496  0.21247  1.0000
  H   H3489     1.0  0.87941  0.55507  0.13840  1.0000
  C   C1946     1.0  0.97415  0.61037  0.15362  1.0000
  H   H3490     1.0  0.98207  0.35678  0.99308  1.0000
  H   H3491     1.0  0.67998  0.32301  0.01606  1.0000
  C   C1947     1.0  0.95569  0.33493  0.16778  1.0000
  H   H3492     1.0  0.68950  0.49034  0.04085  1.0000
  H   H3493     1.0  0.51702  0.60946  0.21940  1.0000
  H   H3494     1.0  0.66862  0.48347  0.20051  1.0000
  H   H3495     1.0  0.92086  0.53957  0.10789  1.0000
  C   C1948     1.0  0.84135  0.35526  0.03864  1.0000
  H   H3496     1.0  0.87966  0.62262  0.08728  1.0000
  C   C1949     1.0  0.55203  0.53075  0.18408  1.0000
  C   C1950     1.0  0.75071  0.50847  0.01147  1.0000
  C   C1951     1.0  0.78129  0.45258  0.05646  1.0000
  H   H3497     1.0  0.53472  0.55972  0.17746  1.0000
  H   H3498     1.0  0.81545  0.38778  0.03299  1.0000
  H   H3499     1.0  0.55328  0.50058  0.21719  1.0000
  C   C1952     1.0  0.88391  0.55996  0.12231  1.0000
  C   C1953     1.0  0.58754  0.50126  0.19318  1.0000
  H   H3500     1.0  0.73993  0.51490  0.00082  1.0000
  C   C1954     1.0  0.71244  0.49010  0.01489  1.0000
  H   H3501     1.0  0.78326  0.50917  0.01066  1.0000
  N   N111      1.0  0.49953  0.63666  0.22793  1.0000
  N   N112      1.0  0.75078  0.48616  0.01640  1.0000
  H   H3502     1.0  0.90128  0.55956  0.08377  1.0000
  C   C1955     1.0  0.55630  0.48816  0.20793  1.0000
  C   C1956     1.0  0.93814  0.33585  0.18453  1.0000
  C   C1957     1.0  0.96834  0.52724  0.07336  1.0000
  H   H3503     1.0  0.78370  0.46454  0.06487  1.0000
  H   H3504     1.0  0.98084  0.61078  0.98770  1.0000
  C   C1958     1.0  0.76334  0.45929  0.04499  1.0000
  H   H3505     1.0  0.77848  0.43920  0.06729  1.0000
  H   H3506     1.0  0.98010  0.63021  0.10488  1.0000
  C   C1959     1.0  0.81108  0.37489  0.02724  1.0000
  H   H3507     1.0  0.95625  0.34387  0.10268  1.0000
  H   H3508     1.0  0.88894  0.58710  0.14736  1.0000
  C   C1960     1.0  0.92719  0.49756  0.21232  1.0000
  H   H3509     1.0  0.97715  0.58364  0.10273  1.0000
  C   C1961     1.0  0.94063  0.34818  0.10085  1.0000
  H   H3510     1.0  0.94046  0.36946  0.20593  1.0000
  H   H3511     1.0  0.90049  0.38881  0.18665  1.0000
  H   H3512     1.0  0.69083  0.47350  0.21179  1.0000
  Fe  Fe215     1.0  0.50815  0.64640  0.10647  1.0000
  C   C1962     1.0  0.86525  0.39374  0.16796  1.0000
  C   C1963     1.0  0.91114  0.35850  0.21544  1.0000
  C   C1964     1.0  0.70471  0.38950  0.99174  1.0000
  C   C1965     1.0  0.51761  0.64719  0.22782  1.0000
  C   C1966     1.0  0.83854  0.32389  0.01420  1.0000
  H   H3513     1.0  0.96514  0.56722  0.16826  1.0000
  C   C1967     1.0  0.88238  0.37667  0.16981  1.0000
  H   H3514     1.0  0.86192  0.35338  0.20329  1.0000
  H   H3515     1.0  0.98721  0.64152  0.17647  1.0000
  H   H3516     1.0  0.87958  0.37981  0.20154  1.0000
  H   H3517     1.0  0.87662  0.38782  0.98664  1.0000
  C   C1968     1.0  0.75597  0.47720  0.99713  1.0000
  S   S436      1.0  0.80906  0.43304  0.98391  1.0000
  S   S437      1.0  0.90046  0.63921  0.04872  1.0000
  C   C1969     1.0  0.98370  0.34444  0.98387  1.0000
  C   C1970     1.0  0.86277  0.32219  0.21344  1.0000
  H   H3518     1.0  0.84771  0.32427  0.22226  1.0000
  H   H3519     1.0  0.49626  0.57088  0.20612  1.0000
  H   H3520     1.0  0.88986  0.47529  0.19711  1.0000
  H   H3521     1.0  0.91796  0.34374  0.22225  1.0000
  C   C1971     1.0  0.89872  0.48765  0.19731  1.0000
  H   H3522     1.0  0.63879  0.34449  0.06413  1.0000
  H   H3523     1.0  0.92325  0.46726  0.20721  1.0000
  C   C1972     1.0  0.90046  0.43200  0.22838  1.0000
  H   H3524     1.0  0.52155  0.64587  0.18921  1.0000
  H   H3525     1.0  0.88827  0.50071  0.20191  1.0000
  H   H3526     1.0  0.66510  0.43079  0.99143  1.0000
  H   H3527     1.0  0.76638  0.54329  0.01502  1.0000
  S   S438      1.0  0.49462  0.59224  0.11008  1.0000
  H   H3528     1.0  0.60224  0.32910  0.04485  1.0000
  H   H3529     1.0  0.85680  0.32500  0.06710  1.0000
  H   H3530     1.0  0.70383  0.37874  0.98135  1.0000
  H   H3531     1.0  0.91661  0.51086  0.21612  1.0000
  H   H3532     1.0  0.61239  0.32215  0.07618  1.0000
  H   H3533     1.0  0.93218  0.42372  0.22131  1.0000
  C   C1973     1.0  0.87223  0.34148  0.21075  1.0000
  H   H3534     1.0  0.93235  0.53550  0.21904  1.0000
  H   H3535     1.0  0.75813  0.54562  0.99072  1.0000
  H   H3536     1.0  0.93155  0.32172  0.18614  1.0000
  H   H3537     1.0  0.51081  0.64357  0.15698  1.0000
  C   C1974     1.0  0.98663  0.44808  0.22413  1.0000
  H   H3538     1.0  0.90554  0.47696  0.22678  1.0000
  H   H3539     1.0  0.65641  0.32688  0.07727  1.0000
  H   H3540     1.0  0.96457  0.54829  0.20688  1.0000
  H   H3541     1.0  0.87317  0.34520  0.22577  1.0000
  H   H3542     1.0  0.89790  0.36287  0.22628  1.0000
  N   N113      1.0  0.94300  0.49263  0.22627  1.0000
  C   C1975     1.0  0.95568  0.50949  0.22231  1.0000
  C   C1976     1.0  0.66680  0.41912  0.98146  1.0000
  H   H3543     1.0  0.95493  0.64926  0.16348  1.0000
  C   C1977     1.0  0.95941  0.54577  0.22312  1.0000
  H   H3544     1.0  0.84353  0.31789  0.02886  1.0000
  C   C1978     1.0  0.94503  0.53003  0.22769  1.0000
  S   S439      1.0  0.98846  0.43938  0.16393  1.0000
  C   C1979     1.0  0.98507  0.53319  0.08296  1.0000
  H   H3545     1.0  0.98666  0.47950  0.21564  1.0000
  H   H3546     1.0  0.49217  0.60683  0.22955  1.0000
  H   H3547     1.0  0.98599  0.44460  0.20891  1.0000
  H   H3548     1.0  0.96892  0.50608  0.23042  1.0000
  H   H3549     1.0  0.95165  0.56010  0.22780  1.0000
  H   H3550     1.0  0.63456  0.42262  0.98071  1.0000
  Fe  Fe216     1.0  0.67752  0.53329  0.38213  1.0000
  S   S440      1.0  0.70538  0.52193  0.36243  1.0000
  S   S441      1.0  0.65590  0.55962  0.36978  1.0000
  Fe  Fe217     1.0  0.68104  0.49535  0.41264  1.0000
  S   S442      1.0  0.70869  0.48110  0.39542  1.0000
  S   S443      1.0  0.66162  0.47823  0.43697  1.0000
  Fe  Fe218     1.0  0.71883  0.51144  0.39089  1.0000
  S   S444      1.0  0.75121  0.51293  0.39491  1.0000
  Fe  Fe219     1.0  0.69351  0.49250  0.36840  1.0000
  S   S445      1.0  0.69238  0.47206  0.34586  1.0000
  S   S446      1.0  0.69189  0.52527  0.41042  1.0000
  S   S447      1.0  0.66507  0.50428  0.38584  1.0000
  H   H3551     1.0  0.63901  0.35259  0.45895  1.0000
  S   S448      1.0  0.53768  0.63391  0.38410  1.0000
  H   H3552     1.0  0.65100  0.49309  0.23222  1.0000
  H   H3553     1.0  0.57328  0.58584  0.46137  1.0000
  S   S449      1.0  0.59003  0.62564  0.40642  1.0000
  Fe  Fe220     1.0  0.60091  0.44295  0.27009  1.0000
  S   S450      1.0  0.57869  0.42111  0.28141  1.0000
  H   H3554     1.0  0.91942  0.48473  0.28657  1.0000
  Fe  Fe221     1.0  0.59560  0.45890  0.31023  1.0000
  S   S451      1.0  0.57298  0.43889  0.32484  1.0000
  S   S452      1.0  0.60377  0.48260  0.32576  1.0000
  Fe  Fe222     1.0  0.59332  0.41522  0.30971  1.0000
  S   S453      1.0  0.60326  0.38441  0.32549  1.0000
  Fe  Fe223     1.0  0.56004  0.44646  0.29593  1.0000
  S   S454      1.0  0.52683  0.45483  0.29492  1.0000
  S   S455      1.0  0.61711  0.43491  0.29709  1.0000
  S   S456      1.0  0.58103  0.46843  0.28262  1.0000
  C   C1980     1.0  0.59264  0.34587  0.37618  1.0000
  H   H3555     1.0  0.53839  0.41844  0.32443  1.0000
  C   C1981     1.0  0.73851  0.45276  0.47287  1.0000
  S   S457      1.0  0.95417  0.56889  0.37552  1.0000
  S   S458      1.0  0.96758  0.61887  0.33962  1.0000
  S   S459      1.0  0.90286  0.35083  0.42382  1.0000
  Fe  Fe224     1.0  0.85559  0.47612  0.33350  1.0000
  S   S460      1.0  0.86882  0.48686  0.35717  1.0000
  S   S461      1.0  0.82224  0.48060  0.33128  1.0000
  Fe  Fe225     1.0  0.89653  0.45821  0.31386  1.0000
  S   S462      1.0  0.91275  0.46737  0.33695  1.0000
  S   S463      1.0  0.91622  0.44330  0.28864  1.0000
  Fe  Fe226     1.0  0.88741  0.45673  0.35928  1.0000
  S   S464      1.0  0.88705  0.44290  0.39162  1.0000
  Fe  Fe227     1.0  0.89296  0.49662  0.33308  1.0000
  S   S465      1.0  0.90292  0.52767  0.32612  1.0000
  S   S466      1.0  0.87274  0.44535  0.33671  1.0000
  S   S467      1.0  0.87817  0.48808  0.30882  1.0000
  C   C1982     1.0  0.89631  0.37603  0.41415  1.0000
  C   C1983     1.0  0.88379  0.38932  0.42564  1.0000
  C   C1984     1.0  0.88091  0.40975  0.41844  1.0000
  C   C1985     1.0  0.88992  0.41696  0.39942  1.0000
  C   C1986     1.0  0.90164  0.40355  0.38752  1.0000
  C   C1987     1.0  0.90505  0.38320  0.39501  1.0000
  H   H3556     1.0  0.87682  0.38397  0.44030  1.0000
  H   H3557     1.0  0.87181  0.42006  0.42770  1.0000
  H   H3558     1.0  0.90867  0.40894  0.37286  1.0000
  H   H3559     1.0  0.91475  0.37301  0.38601  1.0000
  C   C1988     1.0  0.94013  0.55749  0.36150  1.0000
  C   C1989     1.0  0.93376  0.53890  0.36929  1.0000
  C   C1990     1.0  0.92239  0.52951  0.35871  1.0000
  C   C1991     1.0  0.91698  0.53880  0.34032  1.0000
  C   C1992     1.0  0.92292  0.55757  0.33276  1.0000
  C   C1993     1.0  0.93460  0.56679  0.34316  1.0000
  H   H3560     1.0  0.93780  0.53166  0.38355  1.0000
  H   H3561     1.0  0.91787  0.51510  0.36477  1.0000
  H   H3562     1.0  0.91854  0.56501  0.31870  1.0000
  H   H3563     1.0  0.93907  0.58125  0.33716  1.0000
  H   H3564     1.0  0.59634  0.54636  0.38936  1.0000
  C   C1994     1.0  0.88523  0.43880  0.24301  1.0000
  C   C1995     1.0  0.88976  0.44268  0.26141  1.0000
  C   C1996     1.0  0.90956  0.43928  0.26556  1.0000
  C   C1997     1.0  0.92476  0.43237  0.25097  1.0000
  H   H3565     1.0  0.52776  0.60959  0.25146  1.0000
  C   C1998     1.0  0.63650  0.34330  0.47309  1.0000
  H   H3566     1.0  0.87790  0.44793  0.27251  1.0000
  H   H3567     1.0  0.94011  0.42956  0.25408  1.0000
  N   N114      1.0  0.98720  0.53876  0.29085  1.0000
  H   H3568     1.0  0.52261  0.34792  0.33542  1.0000
  C   C1999     1.0  0.59367  0.37438  0.34986  1.0000
  C   C2000     1.0  0.57942  0.38561  0.36203  1.0000
  C   C2001     1.0  0.57170  0.37695  0.38107  1.0000
  H   H3569     1.0  0.57424  0.40091  0.35670  1.0000
  H   H3570     1.0  0.56053  0.38568  0.39031  1.0000
  C   C2002     1.0  0.52526  0.51225  0.30433  1.0000
  C   C2003     1.0  0.53156  0.49201  0.30280  1.0000
  C   C2004     1.0  0.51853  0.48008  0.29791  1.0000
  H   H3571     1.0  0.55406  0.64706  0.24283  1.0000
  S   S468      1.0  0.61854  0.45370  0.24046  1.0000
  H   H3572     1.0  0.53565  0.52137  0.30775  1.0000
  H   H3573     1.0  0.54654  0.48569  0.30547  1.0000
  C   C2005     1.0  0.49523  0.51856  0.35714  1.0000
  Fe  Fe228     1.0  0.57312  0.31698  0.43176  1.0000
  C   C2006     1.0  0.50816  0.63604  0.30898  1.0000
  H   H3574     1.0  0.96690  0.55475  0.27066  1.0000
  C   C2007     1.0  0.95416  0.34299  0.45704  1.0000
  H   H3575     1.0  0.54997  0.58314  0.33118  1.0000
  H   H3576     1.0  0.95715  0.62723  0.44877  1.0000
  H   H3577     1.0  0.52062  0.33224  0.37968  1.0000
  C   C2008     1.0  0.49735  0.64774  0.34099  1.0000
  H   H3578     1.0  0.61065  0.50041  0.25481  1.0000
  C   C2009     1.0  0.85181  0.40564  0.37238  1.0000
  H   H3579     1.0  0.66755  0.40992  0.26955  1.0000
  C   C2010     1.0  0.77088  0.50340  0.37744  1.0000
  C   C2011     1.0  0.76703  0.49837  0.35946  1.0000
  C   C2012     1.0  0.78295  0.49145  0.34552  1.0000
  C   C2013     1.0  0.80286  0.48935  0.34942  1.0000
  C   C2014     1.0  0.80674  0.49407  0.36755  1.0000
  C   C2015     1.0  0.79081  0.50115  0.38147  1.0000
  H   H3580     1.0  0.75178  0.49999  0.35617  1.0000
  H   H3581     1.0  0.77978  0.48774  0.33159  1.0000
  H   H3582     1.0  0.82199  0.49238  0.37075  1.0000
  H   H3583     1.0  0.79391  0.50497  0.39537  1.0000
  C   C2016     1.0  0.66788  0.47483  0.34009  1.0000
  C   C2017     1.0  0.65593  0.49326  0.34042  1.0000
  C   C2018     1.0  0.63632  0.49550  0.33580  1.0000
  C   C2019     1.0  0.62850  0.47931  0.33105  1.0000
  C   C2020     1.0  0.64050  0.46090  0.33052  1.0000
  C   C2021     1.0  0.66023  0.45867  0.33496  1.0000
  H   H3584     1.0  0.66196  0.50597  0.34374  1.0000
  H   H3585     1.0  0.62729  0.50989  0.33562  1.0000
  H   H3586     1.0  0.63457  0.44839  0.32680  1.0000
  H   H3587     1.0  0.66950  0.44442  0.33463  1.0000
  C   C2022     1.0  0.63726  0.57712  0.38092  1.0000
  C   C2023     1.0  0.63898  0.58397  0.39876  1.0000
  C   C2024     1.0  0.62438  0.59882  0.40634  1.0000
  C   C2025     1.0  0.60789  0.60692  0.39624  1.0000
  C   C2026     1.0  0.60607  0.59993  0.37852  1.0000
  C   C2027     1.0  0.62074  0.58522  0.37086  1.0000
  H   H3588     1.0  0.65182  0.57823  0.40642  1.0000
  H   H3589     1.0  0.62598  0.60417  0.42004  1.0000
  H   H3590     1.0  0.59354  0.60608  0.37052  1.0000
  H   H3591     1.0  0.61940  0.58019  0.35692  1.0000
  H   H3592     1.0  0.97856  0.43746  0.23521  1.0000
  H   H3593     1.0  0.50039  0.57722  0.25347  1.0000
  H   H3594     1.0  0.92963  0.50793  0.28413  1.0000
  N   N115      1.0  0.66662  0.47933  0.27099  1.0000
  C   C2028     1.0  0.64404  0.48325  0.27325  1.0000
  C   C2029     1.0  0.67287  0.45773  0.27848  1.0000
  C   C2030     1.0  0.67358  0.49189  0.28438  1.0000
  H   H3595     1.0  0.52399  0.44646  0.34282  1.0000
  H   H3596     1.0  0.51044  0.43033  0.36162  1.0000
  C   C2031     1.0  0.63510  0.50553  0.26997  1.0000
  C   C2032     1.0  0.69608  0.48781  0.28714  1.0000
  C   C2033     1.0  0.66721  0.44194  0.26708  1.0000
  C   C2034     1.0  0.67178  0.42095  0.27802  1.0000
  C   C2035     1.0  0.48885  0.63140  0.30855  1.0000
  C   C2036     1.0  0.61295  0.50795  0.26743  1.0000
  C   C2037     1.0  0.70226  0.50437  0.29673  1.0000
  H   H3597     1.0  0.63757  0.47709  0.28845  1.0000
  H   H3598     1.0  0.63787  0.47522  0.26316  1.0000
  H   H3599     1.0  0.68941  0.45454  0.27791  1.0000
  H   H3600     1.0  0.66664  0.45450  0.29444  1.0000
  H   H3601     1.0  0.66489  0.49001  0.29950  1.0000
  H   H3602     1.0  0.67049  0.50800  0.27872  1.0000
  S   S469      1.0  0.86407  0.35239  0.47332  1.0000
  H   H3603     1.0  0.69144  0.47604  0.24745  1.0000
  H   H3604     1.0  0.58824  0.51841  0.45350  1.0000
  H   H3605     1.0  0.58560  0.35520  0.30887  1.0000
  H   H3606     1.0  0.63625  0.51282  0.28315  1.0000
  H   H3607     1.0  0.64321  0.51363  0.25667  1.0000
  H   H3608     1.0  0.70572  0.48666  0.27268  1.0000
  H   H3609     1.0  0.69904  0.47371  0.29725  1.0000
  H   H3610     1.0  0.65112  0.44427  0.26541  1.0000
  C   C2038     1.0  0.52500  0.41654  0.33553  1.0000
  H   H3611     1.0  0.58941  0.46630  0.44360  1.0000
  H   H3612     1.0  0.94003  0.40413  0.40354  1.0000
  H   H3613     1.0  0.66305  0.41955  0.29312  1.0000
  H   H3614     1.0  0.68643  0.48978  0.46320  1.0000
  H   H3615     1.0  0.49066  0.55380  0.37184  1.0000
  C   C2039     1.0  0.97414  0.50687  0.31176  1.0000
  H   H3616     1.0  0.96805  0.59908  0.27070  1.0000
  H   H3617     1.0  0.61099  0.33211  0.46563  1.0000
  C   C2040     1.0  0.94945  0.38343  0.47517  1.0000
  H   H3618     1.0  0.71806  0.50044  0.29967  1.0000
  H   H3619     1.0  0.70097  0.51871  0.28672  1.0000
  H   H3620     1.0  0.69274  0.50624  0.31117  1.0000
  N   N116      1.0  0.83547  0.54765  0.35810  1.0000
  C   C2041     1.0  0.84244  0.53580  0.34085  1.0000
  C   C2042     1.0  0.84297  0.53596  0.37665  1.0000
  C   C2043     1.0  0.81282  0.54964  0.36131  1.0000
  C   C2044     1.0  0.84193  0.56825  0.35426  1.0000
  C   C2045     1.0  0.86246  0.57060  0.34125  1.0000
  C   C2046     1.0  0.83313  0.54407  0.32143  1.0000
  C   C2047     1.0  0.80220  0.55838  0.38037  1.0000
  C   C2048     1.0  0.86590  0.53291  0.37707  1.0000
  C   C2049     1.0  0.87155  0.51893  0.39554  1.0000
  C   C2050     1.0  0.86917  0.59073  0.34223  1.0000
  C   C2051     1.0  0.84434  0.53423  0.30367  1.0000
  H   H3621     1.0  0.66341  0.52212  0.45172  1.0000
  H   H3622     1.0  0.83872  0.52027  0.34500  1.0000
  H   H3623     1.0  0.85896  0.53409  0.33722  1.0000
  H   H3624     1.0  0.83686  0.54355  0.38993  1.0000
  H   H3625     1.0  0.83755  0.52107  0.37955  1.0000
  H   H3626     1.0  0.80761  0.53491  0.36166  1.0000
  H   H3627     1.0  0.80659  0.55930  0.34853  1.0000
  H   H3628     1.0  0.83076  0.57915  0.34665  1.0000
  H   H3629     1.0  0.84215  0.57384  0.36869  1.0000
  H   H3630     1.0  0.86147  0.56964  0.32541  1.0000
  H   H3631     1.0  0.87452  0.55896  0.34581  1.0000
  H   H3632     1.0  0.81738  0.54088  0.32312  1.0000
  H   H3633     1.0  0.83307  0.56042  0.31789  1.0000
  H   H3634     1.0  0.80824  0.57212  0.38215  1.0000
  H   H3635     1.0  0.80415  0.54726  0.39375  1.0000
  H   H3636     1.0  0.87417  0.52650  0.36385  1.0000
  H   H3637     1.0  0.87116  0.54735  0.37782  1.0000
  H   H3638     1.0  0.86436  0.52516  0.40933  1.0000
  H   H3639     1.0  0.86697  0.50399  0.39571  1.0000
  H   H3640     1.0  0.88805  0.51711  0.39542  1.0000
  H   H3641     1.0  0.85787  0.60312  0.33710  1.0000
  H   H3642     1.0  0.87152  0.59198  0.35768  1.0000
  H   H3643     1.0  0.88361  0.59208  0.33244  1.0000
  H   H3644     1.0  0.83779  0.54099  0.28993  1.0000
  H   H3645     1.0  0.86045  0.53626  0.30149  1.0000
  H   H3646     1.0  0.84285  0.51808  0.30604  1.0000
  H   H3647     1.0  0.52046  0.57634  0.26799  1.0000
  C   C2052     1.0  0.92030  0.42901  0.23238  1.0000
  H   H3648     1.0  0.60724  0.52401  0.26444  1.0000
  Fe  Fe229     1.0  0.56471  0.64511  0.39151  1.0000
  C   C2053     1.0  0.55354  0.36051  0.30717  1.0000
  H   H3649     1.0  0.53628  0.46183  0.23672  1.0000
  C   C2054     1.0  0.50502  0.61436  0.23120  1.0000
  H   H3650     1.0  0.66687  0.54801  0.44925  1.0000
  S   S470      1.0  0.55713  0.31894  0.46296  1.0000
  H   H3651     1.0  0.77229  0.56885  0.39389  1.0000
  H   H3652     1.0  0.85199  0.39484  0.38615  1.0000
  H   H3653     1.0  0.82610  0.37163  0.42511  1.0000
  N   N117      1.0  0.52750  0.37895  0.33222  1.0000
  H   H3654     1.0  0.57898  0.52193  0.43035  1.0000
  H   H3655     1.0  0.82177  0.40636  0.36572  1.0000
  C   C2055     1.0  0.55658  0.57609  0.38231  1.0000
  C   C2056     1.0  0.83056  0.41691  0.37026  1.0000
  H   H3656     1.0  0.81587  0.38464  0.39169  1.0000
  H   H3657     1.0  0.62551  0.53229  0.36687  1.0000
  H   H3658     1.0  0.53870  0.39205  0.35447  1.0000
  N   N118      1.0  0.93450  0.37716  0.46382  1.0000
  H   H3659     1.0  0.58500  0.55480  0.41980  1.0000
  C   C2057     1.0  0.49001  0.38770  0.32744  1.0000
  H   H3660     1.0  0.92103  0.41271  0.43583  1.0000
  H   H3661     1.0  0.80212  0.38245  0.43670  1.0000
  Fe  Fe230     1.0  0.84407  0.32945  0.47218  1.0000
  C   C2058     1.0  0.49912  0.55501  0.35664  1.0000
  C   C2059     1.0  0.97759  0.55798  0.28024  1.0000
  H   H3662     1.0  0.86982  0.44112  0.24009  1.0000
  N   N119      1.0  0.75571  0.41631  0.47606  1.0000
  C   C2060     1.0  0.75827  0.43815  0.47206  1.0000
  C   C2061     1.0  0.77573  0.40410  0.47102  1.0000
  C   C2062     1.0  0.74185  0.41264  0.46203  1.0000
  C   C2063     1.0  0.52577  0.39472  0.34583  1.0000
  H   H3663     1.0  0.94875  0.60270  0.29134  1.0000
  C   C2064     1.0  0.73988  0.39052  0.46103  1.0000
  H   H3664     1.0  0.60082  0.55785  0.45910  1.0000
  C   C2065     1.0  0.72169  0.38863  0.45114  1.0000
  H   H3665     1.0  0.76677  0.44160  0.45699  1.0000
  C   C2066     1.0  0.64049  0.63486  0.35410  1.0000
  H   H3666     1.0  0.94531  0.58762  0.27294  1.0000
  C   C2067     1.0  0.58397  0.48215  0.44534  1.0000
  H   H3667     1.0  0.74665  0.41944  0.44652  1.0000
  H   H3668     1.0  0.72640  0.42012  0.46622  1.0000
  Fe  Fe231     1.0  0.97439  0.59294  0.36303  1.0000
  H   H3669     1.0  0.94169  0.38520  0.23542  1.0000
  C   C2068     1.0  0.52405  0.35941  0.34485  1.0000
  H   H3670     1.0  0.50781  0.57877  0.32238  1.0000
  H   H3671     1.0  0.67899  0.50059  0.24719  1.0000
  H   H3672     1.0  0.75336  0.38351  0.45210  1.0000
  C   C2069     1.0  0.66461  0.48200  0.23275  1.0000
  C   C2070     1.0  0.58024  0.58147  0.44666  1.0000
  C   C2071     1.0  0.49884  0.48845  0.29523  1.0000
  H   H3673     1.0  0.70763  0.39477  0.45989  1.0000
  H   H3674     1.0  0.72282  0.39665  0.43574  1.0000
  H   H3675     1.0  0.72087  0.37266  0.45046  1.0000
  C   C2072     1.0  0.77965  0.56341  0.37975  1.0000
  H   H3676     1.0  0.72801  0.48422  0.47321  1.0000
  C   C2073     1.0  0.93967  0.38392  0.44180  1.0000
  H   H3677     1.0  0.95237  0.47110  0.26622  1.0000
  C   C2074     1.0  0.57818  0.35702  0.38823  1.0000
  S   S471      1.0  0.81153  0.33825  0.46738  1.0000
  C   C2075     1.0  0.67157  0.46560  0.45838  1.0000
  C   C2076     1.0  0.62076  0.33161  0.47681  1.0000
  H   H3678     1.0  0.95803  0.49644  0.26131  1.0000
  C   C2077     1.0  0.52033  0.57419  0.33158  1.0000
  C   C2078     1.0  0.53550  0.33068  0.37045  1.0000
  C   C2079     1.0  0.54809  0.37767  0.32032  1.0000
  H   H3679     1.0  0.55376  0.56451  0.39523  1.0000
  H   H3680     1.0  0.95720  0.64105  0.42427  1.0000
  C   C2080     1.0  0.74234  0.47410  0.47342  1.0000
  H   H3681     1.0  0.81201  0.37977  0.47336  1.0000
  C   C2081     1.0  0.51253  0.64381  0.32541  1.0000
  H   H3682     1.0  0.58996  0.52162  0.39800  1.0000
  C   C2082     1.0  0.60254  0.53047  0.39273  1.0000
  H   H3683     1.0  0.77422  0.38793  0.47309  1.0000
  H   H3684     1.0  0.52799  0.55993  0.32682  1.0000
  C   C2083     1.0  0.51217  0.38403  0.31787  1.0000
  H   H3685     1.0  0.94460  0.39896  0.47861  1.0000
  C   C2084     1.0  0.85980  0.39400  0.35482  1.0000
  H   H3686     1.0  0.54107  0.55633  0.35909  1.0000
  C   C2085     1.0  0.93348  0.49160  0.28402  1.0000
  H   H3687     1.0  0.54097  0.59530  0.36042  1.0000
  H   H3688     1.0  0.54773  0.47783  0.24927  1.0000
  H   H3689     1.0  0.97348  0.61776  0.42810  1.0000
  C   C2086     1.0  0.52421  0.43102  0.35069  1.0000
  H   H3690     1.0  0.85983  0.40403  0.34048  1.0000
  H   H3691     1.0  0.56198  0.58866  0.38763  1.0000
  C   C2087     1.0  0.52856  0.56623  0.36650  1.0000
  H   H3692     1.0  0.52318  0.55722  0.38070  1.0000
  H   H3693     1.0  0.91287  0.40336  0.46786  1.0000
  C   C2088     1.0  0.93242  0.49043  0.24734  1.0000
  H   H3694     1.0  0.60799  0.56332  0.42046  1.0000
  H   H3695     1.0  0.64860  0.62587  0.36603  1.0000
  C   C2089     1.0  0.97136  0.52988  0.30618  1.0000
  H   H3696     1.0  0.51561  0.39727  0.30694  1.0000
  H   H3697     1.0  0.50946  0.36109  0.35463  1.0000
  H   H3698     1.0  0.76873  0.34394  0.47026  1.0000
  H   H3699     1.0  0.96114  0.50700  0.34289  1.0000
  N   N120      1.0  0.81979  0.42606  0.38832  1.0000
  C   C2090     1.0  0.79964  0.43718  0.38401  1.0000
  C   C2091     1.0  0.83235  0.44107  0.39244  1.0000
  C   C2092     1.0  0.82284  0.45418  0.40898  1.0000
  C   C2093     1.0  0.78802  0.42841  0.37023  1.0000
  C   C2094     1.0  0.76654  0.43887  0.37052  1.0000
  C   C2095     1.0  0.83710  0.46836  0.41209  1.0000
  H   H3700     1.0  0.83202  0.42873  0.35719  1.0000
  H   H3701     1.0  0.78961  0.43932  0.39816  1.0000
  H   H3702     1.0  0.80140  0.45251  0.37635  1.0000
  H   H3703     1.0  0.83629  0.45133  0.37855  1.0000
  H   H3704     1.0  0.84682  0.43346  0.39702  1.0000
  H   H3705     1.0  0.80804  0.41762  0.41916  1.0000
  H   H3706     1.0  0.81939  0.44487  0.42345  1.0000
  H   H3707     1.0  0.80881  0.46338  0.40504  1.0000
  H   H3708     1.0  0.79549  0.43070  0.35460  1.0000
  H   H3709     1.0  0.78738  0.41229  0.37448  1.0000
  H   H3710     1.0  0.75806  0.43640  0.38567  1.0000
  H   H3711     1.0  0.76644  0.45513  0.36588  1.0000
  H   H3712     1.0  0.75881  0.43287  0.35998  1.0000
  H   H3713     1.0  0.82965  0.47818  0.42329  1.0000
  H   H3714     1.0  0.85082  0.45983  0.41760  1.0000
  H   H3715     1.0  0.84149  0.47785  0.39796  1.0000
  H   H3716     1.0  0.95419  0.34385  0.44068  1.0000
  H   H3717     1.0  0.60904  0.35456  0.42007  1.0000
  C   C2096     1.0  0.54112  0.59149  0.30211  1.0000
  H   H3718     1.0  0.60423  0.50158  0.28134  1.0000
  H   H3719     1.0  0.60219  0.52560  0.36221  1.0000
  H   H3720     1.0  0.93037  0.37745  0.43295  1.0000
  H   H3721     1.0  0.96152  0.48382  0.33322  1.0000
  H   H3722     1.0  0.62820  0.53896  0.40222  1.0000
  H   H3723     1.0  0.62651  0.51332  0.40837  1.0000
  S   S472      1.0  0.53702  0.64834  0.32641  1.0000
  H   H3724     1.0  0.54805  0.57709  0.29695  1.0000
  H   H3725     1.0  0.51239  0.39379  0.35731  1.0000
  C   C2097     1.0  0.65555  0.53743  0.45281  1.0000
  H   H3726     1.0  0.50727  0.60347  0.35552  1.0000
  H   H3727     1.0  0.81739  0.40338  0.45936  1.0000
  H   H3728     1.0  0.65967  0.46710  0.23455  1.0000
  C   C2098     1.0  0.62454  0.52779  0.44234  1.0000
  H   H3729     1.0  0.97265  0.54111  0.23121  1.0000
  N   N121      1.0  0.60815  0.53158  0.42913  1.0000
  C   C2099     1.0  0.81275  0.39566  0.47443  1.0000
  H   H3730     1.0  0.55191  0.60253  0.29755  1.0000
  C   C2100     1.0  0.49862  0.59061  0.35789  1.0000
  H   H3731     1.0  0.52051  0.63993  0.26016  1.0000
  H   H3732     1.0  0.50244  0.61022  0.26410  1.0000
  H   H3733     1.0  0.96762  0.34918  0.45945  1.0000
  H   H3734     1.0  0.49539  0.58140  0.39058  1.0000
  H   H3735     1.0  0.54990  0.39169  0.31006  1.0000
  C   C2101     1.0  0.60004  0.49511  0.43536  1.0000
  C   C2102     1.0  0.51274  0.60532  0.25115  1.0000
  H   H3736     1.0  0.61137  0.34575  0.34776  1.0000
  H   H3737     1.0  0.51932  0.53250  0.34012  1.0000
  C   C2103     1.0  0.93717  0.40676  0.43523  1.0000
  H   H3738     1.0  0.87542  0.38707  0.35626  1.0000
  H   H3739     1.0  0.54702  0.32510  0.38056  1.0000
  H   H3740     1.0  0.53586  0.31956  0.36008  1.0000
  H   H3741     1.0  0.51988  0.63316  0.29687  1.0000
  H   H3742     1.0  0.56851  0.56984  0.37115  1.0000
  C   C2104     1.0  0.93459  0.35486  0.46626  1.0000
  H   H3743     1.0  0.78134  0.40800  0.45496  1.0000
  H   H3744     1.0  0.75285  0.47912  0.46020  1.0000
  N   N122      1.0  0.51204  0.57171  0.35344  1.0000
  H   H3745     1.0  0.57838  0.34815  0.28696  1.0000
  H   H3746     1.0  0.52656  0.59101  0.38418  1.0000
  H   H3747     1.0  0.53757  0.42749  0.35870  1.0000
  H   H3748     1.0  0.65773  0.43931  0.45811  1.0000
  H   H3749     1.0  0.61377  0.48969  0.44249  1.0000
  S   S473      1.0  0.49882  0.54628  0.30358  1.0000
  H   H3750     1.0  0.63325  0.51289  0.44093  1.0000
  C   C2105     1.0  0.59297  0.51747  0.43735  1.0000
  N   N123      1.0  0.62383  0.41745  0.38554  1.0000
  C   C2106     1.0  0.62558  0.40092  0.40274  1.0000
  C   C2107     1.0  0.63578  0.43387  0.38765  1.0000
  C   C2108     1.0  0.60204  0.42619  0.38637  1.0000
  C   C2109     1.0  0.63012  0.40986  0.36566  1.0000
  C   C2110     1.0  0.65159  0.39888  0.36210  1.0000
  C   C2111     1.0  0.61344  0.38337  0.40310  1.0000
  C   C2112     1.0  0.59723  0.44489  0.37106  1.0000
  C   C2113     1.0  0.65502  0.42779  0.39794  1.0000
  C   C2114     1.0  0.66685  0.44538  0.39626  1.0000
  C   C2115     1.0  0.65513  0.39042  0.34223  1.0000
  H   H3751     1.0  0.92215  0.35115  0.45919  1.0000
  C   C2116     1.0  0.57511  0.45332  0.37446  1.0000
  H   H3752     1.0  0.62081  0.40717  0.41711  1.0000
  H   H3753     1.0  0.64137  0.39422  0.40331  1.0000
  H   H3754     1.0  0.63995  0.44249  0.37284  1.0000
  H   H3755     1.0  0.62648  0.44494  0.39676  1.0000
  H   H3756     1.0  0.59623  0.43019  0.40158  1.0000
  H   H3757     1.0  0.59276  0.41503  0.38368  1.0000
  H   H3758     1.0  0.61946  0.40003  0.36291  1.0000
  H   H3759     1.0  0.62926  0.42238  0.35338  1.0000
  H   H3760     1.0  0.65441  0.38625  0.37392  1.0000
  H   H3761     1.0  0.66264  0.40944  0.36131  1.0000
  H   H3762     1.0  0.59713  0.38842  0.40558  1.0000
  H   H3763     1.0  0.61708  0.37667  0.38901  1.0000
  H   H3764     1.0  0.60040  0.44106  0.35563  1.0000
  H   H3765     1.0  0.60609  0.45699  0.37204  1.0000
  H   H3766     1.0  0.65093  0.42289  0.41409  1.0000
  H   H3767     1.0  0.66508  0.41549  0.39146  1.0000
  H   H3768     1.0  0.65727  0.45832  0.40222  1.0000
  H   H3769     1.0  0.67973  0.44116  0.40491  1.0000
  H   H3770     1.0  0.67271  0.44986  0.38048  1.0000
  H   H3771     1.0  0.64486  0.37918  0.34236  1.0000
  H   H3772     1.0  0.65261  0.40249  0.32973  1.0000
  H   H3773     1.0  0.67079  0.38308  0.33962  1.0000
  C   C2117     1.0  0.94578  0.48702  0.26425  1.0000
  H   H3774     1.0  0.63295  0.55820  0.43972  1.0000
  C   C2118     1.0  0.53741  0.58364  0.37291  1.0000
  H   H3775     1.0  0.57121  0.45833  0.38942  1.0000
  H   H3776     1.0  0.57203  0.46633  0.36303  1.0000
  H   H3777     1.0  0.56551  0.44193  0.37312  1.0000
  H   H3778     1.0  0.91682  0.38005  0.24572  1.0000
  H   H3779     1.0  0.52749  0.59695  0.29481  1.0000
  H   H3780     1.0  0.57000  0.48658  0.43834  1.0000
  S   S474      1.0  0.98582  0.61186  0.38254  1.0000
  H   H3781     1.0  0.96425  0.38409  0.46578  1.0000
  H   H3782     1.0  0.94419  0.41455  0.44494  1.0000
  Fe  Fe232     1.0  0.88559  0.33583  0.45152  1.0000
  H   H3783     1.0  0.94211  0.48536  0.29653  1.0000
  C   C2119     1.0  0.50570  0.52071  0.30148  1.0000
  C   C2120     1.0  0.59781  0.55267  0.42858  1.0000
  H   H3784     1.0  0.59214  0.59103  0.44060  1.0000
  H   H3785     1.0  0.49150  0.61948  0.38384  1.0000
  H   H3786     1.0  0.57837  0.37413  0.28887  1.0000
  H   H3787     1.0  0.96308  0.40729  0.41220  1.0000
  H   H3788     1.0  0.56859  0.58422  0.43647  1.0000
  H   H3789     1.0  0.73835  0.38196  0.47609  1.0000
  H   H3790     1.0  0.64822  0.53832  0.46834  1.0000
  H   H3791     1.0  0.58067  0.48346  0.46152  1.0000
  H   H3792     1.0  0.55734  0.45186  0.24978  1.0000
  H   H3793     1.0  0.61399  0.37261  0.43472  1.0000
  H   H3794     1.0  0.63410  0.36070  0.41827  1.0000
  H   H3795     1.0  0.51296  0.37176  0.30869  1.0000
  C   C2121     1.0  0.96678  0.63153  0.43465  1.0000
  C   C2122     1.0  0.60033  0.35454  0.35707  1.0000
  H   H3796     1.0  0.77306  0.54994  0.37802  1.0000
  H   H3797     1.0  0.80340  0.36309  0.42134  1.0000
  H   H3798     1.0  0.90305  0.38314  0.46070  1.0000
  C   C2123     1.0  0.57529  0.35953  0.29738  1.0000
  C   C2124     1.0  0.61738  0.52821  0.40828  1.0000
  C   C2125     1.0  0.95612  0.32097  0.46568  1.0000
  C   C2126     1.0  0.81759  0.41081  0.40666  1.0000
  H   H3799     1.0  0.97163  0.49961  0.29905  1.0000
  H   H3800     1.0  0.55983  0.37651  0.33022  1.0000
  C   C2127     1.0  0.64012  0.54278  0.43818  1.0000
  H   H3801     1.0  0.67620  0.44230  0.25214  1.0000
  C   C2128     1.0  0.95917  0.50030  0.32961  1.0000
  H   H3802     1.0  0.98216  0.52191  0.26823  1.0000
  H   H3803     1.0  0.52021  0.52883  0.36638  1.0000
  H   H3804     1.0  0.54009  0.36092  0.37004  1.0000
  C   C2129     1.0  0.95648  0.59179  0.28131  1.0000
  H   H3805     1.0  0.60325  0.49260  0.41949  1.0000
  H   H3806     1.0  0.61902  0.50747  0.37558  1.0000
  H   H3807     1.0  0.92379  0.47751  0.25008  1.0000
  H   H3808     1.0  0.97847  0.47226  0.24156  1.0000
  H   H3809     1.0  0.59776  0.33055  0.38148  1.0000
  H   H3810     1.0  0.96972  0.53683  0.32019  1.0000
  H   H3811     1.0  0.95404  0.56706  0.30412  1.0000
  S   S475      1.0  0.56738  0.34694  0.41214  1.0000
  C   C2130     1.0  0.61800  0.36686  0.42010  1.0000
  H   H3812     1.0  0.57704  0.55072  0.45649  1.0000
  C   C2131     1.0  0.81012  0.37645  0.42309  1.0000
  H   H3813     1.0  0.83235  0.40586  0.41217  1.0000
  C   C2132     1.0  0.61302  0.52352  0.37320  1.0000
  H   H3814     1.0  0.79214  0.39591  0.40343  1.0000
  H   H3815     1.0  0.95546  0.37820  0.43660  1.0000
  H   H3816     1.0  0.86240  0.41637  0.37266  1.0000
  C   C2133     1.0  0.94663  0.41180  0.41370  1.0000
  C   C2134     1.0  0.54000  0.35075  0.35891  1.0000
  C   C2135     1.0  0.51501  0.58254  0.25355  1.0000
  C   C2136     1.0  0.53588  0.58893  0.32479  1.0000
  C   C2137     1.0  0.68270  0.47500  0.46891  1.0000
  H   H3817     1.0  0.95637  0.53342  0.30085  1.0000
  H   H3818     1.0  0.94362  0.50477  0.32614  1.0000
  H   H3819     1.0  0.61815  0.52706  0.45834  1.0000
  Fe  Fe233     1.0  0.98155  0.63697  0.35760  1.0000
  C   C2138     1.0  0.80832  0.39197  0.40468  1.0000
  H   H3820     1.0  0.54396  0.36285  0.29506  1.0000
  H   H3821     1.0  0.94371  0.42812  0.40909  1.0000
  H   H3822     1.0  0.68801  0.41740  0.27939  1.0000
  H   H3823     1.0  0.93933  0.52910  0.24382  1.0000
  C   C2139     1.0  0.96614  0.57345  0.29371  1.0000
  H   H3824     1.0  0.64836  0.54255  0.42295  1.0000
  H   H3825     1.0  0.77648  0.57522  0.36721  1.0000
  H   H3826     1.0  0.73115  0.45286  0.45941  1.0000
  C   C2140     1.0  0.58915  0.55952  0.44908  1.0000
  H   H3827     1.0  0.53019  0.60377  0.32931  1.0000
  C   C2141     1.0  0.51017  0.53364  0.35473  1.0000
  H   H3828     1.0  0.85053  0.38199  0.35466  1.0000
  C   C2142     1.0  0.66649  0.44657  0.46610  1.0000
  C   C2143     1.0  0.91357  0.38687  0.47015  1.0000
  H   H3829     1.0  0.92087  0.50350  0.24967  1.0000
  C   C2144     1.0  0.67628  0.48469  0.24984  1.0000
  H   H3830     1.0  0.55179  0.34578  0.31599  1.0000
  H   H3831     1.0  0.55524  0.34839  0.35056  1.0000
  H   H3832     1.0  0.65003  0.63364  0.33958  1.0000
  H   H3833     1.0  0.51156  0.42109  0.32776  1.0000
  C   C2145     1.0  0.49239  0.50873  0.29709  1.0000
  H   H3834     1.0  0.97627  0.57866  0.30251  1.0000
  C   C2146     1.0  0.55068  0.46511  0.24041  1.0000
  H   H3835     1.0  0.52591  0.57672  0.24133  1.0000
  H   H3836     1.0  0.62867  0.64667  0.38917  1.0000
  C   C2147     1.0  0.98314  0.64278  0.43886  1.0000
  H   H3837     1.0  0.62644  0.62864  0.35370  1.0000
  H   H3838     1.0  0.50342  0.50350  0.35540  1.0000
  H   H3839     1.0  0.93705  0.35975  0.24300  1.0000
  C   C2148     1.0  0.93063  0.37462  0.23615  1.0000
  Fe  Fe234     1.0  0.55250  0.38002  0.65850  1.0000
  S   S476      1.0  0.52362  0.37167  0.65206  1.0000
  S   S477      1.0  0.57225  0.39646  0.63363  1.0000
  Fe  Fe235     1.0  0.54510  0.36371  0.70283  1.0000
  S   S478      1.0  0.51612  0.35390  0.69953  1.0000
  Fe  Fe236     1.0  0.53200  0.34320  0.67147  1.0000
  H   H3840     1.0  0.96870  0.43061  0.71234  1.0000
  Fe  Fe237     1.0  0.51029  0.38334  0.68079  1.0000
  H   H3841     1.0  0.53828  0.33906  0.53425  1.0000
  S   S479      1.0  0.56185  0.35052  0.67591  1.0000
  S   S480      1.0  0.53835  0.39419  0.68593  1.0000
  Fe  Fe238     1.0  0.67695  0.36675  0.51084  1.0000
  S   S481      1.0  0.65712  0.38878  0.52871  1.0000
  H   H3842     1.0  0.62514  0.36560  0.52411  1.0000
  Fe  Fe239     1.0  0.71169  0.36380  0.53499  1.0000
  S   S482      1.0  0.69441  0.38531  0.55508  1.0000
  S   S483      1.0  0.74377  0.35252  0.54011  1.0000
  Fe  Fe240     1.0  0.66806  0.36891  0.55528  1.0000
  S   S484      1.0  0.64903  0.35540  0.58293  1.0000
  Fe  Fe241     1.0  0.68517  0.40308  0.52679  1.0000
  S   S485      1.0  0.68954  0.43548  0.51860  1.0000
  S   S486      1.0  0.68621  0.34579  0.53725  1.0000
  S   S487      1.0  0.70400  0.38257  0.50692  1.0000
  H   H3843     1.0  0.58662  0.36955  0.57877  1.0000
  C   C2149     1.0  0.52764  0.31931  0.58930  1.0000
  H   H3844     1.0  0.57306  0.42108  0.67709  1.0000
  C   C2150     1.0  0.58101  0.41782  0.69049  1.0000
  S   S488      1.0  0.97397  0.36294  0.60464  1.0000
  H   H3845     1.0  0.54622  0.36916  0.60151  1.0000
  C   C2151     1.0  0.50956  0.33463  0.59449  1.0000
  C   C2152     1.0  0.60990  0.37055  0.51989  1.0000
  H   H3846     1.0  0.62271  0.38608  0.49205  1.0000
  H   H3847     1.0  0.75258  0.39484  0.53679  1.0000
  C   C2153     1.0  0.94276  0.33398  0.55054  1.0000
  C   C2154     1.0  0.92507  0.34216  0.56122  1.0000
  C   C2155     1.0  0.54862  0.34414  0.52094  1.0000
  C   C2156     1.0  0.90588  0.33748  0.53510  1.0000
  H   H3848     1.0  0.63860  0.40692  0.69050  1.0000
  S   S489      1.0  0.66767  0.35878  0.48316  1.0000
  C   C2157     1.0  0.98171  0.41932  0.71553  1.0000
  C   C2158     1.0  0.65881  0.38827  0.70850  1.0000
  H   H3849     1.0  0.56698  0.33556  0.55313  1.0000
  C   C2159     1.0  0.95870  0.35518  0.68289  1.0000
  H   H3850     1.0  0.55396  0.37000  0.53247  1.0000
  H   H3851     1.0  0.51160  0.34924  0.58546  1.0000
  H   H3852     1.0  0.94027  0.36605  0.50460  1.0000
  C   C2160     1.0  0.94496  0.36721  0.69499  1.0000
  H   H3853     1.0  0.93086  0.37381  0.68993  1.0000
  C   C2161     1.0  0.76238  0.34945  0.51952  1.0000
  C   C2162     1.0  0.75743  0.34839  0.50067  1.0000
  H   H3854     1.0  0.79432  0.42123  0.48439  1.0000
  H   H3855     1.0  0.59649  0.39416  0.49902  1.0000
  H   H3856     1.0  0.60452  0.35871  0.68754  1.0000
  H   H3857     1.0  0.88318  0.40855  0.49410  1.0000
  H   H3858     1.0  0.63618  0.33606  0.68069  1.0000
  H   H3859     1.0  0.50789  0.33654  0.61053  1.0000
  H   H3860     1.0  0.95660  0.39401  0.51164  1.0000
  H   H3861     1.0  0.89318  0.35051  0.56174  1.0000
  H   H3862     1.0  0.60172  0.39519  0.70420  1.0000
  C   C2163     1.0  0.60949  0.39717  0.67146  1.0000
  C   C2164     1.0  0.90478  0.38174  0.49217  1.0000
  H   H3863     1.0  0.93843  0.37984  0.72284  1.0000
  C   C2165     1.0  0.83963  0.32988  0.56495  1.0000
  H   H3864     1.0  0.91360  0.38711  0.50216  1.0000
  C   C2166     1.0  0.68297  0.44664  0.49517  1.0000
  H   H3865     1.0  0.94615  0.39570  0.63018  1.0000
  H   H3866     1.0  0.83444  0.37061  0.56689  1.0000
  H   H3867     1.0  0.63513  0.34142  0.65428  1.0000
  H   H3868     1.0  0.53322  0.39119  0.58891  1.0000
  H   H3869     1.0  0.67345  0.39175  0.62778  1.0000
  H   H3870     1.0  0.60081  0.39913  0.65861  1.0000
  N   N124      1.0  0.62469  0.37875  0.67055  1.0000
  H   H3871     1.0  0.49862  0.46541  0.66556  1.0000
  H   H3872     1.0  0.53955  0.35308  0.50975  1.0000
  S   S490      1.0  0.95246  0.35084  0.65968  1.0000
  C   C2167     1.0  0.59414  0.39766  0.69063  1.0000
  C   C2168     1.0  0.63784  0.37982  0.65057  1.0000
  S   S491      1.0  0.88253  0.34018  0.52588  1.0000
  H   H3873     1.0  0.87716  0.38742  0.51197  1.0000
  C   C2169     1.0  0.79785  0.34446  0.50631  1.0000
  H   H3874     1.0  0.60273  0.32784  0.65867  1.0000
  H   H3875     1.0  0.50545  0.42842  0.67125  1.0000
  H   H3876     1.0  0.66850  0.42228  0.49011  1.0000
  C   C2170     1.0  0.79289  0.34286  0.48758  1.0000
  C   C2171     1.0  0.59267  0.38460  0.61867  1.0000
  C   C2172     1.0  0.59806  0.36396  0.62151  1.0000
  C   C2173     1.0  0.61532  0.35525  0.61032  1.0000
  C   C2174     1.0  0.62698  0.36701  0.59583  1.0000
  C   C2175     1.0  0.62105  0.38752  0.59234  1.0000
  C   C2176     1.0  0.60406  0.39629  0.60387  1.0000
  H   H3877     1.0  0.58919  0.35479  0.63261  1.0000
  H   H3878     1.0  0.61979  0.33934  0.61304  1.0000
  H   H3879     1.0  0.62989  0.39670  0.58119  1.0000
  H   H3880     1.0  0.59990  0.41226  0.60150  1.0000
  C   C2177     1.0  0.61107  0.38931  0.50479  1.0000
  C   C2178     1.0  0.59494  0.37449  0.53879  1.0000
  H   H3881     1.0  0.61524  0.40154  0.51169  1.0000
  C   C2179     1.0  0.92350  0.32903  0.52458  1.0000
  C   C2180     1.0  0.95395  0.37002  0.49489  1.0000
  H   H3882     1.0  0.74819  0.41858  0.54616  1.0000
  C   C2181     1.0  0.50944  0.60452  0.55240  1.0000
  C   C2182     1.0  0.95755  0.40590  0.62961  1.0000
  H   H3883     1.0  0.65507  0.39006  0.61182  1.0000
  C   C2183     1.0  0.62600  0.34075  0.66916  1.0000
  C   C2184     1.0  0.60443  0.32395  0.57217  1.0000
  H   H3884     1.0  0.51683  0.61540  0.54104  1.0000
  H   H3885     1.0  0.97930  0.39764  0.68679  1.0000
  C   C2185     1.0  0.64550  0.33133  0.50607  1.0000
  H   H3886     1.0  0.63065  0.37401  0.63941  1.0000
  H   H3887     1.0  0.66726  0.40069  0.70952  1.0000
  H   H3888     1.0  0.65503  0.33119  0.51739  1.0000
  H   H3889     1.0  0.98152  0.42608  0.64253  1.0000
  H   H3890     1.0  0.74860  0.47516  0.48724  1.0000
  S   S492      1.0  0.96647  0.33213  0.55889  1.0000
  H   H3891     1.0  0.97484  0.42288  0.67651  1.0000
  H   H3892     1.0  0.97828  0.38213  0.64151  1.0000
  H   H3893     1.0  0.64737  0.40957  0.65047  1.0000
  C   C2186     1.0  0.64865  0.34344  0.48784  1.0000
  H   H3894     1.0  0.60582  0.35872  0.51243  1.0000
  H   H3895     1.0  0.51308  0.58958  0.54729  1.0000
  H   H3896     1.0  0.61682  0.41085  0.66964  1.0000
  H   H3897     1.0  0.64747  0.38676  0.72193  1.0000
  H   H3898     1.0  0.80942  0.33595  0.58186  1.0000
  Fe  Fe242     1.0  0.97626  0.33619  0.58847  1.0000
  H   H3899     1.0  0.84995  0.33033  0.57591  1.0000
  C   C2187     1.0  0.81998  0.34371  0.57045  1.0000
  C   C2188     1.0  0.54810  0.38224  0.58997  1.0000
  C   C2189     1.0  0.94921  0.37066  0.71367  1.0000
  H   H3900     1.0  0.62896  0.40919  0.63441  1.0000
  C   C2190     1.0  0.64257  0.40070  0.64024  1.0000
  H   H3901     1.0  0.83095  0.35820  0.59222  1.0000
  H   H3902     1.0  0.55802  0.39166  0.59471  1.0000
  C   C2191     1.0  0.55688  0.37565  0.56972  1.0000
  C   C2192     1.0  0.49068  0.43584  0.67584  1.0000
  C   C2193     1.0  0.96559  0.38016  0.50702  1.0000
  H   H3903     1.0  0.58188  0.38477  0.53402  1.0000
  H   H3904     1.0  0.59019  0.42991  0.69060  1.0000
  H   H3905     1.0  0.66133  0.41403  0.61471  1.0000
  H   H3906     1.0  0.96593  0.40742  0.61435  1.0000
  H   H3907     1.0  0.81240  0.34877  0.55697  1.0000
  H   H3908     1.0  0.84695  0.33714  0.55065  1.0000
  H   H3909     1.0  0.72790  0.44831  0.48615  1.0000
  H   H3910     1.0  0.60334  0.32275  0.68533  1.0000
  H   H3911     1.0  0.54583  0.36731  0.56528  1.0000
  H   H3912     1.0  0.49563  0.32981  0.59125  1.0000
  Fe  Fe243     1.0  0.87793  0.33023  0.49679  1.0000
  H   H3913     1.0  0.60227  0.38326  0.54746  1.0000
  H   H3914     1.0  0.56963  0.41754  0.70395  1.0000
  C   C2194     1.0  0.61325  0.36109  0.67246  1.0000
  H   H3915     1.0  0.96277  0.39597  0.65986  1.0000
  H   H3916     1.0  0.66065  0.39457  0.67682  1.0000
  H   H3917     1.0  0.49186  0.33922  0.67014  1.0000
  C   C2195     1.0  0.56301  0.35684  0.52661  1.0000
  H   H3918     1.0  0.76833  0.42107  0.51299  1.0000
  H   H3919     1.0  0.81341  0.34318  0.50845  1.0000
  C   C2196     1.0  0.64867  0.39271  0.68957  1.0000
  H   H3920     1.0  0.74466  0.43629  0.51287  1.0000
  H   H3921     1.0  0.76746  0.44217  0.48254  1.0000
  H   H3922     1.0  0.60204  0.36412  0.66175  1.0000
  H   H3923     1.0  0.66949  0.37432  0.70829  1.0000
  C   C2197     1.0  0.65911  0.39896  0.62258  1.0000
  C   C2198     1.0  0.62999  0.31938  0.50964  1.0000
  C   C2199     1.0  0.82415  0.36231  0.57817  1.0000
  C   C2200     1.0  0.75208  0.42067  0.51387  1.0000
  H   H3924     1.0  0.59957  0.32813  0.58737  1.0000
  H   H3925     1.0  0.54106  0.32500  0.59238  1.0000
  H   H3926     1.0  0.78645  0.34861  0.53678  1.0000
  H   H3927     1.0  0.55857  0.38932  0.55902  1.0000
  C   C2201     1.0  0.57654  0.34459  0.54171  1.0000
  C   C2202     1.0  0.78262  0.34761  0.52226  1.0000
  H   H3928     1.0  0.64874  0.36228  0.68591  1.0000
  Fe  Fe244     1.0  0.97434  0.34128  0.63298  1.0000
  H   H3929     1.0  0.51549  0.60414  0.56667  1.0000
  H   H3930     1.0  0.57227  0.36229  0.51267  1.0000
  H   H3931     1.0  0.58399  0.38615  0.69176  1.0000
  H   H3932     1.0  0.57306  0.34878  0.58154  1.0000
  H   H3933     1.0  0.65226  0.36991  0.65173  1.0000
  C   C2203     1.0  0.77265  0.34511  0.48474  1.0000
  C   C2204     1.0  0.88338  0.39211  0.49630  1.0000
  H   H3934     1.0  0.58661  0.33349  0.53320  1.0000
  H   H3935     1.0  0.55703  0.33102  0.51426  1.0000
  H   H3936     1.0  0.61620  0.33750  0.54330  1.0000
  H   H3937     1.0  0.92559  0.34732  0.57530  1.0000
  C   C2205     1.0  0.57703  0.36208  0.57111  1.0000
  H   H3938     1.0  0.69595  0.47331  0.49594  1.0000
  H   H3939     1.0  0.80744  0.31692  0.55407  1.0000
  H   H3940     1.0  0.80989  0.37225  0.58121  1.0000
  C   C2206     1.0  0.98711  0.41075  0.68006  1.0000
  C   C2207     1.0  0.60738  0.34282  0.55691  1.0000
  H   H3941     1.0  0.74187  0.34956  0.49849  1.0000
  C   C2208     1.0  0.96721  0.36189  0.72057  1.0000
  H   H3942     1.0  0.92300  0.32375  0.51059  1.0000
  C   C2209     1.0  0.97675  0.34656  0.68973  1.0000
  N   N125      1.0  0.58855  0.35609  0.55182  1.0000
  H   H3943     1.0  0.94969  0.42067  0.63295  1.0000
  C   C2210     1.0  0.97176  0.39728  0.64492  1.0000
  H   H3944     1.0  0.62781  0.37155  0.70193  1.0000
  H   H3945     1.0  0.72845  0.40998  0.53626  1.0000
  C   C2211     1.0  0.74487  0.41033  0.53451  1.0000
  C   C2212     1.0  0.94184  0.32743  0.53220  1.0000
  H   H3946     1.0  0.61732  0.35146  0.56271  1.0000
  C   C2213     1.0  0.90674  0.34397  0.55347  1.0000
  H   H3947     1.0  0.97624  0.40481  0.72139  1.0000
  C   C2214     1.0  0.63717  0.37544  0.68746  1.0000
  C   C2215     1.0  0.61266  0.32438  0.67053  1.0000
  H   H3948     1.0  0.96892  0.36996  0.52071  1.0000
  H   H3949     1.0  0.90442  0.36552  0.49605  1.0000
  C   C2216     1.0  0.68802  0.46569  0.48745  1.0000
  C   C2217     1.0  0.67249  0.43695  0.48427  1.0000
  H   H3950     1.0  0.95544  0.32104  0.52388  1.0000
  H   H3951     1.0  0.87363  0.38807  0.48634  1.0000
  H   H3952     1.0  0.82434  0.39625  0.48406  1.0000
  H   H3953     1.0  0.75037  0.39368  0.50131  1.0000
  C   C2218     1.0  0.74665  0.41006  0.49724  1.0000
  H   H3954     1.0  0.78914  0.39766  0.49872  1.0000
  C   C2219     1.0  0.79251  0.40561  0.48347  1.0000
  H   H3955     1.0  0.98728  0.33700  0.68076  1.0000
  H   H3956     1.0  0.52917  0.31859  0.57303  1.0000
  C   C2220     1.0  0.61739  0.31983  0.49519  1.0000
  C   C2221     1.0  0.98097  0.34992  0.70842  1.0000
  H   H3957     1.0  0.97999  0.38376  0.49825  1.0000
  H   H3958     1.0  0.82729  0.31943  0.53416  1.0000
  H   H3959     1.0  0.63574  0.31755  0.57722  1.0000
  H   H3960     1.0  0.82752  0.31719  0.60524  1.0000
  H   H3961     1.0  0.96317  0.35581  0.49165  1.0000
  H   H3962     1.0  0.73000  0.41276  0.49861  1.0000
  C   C2222     1.0  0.98873  0.41034  0.64395  1.0000
  C   C2223     1.0  0.48886  0.32549  0.66583  1.0000
  H   H3963     1.0  0.93136  0.34871  0.48212  1.0000
  H   H3964     1.0  0.95571  0.31921  0.48213  1.0000
  H   H3965     1.0  0.93464  0.45690  0.80916  1.0000
  C   C2224     1.0  0.88194  0.35955  0.95689  1.0000
  S   S493      1.0  0.57863  0.36849  0.93852  1.0000
  H   H3966     1.0  0.84462  0.36840  0.85908  1.0000
  H   H3967     1.0  0.96483  0.51990  0.80757  1.0000
  H   H3968     1.0  0.90483  0.44369  0.80095  1.0000
  H   H3969     1.0  0.93141  0.34948  0.84240  1.0000
  C   C2225     1.0  0.48947  0.41416  0.86724  1.0000
  S   S494      1.0  0.62795  0.33270  0.94920  1.0000
  H   H3970     1.0  0.89998  0.40792  0.90461  1.0000
  H   H3971     1.0  0.50508  0.42112  0.89757  1.0000
  Fe  Fe245     1.0  0.81676  0.42141  0.90937  1.0000
  S   S495      1.0  0.83179  0.40878  0.93630  1.0000
  S   S496      1.0  0.83907  0.43528  0.88466  1.0000
  Fe  Fe246     1.0  0.77575  0.41057  0.93064  1.0000
  S   S497      1.0  0.78854  0.39666  0.95847  1.0000
  S   S498      1.0  0.74172  0.41455  0.93099  1.0000
  Fe  Fe247     1.0  0.80524  0.42319  0.95462  1.0000
  S   S499      1.0  0.97334  0.36516  0.74417  1.0000
  Fe  Fe248     1.0  0.81423  0.38330  0.93814  1.0000
  S   S500      1.0  0.82732  0.35117  0.94576  1.0000
  S   S501      1.0  0.79111  0.43830  0.92778  1.0000
  S   S502      1.0  0.80033  0.39493  0.91016  1.0000
  Fe  Fe249     1.0  0.95706  0.38333  0.76878  1.0000
  C   C2226     1.0  0.96677  0.59602  0.91537  1.0000
  S   S503      1.0  0.55694  0.35625  0.73260  1.0000
  Fe  Fe250     1.0  0.92057  0.39955  0.79734  1.0000
  S   S504      1.0  0.93941  0.41333  0.81419  1.0000
  S   S505      1.0  0.88719  0.39899  0.80789  1.0000
  Fe  Fe251     1.0  0.95627  0.42307  0.78447  1.0000
  H   H3972     1.0  0.53355  0.33214  0.80256  1.0000
  Fe  Fe252     1.0  0.95982  0.38469  0.81311  1.0000
  C   C2227     1.0  0.85007  0.35016  0.88766  1.0000
  S   S506      1.0  0.93561  0.41179  0.76703  1.0000
  S   S507      1.0  0.94038  0.37010  0.79758  1.0000
  C   C2228     1.0  0.85895  0.32819  0.96185  1.0000
  H   H3973     1.0  0.50453  0.40615  0.86974  1.0000
  H   H3974     1.0  0.90859  0.34710  0.83305  1.0000
  C   C2229     1.0  0.83683  0.36540  0.87444  1.0000
  H   H3975     1.0  0.92478  0.48158  0.79872  1.0000
  C   C2230     1.0  0.85251  0.42384  0.86410  1.0000
  C   C2231     1.0  0.84324  0.41331  0.85285  1.0000
  C   C2232     1.0  0.85406  0.40568  0.83577  1.0000
  C   C2233     1.0  0.87429  0.40824  0.82988  1.0000
  C   C2234     1.0  0.88366  0.41833  0.84141  1.0000
  C   C2235     1.0  0.87276  0.42637  0.85821  1.0000
  H   H3976     1.0  0.82755  0.41165  0.85690  1.0000
  H   H3977     1.0  0.84660  0.39801  0.82688  1.0000
  H   H3978     1.0  0.89919  0.42023  0.83705  1.0000
  H   H3979     1.0  0.88003  0.43459  0.86670  1.0000
  C   C2236     1.0  0.90932  0.45826  0.79364  1.0000
  H   H3980     1.0  0.84191  0.34880  0.90311  1.0000
  H   H3981     1.0  0.91903  0.45584  0.77943  1.0000
  C   C2237     1.0  0.88067  0.33909  0.90283  1.0000
  H   H3982     1.0  0.81201  0.46966  0.95594  1.0000
  H   H3983     1.0  0.94847  0.41112  0.93936  1.0000
  C   C2238     1.0  0.85120  0.34720  0.95352  1.0000
  H   H3984     1.0  0.98821  0.36897  0.92448  1.0000
  C   C2239     1.0  0.92081  0.46719  0.80698  1.0000
  C   C2240     1.0  0.69859  0.36665  0.94573  1.0000
  C   C2241     1.0  0.71945  0.36104  0.94426  1.0000
  C   C2242     1.0  0.73285  0.37545  0.93951  1.0000
  C   C2243     1.0  0.72554  0.39570  0.93618  1.0000
  C   C2244     1.0  0.70470  0.40129  0.93732  1.0000
  C   C2245     1.0  0.69130  0.38687  0.94206  1.0000
  C   C2246     1.0  0.64860  0.42323  0.97016  1.0000
  H   H3985     1.0  0.74883  0.37088  0.93850  1.0000
  H   H3986     1.0  0.69888  0.41688  0.93445  1.0000
  H   H3987     1.0  0.67536  0.39134  0.94264  1.0000
  C   C2247     1.0  0.56685  0.35245  0.92696  1.0000
  C   C2248     1.0  0.55048  0.36040  0.91658  1.0000
  C   C2249     1.0  0.54078  0.34808  0.90732  1.0000
  S   S508      1.0  0.62494  0.37475  0.96822  1.0000
  H   H3988     1.0  0.94151  0.36079  0.90436  1.0000
  C   C2250     1.0  0.57345  0.33201  0.92780  1.0000
  H   H3989     1.0  0.54537  0.37619  0.91563  1.0000
  H   H3990     1.0  0.52845  0.35442  0.89917  1.0000
  H   H3991     1.0  0.93396  0.32893  0.89771  1.0000
  C   C2251     1.0  0.53881  0.35435  0.75406  1.0000
  C   C2252     1.0  0.51908  0.36338  0.75332  1.0000
  C   C2253     1.0  0.50467  0.36114  0.77022  1.0000
  C   C2254     1.0  0.50973  0.34986  0.78806  1.0000
  H   H3992     1.0  0.58626  0.32571  0.93531  1.0000
  H   H3993     1.0  0.81997  0.34403  0.86580  1.0000
  H   H3994     1.0  0.91273  0.37084  0.83922  1.0000
  C   C2255     1.0  0.54400  0.34326  0.77198  1.0000
  C   C2256     1.0  0.86288  0.36273  0.95095  1.0000
  H   H3995     1.0  0.74348  0.45590  0.96977  1.0000
  C   C2257     1.0  0.49427  0.39613  0.83664  1.0000
  C   C2258     1.0  0.56366  0.31969  0.91870  1.0000
  C   C2259     1.0  0.88591  0.40113  0.90659  1.0000
  C   C2260     1.0  0.48976  0.42945  0.89728  1.0000
  H   H3996     1.0  0.77048  0.45268  0.96827  1.0000
  H   H3997     1.0  0.95436  0.60635  0.92218  1.0000
  H   H3998     1.0  0.87674  0.34419  0.85870  1.0000
  H   H3999     1.0  0.86194  0.38647  0.88439  1.0000
  H   H4000     1.0  0.87900  0.36962  0.85808  1.0000
  H   H4001     1.0  0.64939  0.41218  0.95964  1.0000
  C   C2261     1.0  0.88926  0.34089  0.96611  1.0000
  H   H4002     1.0  0.97832  0.43933  0.81460  1.0000
  C   C2262     1.0  0.93739  0.38253  0.93818  1.0000
  C   C2263     1.0  0.81942  0.49104  0.97312  1.0000
  H   H4003     1.0  0.89965  0.37137  0.90449  1.0000
  H   H4004     1.0  0.91252  0.35669  0.87462  1.0000
  H   H4005     1.0  0.49781  0.37840  0.89029  1.0000
  H   H4006     1.0  0.90330  0.40787  0.94869  1.0000
  H   H4007     1.0  0.97674  0.39269  0.93008  1.0000
  H   H4008     1.0  0.50783  0.38660  0.84142  1.0000
  H   H4009     1.0  0.52142  0.45094  0.89853  1.0000
  H   H4010     1.0  0.97959  0.62875  0.92255  1.0000
  C   C2264     1.0  0.50632  0.45979  0.89950  1.0000
  C   C2265     1.0  0.91639  0.41594  0.94277  1.0000
  S   S509      1.0  0.91248  0.33785  0.97479  1.0000
  C   C2266     1.0  0.97087  0.38458  0.90217  1.0000
  H   H4011     1.0  0.95687  0.39480  0.90029  1.0000
  H   H4012     1.0  0.91628  0.42093  0.92660  1.0000
  H   H4013     1.0  0.74420  0.39041  0.97486  1.0000
  Fe  Fe253     1.0  0.50842  0.31768  0.87989  1.0000
  C   C2267     1.0  0.91504  0.35444  0.84359  1.0000
  H   H4014     1.0  0.83285  0.37960  0.88088  1.0000
  C   C2268     1.0  0.98054  0.46322  0.79045  1.0000
  Fe  Fe254     1.0  0.64861  0.34890  0.96203  1.0000
  H   H4015     1.0  0.89072  0.37178  0.95491  1.0000
  H   H4016     1.0  0.49995  0.45982  0.91542  1.0000
  H   H4017     1.0  0.89650  0.34083  0.90313  1.0000
  H   H4018     1.0  0.95042  0.35951  0.96934  1.0000
  C   C2269     1.0  0.93597  0.40271  0.94642  1.0000
  H   H4019     1.0  0.85742  0.37715  0.94415  1.0000
  S   S510      1.0  0.96708  0.45329  0.77497  1.0000
  H   H4020     1.0  0.87324  0.34118  0.91809  1.0000
  H   H4021     1.0  0.85581  0.39831  0.97296  1.0000
  H   H4022     1.0  0.80771  0.36932  0.86418  1.0000
  H   H4023     1.0  0.49879  0.40955  0.82673  1.0000
  H   H4024     1.0  0.55923  0.33624  0.77270  1.0000
  N   N126      1.0  0.95735  0.36951  0.93790  1.0000
  H   H4025     1.0  0.49227  0.34284  0.73938  1.0000
  C   C2270     1.0  0.86957  0.37478  0.89471  1.0000
  H   H4026     1.0  0.81940  0.50303  0.96088  1.0000
  C   C2271     1.0  0.96274  0.36601  0.95890  1.0000
  C   C2272     1.0  0.54721  0.32759  0.90847  1.0000
  H   H4027     1.0  0.93263  0.38589  0.92313  1.0000
  C   C2273     1.0  0.98613  0.59660  0.92391  1.0000
  H   H4028     1.0  0.80874  0.35464  0.88824  1.0000
  H   H4029     1.0  0.98333  0.59192  0.94018  1.0000
  H   H4030     1.0  0.55167  0.33061  0.97703  1.0000
  S   S511      1.0  0.68250  0.34782  0.95271  1.0000
  H   H4031     1.0  0.90922  0.33281  0.86906  1.0000
  H   H4032     1.0  0.50797  0.47538  0.89285  1.0000
  H   H4033     1.0  0.72529  0.34544  0.94690  1.0000
  C   C2274     1.0  0.94070  0.34876  0.91705  1.0000
  S   S512      1.0  0.49320  0.34680  0.86594  1.0000
  H   H4034     1.0  0.95062  0.33904  0.94529  1.0000
  H   H4035     1.0  0.50143  0.39016  0.91106  1.0000
  N   N127      1.0  0.91790  0.47739  0.84254  1.0000
  C   C2275     1.0  0.93559  0.46269  0.84832  1.0000
  C   C2276     1.0  0.92439  0.49779  0.83545  1.0000
  C   C2277     1.0  0.90277  0.47887  0.86102  1.0000
  C   C2278     1.0  0.90782  0.47061  0.82700  1.0000
  C   C2279     1.0  0.93103  0.44158  0.85793  1.0000
  C   C2280     1.0  0.88440  0.49518  0.85921  1.0000
  C   C2281     1.0  0.94594  0.49857  0.82419  1.0000
  C   C2282     1.0  0.94911  0.51975  0.81481  1.0000
  C   C2283     1.0  0.95029  0.42756  0.86104  1.0000
  C   C2284     1.0  0.87056  0.49519  0.87899  1.0000
  H   H4036     1.0  0.94311  0.46875  0.85907  1.0000
  H   H4037     1.0  0.94717  0.46067  0.83532  1.0000
  H   H4038     1.0  0.91365  0.50693  0.82587  1.0000
  H   H4039     1.0  0.92397  0.50612  0.84835  1.0000
  H   H4040     1.0  0.91024  0.48153  0.87364  1.0000
  H   H4041     1.0  0.89641  0.46459  0.86579  1.0000
  H   H4042     1.0  0.90097  0.45683  0.83310  1.0000
  H   H4043     1.0  0.89504  0.48180  0.82292  1.0000
  H   H4044     1.0  0.92195  0.44207  0.87278  1.0000
  H   H4045     1.0  0.92284  0.43495  0.84837  1.0000
  H   H4046     1.0  0.87534  0.49248  0.84795  1.0000
  H   H4047     1.0  0.88905  0.51028  0.85504  1.0000
  H   H4048     1.0  0.95716  0.49353  0.83472  1.0000
  H   H4049     1.0  0.94936  0.48892  0.81222  1.0000
  H   H4050     1.0  0.94633  0.53000  0.82636  1.0000
  H   H4051     1.0  0.51491  0.37208  0.73969  1.0000
  H   H4052     1.0  0.93901  0.52516  0.80329  1.0000
  H   H4053     1.0  0.96007  0.42624  0.84665  1.0000
  H   H4054     1.0  0.95865  0.43305  0.87141  1.0000
  H   H4055     1.0  0.94656  0.41245  0.86739  1.0000
  H   H4056     1.0  0.86475  0.48059  0.88341  1.0000
  H   H4057     1.0  0.87858  0.49827  0.89095  1.0000
  H   H4058     1.0  0.85757  0.50694  0.87738  1.0000
  H   H4059     1.0  0.89710  0.38667  0.88082  1.0000
  H   H4060     1.0  0.92513  0.35031  0.92492  1.0000
  H   H4061     1.0  0.49673  0.35538  0.92199  1.0000
  C   C2285     1.0  0.95566  0.34942  0.93194  1.0000
  H   H4062     1.0  0.96002  0.32667  0.90059  1.0000
  H   H4063     1.0  0.89571  0.46851  0.79014  1.0000
  H   H4064     1.0  0.92565  0.37424  0.94750  1.0000
  H   H4065     1.0  0.88105  0.39731  0.92274  1.0000
  C   C2286     1.0  0.90539  0.34909  0.86495  1.0000
  H   H4066     1.0  0.98519  0.33985  0.95348  1.0000
  H   H4067     1.0  0.68031  0.42089  0.97044  1.0000
  C   C2287     1.0  0.94454  0.32892  0.90854  1.0000
  N   N128      1.0  0.87115  0.35461  0.88777  1.0000
  C   C2288     1.0  0.88228  0.35471  0.86691  1.0000
  C   C2289     1.0  0.52948  0.34092  0.78892  1.0000
  H   H4068     1.0  0.85998  0.37495  0.90938  1.0000
  S   S513      1.0  0.49042  0.34682  0.80827  1.0000
  Fe  Fe255     1.0  0.60354  0.35684  0.95793  1.0000
  H   H4069     1.0  0.85037  0.33557  0.88223  1.0000
  H   H4070     1.0  0.96251  0.58070  0.91865  1.0000
  C   C2290     1.0  0.81714  0.35778  0.87313  1.0000
  H   H4071     1.0  0.87428  0.41232  0.90022  1.0000
  C   C2291     1.0  0.97384  0.37915  0.92439  1.0000
  S   S514      1.0  0.97841  0.39547  0.78473  1.0000
  H   H4072     1.0  0.97064  0.37090  0.89543  1.0000
  C   C2292     1.0  0.98282  0.35263  0.96196  1.0000
  C   C2293     1.0  0.88950  0.38250  0.89609  1.0000
  S   S515      1.0  0.96862  0.37110  0.84310  1.0000
  H   H4073     1.0  0.64810  0.43831  0.96146  1.0000
  C   C2294     1.0  0.81526  0.47217  0.97030  1.0000
  H   H4074     1.0  0.96882  0.60020  0.89893  1.0000
  H   H4075     1.0  0.91498  0.42940  0.95041  1.0000
  C   C2295     1.0  0.98380  0.45348  0.80936  1.0000
  C   C2296     1.0  0.87784  0.32510  0.96851  1.0000
  H   H4076     1.0  0.97355  0.62929  0.95511  1.0000
  H   H4077     1.0  0.96924  0.32081  0.86184  1.0000
  H   H4078     1.0  0.52240  0.32724  0.73691  1.0000
  Fe  Fe256     1.0  0.49132  0.33074  0.83991  1.0000
  C   C2297     1.0  0.98745  0.63140  0.96070  1.0000
  H   H4079     1.0  0.97065  0.34228  0.92576  1.0000
  H   H4080     1.0  0.75672  0.43217  0.97846  1.0000
  H   H4081     1.0  0.49928  0.45201  0.87240  1.0000
  H   H4082     1.0  0.96424  0.38024  0.96416  1.0000
  C   C2298     1.0  0.98821  0.39480  0.89025  1.0000
  H   H4083     1.0  0.49480  0.32180  0.77014  1.0000
  C   C2299     1.0  0.75644  0.44855  0.97741  1.0000
  H   H4084     1.0  0.74006  0.36446  0.97976  1.0000
  C   C2300     1.0  0.49254  0.45121  0.88823  1.0000
  C   C2301     1.0  0.98788  0.48149  0.78372  1.0000
  H   H4085     1.0  0.98517  0.48918  0.76920  1.0000
  H   H4086     1.0  0.98603  0.39780  0.87425  1.0000
  H   H4087     1.0  0.49251  0.42812  0.85739  1.0000
  H   H4088     1.0  0.93616  0.40017  0.96279  1.0000
  C   C2302     1.0  0.49027  0.38409  0.90421  1.0000
  C   C2303     1.0  0.87977  0.31708  0.90040  1.0000
  Fe  Fe257     1.0  0.61951  0.31771  0.98020  1.0000
  H   H4089     1.0  0.48942  0.36803  0.76943  1.0000
  Fe  Fe258     1.0  0.87400  0.95895  0.12104  1.0000
  S   S516      1.0  0.85698  0.94728  0.14977  1.0000
  S   S517      1.0  0.90029  0.93974  0.10566  1.0000
  Fe  Fe259     1.0  0.82929  0.96187  0.13660  1.0000
  S   S518      1.0  0.80122  0.94619  0.14184  1.0000
  H   H4090     1.0  0.61822  0.86953  0.00644  1.0000
  H   H4091     1.0  0.65947  0.91415  0.98105  1.0000
  H   H4092     1.0  0.98785  0.82393  0.22748  1.0000
  Fe  Fe260     1.0  0.96925  0.83933  0.13919  1.0000
  H   H4093     1.0  0.97188  0.77432  0.04178  1.0000
  S   S519      1.0  0.93855  0.85634  0.14778  1.0000
  H   H4094     1.0  0.72919  0.93398  0.15963  1.0000
  H   H4095     1.0  0.61893  0.90543  0.99230  1.0000
  H   H4096     1.0  0.52253  0.71798  0.99632  1.0000
  H   H4097     1.0  0.95070  0.88033  0.10980  1.0000
  Fe  Fe261     1.0  0.93609  0.68795  0.08118  1.0000
  S   S520      1.0  0.96305  0.66852  0.09098  1.0000
  S   S521      1.0  0.93167  0.72043  0.08788  1.0000
  H   H4098     1.0  0.53517  0.78141  0.18456  1.0000
  H   H4099     1.0  0.92196  0.92506  0.17633  1.0000
  H   H4100     1.0  0.71212  0.90739  0.01576  1.0000
  S   S522      1.0  0.91456  0.66568  0.09477  1.0000
  S   S523      1.0  0.93985  0.67690  0.05105  1.0000
  Fe  Fe262     1.0  0.57087  0.81776  0.07001  1.0000
  S   S524      1.0  0.53790  0.82893  0.07519  1.0000
  S   S525      1.0  0.58661  0.84533  0.07070  1.0000
  Fe  Fe263     1.0  0.56046  0.77508  0.06958  1.0000
  S   S526      1.0  0.52746  0.78440  0.07479  1.0000
  S   S527      1.0  0.56899  0.74197  0.06673  1.0000
  Fe  Fe264     1.0  0.53352  0.81064  0.05219  1.0000
  S   S528      1.0  0.50994  0.82357  0.03216  1.0000
  Fe  Fe265     1.0  0.53517  0.80160  0.09724  1.0000
  S   S529      1.0  0.51632  0.80268  0.12710  1.0000
  S   S530      1.0  0.56646  0.80077  0.04513  1.0000
  S   S531      1.0  0.56800  0.79101  0.09367  1.0000
  Fe  Fe266     1.0  0.71676  0.92414  0.08275  1.0000
  S   S532      1.0  0.69568  0.95109  0.09055  1.0000
  S   S533      1.0  0.75023  0.92712  0.07755  1.0000
  Fe  Fe267     1.0  0.68155  0.90101  0.07927  1.0000
  S   S534      1.0  0.65861  0.92649  0.08719  1.0000
  S   S535      1.0  0.67273  0.87214  0.07189  1.0000
  Fe  Fe268     1.0  0.67877  0.94587  0.06658  1.0000
  C   C2304     1.0  0.50601  0.94614  0.11107  1.0000
  Fe  Fe269     1.0  0.67771  0.92918  0.11023  1.0000
  S   S536      1.0  0.66310  0.93402  0.14106  1.0000
  S   S537      1.0  0.70086  0.92036  0.05707  1.0000
  S   S538      1.0  0.69969  0.90223  0.10410  1.0000
  H   H4101     1.0  0.97882  0.79361  0.21811  1.0000
  H   H4102     1.0  0.97195  0.92059  0.11800  1.0000
  H   H4103     1.0  0.65797  0.96671  0.10969  1.0000
  H   H4104     1.0  0.61972  0.91247  0.04674  1.0000
  H   H4105     1.0  0.95939  0.69512  0.18050  1.0000
  C   C2305     1.0  0.61080  0.85192  0.07162  1.0000
  C   C2306     1.0  0.62846  0.83882  0.06847  1.0000
  C   C2307     1.0  0.64724  0.84522  0.06868  1.0000
  C   C2308     1.0  0.64862  0.86463  0.07241  1.0000
  C   C2309     1.0  0.63092  0.87756  0.07598  1.0000
  C   C2310     1.0  0.61222  0.87136  0.07523  1.0000
  H   H4106     1.0  0.62769  0.82385  0.06559  1.0000
  H   H4107     1.0  0.66079  0.83502  0.06593  1.0000
  H   H4108     1.0  0.63166  0.89235  0.07923  1.0000
  H   H4109     1.0  0.59869  0.88167  0.07742  1.0000
  H   H4110     1.0  0.68071  0.93883  0.98918  1.0000
  C   C2311     1.0  0.52613  0.80198  0.00117  1.0000
  C   C2312     1.0  0.50916  0.81276  0.01053  1.0000
  H   H4111     1.0  0.89495  0.96630  0.22131  1.0000
  H   H4112     1.0  0.54022  0.80046  0.00707  1.0000
  H   H4113     1.0  0.93522  0.91286  0.09374  1.0000
  H   H4114     1.0  0.62456  0.93933  0.01699  1.0000
  C   C2313     1.0  0.52487  0.79334  0.98404  1.0000
  C   C2314     1.0  0.50962  0.82796  0.12890  1.0000
  C   C2315     1.0  0.52327  0.84127  0.12084  1.0000
  C   C2316     1.0  0.51703  0.86176  0.11893  1.0000
  H   H4115     1.0  0.49141  0.84588  0.17297  1.0000
  H   H4116     1.0  0.53856  0.83573  0.11552  1.0000
  H   H4117     1.0  0.52745  0.87196  0.11194  1.0000
  H   H4118     1.0  0.83021  0.89472  0.18323  1.0000
  C   C2317     1.0  0.63705  0.96309  0.15820  1.0000
  C   C2318     1.0  0.64891  0.95759  0.14083  1.0000
  H   H4119     1.0  0.98029  0.70561  0.02831  1.0000
  C   C2319     1.0  0.51355  0.71737  0.04052  1.0000
  H   H4120     1.0  0.63663  0.95274  0.17180  1.0000
  H   H4121     1.0  0.94977  0.72104  0.15387  1.0000
  H   H4122     1.0  0.50034  0.95759  0.19067  1.0000
  Fe  Fe270     1.0  0.92101  0.65248  0.06575  1.0000
  H   H4123     1.0  0.60875  0.91263  0.01630  1.0000
  C   C2320     1.0  0.52629  0.69615  0.09592  1.0000
  C   C2321     1.0  0.54352  0.69041  0.08305  1.0000
  C   C2322     1.0  0.55651  0.70453  0.07420  1.0000
  C   C2323     1.0  0.55244  0.72446  0.07815  1.0000
  C   C2324     1.0  0.53523  0.73005  0.09103  1.0000
  C   C2325     1.0  0.52224  0.71604  0.09975  1.0000
  H   H4124     1.0  0.56981  0.69999  0.06433  1.0000
  H   H4125     1.0  0.53210  0.74508  0.09470  1.0000
  C   C2326     1.0  0.97498  0.65084  0.18477  1.0000
  S   S539      1.0  0.97694  0.81026  0.15852  1.0000
  C   C2327     1.0  0.95500  0.76205  0.11175  1.0000
  C   C2328     1.0  0.94187  0.75132  0.10468  1.0000
  C   C2329     1.0  0.94897  0.73357  0.09632  1.0000
  C   C2330     1.0  0.96953  0.72699  0.09468  1.0000
  C   C2331     1.0  0.72926  0.97247  0.13935  1.0000
  H   H4126     1.0  0.94919  0.77548  0.11838  1.0000
  H   H4127     1.0  0.92604  0.75672  0.10586  1.0000
  H   H4128     1.0  0.92787  0.96426  0.14892  1.0000
  S   S540      1.0  0.98174  0.82676  0.11064  1.0000
  C   C2332     1.0  0.78779  0.94045  0.12357  1.0000
  C   C2333     1.0  0.77046  0.93112  0.12988  1.0000
  C   C2334     1.0  0.75874  0.92706  0.11601  1.0000
  C   C2335     1.0  0.76456  0.93181  0.09558  1.0000
  C   C2336     1.0  0.78230  0.94054  0.08923  1.0000
  C   C2337     1.0  0.79370  0.94512  0.10314  1.0000
  H   H4129     1.0  0.76592  0.92723  0.14564  1.0000
  H   H4130     1.0  0.74535  0.92003  0.12111  1.0000
  H   H4131     1.0  0.78703  0.94409  0.07345  1.0000
  H   H4132     1.0  0.80701  0.95228  0.09806  1.0000
  C   C2338     1.0  0.91083  0.91653  0.11746  1.0000
  C   C2339     1.0  0.90213  0.90800  0.13598  1.0000
  C   C2340     1.0  0.91075  0.88951  0.14491  1.0000
  C   C2341     1.0  0.92835  0.87945  0.13562  1.0000
  C   C2342     1.0  0.93718  0.88797  0.11714  1.0000
  C   C2343     1.0  0.92836  0.90639  0.10807  1.0000
  H   H4133     1.0  0.88883  0.91567  0.14352  1.0000
  H   H4134     1.0  0.90384  0.88304  0.15922  1.0000
  C   C2344     1.0  0.96592  0.71627  0.15480  1.0000
  H   H4135     1.0  0.95449  0.93755  0.14258  1.0000
  H   H4136     1.0  0.85287  0.90329  0.16985  1.0000
  H   H4137     1.0  0.71808  0.94892  0.12696  1.0000
  H   H4138     1.0  0.57456  0.74512  0.99836  1.0000
  C   C2345     1.0  0.91881  0.95273  0.15725  1.0000
  N   N129      1.0  0.52128  0.93888  0.12531  1.0000
  H   H4139     1.0  0.98753  0.86188  0.06684  1.0000
  C   C2346     1.0  0.53597  0.92192  0.11770  1.0000
  C   C2347     1.0  0.53199  0.95548  0.12905  1.0000
  H   H4140     1.0  0.98344  0.69168  0.11630  1.0000
  C   C2348     1.0  0.54097  0.92240  0.09472  1.0000
  C   C2349     1.0  0.55780  0.90605  0.08903  1.0000
  C   C2350     1.0  0.49000  0.83512  0.13619  1.0000
  H   H4141     1.0  0.51317  0.95202  0.09618  1.0000
  H   H4142     1.0  0.55025  0.92066  0.12409  1.0000
  H   H4143     1.0  0.53003  0.90741  0.12288  1.0000
  C   C2351     1.0  0.49365  0.74941  0.04513  1.0000
  H   H4144     1.0  0.54375  0.94960  0.13881  1.0000
  H   H4145     1.0  0.53939  0.74357  0.99634  1.0000
  H   H4146     1.0  0.67686  0.92455  0.02134  1.0000
  S   S541      1.0  0.86938  0.97209  0.19083  1.0000
  H   H4147     1.0  0.53149  0.93205  0.16606  1.0000
  H   H4148     1.0  0.53415  0.90856  0.15637  1.0000
  H   H4149     1.0  0.52762  0.91977  0.08839  1.0000
  H   H4150     1.0  0.54548  0.93688  0.08740  1.0000
  H   H4151     1.0  0.55372  0.89114  0.09561  1.0000
  H   H4152     1.0  0.56039  0.90640  0.07257  1.0000
  H   H4153     1.0  0.57191  0.90830  0.09405  1.0000
  H   H4154     1.0  0.50513  0.83021  0.22394  1.0000
  H   H4155     1.0  0.94543  0.90324  0.18952  1.0000
  H   H4156     1.0  0.95089  0.85584  0.19000  1.0000
  S   S542      1.0  0.50915  0.67940  0.10764  1.0000
  N   N130      1.0  0.96481  0.91141  0.16223  1.0000
  H   H4157     1.0  0.97533  0.71373  0.08776  1.0000
  C   C2352     1.0  0.95518  0.89605  0.17737  1.0000
  C   C2353     1.0  0.51019  0.93097  0.14504  1.0000
  C   C2354     1.0  0.51021  0.91268  0.18022  1.0000
  H   H4158     1.0  0.49490  0.97504  0.12193  1.0000
  H   H4159     1.0  0.52416  0.70829  0.03046  1.0000
  H   H4160     1.0  0.50012  0.70790  0.00736  1.0000
  C   C2355     1.0  0.95809  0.86310  0.20005  1.0000
  C   C2356     1.0  0.65267  0.92564  0.99085  1.0000
  H   H4161     1.0  0.55566  0.95814  0.10379  1.0000
  H   H4162     1.0  0.64025  0.88969  0.02955  1.0000
  H   H4163     1.0  0.96583  0.73088  0.18109  1.0000
  H   H4164     1.0  0.94513  0.88868  0.17017  1.0000
  H   H4165     1.0  0.54687  0.67514  0.07998  1.0000
  C   C2357     1.0  0.64024  0.89797  0.01422  1.0000
  C   C2358     1.0  0.98795  0.66832  0.01015  1.0000
  C   C2359     1.0  0.94820  0.92542  0.15328  1.0000
  C   C2360     1.0  0.97676  0.92329  0.17197  1.0000
  H   H4166     1.0  0.76905  0.98181  0.13452  1.0000
  H   H4167     1.0  0.50063  0.90248  0.06415  1.0000
  C   C2361     1.0  0.52323  0.86241  0.17011  1.0000
  C   C2362     1.0  0.97550  0.75518  0.11055  1.0000
  H   H4168     1.0  0.50050  0.92004  0.14281  1.0000
  C   C2363     1.0  0.96948  0.87957  0.18809  1.0000
  H   H4169     1.0  0.72518  0.97070  0.10065  1.0000
  C   C2364     1.0  0.96934  0.80080  0.23042  1.0000
  H   H4170     1.0  0.60454  0.94758  0.04944  1.0000
  N   N131      1.0  0.84625  0.89076  0.11355  1.0000
  C   C2365     1.0  0.82936  0.87829  0.11536  1.0000
  C   C2366     1.0  0.84391  0.90208  0.13136  1.0000
  C   C2367     1.0  0.84466  0.90578  0.09510  1.0000
  C   C2368     1.0  0.86659  0.87852  0.11109  1.0000
  C   C2369     1.0  0.87099  0.86130  0.12784  1.0000
  C   C2370     1.0  0.82920  0.86636  0.09782  1.0000
  C   C2371     1.0  0.85968  0.92133  0.09116  1.0000
  C   C2372     1.0  0.83461  0.89172  0.15172  1.0000
  C   C2373     1.0  0.83682  0.90267  0.16898  1.0000
  C   C2374     1.0  0.89084  0.84854  0.12210  1.0000
  C   C2375     1.0  0.81231  0.85327  0.10229  1.0000
  C   C2376     1.0  0.85555  0.93654  0.07303  1.0000
  H   H4171     1.0  0.81470  0.88805  0.11718  1.0000
  H   H4172     1.0  0.82917  0.86726  0.12897  1.0000
  H   H4173     1.0  0.85858  0.90634  0.13331  1.0000
  H   H4174     1.0  0.83400  0.91648  0.12878  1.0000
  H   H4175     1.0  0.82923  0.91409  0.09568  1.0000
  H   H4176     1.0  0.84719  0.89823  0.08148  1.0000
  H   H4177     1.0  0.86937  0.87246  0.09658  1.0000
  H   H4178     1.0  0.87860  0.88811  0.11035  1.0000
  H   H4179     1.0  0.85918  0.85132  0.13106  1.0000
  H   H4180     1.0  0.87246  0.86748  0.14157  1.0000
  H   H4181     1.0  0.82658  0.87649  0.08396  1.0000
  H   H4182     1.0  0.84350  0.85647  0.09507  1.0000
  H   H4183     1.0  0.87528  0.91406  0.08796  1.0000
  H   H4184     1.0  0.85877  0.92951  0.10412  1.0000
  H   H4185     1.0  0.81831  0.89162  0.15159  1.0000
  H   H4186     1.0  0.84153  0.87614  0.15501  1.0000
  C   C2377     1.0  0.52322  0.92104  0.16151  1.0000
  H   H4187     1.0  0.88997  0.84091  0.10909  1.0000
  H   H4188     1.0  0.90328  0.85784  0.11839  1.0000
  H   H4189     1.0  0.89434  0.83704  0.13480  1.0000
  H   H4190     1.0  0.81230  0.84510  0.08944  1.0000
  H   H4191     1.0  0.81439  0.84217  0.11566  1.0000
  H   H4192     1.0  0.79754  0.86255  0.10481  1.0000
  H   H4193     1.0  0.86650  0.94748  0.07061  1.0000
  H   H4194     1.0  0.85719  0.92906  0.05945  1.0000
  H   H4195     1.0  0.84023  0.94473  0.07541  1.0000
  C   C2378     1.0  0.73604  0.98033  0.10309  1.0000
  C   C2379     1.0  0.54255  0.96758  0.11064  1.0000
  H   H4196     1.0  0.49981  0.92475  0.18679  1.0000
  H   H4197     1.0  0.49871  0.93341  0.10849  1.0000
  H   H4198     1.0  0.52807  0.85005  0.16093  1.0000
  N   N132      1.0  0.96585  0.67797  0.15548  1.0000
  H   H4199     1.0  0.97678  0.93873  0.16399  1.0000
  H   H4200     1.0  0.59387  0.88402  0.00962  1.0000
  H   H4201     1.0  0.70341  0.93168  0.15842  1.0000
  H   H4202     1.0  0.49985  0.94307  0.15157  1.0000
  H   H4203     1.0  0.51981  0.90510  0.19156  1.0000
  C   C2380     1.0  0.56300  0.75059  0.01023  1.0000
  C   C2381     1.0  0.71407  0.95748  0.13983  1.0000
  H   H4204     1.0  0.96873  0.85157  0.20753  1.0000
  H   H4205     1.0  0.71660  0.88301  0.00783  1.0000
  H   H4206     1.0  0.51305  0.67914  0.06118  1.0000
  H   H4207     1.0  0.60780  0.87705  0.03049  1.0000
  S   S543      1.0  0.48954  0.89449  0.12097  1.0000
  H   H4208     1.0  0.52149  0.96613  0.13763  1.0000
  C   C2382     1.0  0.94964  0.68395  0.14211  1.0000
  H   H4209     1.0  0.70922  0.95011  0.17215  1.0000
  C   C2383     1.0  0.92820  0.68915  0.15298  1.0000
  S   S544      1.0  0.84611  0.97175  0.10690  1.0000
  C   C2384     1.0  0.91434  0.70148  0.13887  1.0000
  H   H4210     1.0  0.50107  0.90187  0.17672  1.0000
  H   H4211     1.0  0.95307  0.69669  0.13066  1.0000
  H   H4212     1.0  0.93884  0.94220  0.17907  1.0000
  H   H4213     1.0  0.94887  0.67162  0.13339  1.0000
  H   H4214     1.0  0.92828  0.69758  0.16559  1.0000
  C   C2385     1.0  0.61759  0.94067  0.05714  1.0000
  H   H4215     1.0  0.49932  0.74784  0.05985  1.0000
  H   H4216     1.0  0.91389  0.69356  0.12595  1.0000
  H   H4217     1.0  0.56039  0.98053  0.12825  1.0000
  H   H4218     1.0  0.91955  0.71619  0.13333  1.0000
  N   N133      1.0  0.61177  0.89403  0.13627  1.0000
  C   C2386     1.0  0.61627  0.91335  0.12380  1.0000
  C   C2387     1.0  0.62973  0.87837  0.13335  1.0000
  C   C2388     1.0  0.59474  0.88715  0.12834  1.0000
  C   C2389     1.0  0.60572  0.89618  0.15813  1.0000
  C   C2390     1.0  0.61493  0.91213  0.16658  1.0000
  C   C2391     1.0  0.59810  0.92988  0.12206  1.0000
  C   C2392     1.0  0.58911  0.86626  0.13758  1.0000
  C   C2393     1.0  0.64985  0.88297  0.13829  1.0000
  C   C2394     1.0  0.66675  0.86641  0.13324  1.0000
  C   C2395     1.0  0.60983  0.91067  0.18922  1.0000
  C   C2396     1.0  0.60474  0.95055  0.11608  1.0000
  C   C2397     1.0  0.57007  0.86219  0.13040  1.0000
  H   H4219     1.0  0.62258  0.91058  0.10835  1.0000
  H   H4220     1.0  0.62819  0.91964  0.12930  1.0000
  H   H4221     1.0  0.62699  0.86408  0.14276  1.0000
  H   H4222     1.0  0.63227  0.87510  0.11761  1.0000
  H   H4223     1.0  0.59825  0.88697  0.11195  1.0000
  H   H4224     1.0  0.58086  0.89779  0.13068  1.0000
  H   H4225     1.0  0.58919  0.90008  0.16143  1.0000
  H   H4226     1.0  0.60915  0.88160  0.16744  1.0000
  H   H4227     1.0  0.60896  0.92738  0.16033  1.0000
  H   H4228     1.0  0.63138  0.91070  0.16302  1.0000
  H   H4229     1.0  0.58948  0.92715  0.11043  1.0000
  H   H4230     1.0  0.58781  0.93006  0.13625  1.0000
  H   H4231     1.0  0.58659  0.86497  0.15409  1.0000
  H   H4232     1.0  0.60113  0.85437  0.13298  1.0000
  H   H4233     1.0  0.65424  0.89698  0.12961  1.0000
  H   H4234     1.0  0.64898  0.88377  0.15444  1.0000
  H   H4235     1.0  0.66346  0.85185  0.14170  1.0000
  H   H4236     1.0  0.66887  0.86523  0.11703  1.0000
  H   H4237     1.0  0.68096  0.86986  0.13722  1.0000
  H   H4238     1.0  0.61629  0.92249  0.19470  1.0000
  H   H4239     1.0  0.59335  0.91279  0.19357  1.0000
  H   H4240     1.0  0.61627  0.89597  0.19643  1.0000
  H   H4241     1.0  0.61093  0.95505  0.12858  1.0000
  H   H4242     1.0  0.61631  0.95075  0.10278  1.0000
  H   H4243     1.0  0.59176  0.96167  0.11256  1.0000
  H   H4244     1.0  0.56620  0.84732  0.13747  1.0000
  H   H4245     1.0  0.55725  0.87357  0.13438  1.0000
  H   H4246     1.0  0.57247  0.86209  0.11398  1.0000
  H   H4247     1.0  0.52247  0.84197  0.19679  1.0000
  H   H4248     1.0  0.71445  0.96395  0.98788  1.0000
  H   H4249     1.0  0.98752  0.80556  0.04151  1.0000
  H   H4250     1.0  0.98123  0.87233  0.17756  1.0000
  H   H4251     1.0  0.92168  0.67517  0.15904  1.0000
  H   H4252     1.0  0.49512  0.66308  0.16894  1.0000
  H   H4253     1.0  0.53360  0.74778  0.04128  1.0000
  H   H4254     1.0  0.75024  0.97012  0.10404  1.0000
  C   C2398     1.0  0.97719  0.90099  0.14567  1.0000
  H   H4255     1.0  0.52395  0.76451  0.02165  1.0000
  C   C2399     1.0  0.49135  0.84922  0.18836  1.0000
  H   H4256     1.0  0.98485  0.69226  0.17007  1.0000
  H   H4257     1.0  0.64235  0.91742  0.05442  1.0000
  C   C2400     1.0  0.70575  0.89321  0.01660  1.0000
  H   H4258     1.0  0.91090  0.94692  0.14673  1.0000
  C   C2401     1.0  0.93198  0.93582  0.16815  1.0000
  H   H4259     1.0  0.82875  0.91802  0.16715  1.0000
  H   H4260     1.0  0.68890  0.90340  0.99231  1.0000
  C   C2402     1.0  0.62591  0.98210  0.15807  1.0000
  C   C2403     1.0  0.52734  0.74843  0.02699  1.0000
  H   H4261     1.0  0.63777  0.93117  0.98590  1.0000
  N   N134      1.0  0.50857  0.73838  0.03059  1.0000
  C   C2404     1.0  0.64932  0.97097  0.12327  1.0000
  H   H4262     1.0  0.69882  0.95334  0.02231  1.0000
  H   H4263     1.0  0.97294  0.67209  0.01742  1.0000
  H   H4264     1.0  0.97315  0.77080  0.06828  1.0000
  H   H4265     1.0  0.50908  0.72063  0.10978  1.0000
  H   H4266     1.0  0.54875  0.72416  0.01499  1.0000
  H   H4267     1.0  0.90742  0.95992  0.16822  1.0000
  H   H4268     1.0  0.55950  0.76698  0.00673  1.0000
  C   C2405     1.0  0.71406  0.94243  0.15870  1.0000
  H   H4269     1.0  0.98218  0.65676  0.13680  1.0000
  C   C2406     1.0  0.54429  0.74039  0.01137  1.0000
  C   C2407     1.0  0.49102  0.81494  0.00263  1.0000
  C   C2408     1.0  0.69290  0.96717  0.01416  1.0000
  H   H4270     1.0  0.96970  0.74658  0.15764  1.0000
  Fe  Fe271     1.0  0.85915  0.97664  0.15988  1.0000
  H   H4271     1.0  0.49930  0.78040  0.04266  1.0000
  N   N135      1.0  0.65013  0.91661  0.01242  1.0000
  H   H4272     1.0  0.49068  0.85055  0.06318  1.0000
  H   H4273     1.0  0.96846  0.89044  0.14082  1.0000
  H   H4274     1.0  0.52058  0.81644  0.18041  1.0000
  S   S545      1.0  0.66420  0.97168  0.04692  1.0000
  H   H4275     1.0  0.96938  0.92522  0.18735  1.0000
  H   H4276     1.0  0.53670  0.86877  0.17227  1.0000
  H   H4277     1.0  0.74425  0.96350  0.13912  1.0000
  C   C2409     1.0  0.96934  0.69482  0.16603  1.0000
  C   C2410     1.0  0.98460  0.91469  0.12666  1.0000
  C   C2411     1.0  0.67009  0.91099  0.02018  1.0000
  H   H4278     1.0  0.52177  0.71743  0.05340  1.0000
  C   C2412     1.0  0.49722  0.86896  0.12538  1.0000
  H   H4279     1.0  0.94033  0.91743  0.14442  1.0000
  C   C2413     1.0  0.63762  0.93187  0.02448  1.0000
  H   H4280     1.0  0.68065  0.88225  0.00878  1.0000
  C   C2414     1.0  0.50607  0.72150  0.99926  1.0000
  H   H4281     1.0  0.51636  0.66171  0.21793  1.0000
  H   H4282     1.0  0.89892  0.70404  0.14681  1.0000
  H   H4283     1.0  0.61200  0.93444  0.07254  1.0000
  H   H4284     1.0  0.51264  0.78446  0.17309  1.0000
  H   H4285     1.0  0.69854  0.96502  0.13947  1.0000
  H   H4286     1.0  0.50696  0.67825  0.03652  1.0000
  C   C2415     1.0  0.62968  0.92400  0.04619  1.0000
  H   H4287     1.0  0.66806  0.90324  0.03570  1.0000
  C   C2416     1.0  0.48965  0.80597  0.98585  1.0000
  C   C2417     1.0  0.51234  0.85459  0.19033  1.0000
  C   C2418     1.0  0.68583  0.89698  0.00814  1.0000
  H   H4288     1.0  0.64905  0.88741  0.00434  1.0000
  H   H4289     1.0  0.51239  0.77433  0.19915  1.0000
  C   C2419     1.0  0.60913  0.88171  0.01412  1.0000
  H   H4290     1.0  0.98247  0.87421  0.04260  1.0000
  H   H4291     1.0  0.49335  0.89566  0.22796  1.0000
  C   C2420     1.0  0.61866  0.90100  0.00860  1.0000
  H   H4292     1.0  0.97665  0.88599  0.19876  1.0000
  H   H4293     1.0  0.70371  0.88609  0.03234  1.0000
  C   C2421     1.0  0.98132  0.76759  0.05357  1.0000
  C   C2422     1.0  0.50128  0.68345  0.05118  1.0000
  C   C2423     1.0  0.49959  0.73935  0.01145  1.0000
  H   H4294     1.0  0.94646  0.86922  0.21153  1.0000
  H   H4295     1.0  0.52038  0.80664  0.20659  1.0000
  H   H4296     1.0  0.64642  0.94410  0.02544  1.0000
  C   C2424     1.0  0.51357  0.80641  0.19292  1.0000
  H   H4297     1.0  0.50282  0.75317  0.00131  1.0000
  C   C2425     1.0  0.95936  0.66109  0.17088  1.0000
  H   H4298     1.0  0.51335  0.87408  0.16184  1.0000
  H   H4299     1.0  0.98374  0.75118  0.05363  1.0000
  H   H4300     1.0  0.56932  0.74713  0.02454  1.0000
  C   C2426     1.0  0.51865  0.78534  0.18713  1.0000
  H   H4301     1.0  0.98234  0.83798  0.04453  1.0000
  H   H4302     1.0  0.62707  0.95230  0.05800  1.0000
  C   C2427     1.0  0.70174  0.97319  0.99466  1.0000
  H   H4303     1.0  0.65835  0.95575  0.99465  1.0000
  Fe  Fe272     1.0  0.96580  0.65618  0.06201  1.0000
  C   C2428     1.0  0.98489  0.66987  0.14333  1.0000
  H   H4304     1.0  0.95671  0.81066  0.22412  1.0000
  H   H4305     1.0  0.51043  0.86628  0.20039  1.0000
  H   H4306     1.0  0.97372  0.71736  0.13944  1.0000
  H   H4307     1.0  0.98208  0.73191  0.02385  1.0000
  H   H4308     1.0  0.72669  0.97848  0.15389  1.0000
  H   H4309     1.0  0.94573  0.66642  0.18077  1.0000
  H   H4310     1.0  0.50921  0.88014  0.07961  1.0000
  C   C2429     1.0  0.66511  0.94345  0.98591  1.0000
  H   H4311     1.0  0.53231  0.97357  0.09943  1.0000
  C   C2430     1.0  0.49335  0.96852  0.17988  1.0000
  C   C2431     1.0  0.67635  0.97902  0.02291  1.0000
  H   H4312     1.0  0.54245  0.97669  0.22030  1.0000
  C   C2432     1.0  0.98265  0.73763  0.10184  1.0000
  C   C2433     1.0  0.97328  0.73132  0.16548  1.0000
  H   H4313     1.0  0.98170  0.68386  0.98146  1.0000
  H   H4314     1.0  0.76165  0.97638  0.06729  1.0000
  H   H4315     1.0  0.50952  0.87982  0.05322  1.0000
  C   C2434     1.0  0.49529  0.70601  0.04875  1.0000
  H   H4316     1.0  0.81224  0.97560  0.21864  1.0000
  C   C2435     1.0  0.50112  0.88602  0.06662  1.0000
  H   H4317     1.0  0.98161  0.66200  0.19106  1.0000
  H   H4318     1.0  0.49003  0.67373  0.99704  1.0000
  H   H4319     1.0  0.73633  0.97399  0.06391  1.0000
  C   C2436     1.0  0.49068  0.81257  0.19611  1.0000
  C   C2437     1.0  0.88889  0.98189  0.21959  1.0000
  C   C2438     1.0  0.48895  0.96235  0.11759  1.0000
  Fe  Fe273     1.0  0.54903  0.68893  0.37806  1.0000
  S   S546      1.0  0.54650  0.66964  0.40784  1.0000
  S   S547      1.0  0.55763  0.72036  0.37268  1.0000
  H   H4320     1.0  0.55307  0.89537  0.28730  1.0000
  H   H4321     1.0  0.96341  0.78900  0.24176  1.0000
  S   S548      1.0  0.52106  0.68100  0.36975  1.0000
  Fe  Fe274     1.0  0.50222  0.82944  0.33318  1.0000
  C   C2439     1.0  0.58353  0.95989  0.27011  1.0000
  H   H4322     1.0  0.94690  0.93441  0.28939  1.0000
  H   H4323     1.0  0.52584  0.81563  0.45081  1.0000
  Fe  Fe275     1.0  0.60340  0.96585  0.36236  1.0000
  S   S549      1.0  0.57805  0.94626  0.37027  1.0000
  S   S550      1.0  0.63053  0.96289  0.33919  1.0000
  H   H4324     1.0  0.51675  0.71736  0.33243  1.0000
  S   S551      1.0  0.50743  0.84833  0.35569  1.0000
  C   C2440     1.0  0.97248  0.79105  0.47452  1.0000
  H   H4325     1.0  0.54457  0.93239  0.28973  1.0000
  H   H4326     1.0  0.72743  0.98128  0.43623  1.0000
  H   H4327     1.0  0.65005  0.66305  0.35612  1.0000
  Fe  Fe276     1.0  0.52523  0.86577  0.33025  1.0000
  S   S552      1.0  0.55608  0.87535  0.33039  1.0000
  H   H4328     1.0  0.62588  0.69477  0.35540  1.0000
  S   S553      1.0  0.52226  0.84499  0.30845  1.0000
  Fe  Fe277     1.0  0.49464  0.86585  0.30134  1.0000
  Fe  Fe278     1.0  0.93716  0.80321  0.38488  1.0000
  S   S554      1.0  0.91092  0.78710  0.39826  1.0000
  S   S555      1.0  0.94089  0.81941  0.35376  1.0000
  Fe  Fe279     1.0  0.95457  0.79844  0.42390  1.0000
  S   S556      1.0  0.92981  0.78184  0.44040  1.0000
  Fe  Fe280     1.0  0.93393  0.76528  0.41351  1.0000
  S   S557      1.0  0.93416  0.73145  0.41829  1.0000
  Fe  Fe281     1.0  0.90920  0.80508  0.42362  1.0000
  S   S558      1.0  0.88008  0.82016  0.43910  1.0000
  S   S559      1.0  0.96029  0.78039  0.39830  1.0000
  S   S560      1.0  0.93377  0.82263  0.40899  1.0000
  Fe  Fe282     1.0  0.77163  0.94276  0.42325  1.0000
  H   H4329     1.0  0.56885  0.95524  0.31700  1.0000
  S   S561      1.0  0.74043  0.93366  0.42534  1.0000
  Fe  Fe283     1.0  0.81721  0.93208  0.42489  1.0000
  S   S562      1.0  0.82147  0.96458  0.42210  1.0000
  S   S563      1.0  0.84764  0.91254  0.42089  1.0000
  Fe  Fe284     1.0  0.79349  0.96824  0.44373  1.0000
  Fe  Fe285     1.0  0.80105  0.96875  0.39866  1.0000
  N   N136      1.0  0.91930  0.85104  0.47351  1.0000
  S   S564      1.0  0.79033  0.93544  0.44874  1.0000
  S   S565      1.0  0.79802  0.93650  0.40001  1.0000
  H   H4330     1.0  0.89724  0.86679  0.45502  1.0000
  C   C2441     1.0  0.94582  0.71480  0.40111  1.0000
  C   C2442     1.0  0.95720  0.72134  0.38321  1.0000
  C   C2443     1.0  0.96648  0.70761  0.37013  1.0000
  C   C2444     1.0  0.96449  0.68721  0.37473  1.0000
  C   C2445     1.0  0.95319  0.68063  0.39264  1.0000
  C   C2446     1.0  0.94395  0.69436  0.40577  1.0000
  H   H4331     1.0  0.95881  0.73700  0.37943  1.0000
  C   C2447     1.0  0.96654  0.81958  0.34605  1.0000
  C   C2448     1.0  0.87735  0.96143  0.28562  1.0000
  H   H4332     1.0  0.93514  0.68915  0.41955  1.0000
  C   C2449     1.0  0.87122  0.84586  0.43399  1.0000
  C   C2450     1.0  0.88232  0.85882  0.42054  1.0000
  C   C2451     1.0  0.87490  0.87917  0.41692  1.0000
  C   C2452     1.0  0.85622  0.88680  0.42654  1.0000
  C   C2453     1.0  0.59795  0.95480  0.28612  1.0000
  C   C2454     1.0  0.97945  0.66665  0.30163  1.0000
  H   H4333     1.0  0.89668  0.85318  0.41304  1.0000
  H   H4334     1.0  0.88362  0.88904  0.40649  1.0000
  H   H4335     1.0  0.54358  0.67247  0.23510  1.0000
  H   H4336     1.0  0.88829  0.93528  0.40363  1.0000
  H   H4337     1.0  0.96356  0.85084  0.33501  1.0000
  H   H4338     1.0  0.93349  0.84601  0.31301  1.0000
  H   H4339     1.0  0.53502  0.72232  0.29645  1.0000
  H   H4340     1.0  0.58532  0.92043  0.26469  1.0000
  N   N137      1.0  0.97970  0.83724  0.26569  1.0000
  C   C2455     1.0  0.98337  0.80414  0.46098  1.0000
  C   C2456     1.0  0.69639  0.96017  0.38022  1.0000
  C   C2457     1.0  0.71653  0.96368  0.37639  1.0000
  C   C2458     1.0  0.73004  0.95596  0.39020  1.0000
  C   C2459     1.0  0.72361  0.94442  0.40799  1.0000
  C   C2460     1.0  0.70343  0.94100  0.41194  1.0000
  C   C2461     1.0  0.68985  0.94889  0.39817  1.0000
  C   C2462     1.0  0.97988  0.80219  0.34931  1.0000
  H   H4341     1.0  0.74552  0.95866  0.38689  1.0000
  H   H4342     1.0  0.69832  0.93203  0.42562  1.0000
  H   H4343     1.0  0.67447  0.94587  0.40123  1.0000
  C   C2463     1.0  0.57178  0.92873  0.35620  1.0000
  C   C2464     1.0  0.55177  0.92493  0.35823  1.0000
  C   C2465     1.0  0.54649  0.90955  0.34919  1.0000
  C   C2466     1.0  0.56132  0.89718  0.33878  1.0000
  C   C2467     1.0  0.58123  0.90135  0.33625  1.0000
  C   C2468     1.0  0.58641  0.91719  0.34466  1.0000
  H   H4344     1.0  0.54031  0.93379  0.36706  1.0000
  H   H4345     1.0  0.53106  0.90674  0.35097  1.0000
  H   H4346     1.0  0.59284  0.89191  0.32820  1.0000
  H   H4347     1.0  0.60189  0.91981  0.34308  1.0000
  C   C2469     1.0  0.97607  0.96896  0.31247  1.0000
  C   C2470     1.0  0.54120  0.74150  0.36400  1.0000
  C   C2471     1.0  0.54848  0.75998  0.35803  1.0000
  C   C2472     1.0  0.53584  0.77699  0.35086  1.0000
  C   C2473     1.0  0.51576  0.77566  0.34964  1.0000
  C   C2474     1.0  0.50846  0.75726  0.35594  1.0000
  C   C2475     1.0  0.52106  0.74028  0.36303  1.0000
  H   H4348     1.0  0.56400  0.76112  0.35880  1.0000
  H   H4349     1.0  0.54168  0.79103  0.34603  1.0000
  C   C2476     1.0  0.49097  0.69827  0.30211  1.0000
  H   H4350     1.0  0.51513  0.72633  0.36797  1.0000
  H   H4351     1.0  0.97597  0.94496  0.33666  1.0000
  C   C2477     1.0  0.93332  0.84805  0.45460  1.0000
  H   H4352     1.0  0.89204  0.86995  0.36954  1.0000
  H   H4353     1.0  0.50331  0.81484  0.25917  1.0000
  H   H4354     1.0  0.90637  0.84673  0.37798  1.0000
  H   H4355     1.0  0.54103  0.86565  0.43264  1.0000
  C   C2478     1.0  0.87147  0.97272  0.34410  1.0000
  C   C2479     1.0  0.53387  0.70759  0.30548  1.0000
  H   H4356     1.0  0.85750  0.82325  0.40583  1.0000
  C   C2480     1.0  0.97380  0.83730  0.33714  1.0000
  C   C2481     1.0  0.55277  0.70215  0.31571  1.0000
  H   H4357     1.0  0.77479  0.90145  0.42215  1.0000
  C   C2482     1.0  0.61492  0.69488  0.36917  1.0000
  H   H4358     1.0  0.97311  0.72082  0.44028  1.0000
  H   H4359     1.0  0.94437  0.86909  0.30930  1.0000
  H   H4360     1.0  0.48948  0.75606  0.31987  1.0000
  H   H4361     1.0  0.96734  0.87525  0.42177  1.0000
  H   H4362     1.0  0.50286  0.69608  0.28932  1.0000
  H   H4363     1.0  0.83090  0.87957  0.44785  1.0000
  C   C2483     1.0  0.94661  0.85505  0.28247  1.0000
  H   H4364     1.0  0.57830  0.89462  0.29309  1.0000
  H   H4365     1.0  0.55365  0.71323  0.32579  1.0000
  H   H4366     1.0  0.55287  0.68715  0.32451  1.0000
  H   H4367     1.0  0.56623  0.70194  0.30434  1.0000
  N   N138      1.0  0.62209  0.67900  0.38534  1.0000
  H   H4368     1.0  0.96979  0.90904  0.35065  1.0000
  N   N139      1.0  0.54574  0.86760  0.40048  1.0000
  C   C2484     1.0  0.54413  0.85498  0.38464  1.0000
  C   C2485     1.0  0.52846  0.88421  0.40073  1.0000
  C   C2486     1.0  0.56486  0.87702  0.39446  1.0000
  C   C2487     1.0  0.54645  0.85573  0.42091  1.0000
  C   C2488     1.0  0.77611  0.97709  0.29358  1.0000
  C   C2489     1.0  0.56286  0.83990  0.37926  1.0000
  C   C2490     1.0  0.56784  0.89336  0.40681  1.0000
  C   C2491     1.0  0.50710  0.87808  0.40563  1.0000
  H   H4369     1.0  0.49187  0.68363  0.31175  1.0000
  H   H4370     1.0  0.66973  0.68038  0.41707  1.0000
  C   C2492     1.0  0.55809  0.82451  0.36720  1.0000
  C   C2493     1.0  0.58945  0.89805  0.40294  1.0000
  H   H4371     1.0  0.54110  0.86471  0.37060  1.0000
  H   H4372     1.0  0.53108  0.84661  0.38870  1.0000
  C   C2494     1.0  0.49536  0.73359  0.29915  1.0000
  H   H4373     1.0  0.52930  0.89382  0.38609  1.0000
  H   H4374     1.0  0.56592  0.88383  0.37859  1.0000
  H   H4375     1.0  0.57815  0.86546  0.39529  1.0000
  H   H4376     1.0  0.56218  0.84987  0.42331  1.0000
  H   H4377     1.0  0.74278  0.96094  0.47056  1.0000
  C   C2495     1.0  0.96937  0.82313  0.25700  1.0000
  C   C2496     1.0  0.65667  0.66486  0.39758  1.0000
  H   H4378     1.0  0.57476  0.84791  0.36994  1.0000
  H   H4379     1.0  0.56895  0.83194  0.39283  1.0000
  H   H4380     1.0  0.56413  0.88872  0.42301  1.0000
  H   H4381     1.0  0.55813  0.90742  0.40247  1.0000
  H   H4382     1.0  0.50543  0.73121  0.28509  1.0000
  H   H4383     1.0  0.51013  0.66503  0.25270  1.0000
  H   H4384     1.0  0.90780  0.93719  0.37024  1.0000
  S   S566      1.0  0.49888  0.88734  0.32189  1.0000
  Fe  Fe286     1.0  0.64670  0.97520  0.36038  1.0000
  Fe  Fe287     1.0  0.51983  0.65979  0.39813  1.0000
  H   H4385     1.0  0.50442  0.87161  0.42149  1.0000
  C   C2497     1.0  0.53375  0.82906  0.44789  1.0000
  H   H4386     1.0  0.55281  0.83200  0.35303  1.0000
  H   H4387     1.0  0.57179  0.81406  0.36348  1.0000
  H   H4388     1.0  0.54640  0.81577  0.37583  1.0000
  H   H4389     1.0  0.59399  0.90227  0.38676  1.0000
  H   H4390     1.0  0.59078  0.91078  0.41078  1.0000
  H   H4391     1.0  0.59982  0.88497  0.40844  1.0000
  H   H4392     1.0  0.59006  0.95208  0.25704  1.0000
  H   H4393     1.0  0.80584  0.96161  0.29033  1.0000
  H   H4394     1.0  0.59699  0.65642  0.45230  1.0000
  H   H4395     1.0  0.49255  0.90278  0.38668  1.0000
  H   H4396     1.0  0.62288  0.73084  0.34457  1.0000
  H   H4397     1.0  0.93233  0.80942  0.47107  1.0000
  C   C2498     1.0  0.61116  0.66580  0.42248  1.0000
  H   H4398     1.0  0.94822  0.86942  0.27286  1.0000
  C   C2499     1.0  0.93566  0.85990  0.30267  1.0000
  H   H4399     1.0  0.98405  0.67992  0.27150  1.0000
  H   H4400     1.0  0.87315  0.95070  0.36999  1.0000
  H   H4401     1.0  0.87248  0.94645  0.28693  1.0000
  H   H4402     1.0  0.97404  0.68730  0.43239  1.0000
  C   C2500     1.0  0.84513  0.87387  0.44007  1.0000
  H   H4403     1.0  0.51518  0.69255  0.32913  1.0000
  H   H4404     1.0  0.59454  0.96607  0.29668  1.0000
  H   H4405     1.0  0.97575  0.85052  0.29310  1.0000
  H   H4406     1.0  0.83747  0.95790  0.38300  1.0000
  S   S567      1.0  0.98003  0.80889  0.43563  1.0000
  H   H4407     1.0  0.50455  0.86729  0.39600  1.0000
  H   H4408     1.0  0.94658  0.87566  0.45481  1.0000
  C   C2501     1.0  0.55100  0.96084  0.25871  1.0000
  H   H4409     1.0  0.51568  0.74769  0.31369  1.0000
  H   H4410     1.0  0.72178  0.97229  0.36252  1.0000
  H   H4411     1.0  0.92255  0.93847  0.30385  1.0000
  H   H4412     1.0  0.57427  0.88689  0.27017  1.0000
  C   C2502     1.0  0.86459  0.97671  0.27255  1.0000
  S   S568      1.0  0.62034  0.97551  0.38477  1.0000
  H   H4413     1.0  0.84081  0.98159  0.29697  1.0000
  H   H4414     1.0  0.76980  0.87607  0.43021  1.0000
  H   H4415     1.0  0.95551  0.83115  0.25131  1.0000
  H   H4416     1.0  0.82738  0.97119  0.25022  1.0000
  H   H4417     1.0  0.54367  0.94971  0.31933  1.0000
  H   H4418     1.0  0.83789  0.96321  0.28238  1.0000
  C   C2503     1.0  0.86361  0.96198  0.36180  1.0000
  H   H4419     1.0  0.60389  0.69509  0.40817  1.0000
  C   C2504     1.0  0.50115  0.75141  0.30771  1.0000
  H   H4420     1.0  0.96878  0.89632  0.38534  1.0000
  H   H4421     1.0  0.89879  0.83166  0.46856  1.0000
  H   H4422     1.0  0.96197  0.85285  0.47840  1.0000
  C   C2505     1.0  0.95707  0.67339  0.30653  1.0000
  H   H4423     1.0  0.72080  0.95397  0.46278  1.0000
  H   H4424     1.0  0.96165  0.78352  0.46951  1.0000
  H   H4425     1.0  0.91380  0.93881  0.40474  1.0000
  H   H4426     1.0  0.52043  0.98236  0.23795  1.0000
  H   H4427     1.0  0.51487  0.76585  0.27940  1.0000
  H   H4428     1.0  0.52938  0.89412  0.41195  1.0000
  C   C2506     1.0  0.98591  0.71498  0.42973  1.0000
  C   C2507     1.0  0.90412  0.92820  0.40170  1.0000
  N   N140      1.0  0.49503  0.71441  0.31319  1.0000
  C   C2508     1.0  0.98192  0.81287  0.23956  1.0000
  H   H4429     1.0  0.54905  0.82473  0.45219  1.0000
  H   H4430     1.0  0.60527  0.74693  0.35936  1.0000
  C   C2509     1.0  0.54657  0.97813  0.32745  1.0000
  C   C2510     1.0  0.64212  0.68307  0.38971  1.0000
  H   H4431     1.0  0.59177  0.67729  0.39973  1.0000
  H   H4432     1.0  0.68292  0.68070  0.39200  1.0000
  C   C2511     1.0  0.96032  0.89678  0.35556  1.0000
  C   C2512     1.0  0.56869  0.89769  0.28096  1.0000
  H   H4433     1.0  0.90908  0.85615  0.35192  1.0000
  H   H4434     1.0  0.63979  0.69405  0.40059  1.0000
  C   C2513     1.0  0.96727  0.84257  0.28477  1.0000
  H   H4435     1.0  0.77651  0.98010  0.30903  1.0000
  H   H4436     1.0  0.62425  0.72028  0.38061  1.0000
  H   H4437     1.0  0.59767  0.71927  0.38464  1.0000
  C   C2514     1.0  0.83102  0.98121  0.35910  1.0000
  C   C2515     1.0  0.72612  0.96319  0.47248  1.0000
  C   C2516     1.0  0.61971  0.95536  0.27671  1.0000
  C   C2517     1.0  0.49266  0.66127  0.45161  1.0000
  N   N141      1.0  0.81803  0.87197  0.38285  1.0000
  C   C2518     1.0  0.81247  0.86858  0.36321  1.0000
  C   C2519     1.0  0.82914  0.85291  0.39214  1.0000
  C   C2520     1.0  0.79875  0.87650  0.39652  1.0000
  C   C2521     1.0  0.83015  0.88912  0.38085  1.0000
  C   C2522     1.0  0.84472  0.89298  0.36133  1.0000
  C   C2523     1.0  0.79788  0.88559  0.35343  1.0000
  C   C2524     1.0  0.80094  0.87907  0.41821  1.0000
  C   C2525     1.0  0.84963  0.84534  0.38082  1.0000
  C   C2526     1.0  0.85768  0.90894  0.36293  1.0000
  C   C2527     1.0  0.79793  0.88405  0.33138  1.0000
  C   C2528     1.0  0.78083  0.88668  0.42950  1.0000
  H   H4438     1.0  0.80525  0.85470  0.36512  1.0000
  H   H4439     1.0  0.82595  0.86589  0.35222  1.0000
  H   H4440     1.0  0.83265  0.85462  0.40708  1.0000
  H   H4441     1.0  0.81945  0.84074  0.39463  1.0000
  H   H4442     1.0  0.78894  0.86465  0.39733  1.0000
  H   H4443     1.0  0.79010  0.89065  0.39050  1.0000
  H   H4444     1.0  0.82015  0.90339  0.38212  1.0000
  H   H4445     1.0  0.83899  0.88723  0.39350  1.0000
  H   H4446     1.0  0.83626  0.89845  0.34853  1.0000
  H   H4447     1.0  0.85481  0.87944  0.35774  1.0000
  H   H4448     1.0  0.78233  0.88464  0.36093  1.0000
  H   H4449     1.0  0.80173  0.90050  0.35475  1.0000
  H   H4450     1.0  0.81145  0.88994  0.41837  1.0000
  H   H4451     1.0  0.80634  0.86464  0.42666  1.0000
  H   H4452     1.0  0.84901  0.84503  0.36482  1.0000
  H   H4453     1.0  0.86087  0.85500  0.38244  1.0000
  H   H4454     1.0  0.84809  0.92310  0.36577  1.0000
  H   H4455     1.0  0.86681  0.90406  0.37533  1.0000
  H   H4456     1.0  0.86788  0.91175  0.34885  1.0000
  H   H4457     1.0  0.78684  0.89599  0.32508  1.0000
  H   H4458     1.0  0.81294  0.88589  0.32294  1.0000
  H   H4459     1.0  0.79377  0.86940  0.32951  1.0000
  H   H4460     1.0  0.78281  0.88835  0.44495  1.0000
  H   H4461     1.0  0.98116  0.65198  0.29607  1.0000
  H   H4462     1.0  0.95125  0.66506  0.39617  1.0000
  H   H4463     1.0  0.84400  0.84361  0.45433  1.0000
  S   S569      1.0  0.89711  0.96862  0.33570  1.0000
  S   S570      1.0  0.77351  0.97532  0.41973  1.0000
  C   C2529     1.0  0.56944  0.91893  0.27047  1.0000
  H   H4464     1.0  0.49286  0.90767  0.41194  1.0000
  H   H4465     1.0  0.94953  0.67552  0.29293  1.0000
  H   H4466     1.0  0.50060  0.65348  0.35384  1.0000
  H   H4467     1.0  0.96408  0.88678  0.34371  1.0000
  C   C2530     1.0  0.93894  0.93670  0.30442  1.0000
  H   H4468     1.0  0.59702  0.93977  0.29452  1.0000
  H   H4469     1.0  0.94564  0.83582  0.45719  1.0000
  C   C2531     1.0  0.98357  0.95058  0.32238  1.0000
  S   S571      1.0  0.56925  0.66520  0.36252  1.0000
  H   H4470     1.0  0.98265  0.72063  0.41434  1.0000
  C   C2532     1.0  0.61151  0.71671  0.37402  1.0000
  H   H4471     1.0  0.93174  0.87653  0.43504  1.0000
  H   H4472     1.0  0.92520  0.84301  0.44369  1.0000
  H   H4473     1.0  0.90550  0.91454  0.41269  1.0000
  H   H4474     1.0  0.95903  0.87413  0.38245  1.0000
  C   C2533     1.0  0.49127  0.89619  0.40261  1.0000
  H   H4475     1.0  0.95849  0.85249  0.41859  1.0000
  H   H4476     1.0  0.87629  0.96586  0.30068  1.0000
  N   N142      1.0  0.93835  0.90515  0.35728  1.0000
  C   C2534     1.0  0.93180  0.91299  0.37704  1.0000
  H   H4477     1.0  0.62448  0.94339  0.26704  1.0000
  C   C2535     1.0  0.93571  0.92264  0.34110  1.0000
  C   C2536     1.0  0.92563  0.88993  0.35401  1.0000
  C   C2537     1.0  0.92362  0.87173  0.37023  1.0000
  C   C2538     1.0  0.90984  0.92306  0.38043  1.0000
  C   C2539     1.0  0.94509  0.91893  0.31961  1.0000
  H   H4478     1.0  0.96760  0.86136  0.24471  1.0000
  H   H4479     1.0  0.97429  0.78839  0.35589  1.0000
  C   C2540     1.0  0.90671  0.86053  0.36717  1.0000
  H   H4480     1.0  0.65062  0.69037  0.37605  1.0000
  C   C2541     1.0  0.96840  0.88556  0.37478  1.0000
  C   C2542     1.0  0.52146  0.65256  0.24810  1.0000
  H   H4481     1.0  0.93381  0.90107  0.38971  1.0000
  H   H4482     1.0  0.94213  0.93561  0.34456  1.0000
  H   H4483     1.0  0.51928  0.84082  0.42215  1.0000
  H   H4484     1.0  0.53566  0.95634  0.26262  1.0000
  H   H4485     1.0  0.91953  0.92791  0.34042  1.0000
  H   H4486     1.0  0.91029  0.89723  0.35162  1.0000
  H   H4487     1.0  0.93161  0.88354  0.34001  1.0000
  H   H4488     1.0  0.92018  0.87591  0.38549  1.0000
  H   H4489     1.0  0.93765  0.86115  0.36912  1.0000
  H   H4490     1.0  0.56790  0.92991  0.29857  1.0000
  H   H4491     1.0  0.89924  0.91318  0.37794  1.0000
  H   H4492     1.0  0.94021  0.90566  0.31525  1.0000
  H   H4493     1.0  0.94162  0.92413  0.37876  1.0000
  H   H4494     1.0  0.58781  0.68143  0.44221  1.0000
  S   S572      1.0  0.68056  0.96935  0.36153  1.0000
  C   C2543     1.0  0.60891  0.73158  0.35527  1.0000
  H   H4495     1.0  0.96170  0.91670  0.31831  1.0000
  H   H4496     1.0  0.62164  0.97000  0.26771  1.0000
  C   C2544     1.0  0.55347  0.96161  0.31427  1.0000
  H   H4497     1.0  0.93701  0.84672  0.27590  1.0000
  H   H4498     1.0  0.62726  0.66462  0.34547  1.0000
  C   C2545     1.0  0.96163  0.86146  0.42974  1.0000
  H   H4499     1.0  0.84743  0.81346  0.38691  1.0000
  C   C2546     1.0  0.85720  0.82417  0.38956  1.0000
  H   H4500     1.0  0.62955  0.95309  0.28863  1.0000
  H   H4501     1.0  0.53563  0.97282  0.29100  1.0000
  H   H4502     1.0  0.94282  0.95067  0.30838  1.0000
  H   H4503     1.0  0.60059  0.69173  0.36500  1.0000
  C   C2547     1.0  0.84338  0.96621  0.36928  1.0000
  H   H4504     1.0  0.64942  0.65530  0.41023  1.0000
  C   C2548     1.0  0.60646  0.67999  0.40346  1.0000
  C   C2549     1.0  0.50286  0.76941  0.29170  1.0000
  H   H4505     1.0  0.89328  0.96051  0.27885  1.0000
  H   H4506     1.0  0.60781  0.65590  0.37688  1.0000
  H   H4507     1.0  0.97349  0.85279  0.43819  1.0000
  N   N143      1.0  0.56213  0.95604  0.27672  1.0000
  H   H4508     1.0  0.96411  0.81123  0.26871  1.0000
  C   C2550     1.0  0.67466  0.67156  0.40444  1.0000
  H   H4509     1.0  0.49287  0.75620  0.35545  1.0000
  H   H4510     1.0  0.92074  0.86844  0.30077  1.0000
  H   H4511     1.0  0.56071  0.92058  0.25776  1.0000
  H   H4512     1.0  0.52536  0.84030  0.45723  1.0000
  H   H4513     1.0  0.59642  0.72846  0.34793  1.0000
  H   H4514     1.0  0.87266  0.81974  0.38242  1.0000
  C   C2551     1.0  0.56060  0.93446  0.28489  1.0000
  C   C2552     1.0  0.63577  0.65669  0.35758  1.0000
  H   H4515     1.0  0.62341  0.67077  0.42875  1.0000
  C   C2553     1.0  0.85264  0.85351  0.44379  1.0000
  H   H4516     1.0  0.96423  0.82880  0.29505  1.0000
  C   C2554     1.0  0.94269  0.86683  0.44394  1.0000
  H   H4517     1.0  0.89987  0.79529  0.47638  1.0000
  C   C2555     1.0  0.54208  0.65932  0.24662  1.0000
  H   H4518     1.0  0.55860  0.95220  0.24656  1.0000
  S   S573      1.0  0.49933  0.79606  0.33955  1.0000
  H   H4519     1.0  0.53394  0.69636  0.29533  1.0000
  S   S574      1.0  0.49405  0.87692  0.26806  1.0000
  C   C2556     1.0  0.62311  0.65902  0.37814  1.0000
  S   S575      1.0  0.97622  0.67082  0.35737  1.0000
  H   H4520     1.0  0.68504  0.65829  0.40951  1.0000
  C   C2557     1.0  0.98204  0.85543  0.25047  1.0000
  C   C2558     1.0  0.84217  0.97842  0.28130  1.0000
  H   H4521     1.0  0.98321  0.69711  0.28875  1.0000
  H   H4522     1.0  0.97513  0.71288  0.35628  1.0000
  H   H4523     1.0  0.91082  0.88260  0.46469  1.0000
  H   H4524     1.0  0.95021  0.66187  0.31755  1.0000
  H   H4525     1.0  0.76922  0.96321  0.29444  1.0000
  C   C2559     1.0  0.51483  0.70793  0.32110  1.0000
  H   H4526     1.0  0.54241  0.82523  0.41718  1.0000
  C   C2560     1.0  0.55202  0.96949  0.29197  1.0000
  H   H4527     1.0  0.50668  0.78202  0.29832  1.0000
  H   H4528     1.0  0.66610  0.97836  0.42026  1.0000
  C   C2561     1.0  0.53479  0.83734  0.42581  1.0000
  H   H4529     1.0  0.86675  0.97155  0.25771  1.0000
  Fe  Fe288     1.0  0.54075  0.65590  0.35644  1.0000
  H   H4530     1.0  0.82746  0.97921  0.46862  1.0000
  H   H4531     1.0  0.69083  0.97961  0.44183  1.0000
  H   H4532     1.0  0.97330  0.89722  0.24035  1.0000
  C   C2562     1.0  0.90377  0.86862  0.46853  1.0000
  H   H4533     1.0  0.98603  0.66433  0.31571  1.0000
  H   H4534     1.0  0.66256  0.65535  0.38568  1.0000
  H   H4535     1.0  0.54716  0.97188  0.34332  1.0000
  H   H4536     1.0  0.79603  0.97092  0.26728  1.0000
  H   H4537     1.0  0.95463  0.68750  0.31327  1.0000
  H   H4538     1.0  0.98218  0.87708  0.27162  1.0000
  H   H4539     1.0  0.86791  0.89345  0.46535  1.0000
  C   C2563     1.0  0.59297  0.66606  0.43856  1.0000
  H   H4540     1.0  0.58413  0.97595  0.26457  1.0000
  H   H4541     1.0  0.96255  0.97721  0.31895  1.0000
  H   H4542     1.0  0.58053  0.66016  0.43350  1.0000
  H   H4543     1.0  0.50817  0.66295  0.44628  1.0000
  H   H4544     1.0  0.97583  0.65598  0.44588  1.0000
  H   H4545     1.0  0.54413  0.66349  0.26119  1.0000
  C   C2564     1.0  0.98606  0.97664  0.29426  1.0000
  C   C2565     1.0  0.79727  0.97456  0.28226  1.0000
  C   C2566     1.0  0.54882  0.98293  0.24897  1.0000
  H   H4546     1.0  0.88267  0.90509  0.47910  1.0000
  H   H4547     1.0  0.98808  0.65510  0.40757  1.0000
  C   C2567     1.0  0.98869  0.69219  0.43311  1.0000
  H   H4548     1.0  0.61554  0.65018  0.41955  1.0000
  C   C2568     1.0  0.90837  0.83302  0.47998  1.0000
  C   C2569     1.0  0.87357  0.89274  0.47988  1.0000
  H   H4549     1.0  0.95790  0.86293  0.51274  1.0000
  H   H4550     1.0  0.89754  0.79768  0.50263  1.0000
  H   H4551     1.0  0.97969  0.83011  0.61971  1.0000
  H   H4552     1.0  0.98327  0.97696  0.70706  1.0000
  H   H4553     1.0  0.95061  0.83862  0.52290  1.0000
  H   H4554     1.0  0.96723  0.77752  0.50511  1.0000
  H   H4555     1.0  0.89472  0.97367  0.63571  1.0000
  H   H4556     1.0  0.89128  0.87248  0.49961  1.0000
  H   H4557     1.0  0.94947  0.97051  0.66308  1.0000
  C   C2570     1.0  0.95195  0.84539  0.49062  1.0000
  C   C2571     1.0  0.88596  0.87259  0.48504  1.0000
  H   H4558     1.0  0.98097  0.82230  0.59547  1.0000
  H   H4559     1.0  0.49905  0.92687  0.53940  1.0000
  H   H4560     1.0  0.98223  0.95829  0.61629  1.0000
  C   C2572     1.0  0.95985  0.97832  0.63226  1.0000
  H   H4561     1.0  0.97550  0.94907  0.64215  1.0000
  H   H4562     1.0  0.95401  0.82944  0.48876  1.0000
  H   H4563     1.0  0.92912  0.81237  0.49730  1.0000
  C   C2573     1.0  0.97575  0.78757  0.49463  1.0000
  C   C2574     1.0  0.97835  0.96262  0.63153  1.0000
  H   H4564     1.0  0.72060  0.95806  0.48823  1.0000
  C   C2575     1.0  0.95929  0.84709  0.51024  1.0000
  H   H4565     1.0  0.94753  0.97174  0.62782  1.0000
  H   H4566     1.0  0.92122  0.85068  0.50486  1.0000
  H   H4567     1.0  0.97530  0.84068  0.50982  1.0000
  H   H4568     1.0  0.91655  0.97979  0.65997  1.0000
  H   H4569     1.0  0.89803  0.83475  0.49399  1.0000
  H   H4570     1.0  0.93021  0.87146  0.48961  1.0000
  C   C2576     1.0  0.90831  0.79576  0.48896  1.0000
  C   C2577     1.0  0.92132  0.81269  0.48415  1.0000
  H   H4571     1.0  0.94341  0.97748  0.69428  1.0000
  C   C2578     1.0  0.92986  0.85516  0.49012  1.0000
  H   H4572     1.0  0.91798  0.78129  0.49148  1.0000
  H   H4573     1.0  0.49478  0.66524  0.48193  1.0000
  H   H4574     1.0  0.49237  0.93844  0.51547  1.0000
  H   H4575     1.0  0.87574  0.86106  0.48656  1.0000
  H   H4576     1.0  0.86049  0.89487  0.49152  1.0000
  H   H4577     1.0  0.49885  0.87480  0.87807  1.0000
  H   H4578     1.0  0.56623  0.80594  0.89488  1.0000
  C   C2579     1.0  0.50822  0.86342  0.86950  1.0000
  H   H4579     1.0  0.53457  0.83994  0.89888  1.0000
  H   H4580     1.0  0.52408  0.86292  0.87181  1.0000
  H   H4581     1.0  0.53803  0.78509  0.97677  1.0000
  H   H4582     1.0  0.49697  0.80584  0.91553  1.0000
  H   H4583     1.0  0.53496  0.82448  0.88036  1.0000
  C   C2580     1.0  0.50080  0.84278  0.87611  1.0000
  H   H4584     1.0  0.51524  0.83654  0.93593  1.0000
  H   H4585     1.0  0.52802  0.80847  0.92511  1.0000
  H   H4586     1.0  0.67343  0.94035  0.95437  1.0000
  H   H4587     1.0  0.51075  0.88570  0.84342  1.0000
  H   H4588     1.0  0.50122  0.78380  0.89382  1.0000
  H   H4589     1.0  0.51374  0.80080  0.87593  1.0000
  C   C2581     1.0  0.66619  0.95191  0.96387  1.0000
  C   C2582     1.0  0.53542  0.80836  0.90965  1.0000
  N   N144      1.0  0.50538  0.83236  0.89631  1.0000
  C   C2583     1.0  0.52783  0.82709  0.89566  1.0000
  H   H4590     1.0  0.56295  0.79306  0.91990  1.0000
  H   H4591     1.0  0.49036  0.84800  0.96289  1.0000
  H   H4592     1.0  0.50384  0.73902  0.97010  1.0000
  H   H4593     1.0  0.56166  0.81980  0.91609  1.0000
  S   S576      1.0  0.50487  0.78421  0.95520  1.0000
  C   C2584     1.0  0.55797  0.80678  0.91007  1.0000
  H   H4594     1.0  0.50734  0.83335  0.86426  1.0000
  C   C2585     1.0  0.50650  0.87042  0.84748  1.0000
  H   H4595     1.0  0.67525  0.96453  0.96086  1.0000
  H   H4596     1.0  0.50663  0.97043  0.82850  1.0000
  H   H4597     1.0  0.53250  0.79460  0.90446  1.0000
  H   H4598     1.0  0.51659  0.86036  0.83793  1.0000
  C   C2586     1.0  0.49932  0.79910  0.88556  1.0000
  C   C2587     1.0  0.49799  0.72574  0.97918  1.0000
  H   H4599     1.0  0.49452  0.86829  0.94333  1.0000
  H   H4600     1.0  0.50502  0.86014  0.90812  1.0000
  C   C2588     1.0  0.49422  0.81438  0.90091  1.0000
  H   H4601     1.0  0.74671  0.96860  0.85292  1.0000
  H   H4602     1.0  0.50276  0.71278  0.97080  1.0000
  C   C2589     1.0  0.50657  0.79524  0.97643  1.0000
  H   H4603     1.0  0.67547  0.98061  0.91843  1.0000
  C   C2590     1.0  0.49729  0.84658  0.91138  1.0000
  H   H4604     1.0  0.65098  0.95755  0.95987  1.0000
  C   C2591     1.0  0.49928  0.83881  0.93352  1.0000
  H   H4605     1.0  0.49272  0.82479  0.93847  1.0000
  H   H4606     1.0  0.49085  0.87083  0.84449  1.0000
  H   H4607     1.0  0.49950  0.97638  0.89238  1.0000
  H   H4608     1.0  0.76243  0.97503  0.86932  1.0000
  C   C2592     1.0  0.75201  0.98121  0.85825  1.0000
