data_image0
_chemical_formula_structural       FeS2FeS2FeS2FeSFeS3FeS2FeS2FeS2FeSFeS3C3H2C2HCHC6H6C6H4CHCH3C3H3C6H5CHSH4CHCH3CNHCH16CH4CH2CH2CH2CHCH6C3H4CHCHCHNHC4HC4NCHCH2C2H5CH8SH4CHC2H3C2H5CH16C2H2C2NHCH2CH3C2FeH7CH5NHCHCHC2HCHCH2CH5C3H5NC4HC4FeHCHCH2C2H4C2HSH4CH2CHCHC2H2CH4FeSHCH2SC2FeS2FeS2FeSFeS3HC2H2FeS2FeS2FeS2FeSFeS3FeS2H2CHC2H2CHCH3C2H2C6H7CHC7H4CNSH2C6H5C3HNCH2C2H7CH3NH3C2HSH4C2HNC12H29C3H7CH2C2H8CHCH2CH2CSH2CH4CHCH2CH2C2H7CH2FeCH6CH3C4H5C2H6CH4C2H7CH2CHNC4HC4H3CH9CH2C2HNC2H5C2H2C3SCHCHFeH3CHC3HCHC2H6CFeS2FeS2FeS2FeSFeS3FeS2FeS2FeS2FeSFeS3H3FeCH3C6H5SHC6H4C3H2C11H5CH4CH2CHC6HC5H2CH10SNH5CH5NH2CH2CH5C2H2C4H12CH2C2HCH2CH2CH5CH3CHCH3C2H3NH3CH2CH3NC3HC5H4CH3CH3CHSH6C2NCHCHCH3CHC2HNC4H6CH3CH2C2H2CH3CHNH5C2H2C2H9CH3C2HCH3NH5SHCHCH7CH3CH4C2H2C2HCH4CFeHNCH2NFeS2FeS2FeS2FeSFeS3NCHC2HFeS2FeS2FeS2FeSFeS3CH2CHCH4C6H4CHCHSCHC6H5CH2CHC4H2C6H4NHCHCHCNC12H29C3H4CH2CH7C3H4C2H3C4HC3HCH4CH3C2H8CH2CH2C2HFeH3CH9C3H2CHC6H3CH11SH4CH8CHCH2CH8CSHCH2CH4C2H3CH2C3H6C2H3CHCH6CH3C2HCHFeSHFeS2FeS2FeSFeS3FeS2FeS2FeS2FeSFeS3CHCH3C3HC6H4CH3C6H4CHCH5C6H5C2NC4SC6H14C2H9CH4CHCH6CHCHCH3C2H4NH2CH2CH2CH9CHC3H2CH2CH5SC2HNH10CNH3CHCH6CHC6H2CH4CH2CHC4H2SH2C3H2CH4NH6CH13C6H3C2HCSFeH3C2H9CH3C2H2CH3C2HCH4C2FeS2FeS2FeSFeS3FeS2H4FeS2FeS2FeSFeS3HCH4FeS2H5CH2C6H5C4H4CH2CH3C7H4C6H4C2H3C2H4CHSHCHC2HCH7C2HC2HC3HCHC2HNH4C3HC2HC2H3CH7CH4NHCH2C2H7CH3CH6CH2C2HCH2CFeCH2CHCHC2H2C2H7CH6CH2CH3CHCHCHCH8CHCH2C2HCH2CNCH2C3SHNCH3CH3CNHCH2NH7C3H7C2H3CHSH2CH3C2H2CH4C3FeS2CHFeS2FeS2FeSFeS3FeS2FeS2FeS2FeSFeS3C3H4C3HCH2C6H4CH4C6H4C2H2CH2CH2C6H5CH4CH6NC2HC2H4CH14CH4CHSH3CH9FeH2NC12H28SHNCH4CH2C4H8CHCHNCH2CHNC5HC2HCH2CH15CHC3NCHC5HC4H3CH3CH2CH3C2H4CH5FeHCH3C2H2CH2CH5CH5FeCHCH2C2HSHC2HCSH3CH2SC2HCH3FeS2FeS2FeS2FeSFeS3H6FeS2FeS2FeS2FeSFeS3HCHCH2CHC6H5CHCH3C6H4C2H3CH2C6H6CH2NHC3H2C4HC2H7CH12CH6CH3CHCH4CH2C2HCH2SH2CFeCNHC11H6C2H7CH5NC12H26CHNC7H2C3H3CH5CH3CNH2CH6CH6C2HC2H2FeHC3H2CH5CS2CH3C2HC2H8SHNSFeCFeS2FeS2FeS2FeSFeS3FeHSHFeS2FeS2FeSFeS3C3H2C3HC7H4C6H5C4HC3HSH2C6H5CHC4H4C2HSCH2C3H7NC7H2C3H17CH10CHNC6HC4H28NC4HC3HCHCH9CHCH15NC5H2C3H7CHCH2CH10CHNH2C3H2CH3CFeHCH2C2H11CH6CHCH2CSC2HFeCNH2CH4CHC2H3CH7C2SCH3CHSH3CHC3H3CH3C2HC2H2FeS2FeS2FeSFeS3FeS2H2CH3FeS2FeS2FeSFeS3FeS2FeSH2SH3CHNH6CHC6H5C4HC6H4C6H5CHCHC3H8CH3CH2CH5C2HC5H5SC2SH2NCHCFeHCH2C2H2CH6CH6C3H4CH3CH6NC12H12CNH11CH2CHC2HC3H2CNHC2H2CHCH2CHCH4C2H2C2H3SH2CH6CH2N2H7CH3CH4C2H4CH2CH2CH5CH4CHCH7CSHFeS2FeS2FeS2FeSFeS3FeHSFeS2FeS2FeSFeS3H4C3H3C6H4CH2C6H4C2HCH2CHCH2C6H8NC2SC3HC4NH4CH5CH8C4FeNHCH3C4HC2H4CHC3H9CHNC12H30CH2C2HCH2CHCH5CH3C2HC3H6CH8CH3CH4CHCH2SC3H2C3H6CH2C2SCH5CH3CH6C2H2CHFeCH4CH2CH2CFeS2FeS2FeS2FeSFeS3FeS2H4CFeS2FeS2FeSFeS3H3C3H2C6H4FeH2CH2C7H4C4H4CH3C6H7SHC5H3C2H2C2H2C2HNC3H6CH2CH3NC4NC12H28CH2C2HC2H3CHCH5CHC3H2CH6CHCHCH7C2H4C2H21CH2NC3HC5H8C3SC3H3NC2H2CH2CH2NHCH5CHNSH7CH3CH2CH6CHFeH2CH4CHC3H2C2H3CH2SC2H2CH6FeS2FeS2FeS2FeSFeS3HC2FeS2FeS2FeS2FeSFeS3C2H4C2HCHC7H5CNHCH2C6H5NHC2H2C6H5C2HCNHC4H2C5H6CH16CH4CHC2H5CH3SCHCHC3HC3H7CHCHCH4CH2NHCHC3H2CNC12H29CH3CH3CH2CH2CH2CH3NCFeHCH7CH4CH2C2HC3H8CH2CH4C2H4CH2CH3SHFeS2FeS2FeSFeS3HCH4FeS2FeS2FeS2FeSFeS3FeS2CH2CH4CHCHC2H2C6H4C4H4C2H3C6H4C2HCHCHCH2C6H3CHCH2CHC2H2C2H6CH7CHCSC2H3CHCH3CH3C2NHNCHCHCHCHC2H4CHCH12NHCHNC12H28CH2CH5FeH2CH5CH3CH2CHCH2CH9CNC9HC2H3SH9CHCH2CHCH2SHC2HC2H5CH2CSCH3CH3CH2CH4Fe2CH5CHC2FeS2FeS2FeS2FeSFeS3FeS2FeS2FeS2FeSFeS3C3HC5H3C6H4CH2C8H4CHCH4CH2C6H6CH3C3H3NC3HCHCH2CH3CH4CH7CH8FeCH3CH6CH4CH6CH2CHC3H2CH2CH2NHCH4C3H2CH7SH5C2HCH2CHCHC2H2CHCH3CH4CH3C2HCH7NCH3C5H13NHC8NH6CSC2H2C2H5C2H6C2HC3SCHCH2CH5CH2CHCH3CH2NH3CH13C2HCH4CSH2C2H2FeHNSFeS2FeS2FeS2FeSFeS3H2CFeS2FeS2FeS2FeSFeS3C3H7C6H5NH2CHC6H4FeH3C9H4CH3SH2C2HCH2CH2C2H2CHNC11H25C3HC2H5CHCH2CH4CHCH6C2HC2HC2HNH2C2HC2HC2HSH2SC2HC2HCNC12H28NC3H2C4HC2H6CH2CH10CH4CH2C3HNCSH2CH4CH7CHC2HCHCFeSH10CH5
_chemical_formula_sum              "Fe192 S384 C1728 H3072 N96"
_cell_length_a       56.1878
_cell_length_b       56.3515
_cell_length_c       72.3504
_cell_angle_alpha    87.4782
_cell_angle_beta     87.7943
_cell_angle_gamma    85.8775

_space_group_name_H-M_alt    "P 1"
_space_group_IT_number       1

loop_
  _space_group_symop_operation_xyz
  'x, y, z'

loop_
  _atom_site_type_symbol
  _atom_site_label
  _atom_site_symmetry_multiplicity
  _atom_site_fract_x
  _atom_site_fract_y
  _atom_site_fract_z
  _atom_site_occupancy
  Fe  Fe1       1.0  0.37937  0.12660  0.03203  1.0000
  S   S1        1.0  0.35511  0.12001  0.05783  1.0000
  S   S2        1.0  0.41870  0.11591  0.02838  1.0000
  Fe  Fe2       1.0  0.32788  0.14335  0.16515  1.0000
  S   S3        1.0  0.29024  0.13836  0.15839  1.0000
  S   S4        1.0  0.35596  0.15043  0.14214  1.0000
  Fe  Fe3       1.0  0.31590  0.13989  0.20746  1.0000
  S   S5        1.0  0.27706  0.13442  0.20258  1.0000
  S   S6        1.0  0.32660  0.13782  0.23801  1.0000
  Fe  Fe4       1.0  0.29162  0.10899  0.18072  1.0000
  S   S7        1.0  0.28131  0.07296  0.17078  1.0000
  Fe  Fe5       1.0  0.27930  0.16414  0.18058  1.0000
  S   S8        1.0  0.25830  0.19990  0.17360  1.0000
  S   S9        1.0  0.33009  0.11312  0.18655  1.0000
  S   S10       1.0  0.31742  0.17047  0.18663  1.0000
  Fe  Fe6       1.0  0.10283  0.38768  0.02480  1.0000
  S   S11       1.0  0.11486  0.35717  0.04483  1.0000
  S   S12       1.0  0.09078  0.42453  0.03332  1.0000
  Fe  Fe7       1.0  0.13458  0.28408  0.17602  1.0000
  S   S13       1.0  0.15560  0.31643  0.17101  1.0000
  S   S14       1.0  0.15014  0.24520  0.17553  1.0000
  Fe  Fe8       1.0  0.08797  0.31403  0.18552  1.0000
  S   S15       1.0  0.10700  0.34775  0.18222  1.0000
  S   S16       1.0  0.04825  0.32033  0.19392  1.0000
  Fe  Fe9       1.0  0.12336  0.33266  0.15605  1.0000
  S   S17       1.0  0.12070  0.36134  0.13257  1.0000
  Fe  Fe10      1.0  0.13727  0.32903  0.19753  1.0000
  S   S18       1.0  0.16008  0.34854  0.21687  1.0000
  S   S19       1.0  0.10345  0.29932  0.15894  1.0000
  S   S20       1.0  0.11718  0.29623  0.20307  1.0000
  C   C1        1.0  0.02467  0.29524  0.16869  1.0000
  C   C2        1.0  0.02296  0.31246  0.18212  1.0000
  C   C3        1.0  0.35420  0.01219  0.20727  1.0000
  H   H1        1.0  0.04195  0.28676  0.16490  1.0000
  H   H2        1.0  0.26567  0.23957  0.20525  1.0000
  C   C4        1.0  0.30141  0.06249  0.23992  1.0000
  C   C5        1.0  0.16177  0.34926  0.24140  1.0000
  H   H3        1.0  0.49477  0.06167  0.00899  1.0000
  C   C6        1.0  0.49116  0.19116  0.00775  1.0000
  H   H4        1.0  0.18717  0.37626  0.23951  1.0000
  C   C7        1.0  0.11540  0.35838  0.06931  1.0000
  C   C8        1.0  0.12216  0.33761  0.07989  1.0000
  C   C9        1.0  0.12348  0.33800  0.09931  1.0000
  C   C10       1.0  0.11820  0.35928  0.10833  1.0000
  C   C11       1.0  0.11108  0.37997  0.09778  1.0000
  C   C12       1.0  0.10959  0.37952  0.07840  1.0000
  H   H5        1.0  0.12668  0.32115  0.07299  1.0000
  H   H6        1.0  0.12900  0.32196  0.10724  1.0000
  H   H7        1.0  0.10674  0.39644  0.10469  1.0000
  H   H8        1.0  0.10408  0.39551  0.07047  1.0000
  H   H9        1.0  0.00180  0.34025  0.14405  1.0000
  H   H10       1.0  0.14168  0.24177  0.22305  1.0000
  C   C13       1.0  0.22808  0.21204  0.17475  1.0000
  C   C14       1.0  0.20910  0.19872  0.18112  1.0000
  C   C15       1.0  0.18545  0.20919  0.18138  1.0000
  C   C16       1.0  0.18042  0.23311  0.17542  1.0000
  C   C17       1.0  0.19940  0.24637  0.16903  1.0000
  C   C18       1.0  0.22304  0.23596  0.16879  1.0000
  H   H11       1.0  0.21260  0.18031  0.18569  1.0000
  H   H12       1.0  0.17092  0.19864  0.18618  1.0000
  H   H13       1.0  0.19575  0.26448  0.16383  1.0000
  H   H14       1.0  0.23749  0.24640  0.16366  1.0000
  C   C19       1.0  0.03955  0.39101  0.09187  1.0000
  H   H15       1.0  0.14771  0.44803  0.11907  1.0000
  C   C20       1.0  0.35684  0.17397  0.24416  1.0000
  H   H16       1.0  0.29681  0.05712  0.04128  1.0000
  H   H17       1.0  0.35749  0.17738  0.22932  1.0000
  H   H18       1.0  0.12487  0.48719  0.06582  1.0000
  C   C21       1.0  0.28727  0.02410  0.16816  1.0000
  C   C22       1.0  0.28187  0.04302  0.18007  1.0000
  C   C23       1.0  0.27527  0.03757  0.19853  1.0000
  H   H19       1.0  0.22772  0.00257  0.16881  1.0000
  H   H20       1.0  0.29200  0.02802  0.15377  1.0000
  H   H21       1.0  0.27011  0.05184  0.20763  1.0000
  C   C24       1.0  0.35586  0.12888  0.08114  1.0000
  C   C25       1.0  0.33892  0.12045  0.09421  1.0000
  C   C26       1.0  0.33886  0.12669  0.11290  1.0000
  C   C27       1.0  0.35544  0.14189  0.11872  1.0000
  C   C28       1.0  0.37227  0.15048  0.10562  1.0000
  C   C29       1.0  0.37256  0.14397  0.08696  1.0000
  H   H22       1.0  0.32597  0.10868  0.08992  1.0000
  H   H23       1.0  0.32628  0.11937  0.12290  1.0000
  H   H24       1.0  0.38528  0.16216  0.10996  1.0000
  H   H25       1.0  0.38569  0.15066  0.07710  1.0000
  H   H26       1.0  0.44682  0.04045  0.05491  1.0000
  C   C30       1.0  0.44419  0.24480  0.24923  1.0000
  H   H27       1.0  0.02866  0.38923  0.06342  1.0000
  S   S21       1.0  0.02293  0.43370  0.02485  1.0000
  H   H28       1.0  0.37803  0.04929  0.21070  1.0000
  H   H29       1.0  0.41249  0.01963  0.06786  1.0000
  H   H30       1.0  0.35973  0.02975  0.10378  1.0000
  H   H31       1.0  0.36395  0.06897  0.07289  1.0000
  C   C31       1.0  0.31318  0.19953  0.08365  1.0000
  H   H32       1.0  0.35935  0.10020  0.21980  1.0000
  C   C32       1.0  0.34224  0.02061  0.25312  1.0000
  H   H33       1.0  0.16208  0.41489  0.08727  1.0000
  H   H34       1.0  0.33933  0.20549  0.06132  1.0000
  H   H35       1.0  0.13938  0.26853  0.23600  1.0000
  C   C33       1.0  0.14796  0.43224  0.05248  1.0000
  N   N1        1.0  0.14899  0.45594  0.06125  1.0000
  H   H36       1.0  0.30805  0.07827  0.02428  1.0000
  C   C34       1.0  0.37014  0.18730  0.25569  1.0000
  H   H37       1.0  0.40894  0.05141  0.07121  1.0000
  H   H38       1.0  0.35583  0.06734  0.19878  1.0000
  H   H39       1.0  0.00138  0.35340  0.05896  1.0000
  H   H40       1.0  0.29396  0.04610  0.23545  1.0000
  H   H41       1.0  0.38703  0.02838  0.03854  1.0000
  H   H42       1.0  0.31581  0.07595  0.21360  1.0000
  H   H43       1.0  0.33413  0.17465  0.06605  1.0000
  H   H44       1.0  0.34910  0.00456  0.07920  1.0000
  H   H45       1.0  0.16109  0.47000  0.03438  1.0000
  H   H46       1.0  0.01068  0.34824  0.25050  1.0000
  H   H47       1.0  0.07525  0.46897  0.05481  1.0000
  H   H48       1.0  0.15401  0.41622  0.12067  1.0000
  H   H49       1.0  0.48109  0.20827  0.00763  1.0000
  H   H50       1.0  0.31218  0.20410  0.15583  1.0000
  H   H51       1.0  0.27809  0.19723  0.25105  1.0000
  H   H52       1.0  0.42762  0.05905  0.04007  1.0000
  C   C35       1.0  0.00964  0.49401  0.05619  1.0000
  H   H53       1.0  0.48005  0.04965  0.02963  1.0000
  H   H54       1.0  0.27479  0.08601  0.22562  1.0000
  H   H55       1.0  0.17761  0.43518  0.11381  1.0000
  H   H56       1.0  0.31096  0.22214  0.11528  1.0000
  C   C36       1.0  0.00310  0.41913  0.01205  1.0000
  H   H57       1.0  0.33652  0.20016  0.13881  1.0000
  H   H58       1.0  0.28727  0.22570  0.13230  1.0000
  C   C37       1.0  0.11776  0.49775  0.01037  1.0000
  H   H59       1.0  0.25012  0.12843  0.13275  1.0000
  H   H60       1.0  0.06620  0.46312  0.07859  1.0000
  C   C38       1.0  0.28134  0.08233  0.23982  1.0000
  H   H61       1.0  0.42454  0.25960  0.22562  1.0000
  H   H62       1.0  0.26537  0.10594  0.11890  1.0000
  C   C39       1.0  0.25628  0.12412  0.11843  1.0000
  H   H63       1.0  0.07904  0.32814  0.12523  1.0000
  C   C40       1.0  0.32044  0.21160  0.14291  1.0000
  H   H64       1.0  0.15950  0.01424  0.21787  1.0000
  H   H65       1.0  0.43155  0.02728  0.03691  1.0000
  H   H66       1.0  0.18697  0.38271  0.04242  1.0000
  H   H67       1.0  0.02654  0.36297  0.15469  1.0000
  H   H68       1.0  0.02130  0.39810  0.09602  1.0000
  H   H69       1.0  0.18434  0.46221  0.04983  1.0000
  C   C41       1.0  0.21788  0.30794  0.23134  1.0000
  C   C42       1.0  0.06754  0.31997  0.11551  1.0000
  C   C43       1.0  0.17241  0.41827  0.04888  1.0000
  H   H70       1.0  0.47500  0.01104  0.01398  1.0000
  H   H71       1.0  0.06412  0.28789  0.13321  1.0000
  H   H72       1.0  0.32608  0.22955  0.14567  1.0000
  H   H73       1.0  0.08038  0.49013  0.07206  1.0000
  C   C44       1.0  0.15809  0.45360  0.08071  1.0000
  H   H74       1.0  0.36410  0.01941  0.19491  1.0000
  C   C45       1.0  0.36242  0.06230  0.21286  1.0000
  H   H75       1.0  0.34919  0.06535  0.03096  1.0000
  C   C46       1.0  0.28655  0.00012  0.17465  1.0000
  H   H76       1.0  0.02773  0.48524  0.05352  1.0000
  N   N2        1.0  0.20934  0.28779  0.22082  1.0000
  H   H77       1.0  0.17793  0.45364  0.08051  1.0000
  C   C47       1.0  0.20553  0.29658  0.20107  1.0000
  C   C48       1.0  0.16573  0.47035  0.04918  1.0000
  C   C49       1.0  0.22602  0.26548  0.22155  1.0000
  C   C50       1.0  0.25310  0.26868  0.22291  1.0000
  H   H78       1.0  0.18718  0.27484  0.24374  1.0000
  C   C51       1.0  0.17224  0.26305  0.21916  1.0000
  C   C52       1.0  0.22796  0.30344  0.18954  1.0000
  C   C53       1.0  0.22119  0.31549  0.17095  1.0000
  C   C54       1.0  0.35819  0.05109  0.07765  1.0000
  N   N3        1.0  0.03578  0.35601  0.11621  1.0000
  C   C55       1.0  0.15180  0.25362  0.23124  1.0000
  H   H79       1.0  0.37764  0.08150  0.23522  1.0000
  C   C56       1.0  0.12448  0.46884  0.06090  1.0000
  H   H80       1.0  0.19773  0.28289  0.19311  1.0000
  H   H81       1.0  0.19219  0.31220  0.20081  1.0000
  C   C57       1.0  0.34211  0.03515  0.05012  1.0000
  C   C58       1.0  0.37259  0.08467  0.22059  1.0000
  H   H82       1.0  0.30946  0.17565  0.12284  1.0000
  H   H83       1.0  0.22366  0.25476  0.20922  1.0000
  H   H84       1.0  0.46147  0.24520  0.24132  1.0000
  H   H85       1.0  0.25951  0.28222  0.21276  1.0000
  H   H86       1.0  0.32561  0.03855  0.20116  1.0000
  C   C59       1.0  0.18532  0.28182  0.22921  1.0000
  H   H87       1.0  0.18444  0.24758  0.21526  1.0000
  H   H88       1.0  0.16443  0.27133  0.20639  1.0000
  H   H89       1.0  0.23828  0.31604  0.19673  1.0000
  H   H90       1.0  0.23954  0.28716  0.18653  1.0000
  H   H91       1.0  0.20991  0.33224  0.17311  1.0000
  H   H92       1.0  0.23760  0.31994  0.16288  1.0000
  H   H93       1.0  0.21130  0.30349  0.16275  1.0000
  H   H94       1.0  0.31289  0.04679  0.02066  1.0000
  S   S22       1.0  0.38026  0.15887  0.01245  1.0000
  H   H95       1.0  0.00532  0.27436  0.15080  1.0000
  H   H96       1.0  0.30964  0.20026  0.24762  1.0000
  H   H97       1.0  0.24857  0.16857  0.09883  1.0000
  H   H98       1.0  0.36732  0.00740  0.21811  1.0000
  C   C60       1.0  0.04382  0.36393  0.09685  1.0000
  H   H99       1.0  0.06877  0.36747  0.12627  1.0000
  C   C61       1.0  0.33453  0.03107  0.21386  1.0000
  C   C62       1.0  0.42447  0.24379  0.23534  1.0000
  H   H100      1.0  0.33303  0.07407  0.05179  1.0000
  H   H101      1.0  0.15887  0.24320  0.24347  1.0000
  H   H102      1.0  0.32741  0.19885  0.09394  1.0000
  C   C63       1.0  0.00385  0.28821  0.16076  1.0000
  C   C64       1.0  0.42997  0.04128  0.04731  1.0000
  H   H103      1.0  0.24055  0.12418  0.10958  1.0000
  H   H104      1.0  0.06007  0.28389  0.10888  1.0000
  H   H105      1.0  0.01783  0.35752  0.01784  1.0000
  H   H106      1.0  0.06062  0.38829  0.06585  1.0000
  H   H107      1.0  0.04905  0.39666  0.16146  1.0000
  C   C65       1.0  0.38506  0.03940  0.05094  1.0000
  H   H108      1.0  0.24831  0.25402  0.11880  1.0000
  H   H109      1.0  0.42739  0.22752  0.22718  1.0000
  H   H110      1.0  0.28315  0.17913  0.07777  1.0000
  H   H111      1.0  0.38298  0.05810  0.04529  1.0000
  H   H112      1.0  0.33860  0.05394  0.08069  1.0000
  H   H113      1.0  0.15161  0.46954  0.08854  1.0000
  H   H114      1.0  0.28949  0.14076  0.11928  1.0000
  H   H115      1.0  0.28342  0.18325  0.13634  1.0000
  H   H116      1.0  0.25693  0.27434  0.23693  1.0000
  H   H117      1.0  0.03513  0.35374  0.08644  1.0000
  H   H118      1.0  0.04415  0.38853  0.12848  1.0000
  H   H119      1.0  0.06337  0.36004  0.09458  1.0000
  H   H120      1.0  0.30527  0.16453  0.09212  1.0000
  H   H121      1.0  0.26218  0.23099  0.22951  1.0000
  H   H122      1.0  0.20667  0.32468  0.22824  1.0000
  H   H123      1.0  0.13623  0.42047  0.06069  1.0000
  C   C66       1.0  0.07037  0.29297  0.11893  1.0000
  C   C67       1.0  0.26785  0.24527  0.21959  1.0000
  H   H124      1.0  0.11851  0.47080  0.04639  1.0000
  H   H125      1.0  0.22822  0.20501  0.11571  1.0000
  C   C68       1.0  0.32538  0.19297  0.06512  1.0000
  C   C69       1.0  0.27369  0.14197  0.11060  1.0000
  N   N4        1.0  0.36325  0.03338  0.06254  1.0000
  H   H126      1.0  0.31224  0.19403  0.05398  1.0000
  C   C70       1.0  0.23403  0.24218  0.11592  1.0000
  H   H127      1.0  0.18133  0.42587  0.03620  1.0000
  H   H128      1.0  0.28707  0.24761  0.22139  1.0000
  C   C71       1.0  0.15192  0.43096  0.09254  1.0000
  H   H129      1.0  0.10787  0.45978  0.08792  1.0000
  H   H130      1.0  0.02583  0.33298  0.03396  1.0000
  H   H131      1.0  0.32048  0.02172  0.22179  1.0000
  C   C72       1.0  0.21741  0.30437  0.25272  1.0000
  C   C73       1.0  0.24348  0.21610  0.11753  1.0000
  Fe  Fe11      1.0  0.10913  0.43691  0.00686  1.0000
  H   H132      1.0  0.25473  0.20929  0.08922  1.0000
  H   H133      1.0  0.13958  0.43484  0.03875  1.0000
  H   H134      1.0  0.08952  0.28674  0.11722  1.0000
  H   H135      1.0  0.27458  0.22570  0.10078  1.0000
  H   H136      1.0  0.27945  0.13646  0.09646  1.0000
  H   H137      1.0  0.13282  0.42766  0.09233  1.0000
  H   H138      1.0  0.24974  0.21230  0.13179  1.0000
  C   C74       1.0  0.36901  0.04465  0.09684  1.0000
  H   H139      1.0  0.37544  0.08102  0.10347  1.0000
  H   H140      1.0  0.25152  0.17008  0.12315  1.0000
  H   H141      1.0  0.34540  0.02330  0.03827  1.0000
  H   H142      1.0  0.39022  0.09562  0.19454  1.0000
  H   H143      1.0  0.30508  0.21796  0.08195  1.0000
  N   N5        1.0  0.34317  0.05092  0.22466  1.0000
  H   H144      1.0  0.10303  0.43887  0.07046  1.0000
  C   C75       1.0  0.00910  0.36240  0.11842  1.0000
  H   H145      1.0  0.32607  0.02887  0.05791  1.0000
  C   C76       1.0  0.04107  0.32937  0.11828  1.0000
  H   H146      1.0  0.17298  0.29820  0.22988  1.0000
  C   C77       1.0  0.15825  0.43284  0.11274  1.0000
  C   C78       1.0  0.30245  0.21350  0.12757  1.0000
  H   H147      1.0  0.22728  0.24666  0.10187  1.0000
  C   C79       1.0  0.04925  0.36910  0.12971  1.0000
  H   H148      1.0  0.05342  0.34330  0.15327  1.0000
  C   C80       1.0  0.05782  0.37838  0.16255  1.0000
  H   H149      1.0  0.07426  0.32359  0.10113  1.0000
  H   H150      1.0  0.22128  0.25359  0.23366  1.0000
  C   C81       1.0  0.10446  0.45789  0.07306  1.0000
  H   H151      1.0  0.35225  0.05727  0.25269  1.0000
  H   H152      1.0  0.23616  0.31217  0.22670  1.0000
  H   H153      1.0  0.07698  0.37908  0.15835  1.0000
  H   H154      1.0  0.13714  0.32242  0.24818  1.0000
  H   H155      1.0  0.21910  0.24541  0.12623  1.0000
  C   C82       1.0  0.35337  0.04234  0.24301  1.0000
  C   C83       1.0  0.04566  0.36171  0.15039  1.0000
  C   C84       1.0  0.29363  0.18874  0.12355  1.0000
  H   H156      1.0  0.03533  0.32253  0.13225  1.0000
  H   H157      1.0  0.15747  0.39023  0.03404  1.0000
  H   H158      1.0  0.26899  0.00969  0.21926  1.0000
  H   H159      1.0  0.05643  0.37186  0.17724  1.0000
  H   H160      1.0  0.40926  0.07747  0.21009  1.0000
  N   N6        1.0  0.27879  0.18747  0.10664  1.0000
  C   C85       1.0  0.26356  0.21017  0.10269  1.0000
  C   C86       1.0  0.29447  0.18166  0.08976  1.0000
  C   C87       1.0  0.26197  0.16774  0.10986  1.0000
  C   C88       1.0  0.34313  0.15596  0.25181  1.0000
  H   H161      1.0  0.38828  0.03911  0.09571  1.0000
  C   C89       1.0  0.40901  0.03739  0.06092  1.0000
  C   C90       1.0  0.39466  0.09182  0.20926  1.0000
  C   C91       1.0  0.27434  0.01360  0.20499  1.0000
  C   C92       1.0  0.36592  0.06572  0.10953  1.0000
  Fe  Fe12      1.0  0.05989  0.42082  0.01540  1.0000
  H   H162      1.0  0.37282  0.03712  0.24133  1.0000
  C   C93       1.0  0.32280  0.06962  0.22731  1.0000
  H   H163      1.0  0.16156  0.38323  0.05841  1.0000
  C   C94       1.0  0.02054  0.35233  0.03265  1.0000
  H   H164      1.0  0.26618  0.07689  0.24896  1.0000
  H   H165      1.0  0.40108  0.10821  0.21478  1.0000
  C   C95       1.0  0.17719  0.36475  0.24879  1.0000
  C   C96       1.0  0.14904  0.33446  0.25361  1.0000
  H   H166      1.0  0.48336  0.13199  0.00716  1.0000
  H   H167      1.0  0.03054  0.32032  0.10828  1.0000
  H   H168      1.0  0.38030  0.00572  0.08050  1.0000
  H   H169      1.0  0.32896  0.08549  0.23375  1.0000
  C   C97       1.0  0.08014  0.47088  0.06937  1.0000
  C   C98       1.0  0.33525  0.06023  0.04132  1.0000
  H   H170      1.0  0.08577  0.48469  0.02311  1.0000
  S   S23       1.0  0.36975  0.10397  0.00901  1.0000
  H   H171      1.0  0.03539  0.36219  0.03748  1.0000
  H   H172      1.0  0.18450  0.41937  0.06052  1.0000
  H   H173      1.0  0.38096  0.20087  0.24952  1.0000
  H   H174      1.0  0.04264  0.41585  0.06817  1.0000
  C   C99       1.0  0.04314  0.39630  0.07108  1.0000
  H   H175      1.0  0.00569  0.38055  0.12391  1.0000
  H   H176      1.0  0.34670  0.07135  0.11173  1.0000
  C   C100      1.0  0.16934  0.39203  0.04576  1.0000
  H   H177      1.0  0.37346  0.06053  0.12320  1.0000
  C   C101      1.0  0.36555  0.00819  0.07072  1.0000
  H   H178      1.0  0.05257  0.40105  0.09901  1.0000
  C   C102      1.0  0.31180  0.06051  0.03127  1.0000
  C   C103      1.0  0.49751  0.05086  0.02205  1.0000
  H   H179      1.0  0.28770  0.09898  0.24497  1.0000
  H   H180      1.0  0.40669  0.24377  0.24263  1.0000
  C   C104      1.0  0.49248  0.14822  0.00747  1.0000
  H   H181      1.0  0.21266  0.49444  0.23901  1.0000
  H   H182      1.0  0.32252  0.02247  0.25390  1.0000
  H   H183      1.0  0.30701  0.05980  0.25445  1.0000
  H   H184      1.0  0.44567  0.20693  0.25482  1.0000
  Fe  Fe13      1.0  0.41936  0.14668  0.00750  1.0000
  S   S24       1.0  0.07016  0.38293  0.00876  1.0000
  H   H185      1.0  0.34745  0.00404  0.24579  1.0000
  C   C105      1.0  0.47909  0.17032  0.00735  1.0000
  H   H186      1.0  0.00057  0.36349  0.10471  1.0000
  H   H187      1.0  0.07489  0.32838  0.00657  1.0000
  S   S25       1.0  0.44748  0.17381  0.00631  1.0000
  C   C106      1.0  0.16663  0.49694  0.05369  1.0000
  C   C107      1.0  0.00030  0.32318  0.18696  1.0000
  Fe  Fe14      1.0  0.38842  0.20623  0.32002  1.0000
  S   S26       1.0  0.38888  0.24520  0.32600  1.0000
  S   S27       1.0  0.38757  0.20000  0.28876  1.0000
  Fe  Fe15      1.0  0.39306  0.19181  0.36176  1.0000
  S   S28       1.0  0.39338  0.22965  0.36998  1.0000
  S   S29       1.0  0.39624  0.16020  0.38275  1.0000
  Fe  Fe16      1.0  0.36367  0.23761  0.35001  1.0000
  S   S30       1.0  0.32744  0.25655  0.35772  1.0000
  Fe  Fe17      1.0  0.41870  0.23373  0.34523  1.0000
  S   S31       1.0  0.45182  0.25465  0.34718  1.0000
  S   S32       1.0  0.36165  0.19911  0.34316  1.0000
  S   S33       1.0  0.41994  0.19546  0.33789  1.0000
  H   H188      1.0  0.13412  0.45758  0.41923  1.0000
  C   C108      1.0  0.45843  0.17685  0.28550  1.0000
  C   C109      1.0  0.21279  0.46783  0.45571  1.0000
  H   H189      1.0  0.20793  0.39541  0.47525  1.0000
  H   H190      1.0  0.47571  0.20878  0.33689  1.0000
  Fe  Fe18      1.0  0.39840  0.13699  0.49329  1.0000
  S   S34       1.0  0.40029  0.16629  0.47052  1.0000
  S   S35       1.0  0.41779  0.10086  0.49217  1.0000
  Fe  Fe19      1.0  0.24250  0.37669  0.33681  1.0000
  S   S36       1.0  0.21050  0.35707  0.34649  1.0000
  S   S37       1.0  0.28111  0.36042  0.33459  1.0000
  Fe  Fe20      1.0  0.21225  0.42342  0.32766  1.0000
  S   S38       1.0  0.17851  0.40582  0.33564  1.0000
  S   S39       1.0  0.20329  0.46272  0.31918  1.0000
  Fe  Fe21      1.0  0.19763  0.39086  0.36067  1.0000
  S   S40       1.0  0.17741  0.40177  0.38740  1.0000
  Fe  Fe22      1.0  0.19374  0.37385  0.32066  1.0000
  S   S41       1.0  0.16991  0.35105  0.30474  1.0000
  S   S42       1.0  0.23110  0.40938  0.35310  1.0000
  S   S43       1.0  0.22613  0.39236  0.31043  1.0000
  Fe  Fe23      1.0  0.11873  0.37197  0.48218  1.0000
  S   S44       1.0  0.09969  0.40836  0.47944  1.0000
  S   S45       1.0  0.13012  0.34935  0.45762  1.0000
  H   H191      1.0  0.03024  0.37205  0.49128  1.0000
  H   H192      1.0  0.35517  0.16181  0.29756  1.0000
  C   C110      1.0  0.46822  0.15075  0.40505  1.0000
  H   H193      1.0  0.44505  0.29252  0.28918  1.0000
  C   C111      1.0  0.33965  0.25309  0.29396  1.0000
  C   C112      1.0  0.43919  0.03873  0.47863  1.0000
  H   H194      1.0  0.17815  0.48769  0.40026  1.0000
  H   H195      1.0  0.43522  0.01090  0.49923  1.0000
  C   C113      1.0  0.02103  0.46867  0.49032  1.0000
  H   H196      1.0  0.21022  0.44076  0.40342  1.0000
  C   C114      1.0  0.16715  0.35078  0.28028  1.0000
  H   H197      1.0  0.34274  0.26139  0.26366  1.0000
  H   H198      1.0  0.36372  0.10449  0.43992  1.0000
  H   H199      1.0  0.14191  0.32362  0.28219  1.0000
  C   C115      1.0  0.18895  0.40590  0.44988  1.0000
  C   C116      1.0  0.26019  0.16358  0.46285  1.0000
  H   H200      1.0  0.24985  0.47437  0.33233  1.0000
  H   H201      1.0  0.35098  0.19072  0.42610  1.0000
  C   C117      1.0  0.16231  0.38535  0.40508  1.0000
  C   C118      1.0  0.16899  0.36154  0.40980  1.0000
  C   C119      1.0  0.15840  0.35036  0.42559  1.0000
  C   C120      1.0  0.14167  0.36312  0.43703  1.0000
  C   C121      1.0  0.13446  0.38665  0.43191  1.0000
  C   C122      1.0  0.14442  0.39752  0.41585  1.0000
  H   H202      1.0  0.18290  0.35203  0.40175  1.0000
  H   H203      1.0  0.16393  0.33207  0.42940  1.0000
  H   H204      1.0  0.12123  0.39649  0.44035  1.0000
  H   H205      1.0  0.13871  0.41573  0.41207  1.0000
  H   H206      1.0  0.17285  0.40883  0.45914  1.0000
  H   H207      1.0  0.12179  0.47070  0.44011  1.0000
  H   H208      1.0  0.33320  0.09721  0.44497  1.0000
  C   C123      1.0  0.46904  0.17687  0.48363  1.0000
  H   H209      1.0  0.46034  0.21489  0.47843  1.0000
  C   C124      1.0  0.13858  0.46654  0.43189  1.0000
  C   C125      1.0  0.31488  0.28536  0.35077  1.0000
  C   C126      1.0  0.32824  0.30217  0.34105  1.0000
  C   C127      1.0  0.31758  0.32496  0.33621  1.0000
  C   C128      1.0  0.29341  0.33121  0.34081  1.0000
  C   C129      1.0  0.27993  0.31421  0.35020  1.0000
  C   C130      1.0  0.29066  0.29151  0.35523  1.0000
  H   H210      1.0  0.34688  0.29779  0.33756  1.0000
  H   H211      1.0  0.32818  0.33794  0.32895  1.0000
  H   H212      1.0  0.26134  0.31869  0.35382  1.0000
  H   H213      1.0  0.28012  0.27868  0.36272  1.0000
  C   C131      1.0  0.48140  0.24579  0.33947  1.0000
  N   N7        1.0  0.31494  0.24418  0.29370  1.0000
  S   S46       1.0  0.37042  0.05408  0.49569  1.0000
  H   H214      1.0  0.45051  0.05372  0.47503  1.0000
  H   H215      1.0  0.31114  0.24763  0.32333  1.0000
  C   C132      1.0  0.39917  0.16211  0.40702  1.0000
  C   C133      1.0  0.39976  0.18397  0.41536  1.0000
  C   C134      1.0  0.40078  0.18481  0.43477  1.0000
  C   C135      1.0  0.40125  0.16385  0.44608  1.0000
  C   C136      1.0  0.40163  0.14191  0.43773  1.0000
  C   C137      1.0  0.40051  0.14107  0.41831  1.0000
  H   H216      1.0  0.39894  0.20029  0.40690  1.0000
  H   H217      1.0  0.40064  0.20188  0.44107  1.0000
  H   H218      1.0  0.40221  0.12562  0.44624  1.0000
  H   H219      1.0  0.40025  0.12404  0.41199  1.0000
  H   H220      1.0  0.22468  0.38740  0.45449  1.0000
  C   C138      1.0  0.35566  0.16540  0.28274  1.0000
  C   C139      1.0  0.36972  0.18309  0.27505  1.0000
  C   C140      1.0  0.45738  0.20280  0.29199  1.0000
  H   H221      1.0  0.35302  0.23762  0.29548  1.0000
  N   N8        1.0  0.46341  0.22152  0.27735  1.0000
  C   C141      1.0  0.21433  0.48922  0.32696  1.0000
  H   H222      1.0  0.23660  0.42085  0.43806  1.0000
  H   H223      1.0  0.29777  0.20212  0.34145  1.0000
  C   C142      1.0  0.29682  0.26437  0.28887  1.0000
  C   C143      1.0  0.15571  0.45045  0.44362  1.0000
  H   H224      1.0  0.33459  0.16241  0.40398  1.0000
  H   H225      1.0  0.20707  0.47102  0.37514  1.0000
  H   H226      1.0  0.35239  0.14795  0.43063  1.0000
  H   H227      1.0  0.00220  0.32499  0.26681  1.0000
  H   H228      1.0  0.33109  0.22022  0.45403  1.0000
  H   H229      1.0  0.28771  0.27945  0.31601  1.0000
  H   H230      1.0  0.45907  0.28186  0.31038  1.0000
  C   C144      1.0  0.49290  0.08511  0.48124  1.0000
  H   H231      1.0  0.35478  0.09400  0.46286  1.0000
  H   H232      1.0  0.32337  0.13765  0.43053  1.0000
  H   H233      1.0  0.33259  0.16958  0.47208  1.0000
  N   N9        1.0  0.48480  0.14901  0.45736  1.0000
  H   H234      1.0  0.26348  0.43445  0.41216  1.0000
  H   H235      1.0  0.20017  0.48057  0.48266  1.0000
  H   H236      1.0  0.25965  0.29942  0.29388  1.0000
  C   C145      1.0  0.34265  0.15184  0.27119  1.0000
  C   C146      1.0  0.29488  0.28534  0.30219  1.0000
  H   H237      1.0  0.35515  0.18112  0.45750  1.0000
  S   S47       1.0  0.14768  0.38327  0.49967  1.0000
  H   H238      1.0  0.25064  0.44650  0.39097  1.0000
  H   H239      1.0  0.25548  0.18273  0.46524  1.0000
  H   H240      1.0  0.05443  0.48507  0.48323  1.0000
  H   H241      1.0  0.27701  0.21973  0.27946  1.0000
  C   C147      1.0  0.22467  0.44098  0.41347  1.0000
  C   C148      1.0  0.49833  0.26300  0.33758  1.0000
  H   H242      1.0  0.48391  0.02691  0.48555  1.0000
  N   N10       1.0  0.11457  0.36550  0.35885  1.0000
  C   C149      1.0  0.08828  0.36461  0.36381  1.0000
  C   C150      1.0  0.11917  0.36330  0.33818  1.0000
  C   C151      1.0  0.12746  0.34434  0.36864  1.0000
  C   C152      1.0  0.12443  0.38774  0.36536  1.0000
  C   C153      1.0  0.11292  0.41174  0.35772  1.0000
  C   C154      1.0  0.08103  0.36600  0.38470  1.0000
  C   C155      1.0  0.15457  0.34014  0.36379  1.0000
  C   C156      1.0  0.09947  0.37406  0.32514  1.0000
  C   C157      1.0  0.10832  0.37425  0.30490  1.0000
  C   C158      1.0  0.12266  0.43267  0.36706  1.0000
  C   C159      1.0  0.05393  0.36640  0.38771  1.0000
  C   C160      1.0  0.16491  0.31695  0.37304  1.0000
  H   H243      1.0  0.08175  0.34786  0.35884  1.0000
  H   H244      1.0  0.07759  0.37923  0.35658  1.0000
  H   H245      1.0  0.13625  0.37115  0.33376  1.0000
  H   H246      1.0  0.12180  0.34421  0.33458  1.0000
  H   H247      1.0  0.11888  0.32770  0.36577  1.0000
  H   H248      1.0  0.12621  0.34609  0.38392  1.0000
  H   H249      1.0  0.12381  0.38782  0.38072  1.0000
  H   H250      1.0  0.14367  0.38791  0.36143  1.0000
  H   H251      1.0  0.09329  0.41305  0.36007  1.0000
  H   H252      1.0  0.11739  0.41397  0.34270  1.0000
  H   H253      1.0  0.08875  0.35030  0.39278  1.0000
  H   H254      1.0  0.08693  0.38239  0.39053  1.0000
  H   H255      1.0  0.16444  0.35477  0.36883  1.0000
  H   H256      1.0  0.15828  0.33900  0.34868  1.0000
  H   H257      1.0  0.08377  0.36309  0.32639  1.0000
  H   H258      1.0  0.09331  0.39251  0.32843  1.0000
  H   H259      1.0  0.09382  0.38158  0.29584  1.0000
  H   H260      1.0  0.12371  0.38553  0.30273  1.0000
  H   H261      1.0  0.11394  0.35590  0.30071  1.0000
  H   H262      1.0  0.11424  0.44969  0.36128  1.0000
  H   H263      1.0  0.11870  0.43159  0.38222  1.0000
  H   H264      1.0  0.14229  0.43278  0.36450  1.0000
  H   H265      1.0  0.04510  0.38235  0.38058  1.0000
  H   H266      1.0  0.04702  0.35008  0.38245  1.0000
  H   H267      1.0  0.04926  0.36709  0.40275  1.0000
  H   H268      1.0  0.18445  0.31484  0.36995  1.0000
  H   H269      1.0  0.16190  0.31712  0.38830  1.0000
  H   H270      1.0  0.15659  0.30145  0.36767  1.0000
  H   H271      1.0  0.37963  0.27940  0.28919  1.0000
  C   C161      1.0  0.47674  0.14142  0.43895  1.0000
  C   C162      1.0  0.47450  0.16110  0.42328  1.0000
  C   C163      1.0  0.46784  0.16959  0.46327  1.0000
  H   H272      1.0  0.32238  0.20632  0.42764  1.0000
  H   H273      1.0  0.19879  0.47915  0.44850  1.0000
  H   H274      1.0  0.34323  0.00094  0.27958  1.0000
  H   H275      1.0  0.33212  0.23194  0.48617  1.0000
  H   H276      1.0  0.31239  0.29266  0.30393  1.0000
  H   H277      1.0  0.47685  0.17072  0.28098  1.0000
  H   H278      1.0  0.34518  0.03256  0.28116  1.0000
  C   C164      1.0  0.48714  0.21520  0.26765  1.0000
  H   H279      1.0  0.47687  0.08545  0.49073  1.0000
  H   H280      1.0  0.45884  0.13406  0.44089  1.0000
  C   C165      1.0  0.48912  0.10309  0.46505  1.0000
  C   C166      1.0  0.34737  0.26880  0.27689  1.0000
  H   H281      1.0  0.46475  0.12849  0.47789  1.0000
  H   H282      1.0  0.44908  0.16545  0.46125  1.0000
  H   H283      1.0  0.47077  0.18584  0.45440  1.0000
  H   H284      1.0  0.29016  0.19137  0.44448  1.0000
  H   H285      1.0  0.19167  0.37769  0.27348  1.0000
  H   H286      1.0  0.17409  0.43284  0.42051  1.0000
  H   H287      1.0  0.30604  0.17902  0.40572  1.0000
  H   H288      1.0  0.47826  0.24311  0.29747  1.0000
  C   C167      1.0  0.15179  0.33519  0.27291  1.0000
  H   H289      1.0  0.27862  0.25807  0.28856  1.0000
  C   C168      1.0  0.31579  0.22437  0.28004  1.0000
  H   H290      1.0  0.28874  0.23687  0.26007  1.0000
  H   H291      1.0  0.42618  0.22309  0.27004  1.0000
  C   C169      1.0  0.33376  0.19766  0.39172  1.0000
  H   H292      1.0  0.35814  0.21267  0.48046  1.0000
  H   H293      1.0  0.48604  0.19941  0.25907  1.0000
  C   C170      1.0  0.45370  0.19985  0.48712  1.0000
  S   S48       1.0  0.14766  0.45100  0.49344  1.0000
  H   H294      1.0  0.43898  0.20680  0.29783  1.0000
  H   H295      1.0  0.45126  0.14175  0.40673  1.0000
  C   C171      1.0  0.33840  0.21351  0.48261  1.0000
  H   H296      1.0  0.46579  0.16527  0.39425  1.0000
  H   H297      1.0  0.26585  0.20588  0.33912  1.0000
  H   H298      1.0  0.28616  0.20585  0.30840  1.0000
  H   H299      1.0  0.32152  0.20693  0.28697  1.0000
  C   C172      1.0  0.48327  0.12879  0.47177  1.0000
  H   H300      1.0  0.42578  0.25474  0.28743  1.0000
  C   C173      1.0  0.20654  0.38884  0.46110  1.0000
  H   H301      1.0  0.34183  0.26354  0.30645  1.0000
  H   H302      1.0  0.43786  0.24399  0.30907  1.0000
  C   C174      1.0  0.45052  0.15973  0.30114  1.0000
  H   H303      1.0  0.33379  0.20124  0.49445  1.0000
  H   H304      1.0  0.32498  0.21574  0.39362  1.0000
  C   C175      1.0  0.29256  0.22129  0.26972  1.0000
  C   C176      1.0  0.47341  0.01316  0.49289  1.0000
  H   H305      1.0  0.20973  0.35237  0.47229  1.0000
  H   H306      1.0  0.46155  0.16088  0.31345  1.0000
  H   H307      1.0  0.46117  0.21030  0.40186  1.0000
  H   H308      1.0  0.49308  0.28125  0.34081  1.0000
  H   H309      1.0  0.18535  0.45982  0.42608  1.0000
  H   H310      1.0  0.49147  0.16980  0.42084  1.0000
  H   H311      1.0  0.27665  0.32037  0.30481  1.0000
  C   C177      1.0  0.28728  0.15864  0.46124  1.0000
  H   H312      1.0  0.22972  0.46772  0.44731  1.0000
  H   H313      1.0  0.19084  0.44235  0.47028  1.0000
  Fe  Fe24      1.0  0.12718  0.41862  0.49860  1.0000
  C   C178      1.0  0.17981  0.36560  0.26807  1.0000
  H   H314      1.0  0.28197  0.23060  0.34559  1.0000
  H   H315      1.0  0.46911  0.20323  0.30397  1.0000
  H   H316      1.0  0.14608  0.43470  0.44845  1.0000
  H   H317      1.0  0.29082  0.13924  0.45947  1.0000
  H   H318      1.0  0.42058  0.04620  0.48112  1.0000
  H   H319      1.0  0.17828  0.45872  0.37661  1.0000
  C   C179      1.0  0.47236  0.22280  0.39378  1.0000
  H   H320      1.0  0.29463  0.16350  0.47444  1.0000
  H   H321      1.0  0.47397  0.09762  0.45715  1.0000
  H   H322      1.0  0.46215  0.16284  0.49321  1.0000
  C   C180      1.0  0.37428  0.27140  0.27634  1.0000
  C   C181      1.0  0.04498  0.46936  0.47961  1.0000
  C   C182      1.0  0.28281  0.21474  0.33691  1.0000
  C   C183      1.0  0.31015  0.23386  0.31295  1.0000
  H   H323      1.0  0.47085  0.21960  0.37884  1.0000
  H   H324      1.0  0.42708  0.28664  0.30987  1.0000
  H   H325      1.0  0.05643  0.45303  0.48320  1.0000
  H   H326      1.0  0.27084  0.23456  0.31268  1.0000
  H   H327      1.0  0.36563  0.00769  0.48168  1.0000
  C   C184      1.0  0.49838  0.21881  0.39936  1.0000
  C   C185      1.0  0.28625  0.22216  0.31645  1.0000
  H   H328      1.0  0.32465  0.22011  0.31670  1.0000
  H   H329      1.0  0.33830  0.28692  0.27758  1.0000
  H   H330      1.0  0.15969  0.46065  0.45571  1.0000
  H   H331      1.0  0.24771  0.41572  0.39775  1.0000
  H   H332      1.0  0.32903  0.19166  0.37801  1.0000
  H   H333      1.0  0.46001  0.17481  0.42676  1.0000
  C   C186      1.0  0.24809  0.43392  0.40303  1.0000
  H   H334      1.0  0.43141  0.16391  0.30508  1.0000
  H   H335      1.0  0.30696  0.20818  0.46786  1.0000
  H   H336      1.0  0.33216  0.13798  0.27732  1.0000
  H   H337      1.0  0.25171  0.15858  0.45009  1.0000
  C   C187      1.0  0.44336  0.28056  0.30170  1.0000
  C   C188      1.0  0.21996  0.42332  0.43009  1.0000
  H   H338      1.0  0.44641  0.17528  0.27388  1.0000
  H   H339      1.0  0.23124  0.46941  0.48161  1.0000
  H   H340      1.0  0.19870  0.30663  0.25830  1.0000
  H   H341      1.0  0.35821  0.13699  0.46256  1.0000
  H   H342      1.0  0.17941  0.36406  0.46911  1.0000
  H   H343      1.0  0.35344  0.19862  0.39173  1.0000
  H   H344      1.0  0.48872  0.12671  0.43345  1.0000
  C   C189      1.0  0.01382  0.38034  0.49705  1.0000
  H   H345      1.0  0.21836  0.40591  0.42356  1.0000
  H   H346      1.0  0.29071  0.16514  0.43200  1.0000
  C   C190      1.0  0.48844  0.22229  0.33519  1.0000
  H   H347      1.0  0.32787  0.13013  0.46688  1.0000
  N   N11       1.0  0.32483  0.17205  0.44272  1.0000
  C   C191      1.0  0.33546  0.18132  0.45961  1.0000
  C   C192      1.0  0.33546  0.14712  0.43908  1.0000
  C   C193      1.0  0.33147  0.18824  0.42637  1.0000
  C   C194      1.0  0.29796  0.17264  0.44440  1.0000
  H   H348      1.0  0.43478  0.19776  0.48403  1.0000
  C   C195      1.0  0.32655  0.20683  0.46506  1.0000
  C   C196      1.0  0.32553  0.18007  0.40693  1.0000
  C   C197      1.0  0.34235  0.13060  0.45612  1.0000
  C   C198      1.0  0.34889  0.10505  0.45053  1.0000
  H   H349      1.0  0.25075  0.31990  0.25818  1.0000
  H   H350      1.0  0.48270  0.13778  0.40022  1.0000
  H   H351      1.0  0.30051  0.27156  0.27456  1.0000
  C   C199      1.0  0.27781  0.30566  0.29500  1.0000
  H   H352      1.0  0.46523  0.24129  0.39645  1.0000
  H   H353      1.0  0.22089  0.43216  0.46622  1.0000
  H   H354      1.0  0.48748  0.17991  0.48729  1.0000
  H   H355      1.0  0.49186  0.22983  0.25766  1.0000
  H   H356      1.0  0.25291  0.15291  0.47477  1.0000
  H   H357      1.0  0.19823  0.35558  0.44935  1.0000
  H   H358      1.0  0.01248  0.45272  0.48607  1.0000
  H   H359      1.0  0.14657  0.48355  0.42788  1.0000
  H   H360      1.0  0.04228  0.47006  0.46447  1.0000
  C   C200      1.0  0.17896  0.44311  0.43240  1.0000
  H   H361      1.0  0.28431  0.31280  0.28132  1.0000
  H   H362      1.0  0.43935  0.02679  0.46680  1.0000
  C   C201      1.0  0.20549  0.44207  0.45946  1.0000
  C   C202      1.0  0.46482  0.24488  0.28650  1.0000
  H   H363      1.0  0.18316  0.39611  0.43802  1.0000
  N   N12       1.0  0.19847  0.42918  0.44290  1.0000
  C   C203      1.0  0.44141  0.25489  0.29626  1.0000
  C   C204      1.0  0.19788  0.36373  0.46307  1.0000
  H   H364      1.0  0.47143  0.25863  0.27644  1.0000
  H   H365      1.0  0.22838  0.32181  0.27684  1.0000
  H   H366      1.0  0.29843  0.18283  0.26728  1.0000
  H   H367      1.0  0.22549  0.45943  0.41795  1.0000
  H   H368      1.0  0.18466  0.48047  0.35857  1.0000
  C   C205      1.0  0.35094  0.01690  0.27286  1.0000
  C   C206      1.0  0.23137  0.32294  0.26157  1.0000
  H   H369      1.0  0.45448  0.20420  0.50190  1.0000
  H   H370      1.0  0.37930  0.28314  0.26430  1.0000
  C   C207      1.0  0.00503  0.49187  0.48650  1.0000
  C   C208      1.0  0.44784  0.02490  0.49604  1.0000
  C   C209      1.0  0.18766  0.47517  0.37329  1.0000
  S   S49       1.0  0.36441  0.12326  0.50581  1.0000
  C   C210      1.0  0.37533  0.00516  0.49433  1.0000
  H   H371      1.0  0.45252  0.14118  0.29643  1.0000
  C   C211      1.0  0.21687  0.47959  0.47386  1.0000
  H   H372      1.0  0.49617  0.06694  0.47596  1.0000
  Fe  Fe25      1.0  0.07928  0.39759  0.50552  1.0000
  H   H373      1.0  0.37072  0.01407  0.27278  1.0000
  H   H374      1.0  0.38414  0.25372  0.27492  1.0000
  H   H375      1.0  0.32994  0.22639  0.26904  1.0000
  C   C212      1.0  0.29492  0.19906  0.25825  1.0000
  H   H376      1.0  0.49874  0.22032  0.41459  1.0000
  C   C213      1.0  0.44424  0.22311  0.26318  1.0000
  C   C214      1.0  0.12877  0.47628  0.49781  1.0000
  C   C215      1.0  0.38026  0.02512  0.50417  1.0000
  H   H377      1.0  0.00347  0.49474  0.47126  1.0000
  C   C216      1.0  0.23797  0.49036  0.33209  1.0000
  H   H378      1.0  0.49478  0.13166  0.48359  1.0000
  C   C217      1.0  0.10545  0.47386  0.50471  1.0000
  C   C218      1.0  0.17777  0.49501  0.38578  1.0000
  H   H379      1.0  0.22519  0.34119  0.25660  1.0000
  H   H380      1.0  0.22495  0.28633  0.25705  1.0000
  H   H381      1.0  0.44084  0.26178  0.25640  1.0000
  H   H382      1.0  0.22226  0.49799  0.47090  1.0000
  H   H383      1.0  0.02484  0.46632  0.50525  1.0000
  H   H384      1.0  0.47211  0.99878  0.48292  1.0000
  C   C219      1.0  0.12451  0.42582  0.72789  1.0000
  Fe  Fe26      1.0  0.37997  0.12824  0.53370  1.0000
  S   S50       1.0  0.35812  0.14172  0.55898  1.0000
  S   S51       1.0  0.39735  0.09098  0.53521  1.0000
  Fe  Fe27      1.0  0.38227  0.20987  0.65351  1.0000
  S   S52       1.0  0.39687  0.24313  0.66381  1.0000
  S   S53       1.0  0.39652  0.19958  0.62451  1.0000
  Fe  Fe28      1.0  0.36317  0.19543  0.69301  1.0000
  S   S54       1.0  0.37692  0.22724  0.70513  1.0000
  S   S55       1.0  0.34797  0.16579  0.71160  1.0000
  Fe  Fe29      1.0  0.36173  0.24772  0.68019  1.0000
  S   S56       1.0  0.34157  0.28299  0.68804  1.0000
  Fe  Fe30      1.0  0.41053  0.21991  0.68774  1.0000
  S   S57       1.0  0.44714  0.21308  0.70075  1.0000
  S   S58       1.0  0.34624  0.21578  0.66860  1.0000
  S   S59       1.0  0.39747  0.18674  0.67681  1.0000
  Fe  Fe31      1.0  0.12389  0.37503  0.52444  1.0000
  S   S60       1.0  0.10549  0.41136  0.52451  1.0000
  S   S61       1.0  0.14048  0.35755  0.55033  1.0000
  Fe  Fe32      1.0  0.17504  0.39258  0.65181  1.0000
  S   S62       1.0  0.21093  0.40776  0.65241  1.0000
  S   S63       1.0  0.14921  0.40379  0.62867  1.0000
  Fe  Fe33      1.0  0.17966  0.37013  0.69216  1.0000
  S   S64       1.0  0.21568  0.38425  0.69511  1.0000
  S   S65       1.0  0.16064  0.34491  0.71283  1.0000
  Fe  Fe34      1.0  0.19989  0.41863  0.68131  1.0000
  S   S66       1.0  0.19577  0.45551  0.69395  1.0000
  Fe  Fe35      1.0  0.22359  0.37215  0.66597  1.0000
  S   S67       1.0  0.25387  0.34733  0.65388  1.0000
  S   S68       1.0  0.16340  0.40479  0.68016  1.0000
  S   S69       1.0  0.18802  0.35664  0.66360  1.0000
  H   H385      1.0  0.42566  0.08392  0.62518  1.0000
  H   H386      1.0  0.09250  0.31810  0.59803  1.0000
  H   H387      1.0  0.16750  0.40559  0.73983  1.0000
  Fe  Fe36      1.0  0.42857  0.10726  0.52095  1.0000
  C   C220      1.0  0.15804  0.34365  0.73751  1.0000
  H   H388      1.0  0.44695  0.03735  0.50756  1.0000
  H   H389      1.0  0.18707  0.36528  0.74186  1.0000
  H   H390      1.0  0.12847  0.32126  0.73808  1.0000
  C   C221      1.0  0.14347  0.37138  0.57165  1.0000
  C   C222      1.0  0.12829  0.39086  0.57694  1.0000
  C   C223      1.0  0.13021  0.40044  0.59448  1.0000
  C   C224      1.0  0.14741  0.39078  0.60687  1.0000
  C   C225      1.0  0.16260  0.37132  0.60156  1.0000
  C   C226      1.0  0.16052  0.36162  0.58409  1.0000
  H   H391      1.0  0.11464  0.39805  0.56775  1.0000
  H   H392      1.0  0.11818  0.41529  0.59855  1.0000
  H   H393      1.0  0.17585  0.36363  0.61096  1.0000
  H   H394      1.0  0.17215  0.34635  0.58024  1.0000
  H   H395      1.0  0.38390  0.09734  0.64099  1.0000
  S   S70       1.0  0.09630  0.36007  0.50715  1.0000
  H   H396      1.0  0.10616  0.34083  0.60991  1.0000
  C   C227      1.0  0.31720  0.30050  0.67815  1.0000
  C   C228      1.0  0.30681  0.29460  0.66185  1.0000
  C   C229      1.0  0.28749  0.30913  0.65464  1.0000
  C   C230      1.0  0.27813  0.32957  0.66371  1.0000
  C   C231      1.0  0.28855  0.33547  0.67998  1.0000
  C   C232      1.0  0.30791  0.32100  0.68715  1.0000
  H   H397      1.0  0.31377  0.27898  0.65470  1.0000
  H   H398      1.0  0.27976  0.30451  0.64193  1.0000
  H   H399      1.0  0.28188  0.35134  0.68693  1.0000
  H   H400      1.0  0.31592  0.32586  0.69968  1.0000
  C   C233      1.0  0.39748  0.11903  0.61717  1.0000
  C   C234      1.0  0.47485  0.22431  0.69309  1.0000
  C   C235      1.0  0.02860  0.40651  0.56233  1.0000
  H   H401      1.0  0.45969  0.25520  0.67814  1.0000
  H   H402      1.0  0.03820  0.27475  0.74705  1.0000
  C   C236      1.0  0.33690  0.16847  0.73489  1.0000
  C   C237      1.0  0.00341  0.35547  0.56868  1.0000
  C   C238      1.0  0.13987  0.44864  0.55125  1.0000
  C   C239      1.0  0.48392  0.16630  0.75129  1.0000
  C   C240      1.0  0.12135  0.47854  0.72934  1.0000
  C   C241      1.0  0.36818  0.15948  0.57648  1.0000
  C   C242      1.0  0.35347  0.16391  0.59235  1.0000
  C   C243      1.0  0.36145  0.17670  0.60704  1.0000
  C   C244      1.0  0.38428  0.18521  0.60598  1.0000
  C   C245      1.0  0.39867  0.18127  0.58990  1.0000
  C   C246      1.0  0.39076  0.16848  0.57528  1.0000
  H   H403      1.0  0.33590  0.15715  0.59340  1.0000
  H   H404      1.0  0.35007  0.17968  0.61924  1.0000
  H   H405      1.0  0.41610  0.18812  0.58877  1.0000
  H   H406      1.0  0.40220  0.16545  0.56312  1.0000
  H   H407      1.0  0.19229  0.45271  0.73788  1.0000
  C   C247      1.0  0.47601  0.24533  0.68218  1.0000
  H   H408      1.0  0.26865  0.25636  0.72658  1.0000
  H   H409      1.0  0.19156  0.27620  0.75054  1.0000
  H   H410      1.0  0.46968  0.24281  0.61322  1.0000
  H   H411      1.0  0.04757  0.43590  0.54973  1.0000
  C   C248      1.0  0.43056  0.06031  0.60275  1.0000
  H   H412      1.0  0.33876  0.06882  0.58736  1.0000
  H   H413      1.0  0.38013  0.19281  0.74722  1.0000
  C   C249      1.0  0.22311  0.48863  0.67451  1.0000
  H   H414      1.0  0.02813  0.24514  0.74771  1.0000
  C   C250      1.0  0.47050  0.17583  0.64139  1.0000
  C   C251      1.0  0.46181  0.21891  0.63747  1.0000
  C   C252      1.0  0.46716  0.24354  0.62846  1.0000
  C   C253      1.0  0.46325  0.19400  0.60129  1.0000
  C   C254      1.0  0.46729  0.17356  0.66276  1.0000
  C   C255      1.0  0.41477  0.15847  0.72152  1.0000
  H   H415      1.0  0.21092  0.43261  0.56681  1.0000
  C   C256      1.0  0.44655  0.26208  0.63226  1.0000
  C   C257      1.0  0.47054  0.19285  0.58076  1.0000
  C   C258      1.0  0.45804  0.14957  0.66900  1.0000
  C   C259      1.0  0.45502  0.12273  0.57452  1.0000
  C   C260      1.0  0.43886  0.03814  0.61434  1.0000
  H   H416      1.0  0.21612  0.41310  0.52118  1.0000
  H   H417      1.0  0.41389  0.13954  0.69607  1.0000
  C   C261      1.0  0.16759  0.42442  0.73485  1.0000
  H   H418      1.0  0.45252  0.17381  0.63592  1.0000
  H   H419      1.0  0.44381  0.21453  0.63331  1.0000
  H   H420      1.0  0.45965  0.22150  0.65260  1.0000
  H   H421      1.0  0.19628  0.28039  0.65212  1.0000
  H   H422      1.0  0.01768  0.33454  0.52103  1.0000
  H   H423      1.0  0.45445  0.17746  0.60534  1.0000
  H   H424      1.0  0.44991  0.20935  0.60281  1.0000
  H   H425      1.0  0.45404  0.18754  0.66773  1.0000
  H   H426      1.0  0.13552  0.45462  0.53682  1.0000
  H   H427      1.0  0.10644  0.43072  0.73404  1.0000
  S   S71       1.0  0.04157  0.41229  0.51296  1.0000
  N   N13       1.0  0.41405  0.17477  0.75449  1.0000
  H   H428      1.0  0.25973  0.30131  0.72828  1.0000
  H   H429      1.0  0.14270  0.39330  0.71738  1.0000
  H   H430      1.0  0.44374  0.26436  0.64738  1.0000
  H   H431      1.0  0.45069  0.27952  0.62565  1.0000
  H   H432      1.0  0.42978  0.25664  0.62653  1.0000
  C   C262      1.0  0.48534  0.11631  0.52714  1.0000
  H   H433      1.0  0.08923  0.39252  0.72796  1.0000
  H   H434      1.0  0.06908  0.22910  0.73808  1.0000
  H   H435      1.0  0.44042  0.14751  0.66304  1.0000
  H   H436      1.0  0.08252  0.46566  0.56897  1.0000
  H   H437      1.0  0.23031  0.27354  0.73342  1.0000
  N   N14       1.0  0.48601  0.00340  0.51000  1.0000
  H   H438      1.0  0.20274  0.45663  0.58194  1.0000
  H   H439      1.0  0.00298  0.34200  0.55798  1.0000
  C   C263      1.0  0.07953  0.35452  0.59042  1.0000
  H   H440      1.0  0.44870  0.04312  0.62646  1.0000
  H   H441      1.0  0.08650  0.37233  0.59128  1.0000
  C   C264      1.0  0.38188  0.13401  0.64837  1.0000
  H   H442      1.0  0.18694  0.27935  0.70828  1.0000
  H   H443      1.0  0.04658  0.33829  0.50969  1.0000
  H   H444      1.0  0.18976  0.40548  0.54890  1.0000
  H   H445      1.0  0.37796  0.15213  0.64205  1.0000
  H   H446      1.0  0.08699  0.35577  0.56076  1.0000
  C   C265      1.0  0.47775  0.14051  0.52735  1.0000
  C   C266      1.0  0.39275  0.02161  0.52054  1.0000
  H   H447      1.0  0.44512  0.13243  0.56317  1.0000
  H   H448      1.0  0.25692  0.34102  0.74322  1.0000
  C   C267      1.0  0.41411  0.07775  0.61443  1.0000
  C   C268      1.0  0.41589  0.10759  0.58745  1.0000
  C   C269      1.0  0.37744  0.09266  0.59796  1.0000
  C   C270      1.0  0.43876  0.11994  0.59176  1.0000
  H   H449      1.0  0.40073  0.06719  0.62227  1.0000
  H   H450      1.0  0.19093  0.42604  0.60676  1.0000
  H   H451      1.0  0.49897  0.27070  0.66899  1.0000
  H   H452      1.0  0.40467  0.12063  0.57894  1.0000
  H   H453      1.0  0.42106  0.09318  0.57784  1.0000
  H   H454      1.0  0.36796  0.10883  0.59147  1.0000
  H   H455      1.0  0.39055  0.13538  0.60947  1.0000
  H   H456      1.0  0.43380  0.13810  0.59669  1.0000
  H   H457      1.0  0.36586  0.08721  0.60996  1.0000
  H   H458      1.0  0.09856  0.45650  0.50645  1.0000
  H   H459      1.0  0.28373  0.22697  0.70367  1.0000
  H   H460      1.0  0.45473  0.18994  0.57260  1.0000
  C   C271      1.0  0.20119  0.29375  0.66187  1.0000
  H   H461      1.0  0.48801  0.17655  0.52284  1.0000
  H   H462      1.0  0.12204  0.48049  0.56410  1.0000
  C   C272      1.0  0.17316  0.35530  0.74844  1.0000
  C   C273      1.0  0.38010  0.11508  0.63405  1.0000
  H   H463      1.0  0.11478  0.48232  0.74364  1.0000
  C   C274      1.0  0.12098  0.46090  0.56463  1.0000
  H   H464      1.0  0.17444  0.45094  0.52563  1.0000
  H   H465      1.0  0.39029  0.07389  0.57283  1.0000
  C   C275      1.0  0.04759  0.33211  0.53957  1.0000
  H   H466      1.0  0.03841  0.32101  0.55027  1.0000
  H   H467      1.0  0.04191  0.43758  0.57450  1.0000
  C   C276      1.0  0.43996  0.18015  0.75219  1.0000
  H   H468      1.0  0.39998  0.13292  0.65411  1.0000
  H   H469      1.0  0.38138  0.05479  0.59209  1.0000
  H   H470      1.0  0.36869  0.13125  0.65997  1.0000
  H   H471      1.0  0.45940  0.14590  0.53078  1.0000
  H   H472      1.0  0.48917  0.22971  0.53030  1.0000
  C   C277      1.0  0.02860  0.35475  0.57700  1.0000
  H   H473      1.0  0.16126  0.44635  0.58464  1.0000
  H   H474      1.0  0.23457  0.27496  0.66770  1.0000
  H   H475      1.0  0.45600  0.14498  0.74400  1.0000
  C   C278      1.0  0.09936  0.33610  0.59643  1.0000
  H   H476      1.0  0.02859  0.36712  0.53937  1.0000
  C   C279      1.0  0.05105  0.38981  0.56636  1.0000
  H   H477      1.0  0.09216  0.46268  0.54512  1.0000
  H   H478      1.0  0.48418  0.17794  0.57835  1.0000
  H   H479      1.0  0.19016  0.41688  0.50694  1.0000
  C   C280      1.0  0.17199  0.43876  0.57281  1.0000
  C   C281      1.0  0.09565  0.45616  0.55954  1.0000
  H   H480      1.0  0.44676  0.06903  0.59755  1.0000
  H   H481      1.0  0.20126  0.40290  0.59130  1.0000
  H   H482      1.0  0.13678  0.42939  0.55203  1.0000
  N   N15       1.0  0.16564  0.45206  0.55491  1.0000
  H   H483      1.0  0.16714  0.41999  0.57256  1.0000
  H   H484      1.0  0.05692  0.25144  0.72178  1.0000
  H   H485      1.0  0.09296  0.43684  0.56094  1.0000
  C   C282      1.0  0.37726  0.07207  0.58452  1.0000
  H   H486      1.0  0.45099  0.02628  0.60577  1.0000
  H   H487      1.0  0.05948  0.36762  0.53567  1.0000
  C   C283      1.0  0.18893  0.43480  0.74398  1.0000
  H   H488      1.0  0.41465  0.12351  0.62285  1.0000
  H   H489      1.0  0.46198  0.10498  0.56980  1.0000
  H   H490      1.0  0.15778  0.47241  0.73707  1.0000
  N   N16       1.0  0.23883  0.28921  0.70639  1.0000
  C   C284      1.0  0.22596  0.30006  0.68976  1.0000
  C   C285      1.0  0.24911  0.30876  0.71650  1.0000
  C   C286      1.0  0.25955  0.27305  0.69925  1.0000
  H   H491      1.0  0.19341  0.30289  0.72248  1.0000
  C   C287      1.0  0.45850  0.15852  0.75429  1.0000
  C   C288      1.0  0.21858  0.28203  0.67578  1.0000
  C   C289      1.0  0.27779  0.26302  0.71371  1.0000
  C   C290      1.0  0.23123  0.32784  0.72493  1.0000
  C   C291      1.0  0.24441  0.34800  0.73242  1.0000
  H   H492      1.0  0.42158  0.05434  0.59062  1.0000
  H   H493      1.0  0.16446  0.27764  0.73795  1.0000
  H   H494      1.0  0.23742  0.31256  0.68186  1.0000
  H   H495      1.0  0.20983  0.31139  0.69386  1.0000
  C   C292      1.0  0.18094  0.44265  0.53888  1.0000
  H   H496      1.0  0.26182  0.31806  0.70710  1.0000
  H   H497      1.0  0.26985  0.28252  0.68809  1.0000
  H   H498      1.0  0.25291  0.25739  0.69272  1.0000
  C   C293      1.0  0.35271  0.07116  0.57627  1.0000
  H   H499      1.0  0.38881  0.15251  0.74323  1.0000
  H   H500      1.0  0.44352  0.18934  0.73851  1.0000
  H   H501      1.0  0.12341  0.45417  0.57910  1.0000
  C   C294      1.0  0.10522  0.38873  0.71877  1.0000
  H   H502      1.0  0.21020  0.26679  0.68298  1.0000
  S   S72       1.0  0.41225  0.14477  0.52116  1.0000
  H   H503      1.0  0.41689  0.13758  0.74757  1.0000
  H   H504      1.0  0.21866  0.33585  0.71461  1.0000
  H   H505      1.0  0.01798  0.44417  0.55870  1.0000
  H   H506      1.0  0.22194  0.42279  0.59934  1.0000
  H   H507      1.0  0.47766  0.20991  0.57572  1.0000
  H   H508      1.0  0.23135  0.36130  0.73868  1.0000
  C   C295      1.0  0.40833  0.15492  0.74243  1.0000
  C   C296      1.0  0.03448  0.43262  0.56131  1.0000
  N   N17       1.0  0.48018  0.19866  0.63367  1.0000
  C   C297      1.0  0.49632  0.21211  0.69866  1.0000
  H   H509      1.0  0.02077  0.40284  0.54908  1.0000
  C   C298      1.0  0.14028  0.33036  0.74637  1.0000
  H   H510      1.0  0.11449  0.33557  0.58609  1.0000
  C   C299      1.0  0.12724  0.39833  0.72673  1.0000
  H   H511      1.0  0.01489  0.40438  0.57364  1.0000
  H   H512      1.0  0.19788  0.38853  0.51846  1.0000
  H   H513      1.0  0.36135  0.11648  0.62952  1.0000
  C   C300      1.0  0.49034  0.02394  0.52197  1.0000
  H   H514      1.0  0.12408  0.43252  0.71314  1.0000
  C   C301      1.0  0.03693  0.32842  0.52090  1.0000
  C   C302      1.0  0.14501  0.46247  0.72958  1.0000
  H   H515      1.0  0.02698  0.36494  0.58990  1.0000
  N   N18       1.0  0.40158  0.09872  0.60416  1.0000
  C   C303      1.0  0.18199  0.41530  0.53668  1.0000
  C   C304      1.0  0.41024  0.13628  0.71111  1.0000
  C   C305      1.0  0.16965  0.47804  0.55659  1.0000
  C   C306      1.0  0.20337  0.42158  0.59492  1.0000
  H   H516      1.0  0.35295  0.05595  0.56698  1.0000
  H   H517      1.0  0.33614  0.20667  0.73484  1.0000
  H   H518      1.0  0.45583  0.14866  0.68434  1.0000
  H   H519      1.0  0.20969  0.30826  0.65372  1.0000
  H   H520      1.0  0.18899  0.48038  0.55796  1.0000
  H   H521      1.0  0.39139  0.24646  0.74104  1.0000
  C   C307      1.0  0.18626  0.46795  0.63313  1.0000
  H   H522      1.0  0.07127  0.33108  0.56934  1.0000
  H   H523      1.0  0.06669  0.32539  0.53867  1.0000
  H   H524      1.0  0.25459  0.35710  0.72105  1.0000
  C   C308      1.0  0.01448  0.40033  0.50773  1.0000
  H   H525      1.0  0.18524  0.25177  0.73636  1.0000
  H   H526      1.0  0.15327  0.48934  0.63513  1.0000
  C   C309      1.0  0.21194  0.41909  0.74093  1.0000
  C   C310      1.0  0.38367  0.23962  0.75444  1.0000
  H   H527      1.0  0.03272  0.33586  0.58176  1.0000
  H   H528      1.0  0.18463  0.30112  0.66907  1.0000
  C   C311      1.0  0.04572  0.35878  0.54444  1.0000
  H   H529      1.0  0.47416  0.02841  0.53089  1.0000
  H   H530      1.0  0.21653  0.41811  0.72591  1.0000
  H   H531      1.0  0.17193  0.42359  0.71972  1.0000
  C   C312      1.0  0.22308  0.27479  0.71927  1.0000
  H   H532      1.0  0.49569  0.19591  0.70716  1.0000
  N   N19       1.0  0.14344  0.43753  0.73794  1.0000
  H   H533      1.0  0.42209  0.12085  0.71600  1.0000
  H   H534      1.0  0.22100  0.31989  0.73677  1.0000
  H   H535      1.0  0.18681  0.46727  0.61782  1.0000
  H   H536      1.0  0.20477  0.46740  0.63812  1.0000
  H   H537      1.0  0.17774  0.45195  0.63902  1.0000
  C   C313      1.0  0.19753  0.40813  0.51975  1.0000
  C   C314      1.0  0.20437  0.48461  0.68732  1.0000
  H   H538      1.0  0.33529  0.13056  0.73957  1.0000
  H   H539      1.0  0.39132  0.13190  0.71315  1.0000
  C   C315      1.0  0.19620  0.28350  0.72090  1.0000
  C   C316      1.0  0.33274  0.19059  0.74292  1.0000
  H   H540      1.0  0.05559  0.39376  0.58065  1.0000
  H   H541      1.0  0.48637  0.17452  0.73716  1.0000
  H   H542      1.0  0.06435  0.35321  0.60058  1.0000
  H   H543      1.0  0.17170  0.48992  0.65476  1.0000
  H   H544      1.0  0.10201  0.39678  0.70471  1.0000
  H   H545      1.0  0.28950  0.27714  0.71721  1.0000
  H   H546      1.0  0.49525  0.21154  0.60740  1.0000
  H   H547      1.0  0.39654  0.03677  0.52830  1.0000
  H   H548      1.0  0.23250  0.47371  0.66784  1.0000
  C   C317      1.0  0.07201  0.35065  0.57038  1.0000
  H   H549      1.0  0.19954  0.44806  0.53951  1.0000
  H   H550      1.0  0.06614  0.39569  0.55719  1.0000
  H   H551      1.0  0.17216  0.49045  0.52727  1.0000
  C   C318      1.0  0.18369  0.27142  0.73748  1.0000
  C   C319      1.0  0.19846  0.43855  0.57820  1.0000
  H   H552      1.0  0.21004  0.40089  0.74706  1.0000
  C   C320      1.0  0.29408  0.24255  0.70606  1.0000
  H   H553      1.0  0.16392  0.40922  0.53486  1.0000
  H   H554      1.0  0.15216  0.46166  0.71501  1.0000
  H   H555      1.0  0.48342  0.25005  0.63418  1.0000
  N   N20       1.0  0.04871  0.36347  0.56458  1.0000
  H   H556      1.0  0.47045  0.13292  0.57769  1.0000
  H   H557      1.0  0.22344  0.25600  0.71499  1.0000
  H   H558      1.0  0.40351  0.17364  0.71555  1.0000
  H   H559      1.0  0.48432  0.17511  0.66972  1.0000
  H   H560      1.0  0.43375  0.16211  0.71891  1.0000
  S   S73       1.0  0.46498  0.09425  0.53027  1.0000
  H   H561      1.0  0.47089  0.13474  0.66474  1.0000
  C   C321      1.0  0.48530  0.19635  0.61319  1.0000
  H   H562      1.0  0.34808  0.08779  0.56794  1.0000
  C   C322      1.0  0.33225  0.14776  0.74565  1.0000
  H   H563      1.0  0.03867  0.30920  0.51789  1.0000
  H   H564      1.0  0.44902  0.10972  0.60264  1.0000
  H   H565      1.0  0.40500  0.20373  0.73490  1.0000
  H   H566      1.0  0.10816  0.36912  0.71765  1.0000
  H   H567      1.0  0.10720  0.47015  0.72219  1.0000
  H   H568      1.0  0.16090  0.48486  0.56956  1.0000
  H   H569      1.0  0.30809  0.23696  0.71610  1.0000
  C   C323      1.0  0.49398  0.15787  0.52296  1.0000
  H   H570      1.0  0.30308  0.24826  0.69282  1.0000
  H   H571      1.0  0.48183  0.16009  0.63666  1.0000
  H   H572      1.0  0.22686  0.42688  0.74764  1.0000
  C   C324      1.0  0.16142  0.49479  0.54003  1.0000
  H   H573      1.0  0.36511  0.23484  0.75244  1.0000
  H   H574      1.0  0.49691  0.15058  0.75276  1.0000
  H   H575      1.0  0.42334  0.02811  0.61925  1.0000
  H   H576      1.0  0.13029  0.38914  0.74030  1.0000
  C   C325      1.0  0.17185  0.49038  0.63936  1.0000
  C   C326      1.0  0.39895  0.19693  0.74885  1.0000
  H   H577      1.0  0.49276  0.04057  0.51336  1.0000
  H   H578      1.0  0.14235  0.49336  0.53715  1.0000
  C   C327      1.0  0.09090  0.49401  0.50950  1.0000
  C   C328      1.0  0.04356  0.25571  0.75009  1.0000
  H   H579      1.0  0.07302  0.49204  0.51518  1.0000
  C   C329      1.0  0.06345  0.24832  0.73605  1.0000
  H   H580      1.0  0.07913  0.25899  0.73743  1.0000
  H   H581      1.0  0.49742  0.18024  0.61066  1.0000
  H   H582      1.0  0.49523  0.03667  0.55908  1.0000
  H   H583      1.0  0.49954  0.20789  0.65740  1.0000
  C   C330      1.0  0.49834  0.25414  0.67709  1.0000
  Fe  Fe37      1.0  0.38494  0.08724  0.50650  1.0000
  H   H584      1.0  0.06656  0.29811  0.96258  1.0000
  N   N21       1.0  0.36868  0.05173  0.94327  1.0000
  C   C331      1.0  0.05996  0.31718  0.96134  1.0000
  H   H585      1.0  0.23632  0.05160  0.78612  1.0000
  H   H586      1.0  0.32947  0.07736  0.92377  1.0000
  N   N22       1.0  0.03448  0.25935  0.78530  1.0000
  Fe  Fe38      1.0  0.37343  0.13514  0.98906  1.0000
  S   S74       1.0  0.34267  0.13950  0.96883  1.0000
  S   S75       1.0  0.41235  0.12572  0.98274  1.0000
  Fe  Fe39      1.0  0.31080  0.13549  0.86064  1.0000
  S   S76       1.0  0.27743  0.11622  0.86606  1.0000
  S   S77       1.0  0.34039  0.14189  0.88047  1.0000
  Fe  Fe40      1.0  0.29877  0.14768  0.81915  1.0000
  S   S78       1.0  0.26446  0.12904  0.82199  1.0000
  S   S79       1.0  0.30968  0.17421  0.79580  1.0000
  Fe  Fe41      1.0  0.25859  0.14674  0.84943  1.0000
  S   S80       1.0  0.22804  0.17089  0.86204  1.0000
  Fe  Fe42      1.0  0.28593  0.09988  0.83832  1.0000
  S   S81       1.0  0.29210  0.05985  0.83259  1.0000
  S   S82       1.0  0.29174  0.16649  0.84579  1.0000
  S   S83       1.0  0.32054  0.11800  0.83374  1.0000
  N   N23       1.0  0.03901  0.32053  0.94876  1.0000
  C   C332      1.0  0.34722  0.07563  0.91653  1.0000
  H   H587      1.0  0.26554  0.06169  0.78949  1.0000
  C   C333      1.0  0.26500  0.02337  0.78751  1.0000
  C   C334      1.0  0.29288  0.01084  0.83486  1.0000
  H   H588      1.0  0.18072  0.23879  0.80780  1.0000
  Fe  Fe43      1.0  0.09000  0.39801  0.98377  1.0000
  S   S84       1.0  0.08118  0.38826  0.95439  1.0000
  S   S85       1.0  0.07714  0.43589  0.98963  1.0000
  Fe  Fe44      1.0  0.12048  0.26816  0.83747  1.0000
  S   S86       1.0  0.14375  0.29681  0.84436  1.0000
  S   S87       1.0  0.13623  0.23093  0.83028  1.0000
  Fe  Fe45      1.0  0.07579  0.30354  0.83560  1.0000
  S   S88       1.0  0.09722  0.33453  0.84208  1.0000
  S   S89       1.0  0.03646  0.31349  0.82885  1.0000
  Fe  Fe46      1.0  0.12536  0.31916  0.82183  1.0000
  S   S90       1.0  0.14941  0.34015  0.80151  1.0000
  Fe  Fe47      1.0  0.11369  0.30949  0.86392  1.0000
  S   S91       1.0  0.12386  0.31600  0.89361  1.0000
  S   S92       1.0  0.10312  0.29000  0.81403  1.0000
  S   S93       1.0  0.09112  0.27907  0.85835  1.0000
  C   C335      1.0  0.15237  0.34086  0.77683  1.0000
  H   H589      1.0  0.07617  0.29774  0.90010  1.0000
  H   H590      1.0  0.26750  0.02421  0.77225  1.0000
  C   C336      1.0  0.24789  0.00866  0.85208  1.0000
  H   H591      1.0  0.12326  0.31924  0.77243  1.0000
  C   C337      1.0  0.38249  0.16312  0.77976  1.0000
  H   H592      1.0  0.28292  0.02128  0.79358  1.0000
  H   H593      1.0  0.05034  0.34067  0.77457  1.0000
  H   H594      1.0  0.02036  0.27100  0.84978  1.0000
  H   H595      1.0  0.11656  0.43096  0.79359  1.0000
  C   C338      1.0  0.09454  0.36903  0.93741  1.0000
  C   C339      1.0  0.08507  0.37012  0.91961  1.0000
  C   C340      1.0  0.09398  0.35432  0.90595  1.0000
  C   C341      1.0  0.11242  0.33705  0.90998  1.0000
  C   C342      1.0  0.12197  0.33607  0.92774  1.0000
  C   C343      1.0  0.11320  0.35201  0.94135  1.0000
  H   H596      1.0  0.07075  0.38332  0.91637  1.0000
  H   H597      1.0  0.08655  0.35543  0.89234  1.0000
  H   H598      1.0  0.13630  0.32287  0.93100  1.0000
  H   H599      1.0  0.12069  0.35092  0.95494  1.0000
  C   C344      1.0  0.40677  0.03685  0.99963  1.0000
  H   H600      1.0  0.33335  0.08957  0.95176  1.0000
  C   C345      1.0  0.34692  0.05204  0.95634  1.0000
  H   H601      1.0  0.01631  0.34908  0.96056  1.0000
  S   S94       1.0  0.42669  0.05944  0.99799  1.0000
  C   C346      1.0  0.34282  0.07510  0.89583  1.0000
  H   H602      1.0  0.14228  0.25121  0.79203  1.0000
  C   C347      1.0  0.20315  0.18788  0.85250  1.0000
  C   C348      1.0  0.19372  0.18274  0.83563  1.0000
  C   C349      1.0  0.17318  0.19597  0.82915  1.0000
  C   C350      1.0  0.16209  0.21483  0.83920  1.0000
  C   C351      1.0  0.17179  0.22025  0.85591  1.0000
  C   C352      1.0  0.19205  0.20671  0.86257  1.0000
  H   H603      1.0  0.20191  0.16820  0.82780  1.0000
  H   H604      1.0  0.16579  0.19150  0.81627  1.0000
  H   H605      1.0  0.16338  0.23454  0.86390  1.0000
  H   H606      1.0  0.19898  0.21071  0.87573  1.0000
  H   H607      1.0  0.31600  0.06171  0.98659  1.0000
  C   C353      1.0  0.31969  0.17121  0.77229  1.0000
  H   H608      1.0  0.03857  0.21902  0.81125  1.0000
  H   H609      1.0  0.28678  0.00892  0.88373  1.0000
  C   C354      1.0  0.01299  0.24479  0.78512  1.0000
  H   H610      1.0  0.37720  0.04931  0.91391  1.0000
  C   C355      1.0  0.04629  0.30285  0.77919  1.0000
  C   C356      1.0  0.27984  0.03226  0.83933  1.0000
  C   C357      1.0  0.25730  0.03100  0.84810  1.0000
  C   C358      1.0  0.17266  0.27292  0.79369  1.0000
  H   H611      1.0  0.23586  0.22389  0.78902  1.0000
  H   H612      1.0  0.24694  0.04725  0.85150  1.0000
  C   C359      1.0  0.34301  0.13866  0.94426  1.0000
  C   C360      1.0  0.32186  0.13428  0.93554  1.0000
  C   C361      1.0  0.32102  0.13417  0.91607  1.0000
  C   C362      1.0  0.34109  0.13945  0.90504  1.0000
  C   C363      1.0  0.36229  0.14365  0.91374  1.0000
  C   C364      1.0  0.36335  0.14299  0.93323  1.0000
  H   H613      1.0  0.30605  0.13080  0.94395  1.0000
  H   H614      1.0  0.30477  0.13044  0.90956  1.0000
  H   H615      1.0  0.37795  0.14770  0.90535  1.0000
  H   H616      1.0  0.37965  0.14667  0.93970  1.0000
  N   N24       1.0  0.21100  0.25923  0.81148  1.0000
  H   H617      1.0  0.12095  0.40578  0.76621  1.0000
  C   C365      1.0  0.06034  0.28894  0.92734  1.0000
  H   H618      1.0  0.36025  0.15383  0.80379  1.0000
  C   C366      1.0  0.24963  0.00264  0.79445  1.0000
  H   H619      1.0  0.04421  0.35800  0.95170  1.0000
  C   C367      1.0  0.00863  0.48960  0.99699  1.0000
  N   N25       1.0  0.28354  0.20424  0.90286  1.0000
  C   C368      1.0  0.27190  0.18191  0.89857  1.0000
  C   C369      1.0  0.29644  0.21335  0.88555  1.0000
  C   C370      1.0  0.30222  0.19723  0.91698  1.0000
  C   C371      1.0  0.26599  0.22323  0.91057  1.0000
  C   C372      1.0  0.24010  0.22458  0.90339  1.0000
  C   C373      1.0  0.26064  0.16831  0.91552  1.0000
  C   C374      1.0  0.31756  0.21723  0.92293  1.0000
  C   C375      1.0  0.28079  0.22246  0.86919  1.0000
  C   C376      1.0  0.29623  0.22961  0.85225  1.0000
  C   C377      1.0  0.22613  0.24771  0.90869  1.0000
  C   C378      1.0  0.24271  0.15121  0.90966  1.0000
  C   C379      1.0  0.33275  0.20868  0.93936  1.0000
  H   H620      1.0  0.28510  0.16908  0.89170  1.0000
  H   H621      1.0  0.25795  0.18578  0.88830  1.0000
  H   H622      1.0  0.30677  0.22870  0.88857  1.0000
  H   H623      1.0  0.30977  0.19923  0.88043  1.0000
  H   H624      1.0  0.31485  0.18275  0.91170  1.0000
  H   H625      1.0  0.29378  0.18989  0.92996  1.0000
  H   H626      1.0  0.26404  0.22090  0.92593  1.0000
  H   H627      1.0  0.27317  0.24107  0.90811  1.0000
  H   H628      1.0  0.23019  0.20965  0.90953  1.0000
  H   H629      1.0  0.23955  0.22341  0.88822  1.0000
  H   H630      1.0  0.27477  0.15760  0.92308  1.0000
  H   H631      1.0  0.25150  0.18060  0.92549  1.0000
  H   H632      1.0  0.30621  0.23319  0.92704  1.0000
  H   H633      1.0  0.33017  0.22245  0.91154  1.0000
  H   H634      1.0  0.26911  0.20877  0.86498  1.0000
  H   H635      1.0  0.26966  0.23869  0.87300  1.0000
  H   H636      1.0  0.28463  0.23504  0.84049  1.0000
  H   H637      1.0  0.30679  0.24480  0.85531  1.0000
  H   H638      1.0  0.30869  0.21448  0.84796  1.0000
  H   H639      1.0  0.23473  0.26334  0.90225  1.0000
  H   H640      1.0  0.20766  0.24795  0.90367  1.0000
  H   H641      1.0  0.22510  0.24915  0.92397  1.0000
  H   H642      1.0  0.25119  0.13866  0.89955  1.0000
  H   H643      1.0  0.23616  0.14076  0.92195  1.0000
  H   H644      1.0  0.22715  0.16125  0.90329  1.0000
  H   H645      1.0  0.34504  0.19316  0.93562  1.0000
  H   H646      1.0  0.34365  0.22317  0.94337  1.0000
  H   H647      1.0  0.32129  0.20344  0.95152  1.0000
  H   H648      1.0  0.03199  0.49574  0.97249  1.0000
  C   C380      1.0  0.02011  0.30454  0.95611  1.0000
  C   C381      1.0  0.40897  0.16719  0.77443  1.0000
  C   C382      1.0  0.24801  0.29264  0.77292  1.0000
  H   H649      1.0  0.39165  0.02853  0.96069  1.0000
  H   H650      1.0  0.03533  0.26453  0.81473  1.0000
  H   H651      1.0  0.14877  0.42924  0.79534  1.0000
  H   H652      1.0  0.00303  0.24904  0.77225  1.0000
  C   C383      1.0  0.00640  0.38238  0.93434  1.0000
  H   H653      1.0  0.38306  0.25409  0.76442  1.0000
  H   H654      1.0  0.07073  0.21077  0.83334  1.0000
  C   C384      1.0  0.02963  0.34641  0.94894  1.0000
  H   H655      1.0  0.33354  0.05908  0.89265  1.0000
  H   H656      1.0  0.07516  0.32689  0.95521  1.0000
  H   H657      1.0  0.00515  0.34669  0.92549  1.0000
  H   H658      1.0  0.33216  0.04323  0.95016  1.0000
  H   H659      1.0  0.01856  0.22545  0.78467  1.0000
  H   H660      1.0  0.01396  0.28795  0.77069  1.0000
  H   H661      1.0  0.02481  0.33383  0.78910  1.0000
  C   C385      1.0  0.37473  0.00096  0.00347  1.0000
  C   C386      1.0  0.05408  0.23016  0.81004  1.0000
  C   C387      1.0  0.32424  0.19192  0.76149  1.0000
  H   H662      1.0  0.25015  0.00187  0.80985  1.0000
  H   H663      1.0  0.35995  0.07529  0.88764  1.0000
  H   H664      1.0  0.14857  0.45122  0.76488  1.0000
  H   H665      1.0  0.39855  0.02657  0.93657  1.0000
  C   C388      1.0  0.38345  0.02857  0.94688  1.0000
  C   C389      1.0  0.23784  0.27097  0.78296  1.0000
  H   H666      1.0  0.05755  0.29873  0.76667  1.0000
  H   H667      1.0  0.02277  0.34547  0.87031  1.0000
  H   H668      1.0  0.18148  0.28624  0.78455  1.0000
  C   C390      1.0  0.06522  0.22946  0.82902  1.0000
  C   C391      1.0  0.22665  0.23729  0.81712  1.0000
  C   C392      1.0  0.17034  0.35388  0.76795  1.0000
  C   C393      1.0  0.22541  0.27781  0.80160  1.0000
  H   H669      1.0  0.32126  0.20913  0.76756  1.0000
  C   C394      1.0  0.21721  0.27340  0.84473  1.0000
  C   C395      1.0  0.23068  0.21719  0.80307  1.0000
  C   C396      1.0  0.25014  0.19857  0.80938  1.0000
  H   H670      1.0  0.21413  0.29469  0.79931  1.0000
  C   C397      1.0  0.20379  0.28459  0.86133  1.0000
  H   H671      1.0  0.24951  0.03213  0.89103  1.0000
  H   H672      1.0  0.24544  0.19070  0.82327  1.0000
  H   H673      1.0  0.24443  0.24245  0.82118  1.0000
  H   H674      1.0  0.21868  0.22824  0.82965  1.0000
  C   C398      1.0  0.37920  0.15729  0.80049  1.0000
  H   H675      1.0  0.19105  0.28790  0.82563  1.0000
  H   H676      1.0  0.08704  0.30506  0.99199  1.0000
  H   H677      1.0  0.23989  0.28266  0.81046  1.0000
  C   C399      1.0  0.03570  0.32847  0.77662  1.0000
  C   C400      1.0  0.19995  0.26999  0.82888  1.0000
  H   H678      1.0  0.23136  0.28526  0.84007  1.0000
  H   H679      1.0  0.22588  0.25616  0.84984  1.0000
  H   H680      1.0  0.45712  0.14997  0.76836  1.0000
  H   H681      1.0  0.05221  0.23688  0.83958  1.0000
  H   H682      1.0  0.26755  0.20666  0.80994  1.0000
  H   H683      1.0  0.03026  0.40595  0.99254  1.0000
  H   H684      1.0  0.23080  0.00825  0.79119  1.0000
  H   H685      1.0  0.29940  0.06821  0.96573  1.0000
  C   C401      1.0  0.36135  0.05259  0.92340  1.0000
  H   H686      1.0  0.01318  0.31568  0.87177  1.0000
  H   H687      1.0  0.18976  0.27302  0.86692  1.0000
  C   C402      1.0  0.27460  0.00134  0.89457  1.0000
  H   H688      1.0  0.18562  0.25896  0.83479  1.0000
  H   H689      1.0  0.18570  0.43602  0.75913  1.0000
  C   C403      1.0  0.13341  0.42006  0.79056  1.0000
  C   C404      1.0  0.02628  0.28532  0.78241  1.0000
  H   H690      1.0  0.04834  0.28359  0.89954  1.0000
  Fe  Fe48      1.0  0.40894  0.09580  0.00394  1.0000
  H   H691      1.0  0.01551  0.33185  0.89259  1.0000
  H   H692      1.0  0.34971  0.03797  0.92106  1.0000
  H   H693      1.0  0.04793  0.34410  0.98194  1.0000
  C   C405      1.0  0.01455  0.48821  0.97591  1.0000
  H   H694      1.0  0.14053  0.27827  0.77787  1.0000
  H   H695      1.0  0.06138  0.32699  0.92449  1.0000
  H   H696      1.0  0.00146  0.30066  0.93012  1.0000
  H   H697      1.0  0.19769  0.24363  0.78723  1.0000
  H   H698      1.0  0.02201  0.46170  0.95512  1.0000
  H   H699      1.0  0.19533  0.30242  0.85732  1.0000
  H   H700      1.0  0.07781  0.28730  0.93414  1.0000
  H   H701      1.0  0.24975  0.04738  0.80846  1.0000
  H   H702      1.0  0.21640  0.28682  0.87246  1.0000
  C   C406      1.0  0.00798  0.30182  0.83332  1.0000
  C   C407      1.0  0.01643  0.46241  0.96998  1.0000
  C   C408      1.0  0.41537  0.01294  0.00132  1.0000
  H   H703      1.0  0.30707  0.09207  0.97972  1.0000
  H   H704      1.0  0.06761  0.22190  0.80028  1.0000
  C   C409      1.0  0.04810  0.31426  0.92954  1.0000
  H   H705      1.0  0.46506  0.00573  0.97528  1.0000
  C   C410      1.0  0.38412  0.07176  0.94707  1.0000
  C   C411      1.0  0.25335  0.04742  0.79326  1.0000
  C   C412      1.0  0.40682  0.07388  0.93435  1.0000
  C   C413      1.0  0.33675  0.07650  0.96332  1.0000
  C   C414      1.0  0.31334  0.07435  0.97451  1.0000
  C   C415      1.0  0.42127  0.09412  0.94007  1.0000
  H   H706      1.0  0.38983  0.07005  0.96172  1.0000
  H   H707      1.0  0.37400  0.08938  0.94583  1.0000
  H   H708      1.0  0.35093  0.04134  0.96921  1.0000
  C   C416      1.0  0.06530  0.28391  0.90690  1.0000
  H   H709      1.0  0.35700  0.09158  0.91875  1.0000
  H   H710      1.0  0.41887  0.05746  0.93511  1.0000
  H   H711      1.0  0.40191  0.07774  0.91976  1.0000
  H   H712      1.0  0.34957  0.08378  0.97253  1.0000
  H   H713      1.0  0.38375  0.17249  0.80863  1.0000
  H   H714      1.0  0.41927  0.15012  0.77798  1.0000
  H   H715      1.0  0.43689  0.09593  0.93036  1.0000
  H   H716      1.0  0.41022  0.11128  0.93978  1.0000
  H   H717      1.0  0.42796  0.09027  0.95423  1.0000
  H   H718      1.0  0.02501  0.48176  0.00384  1.0000
  H   H719      1.0  0.48775  0.02438  0.99386  1.0000
  S   S95       1.0  0.12392  0.40006  0.99926  1.0000
  H   H720      1.0  0.22543  0.26365  0.77352  1.0000
  H   H721      1.0  0.06318  0.26577  0.80302  1.0000
  H   H722      1.0  0.33134  0.09107  0.89146  1.0000
  H   H723      1.0  0.07542  0.26636  0.90562  1.0000
  C   C417      1.0  0.39902  0.21808  0.76188  1.0000
  H   H724      1.0  0.21399  0.20793  0.80203  1.0000
  H   H725      1.0  0.03365  0.31640  0.91955  1.0000
  H   H726      1.0  0.31027  0.01156  0.82798  1.0000
  H   H727      1.0  0.00258  0.24330  0.81491  1.0000
  H   H728      1.0  0.18213  0.36303  0.77624  1.0000
  H   H729      1.0  0.03275  0.35992  0.92007  1.0000
  H   H730      1.0  0.32035  0.13301  0.77234  1.0000
  H   H731      1.0  0.36275  0.00345  0.93249  1.0000
  C   C418      1.0  0.01852  0.35771  0.93098  1.0000
  H   H732      1.0  0.41533  0.18024  0.78391  1.0000
  C   C419      1.0  0.25907  0.02216  0.90243  1.0000
  H   H733      1.0  0.25223  0.18400  0.79946  1.0000
  H   H734      1.0  0.04906  0.27500  0.93332  1.0000
  C   C420      1.0  0.19089  0.25242  0.79997  1.0000
  H   H735      1.0  0.39052  0.14111  0.80466  1.0000
  H   H736      1.0  0.37055  0.17908  0.77639  1.0000
  H   H737      1.0  0.05801  0.30223  0.79119  1.0000
  H   H738      1.0  0.02767  0.28584  0.95795  1.0000
  H   H739      1.0  0.27025  0.03456  0.90913  1.0000
  H   H740      1.0  0.16025  0.25336  0.77088  1.0000
  H   H741      1.0  0.16394  0.28208  0.80567  1.0000
  H   H742      1.0  0.49865  0.17524  0.94447  1.0000
  C   C421      1.0  0.15279  0.26329  0.78293  1.0000
  S   S96       1.0  0.13098  0.46932  0.00478  1.0000
  H   H743      1.0  0.25795  0.28701  0.76012  1.0000
  C   C422      1.0  0.13733  0.32909  0.76588  1.0000
  H   H744      1.0  0.08134  0.23983  0.82848  1.0000
  H   H745      1.0  0.02436  0.33040  0.76433  1.0000
  C   C423      1.0  0.01180  0.40569  0.99717  1.0000
  H   H746      1.0  0.15308  0.40425  0.76793  1.0000
  H   H747      1.0  0.06932  0.25952  0.77138  1.0000
  H   H748      1.0  0.24556  0.01557  0.91266  1.0000
  H   H749      1.0  0.13275  0.40271  0.79845  1.0000
  C   C424      1.0  0.04663  0.25615  0.80356  1.0000
  C   C425      1.0  0.36625  0.02475  0.00171  1.0000
  H   H750      1.0  0.09134  0.33593  0.98551  1.0000
  H   H751      1.0  0.25307  0.25772  0.78552  1.0000
  H   H752      1.0  0.23032  0.00796  0.85867  1.0000
  C   C426      1.0  0.13637  0.41565  0.76988  1.0000
  H   H753      1.0  0.05658  0.23175  0.77184  1.0000
  H   H754      1.0  0.01546  0.29159  0.79466  1.0000
  C   C427      1.0  0.37012  0.00537  0.94629  1.0000
  C   C428      1.0  0.05205  0.25125  0.77019  1.0000
  C   C429      1.0  0.01058  0.33345  0.87790  1.0000
  H   H755      1.0  0.01380  0.30968  0.97023  1.0000
  H   H756      1.0  0.37641  0.14793  0.77237  1.0000
  H   H757      1.0  0.44434  0.19308  0.76251  1.0000
  H   H758      1.0  0.37546  0.06062  0.99708  1.0000
  H   H759      1.0  0.23338  0.30608  0.76909  1.0000
  H   H760      1.0  0.48779  0.17935  0.76165  1.0000
  C   C430      1.0  0.32373  0.14909  0.76424  1.0000
  C   C431      1.0  0.00505  0.28056  0.84363  1.0000
  H   H761      1.0  0.26056  0.30091  0.78180  1.0000
  H   H762      1.0  0.34724  0.02938  0.00178  1.0000
  H   H763      1.0  0.02986  0.45159  0.97817  1.0000
  C   C432      1.0  0.07862  0.32351  0.99197  1.0000
  H   H764      1.0  0.41735  0.22372  0.76321  1.0000
  C   C433      1.0  0.05538  0.32534  0.98151  1.0000
  H   H765      1.0  0.00371  0.38088  0.97712  1.0000
  H   H766      1.0  0.35528  0.00494  0.95685  1.0000
  H   H767      1.0  0.01932  0.39417  0.93979  1.0000
  H   H768      1.0  0.43434  0.00841  0.00146  1.0000
  H   H769      1.0  0.39167  0.21332  0.77589  1.0000
  H   H770      1.0  0.04280  0.31389  0.98920  1.0000
  C   C434      1.0  0.38223  0.04257  0.99943  1.0000
  H   H771      1.0  0.49960  0.18600  0.96745  1.0000
  H   H772      1.0  0.11846  0.44822  0.76005  1.0000
  H   H773      1.0  0.00104  0.49822  0.96737  1.0000
  C   C435      1.0  0.49228  0.01243  0.00608  1.0000
  C   C436      1.0  0.13668  0.43938  0.75824  1.0000
  H   H774      1.0  0.30338  0.99903  0.91365  1.0000
  C   C437      1.0  0.09870  0.54326  0.02092  1.0000
  H   H775      1.0  0.03290  0.75153  0.13136  1.0000
  Fe  Fe49      1.0  0.37826  0.89580  0.02604  1.0000
  S   S97       1.0  0.37444  0.87671  0.05444  1.0000
  H   H776      1.0  0.26889  0.85281  0.04429  1.0000
  Fe  Fe50      1.0  0.31597  0.88108  0.19452  1.0000
  S   S98       1.0  0.28127  0.89596  0.20672  1.0000
  S   S99       1.0  0.34316  0.85892  0.21230  1.0000
  Fe  Fe51      1.0  0.30246  0.89915  0.15508  1.0000
  S   S100      1.0  0.26627  0.91445  0.16553  1.0000
  S   S101      1.0  0.30820  0.90933  0.12415  1.0000
  Fe  Fe52      1.0  0.28634  0.92885  0.18842  1.0000
  S   S102      1.0  0.27816  0.96482  0.20211  1.0000
  Fe  Fe53      1.0  0.26423  0.88028  0.18274  1.0000
  S   S103      1.0  0.23108  0.86056  0.19204  1.0000
  S   S104      1.0  0.32251  0.91495  0.17759  1.0000
  S   S105      1.0  0.29894  0.86393  0.17100  1.0000
  Fe  Fe54      1.0  0.10525  0.65747  0.03309  1.0000
  S   S106      1.0  0.11037  0.68501  0.05475  1.0000
  S   S107      1.0  0.07273  0.63657  0.03352  1.0000
  Fe  Fe55      1.0  0.14098  0.76011  0.16829  1.0000
  S   S108      1.0  0.15477  0.72264  0.17616  1.0000
  S   S109      1.0  0.16681  0.78669  0.15540  1.0000
  Fe  Fe56      1.0  0.08825  0.74783  0.17666  1.0000
  S   S110      1.0  0.09915  0.71019  0.18608  1.0000
  S   S111      1.0  0.04995  0.76352  0.17231  1.0000
  Fe  Fe57      1.0  0.12903  0.72568  0.20068  1.0000
  S   S112      1.0  0.14321  0.72042  0.22997  1.0000
  Fe  Fe58      1.0  0.12391  0.71061  0.16073  1.0000
  S   S113      1.0  0.12630  0.67912  0.14177  1.0000
  S   S114      1.0  0.11609  0.76377  0.19320  1.0000
  S   S115      1.0  0.11212  0.74756  0.15088  1.0000
  C   C438      1.0  0.15378  0.69454  0.24289  1.0000
  H   H777      1.0  0.25897  0.73078  0.23428  1.0000
  C   C439      1.0  0.18141  0.98433  0.20708  1.0000
  H   H778      1.0  0.13305  0.67006  0.22958  1.0000
  H   H779      1.0  0.18546  0.99491  0.19419  1.0000
  H   H780      1.0  0.09841  0.69858  0.24965  1.0000
  C   C440      1.0  0.02198  0.75056  0.17541  1.0000
  C   C441      1.0  0.18744  0.50814  0.04322  1.0000
  C   C442      1.0  0.05852  0.66748  0.10876  1.0000
  H   H781      1.0  0.03498  0.71953  0.19129  1.0000
  C   C443      1.0  0.11388  0.68252  0.07905  1.0000
  C   C444      1.0  0.11177  0.70343  0.08911  1.0000
  C   C445      1.0  0.11483  0.70258  0.10837  1.0000
  C   C446      1.0  0.12052  0.68084  0.11778  1.0000
  C   C447      1.0  0.12238  0.65988  0.10777  1.0000
  C   C448      1.0  0.11899  0.66068  0.08851  1.0000
  H   H782      1.0  0.10766  0.72039  0.08193  1.0000
  H   H783      1.0  0.11287  0.71878  0.11590  1.0000
  H   H784      1.0  0.12673  0.64294  0.11491  1.0000
  H   H785      1.0  0.12070  0.64446  0.08095  1.0000
  C   C449      1.0  0.04973  0.69475  0.14376  1.0000
  H   H786      1.0  0.00551  0.53274  0.02931  1.0000
  H   H787      1.0  0.22781  0.75594  0.07062  1.0000
  H   H788      1.0  0.06319  0.77903  0.12052  1.0000
  C   C450      1.0  0.21469  0.83883  0.18175  1.0000
  C   C451      1.0  0.19742  0.82716  0.19268  1.0000
  C   C452      1.0  0.18306  0.81075  0.18502  1.0000
  C   C453      1.0  0.18549  0.80604  0.16617  1.0000
  C   C454      1.0  0.20288  0.81759  0.15526  1.0000
  C   C455      1.0  0.21749  0.83373  0.16299  1.0000
  H   H789      1.0  0.19493  0.83100  0.20717  1.0000
  H   H790      1.0  0.16974  0.80214  0.19361  1.0000
  H   H791      1.0  0.20491  0.81421  0.14067  1.0000
  H   H792      1.0  0.23052  0.84264  0.15434  1.0000
  C   C456      1.0  0.34355  0.85484  0.23690  1.0000
  H   H793      1.0  0.32103  0.82179  0.05023  1.0000
  C   C457      1.0  0.05031  0.74396  0.12573  1.0000
  H   H794      1.0  0.37267  0.82780  0.23591  1.0000
  H   H795      1.0  0.31487  0.88104  0.24285  1.0000
  H   H796      1.0  0.22443  0.97398  0.19462  1.0000
  H   H797      1.0  0.25228  0.74028  0.08273  1.0000
  H   H798      1.0  0.15879  0.90055  0.16988  1.0000
  C   C458      1.0  0.35711  0.88687  0.07409  1.0000
  C   C459      1.0  0.35768  0.87299  0.09075  1.0000
  C   C460      1.0  0.34324  0.87971  0.10635  1.0000
  C   C461      1.0  0.32788  0.90038  0.10541  1.0000
  C   C462      1.0  0.32743  0.91431  0.08876  1.0000
  C   C463      1.0  0.34209  0.90777  0.07327  1.0000
  H   H799      1.0  0.36931  0.85685  0.09160  1.0000
  H   H800      1.0  0.34382  0.86879  0.11903  1.0000
  H   H801      1.0  0.31565  0.93034  0.08786  1.0000
  H   H802      1.0  0.34153  0.91875  0.06063  1.0000
  H   H803      1.0  0.23371  0.75374  0.11277  1.0000
  C   C464      1.0  0.03425  0.68035  0.11471  1.0000
  C   C465      1.0  0.22234  0.75304  0.10062  1.0000
  N   N26       1.0  0.19021  0.72622  0.11586  1.0000
  C   C466      1.0  0.19424  0.73872  0.13338  1.0000
  C   C467      1.0  0.16614  0.73517  0.10873  1.0000
  C   C468      1.0  0.18893  0.69998  0.12088  1.0000
  C   C469      1.0  0.20983  0.72927  0.10124  1.0000
  S   S116      1.0  0.40166  0.92640  0.02077  1.0000
  C   C470      1.0  0.21565  0.72844  0.14486  1.0000
  C   C471      1.0  0.18367  0.68385  0.10485  1.0000
  C   C472      1.0  0.16264  0.76197  0.10312  1.0000
  C   C473      1.0  0.13663  0.76891  0.09860  1.0000
  C   C474      1.0  0.22206  0.74587  0.15919  1.0000
  C   C475      1.0  0.18572  0.65756  0.11116  1.0000
  H   H804      1.0  0.17808  0.73837  0.14272  1.0000
  H   H805      1.0  0.19645  0.75792  0.13050  1.0000
  H   H806      1.0  0.16205  0.72582  0.09616  1.0000
  H   H807      1.0  0.15195  0.73111  0.11937  1.0000
  H   H808      1.0  0.17513  0.69735  0.13217  1.0000
  H   H809      1.0  0.20615  0.69239  0.12646  1.0000
  H   H810      1.0  0.22442  0.71495  0.10296  1.0000
  H   H811      1.0  0.05566  0.68232  0.18147  1.0000
  H   H812      1.0  0.20835  0.56081  0.24539  1.0000
  H   H813      1.0  0.21091  0.71183  0.15256  1.0000
  H   H814      1.0  0.23166  0.72417  0.13584  1.0000
  H   H815      1.0  0.19630  0.68627  0.09287  1.0000
  H   H816      1.0  0.16529  0.68777  0.10004  1.0000
  H   H817      1.0  0.16728  0.77345  0.11430  1.0000
  C   C476      1.0  0.05767  0.66733  0.17196  1.0000
  C   C477      1.0  0.47821  0.90242  0.01150  1.0000
  H   H818      1.0  0.13466  0.78806  0.09419  1.0000
  H   H819      1.0  0.13093  0.75824  0.08721  1.0000
  H   H820      1.0  0.22736  0.76281  0.15231  1.0000
  H   H821      1.0  0.20657  0.74985  0.16886  1.0000
  H   H822      1.0  0.23719  0.73794  0.16736  1.0000
  H   H823      1.0  0.18087  0.64653  0.09970  1.0000
  H   H824      1.0  0.20426  0.65194  0.11507  1.0000
  H   H825      1.0  0.17330  0.65430  0.12319  1.0000
  H   H826      1.0  0.27916  0.93606  0.02589  1.0000
  C   C478      1.0  0.26563  0.79085  0.24154  1.0000
  H   H827      1.0  0.00224  0.65032  0.08690  1.0000
  H   H828      1.0  0.20287  0.72692  0.08726  1.0000
  H   H829      1.0  0.06846  0.67911  0.09893  1.0000
  H   H830      1.0  0.15346  0.98588  0.22887  1.0000
  C   C479      1.0  0.32322  0.85372  0.02072  1.0000
  H   H831      1.0  0.31420  0.80572  0.08205  1.0000
  C   C480      1.0  0.06095  0.76283  0.11272  1.0000
  H   H832      1.0  0.37610  0.94950  0.05664  1.0000
  H   H833      1.0  0.31861  0.81276  0.25381  1.0000
  H   H834      1.0  0.33680  0.82561  0.08718  1.0000
  H   H835      1.0  0.33730  0.84660  0.05445  1.0000
  H   H836      1.0  0.30894  0.82641  0.10036  1.0000
  H   H837      1.0  0.29252  0.88222  0.05626  1.0000
  C   C481      1.0  0.36977  0.98796  0.05678  1.0000
  H   H838      1.0  0.48466  0.98461  0.03699  1.0000
  C   C482      1.0  0.21452  0.93188  0.21400  1.0000
  H   H839      1.0  0.23846  0.63727  0.24206  1.0000
  C   C483      1.0  0.24739  0.84028  0.01458  1.0000
  H   H840      1.0  0.04256  0.54255  0.00933  1.0000
  H   H841      1.0  0.00076  0.69473  0.13879  1.0000
  H   H842      1.0  0.30716  0.92948  0.03695  1.0000
  C   C484      1.0  0.22199  0.94862  0.22883  1.0000
  C   C485      1.0  0.23749  0.93500  0.24323  1.0000
  H   H843      1.0  0.23557  0.85269  0.02293  1.0000
  H   H844      1.0  0.19379  0.97546  0.16728  1.0000
  H   H845      1.0  0.15011  0.50730  0.04921  1.0000
  H   H846      1.0  0.01827  0.64984  0.05842  1.0000
  N   N27       1.0  0.20247  0.94360  0.19730  1.0000
  H   H847      1.0  0.20266  0.91956  0.22160  1.0000
  H   H848      1.0  0.23065  0.92061  0.20942  1.0000
  C   C486      1.0  0.01054  0.70994  0.13282  1.0000
  H   H849      1.0  0.04611  0.70765  0.05412  1.0000
  H   H850      1.0  0.18582  0.50670  0.02804  1.0000
  C   C487      1.0  0.15788  0.99511  0.21541  1.0000
  H   H851      1.0  0.35809  0.95993  0.07616  1.0000
  H   H852      1.0  0.20832  0.62814  0.24336  1.0000
  C   C488      1.0  0.22505  0.62833  0.25105  1.0000
  H   H853      1.0  0.23266  0.87809  0.23562  1.0000
  H   H854      1.0  0.39001  0.96295  0.07519  1.0000
  H   H855      1.0  0.19040  0.89289  0.20366  1.0000
  H   H856      1.0  0.23240  0.96317  0.22280  1.0000
  H   H857      1.0  0.20586  0.95641  0.23631  1.0000
  H   H858      1.0  0.01372  0.65841  0.03504  1.0000
  H   H859      1.0  0.25433  0.92740  0.23657  1.0000
  H   H860      1.0  0.18738  0.93158  0.17251  1.0000
  H   H861      1.0  0.30884  0.86033  0.07849  1.0000
  C   C489      1.0  0.22109  0.55104  0.25497  1.0000
  H   H862      1.0  0.21332  0.91415  0.17976  1.0000
  C   C490      1.0  0.04140  0.68955  0.05079  1.0000
  C   C491      1.0  0.27996  0.99469  0.19312  1.0000
  C   C492      1.0  0.36021  0.83786  0.24484  1.0000
  H   H863      1.0  0.23880  0.55130  0.24750  1.0000
  H   H864      1.0  0.18616  0.88161  0.17061  1.0000
  C   C493      1.0  0.18028  0.90508  0.19383  1.0000
  H   H865      1.0  0.23882  0.59328  0.24355  1.0000
  H   H866      1.0  0.35403  0.98695  0.04812  1.0000
  C   C494      1.0  0.30641  0.84274  0.07272  1.0000
  H   H867      1.0  0.46178  0.90019  0.01949  1.0000
  H   H868      1.0  0.24225  0.94734  0.25383  1.0000
  H   H869      1.0  0.04358  0.65642  0.14698  1.0000
  H   H870      1.0  0.20893  0.52282  0.22657  1.0000
  H   H871      1.0  0.18718  0.52732  0.04624  1.0000
  S   S117      1.0  0.34713  0.91333  0.01114  1.0000
  C   C495      1.0  0.30291  0.88067  0.04295  1.0000
  C   C496      1.0  0.31885  0.84103  0.05322  1.0000
  H   H872      1.0  0.22777  0.92046  0.25023  1.0000
  N   N28       1.0  0.30651  0.85503  0.03756  1.0000
  H   H873      1.0  0.27945  0.76509  0.22134  1.0000
  H   H874      1.0  0.02526  0.68589  0.10165  1.0000
  H   H875      1.0  0.17093  0.94884  0.21513  1.0000
  H   H876      1.0  0.02281  0.66700  0.12159  1.0000
  H   H877      1.0  0.33955  0.86315  0.02309  1.0000
  H   H878      1.0  0.29761  0.89807  0.01524  1.0000
  H   H879      1.0  0.23922  0.83454  0.23479  1.0000
  H   H880      1.0  0.27944  0.92510  0.04970  1.0000
  H   H881      1.0  0.05149  0.67644  0.05995  1.0000
  H   H882      1.0  0.25187  0.79728  0.23149  1.0000
  C   C497      1.0  0.04198  0.67256  0.15529  1.0000
  N   N29       1.0  0.28484  0.80821  0.24180  1.0000
  H   H883      1.0  0.12476  0.76612  0.11102  1.0000
  H   H884      1.0  0.02323  0.67545  0.16054  1.0000
  H   H885      1.0  0.16638  0.95777  0.19171  1.0000
  C   C498      1.0  0.17959  0.95771  0.20283  1.0000
  H   H886      1.0  0.03877  0.72498  0.10236  1.0000
  C   C499      1.0  0.37373  0.96368  0.06689  1.0000
  H   H887      1.0  0.24589  0.82176  0.02019  1.0000
  H   H888      1.0  0.05224  0.65102  0.17968  1.0000
  H   H889      1.0  0.04893  0.76775  0.10112  1.0000
  H   H890      1.0  0.28702  0.84039  0.07220  1.0000
  H   H891      1.0  0.07272  0.63582  0.09501  1.0000
  H   H892      1.0  0.04839  0.70970  0.15340  1.0000
  C   C500      1.0  0.23850  0.75542  0.08326  1.0000
  H   H893      1.0  0.28752  0.84356  0.25161  1.0000
  C   C501      1.0  0.28286  0.84474  0.03467  1.0000
  C   C502      1.0  0.12058  0.54088  0.01105  1.0000
  C   C503      1.0  0.32766  0.86779  0.24868  1.0000
  C   C504      1.0  0.28878  0.92373  0.03593  1.0000
  C   C505      1.0  0.01447  0.68765  0.05353  1.0000
  C   C506      1.0  0.14518  0.67222  0.24053  1.0000
  H   H894      1.0  0.04709  0.68652  0.03615  1.0000
  H   H895      1.0  0.17362  0.76591  0.09044  1.0000
  C   C507      1.0  0.25295  0.74897  0.23861  1.0000
  H   H896      1.0  0.20949  0.76884  0.10083  1.0000
  H   H897      1.0  0.26052  0.87994  0.24684  1.0000
  H   H898      1.0  0.24767  0.77223  0.08343  1.0000
  H   H899      1.0  0.07875  0.75619  0.10709  1.0000
  C   C508      1.0  0.17107  0.88972  0.17911  1.0000
  H   H900      1.0  0.06984  0.66251  0.12072  1.0000
  H   H901      1.0  0.06256  0.74056  0.13734  1.0000
  C   C509      1.0  0.04780  0.72062  0.11563  1.0000
  H   H902      1.0  0.06628  0.71415  0.11151  1.0000
  C   C510      1.0  0.34359  0.98947  0.20166  1.0000
  C   C511      1.0  0.09560  0.50023  0.01981  1.0000
  C   C512      1.0  0.31730  0.82389  0.08635  1.0000
  C   C513      1.0  0.29492  0.81341  0.22242  1.0000
  H   H903      1.0  0.01180  0.61420  0.04200  1.0000
  H   H904      1.0  0.33292  0.98156  0.21331  1.0000
  S   S118      1.0  0.08632  0.57108  0.02864  1.0000
  H   H905      1.0  0.38570  0.99057  0.04758  1.0000
  H   H906      1.0  0.23782  0.75580  0.22994  1.0000
  C   C514      1.0  0.31699  0.79747  0.21568  1.0000
  C   C515      1.0  0.32180  0.80115  0.19485  1.0000
  C   C516      1.0  0.27324  0.84702  0.01474  1.0000
  H   H907      1.0  0.32055  0.88764  0.04523  1.0000
  H   H908      1.0  0.27045  0.89373  0.02881  1.0000
  C   C517      1.0  0.21871  0.51282  0.23784  1.0000
  H   H909      1.0  0.21454  0.95335  0.15732  1.0000
  H   H910      1.0  0.28072  0.81307  0.21210  1.0000
  H   H911      1.0  0.30099  0.83185  0.22116  1.0000
  H   H912      1.0  0.28825  0.75723  0.24481  1.0000
  N   N30       1.0  0.03561  0.70143  0.12673  1.0000
  H   H913      1.0  0.07675  0.66443  0.16741  1.0000
  H   H914      1.0  0.01077  0.72233  0.14435  1.0000
  H   H915      1.0  0.06967  0.52440  0.03330  1.0000
  H   H916      1.0  0.28378  0.82533  0.03851  1.0000
  H   H917      1.0  0.16459  0.91352  0.20140  1.0000
  H   H918      1.0  0.29096  0.98584  0.16531  1.0000
  C   C518      1.0  0.22005  0.95857  0.18670  1.0000
  H   H919      1.0  0.26277  0.84951  0.22275  1.0000
  H   H920      1.0  0.33312  0.80223  0.22275  1.0000
  H   H921      1.0  0.31497  0.77830  0.21862  1.0000
  H   H922      1.0  0.30649  0.79594  0.18703  1.0000
  H   H923      1.0  0.32488  0.82008  0.19129  1.0000
  H   H924      1.0  0.33804  0.79007  0.19053  1.0000
  H   H925      1.0  0.35814  0.97614  0.19754  1.0000
  H   H926      1.0  0.23746  0.94819  0.18484  1.0000
  H   H927      1.0  0.34700  0.82140  0.02412  1.0000
  H   H928      1.0  0.25578  0.78993  0.25517  1.0000
  H   H929      1.0  0.06918  0.69210  0.14013  1.0000
  H   H930      1.0  0.04512  0.64863  0.08605  1.0000
  H   H931      1.0  0.23815  0.51167  0.23424  1.0000
  C   C519      1.0  0.19660  0.92395  0.18499  1.0000
  C   C520      1.0  0.01950  0.72889  0.18526  1.0000
  C   C521      1.0  0.05501  0.64462  0.09891  1.0000
  C   C522      1.0  0.21261  0.96805  0.16714  1.0000
  C   C523      1.0  0.27348  0.83124  0.24911  1.0000
  C   C524      1.0  0.08643  0.52277  0.02545  1.0000
  H   H932      1.0  0.16123  0.87509  0.18588  1.0000
  H   H933      1.0  0.02816  0.50973  0.02488  1.0000
  H   H934      1.0  0.31406  0.78285  0.24989  1.0000
  C   C525      1.0  0.25484  0.84505  0.23661  1.0000
  C   C526      1.0  0.28930  0.89824  0.02937  1.0000
  H   H935      1.0  0.04522  0.63206  0.10812  1.0000
  C   C527      1.0  0.27365  0.76518  0.23616  1.0000
  S   S119      1.0  0.12922  0.62841  0.01985  1.0000
  Fe  Fe59      1.0  0.09570  0.60840  0.01854  1.0000
  H   H936      1.0  0.13028  0.55647  0.00760  1.0000
  H   H937      1.0  0.24666  0.74775  0.25335  1.0000
  H   H938      1.0  0.14388  0.63603  0.25144  1.0000
  C   C528      1.0  0.24557  0.86847  0.24505  1.0000
  C   C529      1.0  0.15130  0.65298  0.25301  1.0000
  H   H939      1.0  0.31782  0.81564  0.01699  1.0000
  H   H940      1.0  0.14312  0.99372  0.20581  1.0000
  H   H941      1.0  0.49350  0.95068  0.05943  1.0000
  H   H942      1.0  0.06661  0.69872  0.25389  1.0000
  H   H943      1.0  0.03752  0.61986  0.00839  1.0000
  H   H944      1.0  0.01025  0.58758  0.01007  1.0000
  H   H945      1.0  0.27394  0.86521  0.00846  1.0000
  H   H946      1.0  0.00951  0.69204  0.06803  1.0000
  H   H947      1.0  0.00587  0.70138  0.04405  1.0000
  C   C530      1.0  0.00731  0.66233  0.04944  1.0000
  H   H948      1.0  0.48074  0.95608  0.02769  1.0000
  H   H949      1.0  0.00341  0.61453  0.06597  1.0000
  H   H950      1.0  0.00315  0.77957  0.16044  1.0000
  C   C531      1.0  0.22861  0.98728  0.15954  1.0000
  C   C532      1.0  0.00860  0.51437  0.02410  1.0000
  H   H951      1.0  0.24740  0.97979  0.15817  1.0000
  H   H952      1.0  0.19560  0.98686  0.21682  1.0000
  C   C533      1.0  0.33212  0.82819  0.01518  1.0000
  H   H953      1.0  0.33203  0.99335  0.18965  1.0000
  H   H954      1.0  0.00212  0.57450  0.05343  1.0000
  H   H955      1.0  0.22278  0.99388  0.14564  1.0000
  C   C534      1.0  0.00151  0.76271  0.16798  1.0000
  C   C535      1.0  0.49418  0.96804  0.03206  1.0000
  H   H956      1.0  0.01130  0.51148  0.06240  1.0000
  C   C536      1.0  0.30468  0.79964  0.25451  1.0000
  H   H957      1.0  0.31524  0.86340  0.00851  1.0000
  H   H958      1.0  0.00121  0.74048  0.11380  1.0000
  H   H959      1.0  0.20477  0.49927  0.04750  1.0000
  H   H960      1.0  0.16857  0.49899  0.06874  1.0000
  C   C537      1.0  0.50023  0.90056  0.02030  1.0000
  C   C538      1.0  0.21373  0.52489  0.25623  1.0000
  Fe  Fe60      1.0  0.36657  0.81469  0.31871  1.0000
  S   S120      1.0  0.38287  0.77975  0.30848  1.0000
  S   S121      1.0  0.34471  0.84212  0.30064  1.0000
  Fe  Fe61      1.0  0.37978  0.80283  0.35944  1.0000
  S   S122      1.0  0.39624  0.76729  0.35097  1.0000
  S   S123      1.0  0.38370  0.80359  0.39110  1.0000
  Fe  Fe62      1.0  0.41346  0.78623  0.32673  1.0000
  S   S124      1.0  0.45257  0.77267  0.32144  1.0000
  Fe  Fe63      1.0  0.36442  0.76362  0.33377  1.0000
  S   S125      1.0  0.34932  0.72673  0.33627  1.0000
  S   S126      1.0  0.39838  0.82226  0.33558  1.0000
  S   S127      1.0  0.34676  0.79809  0.34346  1.0000
  Fe  Fe64      1.0  0.38878  0.87840  0.48511  1.0000
  S   S128      1.0  0.42082  0.89918  0.48927  1.0000
  S   S129      1.0  0.37431  0.87825  0.45576  1.0000
  H   H961      1.0  0.31709  0.72972  0.42438  1.0000
  H   H962      1.0  0.35271  0.76240  0.37923  1.0000
  H   H963      1.0  0.17186  0.58073  0.28496  1.0000
  H   H964      1.0  0.44672  0.82274  0.43422  1.0000
  Fe  Fe65      1.0  0.22786  0.65261  0.33529  1.0000
  S   S130      1.0  0.18793  0.65889  0.33246  1.0000
  S   S131      1.0  0.24463  0.68874  0.33467  1.0000
  Fe  Fe66      1.0  0.22428  0.59827  0.33513  1.0000
  S   S132      1.0  0.18486  0.60162  0.33171  1.0000
  S   S133      1.0  0.24408  0.56145  0.33758  1.0000
  Fe  Fe67      1.0  0.19178  0.63149  0.31090  1.0000
  S   S134      1.0  0.17116  0.63178  0.28428  1.0000
  Fe  Fe68      1.0  0.18430  0.62875  0.35357  1.0000
  S   S135      1.0  0.15276  0.62849  0.37439  1.0000
  S   S136      1.0  0.23171  0.62617  0.31256  1.0000
  S   S137      1.0  0.22373  0.62424  0.35823  1.0000
  H   H965      1.0  0.26980  0.76126  0.36057  1.0000
  C   C539      1.0  0.29972  0.74016  0.42312  1.0000
  H   H966      1.0  0.29236  0.78847  0.33933  1.0000
  H   H967      1.0  0.29619  0.83284  0.42335  1.0000
  H   H968      1.0  0.33241  0.71780  0.39822  1.0000
  H   H969      1.0  0.13399  0.73191  0.31118  1.0000
  Fe  Fe69      1.0  0.13022  0.60672  0.48465  1.0000
  S   S138      1.0  0.15926  0.60619  0.46151  1.0000
  S   S139      1.0  0.09153  0.59906  0.48333  1.0000
  H   H970      1.0  0.29228  0.80953  0.35751  1.0000
  H   H971      1.0  0.16397  0.52762  0.29202  1.0000
  H   H972      1.0  0.14130  0.55188  0.29046  1.0000
  H   H973      1.0  0.25872  0.52423  0.27317  1.0000
  H   H974      1.0  0.28186  0.80957  0.46635  1.0000
  C   C540      1.0  0.24318  0.57101  0.39125  1.0000
  H   H975      1.0  0.07393  0.73125  0.34457  1.0000
  H   H976      1.0  0.28510  0.72789  0.42341  1.0000
  C   C541      1.0  0.15491  0.62285  0.39865  1.0000
  C   C542      1.0  0.13388  0.62239  0.40983  1.0000
  C   C543      1.0  0.13482  0.61768  0.42913  1.0000
  C   C544      1.0  0.15687  0.61332  0.43744  1.0000
  C   C545      1.0  0.17789  0.61374  0.42622  1.0000
  C   C546      1.0  0.17695  0.61848  0.40695  1.0000
  H   H977      1.0  0.11674  0.62573  0.40355  1.0000
  H   H978      1.0  0.11851  0.61732  0.43756  1.0000
  H   H979      1.0  0.19503  0.61036  0.43251  1.0000
  H   H980      1.0  0.19327  0.61883  0.39854  1.0000
  H   H981      1.0  0.29588  0.74317  0.45291  1.0000
  C   C547      1.0  0.24663  0.51251  0.33588  1.0000
  C   C548      1.0  0.23172  0.53366  0.33481  1.0000
  C   C549      1.0  0.20771  0.53224  0.33090  1.0000
  C   C550      1.0  0.08741  0.69043  0.27836  1.0000
  H   H982      1.0  0.26520  0.51332  0.33908  1.0000
  H   H983      1.0  0.19583  0.54816  0.33064  1.0000
  H   H984      1.0  0.26458  0.80231  0.34810  1.0000
  H   H985      1.0  0.46864  0.90589  0.45098  1.0000
  C   C551      1.0  0.47615  0.81777  0.41383  1.0000
  H   H986      1.0  0.22136  0.63886  0.26361  1.0000
  H   H987      1.0  0.18776  0.68004  0.28066  1.0000
  C   C552      1.0  0.47850  0.79067  0.26750  1.0000
  H   H988      1.0  0.31592  0.77856  0.37584  1.0000
  H   H989      1.0  0.14954  0.53079  0.36444  1.0000
  H   H990      1.0  0.25611  0.69299  0.39709  1.0000
  C   C553      1.0  0.14040  0.69277  0.31091  1.0000
  C   C554      1.0  0.32030  0.71627  0.33437  1.0000
  C   C555      1.0  0.30051  0.73136  0.32938  1.0000
  C   C556      1.0  0.27763  0.72250  0.32924  1.0000
  C   C557      1.0  0.27424  0.69834  0.33371  1.0000
  C   C558      1.0  0.29414  0.68312  0.33825  1.0000
  C   C559      1.0  0.31695  0.69209  0.33867  1.0000
  H   H991      1.0  0.30280  0.74989  0.32578  1.0000
  H   H992      1.0  0.26241  0.73445  0.32569  1.0000
  H   H993      1.0  0.29188  0.66455  0.34178  1.0000
  H   H994      1.0  0.33212  0.68019  0.34246  1.0000
  C   C560      1.0  0.38293  0.82543  0.40830  1.0000
  C   C561      1.0  0.39139  0.81866  0.42600  1.0000
  C   C562      1.0  0.38991  0.83483  0.44047  1.0000
  C   C563      1.0  0.37946  0.85794  0.43753  1.0000
  C   C564      1.0  0.37135  0.86480  0.41976  1.0000
  C   C565      1.0  0.37328  0.84877  0.40519  1.0000
  H   H995      1.0  0.39892  0.80067  0.42860  1.0000
  H   H996      1.0  0.39622  0.82922  0.45402  1.0000
  H   H997      1.0  0.36325  0.88260  0.41728  1.0000
  H   H998      1.0  0.36668  0.85431  0.39171  1.0000
  C   C566      1.0  0.47997  0.81193  0.32160  1.0000
  C   C567      1.0  0.47941  0.78717  0.32331  1.0000
  H   H999      1.0  0.15275  0.52352  0.40682  1.0000
  H   H1000     1.0  0.46359  0.82284  0.31945  1.0000
  H   H1001     1.0  0.11197  0.71609  0.28495  1.0000
  C   C568      1.0  0.14559  0.54675  0.37277  1.0000
  C   C569      1.0  0.34493  0.84663  0.27603  1.0000
  H   H1002     1.0  0.29324  0.54132  0.28606  1.0000
  H   H1003     1.0  0.43623  0.78258  0.37937  1.0000
  H   H1004     1.0  0.31601  0.87389  0.27701  1.0000
  H   H1005     1.0  0.32641  0.86169  0.45215  1.0000
  C   C570      1.0  0.20342  0.55570  0.28725  1.0000
  H   H1006     1.0  0.29219  0.83582  0.50135  1.0000
  S   S140      1.0  0.05550  0.65815  0.50103  1.0000
  H   H1007     1.0  0.14778  0.56837  0.41285  1.0000
  C   C571      1.0  0.49636  0.79038  0.37834  1.0000
  H   H1008     1.0  0.47200  0.78087  0.41021  1.0000
  C   C572      1.0  0.16906  0.55577  0.37931  1.0000
  C   C573      1.0  0.11756  0.64854  0.32671  1.0000
  H   H1009     1.0  0.28550  0.51477  0.29910  1.0000
  C   C574      1.0  0.28823  0.72641  0.38291  1.0000
  H   H1010     1.0  0.46417  0.79966  0.25902  1.0000
  H   H1011     1.0  0.20600  0.56422  0.30057  1.0000
  H   H1012     1.0  0.20592  0.53630  0.29051  1.0000
  H   H1013     1.0  0.29235  0.81288  0.28165  1.0000
  H   H1014     1.0  0.09161  0.71921  0.31278  1.0000
  H   H1015     1.0  0.13324  0.54254  0.38458  1.0000
  H   H1016     1.0  0.23654  0.58785  0.39775  1.0000
  C   C575      1.0  0.17693  0.56175  0.28236  1.0000
  C   C576      1.0  0.10349  0.70494  0.33902  1.0000
  H   H1017     1.0  0.18593  0.70974  0.30976  1.0000
  C   C577      1.0  0.13249  0.56563  0.36034  1.0000
  C   C578      1.0  0.33085  0.73251  0.38758  1.0000
  H   H1018     1.0  0.29782  0.69919  0.40516  1.0000
  C   C579      1.0  0.11839  0.62154  0.32511  1.0000
  C   C580      1.0  0.19921  0.51024  0.32667  1.0000
  C   C581      1.0  0.25552  0.53426  0.28598  1.0000
  H   H1019     1.0  0.41317  0.86158  0.36892  1.0000
  C   C582      1.0  0.17150  0.72262  0.31487  1.0000
  H   H1020     1.0  0.43676  0.85521  0.35188  1.0000
  C   C583      1.0  0.46240  0.75285  0.38125  1.0000
  C   C584      1.0  0.22254  0.55888  0.38339  1.0000
  H   H1021     1.0  0.38933  0.74699  0.39423  1.0000
  N   N31       1.0  0.30586  0.74431  0.38732  1.0000
  H   H1022     1.0  0.02411  0.63611  0.44814  1.0000
  H   H1023     1.0  0.33516  0.72377  0.37423  1.0000
  H   H1024     1.0  0.27877  0.76599  0.43989  1.0000
  H   H1025     1.0  0.37378  0.82058  0.27008  1.0000
  C   C585      1.0  0.29605  0.75510  0.44027  1.0000
  C   C586      1.0  0.36087  0.83371  0.26425  1.0000
  C   C587      1.0  0.15795  0.55486  0.42158  1.0000
  H   H1026     1.0  0.31085  0.76702  0.44113  1.0000
  C   C588      1.0  0.29881  0.75617  0.40521  1.0000
  C   C589      1.0  0.27151  0.68582  0.38845  1.0000
  H   H1027     1.0  0.37963  0.72557  0.37883  1.0000
  C   C590      1.0  0.37521  0.73471  0.39197  1.0000
  C   C591      1.0  0.29317  0.70034  0.39043  1.0000
  H   H1028     1.0  0.19729  0.57018  0.40461  1.0000
  H   H1029     1.0  0.17253  0.56339  0.42809  1.0000
  H   H1030     1.0  0.27028  0.78208  0.37865  1.0000
  C   C592      1.0  0.28265  0.79496  0.35200  1.0000
  H   H1031     1.0  0.15327  0.68041  0.30336  1.0000
  H   H1032     1.0  0.31456  0.75656  0.35923  1.0000
  H   H1033     1.0  0.30835  0.69162  0.38234  1.0000
  H   H1034     1.0  0.34795  0.75838  0.40394  1.0000
  H   H1035     1.0  0.44563  0.79906  0.40648  1.0000
  H   H1036     1.0  0.07977  0.69173  0.31940  1.0000
  H   H1037     1.0  0.02096  0.61987  0.46994  1.0000
  C   C593      1.0  0.17590  0.67772  0.26955  1.0000
  H   H1038     1.0  0.25618  0.57536  0.37986  1.0000
  H   H1039     1.0  0.30986  0.77148  0.40700  1.0000
  H   H1040     1.0  0.27593  0.66699  0.39301  1.0000
  H   H1041     1.0  0.10294  0.65344  0.33688  1.0000
  N   N32       1.0  0.18296  0.53963  0.39288  1.0000
  H   H1042     1.0  0.26627  0.68616  0.37379  1.0000
  C   C594      1.0  0.35111  0.74900  0.39083  1.0000
  H   H1043     1.0  0.28767  0.72471  0.36767  1.0000
  H   H1044     1.0  0.19690  0.52074  0.36874  1.0000
  C   C595      1.0  0.46634  0.81828  0.43384  1.0000
  C   C596      1.0  0.45543  0.77921  0.37522  1.0000
  H   H1045     1.0  0.24655  0.57065  0.29385  1.0000
  H   H1046     1.0  0.45995  0.74997  0.39644  1.0000
  H   H1047     1.0  0.02120  0.69475  0.49114  1.0000
  H   H1048     1.0  0.28018  0.76419  0.40474  1.0000
  H   H1049     1.0  0.37501  0.72129  0.40367  1.0000
  H   H1050     1.0  0.27755  0.84718  0.48144  1.0000
  H   H1051     1.0  0.47193  0.83569  0.40739  1.0000
  C   C597      1.0  0.32257  0.82611  0.44464  1.0000
  H   H1052     1.0  0.21453  0.57139  0.37271  1.0000
  H   H1053     1.0  0.15041  0.72125  0.29102  1.0000
  H   H1054     1.0  0.08765  0.67109  0.27594  1.0000
  C   C598      1.0  0.16817  0.53357  0.41012  1.0000
  H   H1055     1.0  0.21319  0.54245  0.41014  1.0000
  H   H1056     1.0  0.30093  0.79595  0.48410  1.0000
  H   H1057     1.0  0.06096  0.71125  0.49970  1.0000
  H   H1058     1.0  0.17907  0.52146  0.41961  1.0000
  H   H1059     1.0  0.12177  0.61276  0.33890  1.0000
  H   H1060     1.0  0.19433  0.52442  0.25959  1.0000
  C   C599      1.0  0.47498  0.88791  0.45646  1.0000
  H   H1061     1.0  0.12547  0.53874  0.43178  1.0000
  H   H1062     1.0  0.44845  0.73812  0.35678  1.0000
  C   C600      1.0  0.20370  0.55282  0.39882  1.0000
  C   C601      1.0  0.27946  0.53354  0.29543  1.0000
  H   H1063     1.0  0.13449  0.56225  0.44547  1.0000
  C   C602      1.0  0.16628  0.65576  0.26779  1.0000
  H   H1064     1.0  0.18007  0.55902  0.36646  1.0000
  H   H1065     1.0  0.15058  0.53347  0.44681  1.0000
  C   C603      1.0  0.32012  0.86644  0.48623  1.0000
  Fe  Fe70      1.0  0.08415  0.62793  0.50369  1.0000
  C   C604      1.0  0.24616  0.56021  0.28111  1.0000
  H   H1066     1.0  0.24296  0.52498  0.29545  1.0000
  H   H1067     1.0  0.16992  0.72070  0.33021  1.0000
  C   C605      1.0  0.29748  0.79559  0.27527  1.0000
  H   H1068     1.0  0.21474  0.59951  0.28243  1.0000
  C   C606      1.0  0.14111  0.54668  0.43733  1.0000
  H   H1069     1.0  0.11583  0.55875  0.35561  1.0000
  C   C607      1.0  0.09662  0.70107  0.31881  1.0000
  C   C608      1.0  0.19293  0.51708  0.38377  1.0000
  H   H1070     1.0  0.46063  0.87562  0.45496  1.0000
  H   H1071     1.0  0.47826  0.88882  0.47141  1.0000
  C   C609      1.0  0.30947  0.91073  0.48915  1.0000
  C   C610      1.0  0.28047  0.77467  0.36657  1.0000
  H   H1072     1.0  0.17660  0.74091  0.31100  1.0000
  H   H1073     1.0  0.14385  0.57021  0.34796  1.0000
  H   H1074     1.0  0.42482  0.81900  0.36993  1.0000
  H   H1075     1.0  0.11114  0.68845  0.34601  1.0000
  H   H1076     1.0  0.26417  0.82804  0.26275  1.0000
  H   H1077     1.0  0.08741  0.71735  0.36491  1.0000
  H   H1078     1.0  0.37663  0.80258  0.49809  1.0000
  C   C611      1.0  0.01151  0.67932  0.49508  1.0000
  H   H1079     1.0  0.12767  0.58203  0.36805  1.0000
  H   H1080     1.0  0.45289  0.71713  0.37606  1.0000
  H   H1081     1.0  0.33418  0.79448  0.28438  1.0000
  H   H1082     1.0  0.14391  0.68866  0.32569  1.0000
  H   H1083     1.0  0.25148  0.60458  0.26372  1.0000
  H   H1084     1.0  0.13482  0.65262  0.33224  1.0000
  C   C612      1.0  0.30193  0.88770  0.48143  1.0000
  H   H1085     1.0  0.08256  0.72316  0.26111  1.0000
  H   H1086     1.0  0.33567  0.80848  0.47612  1.0000
  C   C613      1.0  0.11267  0.66155  0.30778  1.0000
  H   H1087     1.0  0.47385  0.79379  0.28230  1.0000
  H   H1088     1.0  0.16502  0.57375  0.38495  1.0000
  H   H1089     1.0  0.29632  0.85409  0.45324  1.0000
  C   C614      1.0  0.14784  0.71840  0.30623  1.0000
  H   H1090     1.0  0.18083  0.50947  0.32297  1.0000
  C   C615      1.0  0.13721  0.49894  0.49495  1.0000
  H   H1091     1.0  0.06810  0.70091  0.35175  1.0000
  C   C616      1.0  0.32836  0.86369  0.26808  1.0000
  H   H1092     1.0  0.13308  0.61546  0.31533  1.0000
  C   C617      1.0  0.31589  0.83145  0.42453  1.0000
  H   H1093     1.0  0.32308  0.84838  0.41919  1.0000
  H   H1094     1.0  0.32321  0.76555  0.28127  1.0000
  H   H1095     1.0  0.27774  0.54352  0.30835  1.0000
  H   H1096     1.0  0.43200  0.83220  0.39110  1.0000
  H   H1097     1.0  0.42798  0.73902  0.37675  1.0000
  H   H1098     1.0  0.30047  0.89084  0.46626  1.0000
  H   H1099     1.0  0.45619  0.78047  0.35982  1.0000
  H   H1100     1.0  0.23636  0.86507  0.25867  1.0000
  C   C618      1.0  0.34146  0.82074  0.50324  1.0000
  H   H1101     1.0  0.31460  0.80948  0.44942  1.0000
  C   C619      1.0  0.12242  0.51915  0.49935  1.0000
  H   H1102     1.0  0.09427  0.65741  0.30456  1.0000
  H   H1103     1.0  0.07197  0.69548  0.28775  1.0000
  C   C620      1.0  0.30550  0.76353  0.37203  1.0000
  C   C621      1.0  0.44694  0.73582  0.37212  1.0000
  H   H1104     1.0  0.33821  0.87194  0.48204  1.0000
  C   C622      1.0  0.31468  0.84733  0.45702  1.0000
  H   H1105     1.0  0.25254  0.55904  0.40166  1.0000
  H   H1106     1.0  0.23020  0.54268  0.37653  1.0000
  C   C623      1.0  0.11125  0.69642  0.28661  1.0000
  N   N33       1.0  0.47033  0.79767  0.38277  1.0000
  C   C624      1.0  0.46324  0.82129  0.37314  1.0000
  H   H1107     1.0  0.49313  0.87806  0.43116  1.0000
  H   H1108     1.0  0.11701  0.71835  0.33917  1.0000
  C   C625      1.0  0.46527  0.79798  0.40340  1.0000
  C   C626      1.0  0.16002  0.54691  0.29427  1.0000
  C   C627      1.0  0.43690  0.83083  0.37617  1.0000
  S   S141      1.0  0.12247  0.63770  0.50306  1.0000
  H   H1109     1.0  0.26979  0.73281  0.38742  1.0000
  N   N34       1.0  0.31598  0.84306  0.47781  1.0000
  C   C628      1.0  0.43235  0.85559  0.36698  1.0000
  H   H1110     1.0  0.01934  0.60457  0.44880  1.0000
  H   H1111     1.0  0.12470  0.65274  0.29711  1.0000
  H   H1112     1.0  0.12589  0.68876  0.27743  1.0000
  C   C629      1.0  0.21640  0.59009  0.26918  1.0000
  H   H1113     1.0  0.44319  0.86860  0.37331  1.0000
  H   H1114     1.0  0.21048  0.51073  0.38957  1.0000
  H   H1115     1.0  0.28241  0.78396  0.27711  1.0000
  C   C630      1.0  0.08183  0.71419  0.35070  1.0000
  N   N35       1.0  0.11515  0.68810  0.30650  1.0000
  H   H1116     1.0  0.28398  0.88448  0.48754  1.0000
  C   C631      1.0  0.38294  0.98191  0.50069  1.0000
  H   H1117     1.0  0.47912  0.77124  0.26529  1.0000
  H   H1118     1.0  0.10118  0.61603  0.32027  1.0000
  N   N36       1.0  0.22173  0.56367  0.27294  1.0000
  H   H1119     1.0  0.16169  0.55032  0.30915  1.0000
  H   H1120     1.0  0.01542  0.50674  0.49070  1.0000
  H   H1121     1.0  0.48122  0.74754  0.37725  1.0000
  H   H1122     1.0  0.46671  0.82003  0.35794  1.0000
  H   H1123     1.0  0.32364  0.81691  0.41577  1.0000
  H   H1124     1.0  0.35375  0.83281  0.47599  1.0000
  H   H1125     1.0  0.47437  0.83548  0.37728  1.0000
  C   C632      1.0  0.29273  0.83482  0.48600  1.0000
  C   C633      1.0  0.31834  0.78378  0.28607  1.0000
  C   C634      1.0  0.49767  0.87876  0.44593  1.0000
  H   H1126     1.0  0.49579  0.81421  0.41431  1.0000
  H   H1127     1.0  0.29600  0.92557  0.48591  1.0000
  H   H1128     1.0  0.34226  0.82266  0.44480  1.0000
  H   H1129     1.0  0.49812  0.78104  0.36502  1.0000
  H   H1130     1.0  0.47016  0.80077  0.44121  1.0000
  H   H1131     1.0  0.37912  0.96672  0.49295  1.0000
  H   H1132     1.0  0.17618  0.71425  0.25924  1.0000
  C   C635      1.0  0.26422  0.80234  0.49242  1.0000
  C   C636      1.0  0.28628  0.80965  0.48114  1.0000
  H   H1133     1.0  0.25962  0.78446  0.48841  1.0000
  H   H1134     1.0  0.12886  0.53660  0.49688  1.0000
  H   H1135     1.0  0.35265  0.78295  0.50187  1.0000
  C   C637      1.0  0.33705  0.82590  0.48236  1.0000
  H   H1136     1.0  0.31325  0.78244  0.30105  1.0000
  S   S142      1.0  0.40223  0.84639  0.50220  1.0000
  H   H1137     1.0  0.25997  0.56715  0.27133  1.0000
  H   H1138     1.0  0.24869  0.81523  0.48980  1.0000
  C   C638      1.0  0.01464  0.62168  0.45556  1.0000
  H   H1139     1.0  0.47481  0.83203  0.44132  1.0000
  H   H1140     1.0  0.32695  0.91539  0.48278  1.0000
  H   H1141     1.0  0.22311  0.51383  0.26707  1.0000
  C   C639      1.0  0.16940  0.69706  0.25732  1.0000
  C   C640      1.0  0.02396  0.65792  0.50044  1.0000
  H   H1142     1.0  0.31096  0.90885  0.50443  1.0000
  H   H1143     1.0  0.15514  0.50090  0.48940  1.0000
  C   C641      1.0  0.35981  0.79964  0.50615  1.0000
  H   H1144     1.0  0.15890  0.49939  0.38237  1.0000
  H   H1145     1.0  0.17391  0.55896  0.26758  1.0000
  H   H1146     1.0  0.19880  0.59354  0.26264  1.0000
  H   H1147     1.0  0.31992  0.86454  0.50162  1.0000
  C   C642      1.0  0.08357  0.70356  0.25964  1.0000
  C   C643      1.0  0.23467  0.60298  0.25643  1.0000
  C   C644      1.0  0.01099  0.63798  0.50538  1.0000
  Fe  Fe71      1.0  0.38403  0.86385  0.52706  1.0000
  S   S143      1.0  0.41584  0.88325  0.53368  1.0000
  S   S144      1.0  0.36527  0.83881  0.54789  1.0000
  C   C645      1.0  0.33788  0.83653  0.74827  1.0000
  H   H1148     1.0  0.48554  0.76453  0.73628  1.0000
  Fe  Fe72      1.0  0.35925  0.80726  0.70318  1.0000
  S   S145      1.0  0.37424  0.76924  0.70142  1.0000
  S   S146      1.0  0.35721  0.81858  0.73350  1.0000
  Fe  Fe73      1.0  0.35963  0.81240  0.66037  1.0000
  S   S147      1.0  0.37380  0.77445  0.65671  1.0000
  S   S148      1.0  0.35694  0.84074  0.63657  1.0000
  Fe  Fe74      1.0  0.34722  0.76519  0.67980  1.0000
  S   S149      1.0  0.32921  0.72990  0.68509  1.0000
  Fe  Fe75      1.0  0.39935  0.78171  0.67875  1.0000
  S   S150      1.0  0.43849  0.76697  0.67633  1.0000
  S   S151      1.0  0.33116  0.80295  0.68228  1.0000
  S   S152      1.0  0.38632  0.81987  0.68171  1.0000
  Fe  Fe76      1.0  0.12709  0.61168  0.52747  1.0000
  S   S153      1.0  0.15215  0.62001  0.55023  1.0000
  S   S154      1.0  0.08822  0.60447  0.52937  1.0000
  Fe  Fe77      1.0  0.21352  0.65013  0.67353  1.0000
  S   S155      1.0  0.17365  0.65725  0.67659  1.0000
  S   S156      1.0  0.23350  0.68323  0.66475  1.0000
  Fe  Fe78      1.0  0.20929  0.59611  0.68064  1.0000
  S   S157      1.0  0.16960  0.60053  0.68521  1.0000
  S   S158      1.0  0.23004  0.56027  0.67608  1.0000
  Fe  Fe79      1.0  0.17025  0.62509  0.65981  1.0000
  S   S159      1.0  0.14229  0.61957  0.63849  1.0000
  Fe  Fe80      1.0  0.17629  0.63235  0.70172  1.0000
  S   S160      1.0  0.15113  0.64447  0.72571  1.0000
  S   S161      1.0  0.20968  0.61978  0.65473  1.0000
  S   S162      1.0  0.21648  0.62618  0.69924  1.0000
  C   C646      1.0  0.15462  0.65417  0.74847  1.0000
  C   C647      1.0  0.47709  0.78869  0.59608  1.0000
  C   C648      1.0  0.24250  0.95736  0.73790  1.0000
  H   H1149     1.0  0.47013  0.79526  0.62523  1.0000
  H   H1150     1.0  0.19673  0.56015  0.60471  1.0000
  H   H1151     1.0  0.42997  0.83993  0.61236  1.0000
  H   H1152     1.0  0.07986  0.72897  0.59811  1.0000
  C   C649      1.0  0.47964  0.97334  0.53785  1.0000
  C   C650      1.0  0.19967  0.52759  0.69224  1.0000
  C   C651      1.0  0.21899  0.53152  0.67997  1.0000
  H   H1153     1.0  0.49721  0.96362  0.53525  1.0000
  C   C652      1.0  0.13640  0.69425  0.54380  1.0000
  H   H1154     1.0  0.19070  0.54241  0.69930  1.0000
  H   H1155     1.0  0.24559  0.51468  0.66163  1.0000
  C   C653      1.0  0.14952  0.61831  0.57481  1.0000
  C   C654      1.0  0.16803  0.62624  0.58502  1.0000
  C   C655      1.0  0.16640  0.62622  0.60453  1.0000
  C   C656      1.0  0.14606  0.61850  0.61404  1.0000
  C   C657      1.0  0.12773  0.61015  0.60387  1.0000
  C   C658      1.0  0.12956  0.60977  0.58438  1.0000
  H   H1156     1.0  0.18362  0.63274  0.57777  1.0000
  H   H1157     1.0  0.18058  0.63275  0.61217  1.0000
  H   H1158     1.0  0.11195  0.60406  0.61111  1.0000
  H   H1159     1.0  0.11545  0.60308  0.57677  1.0000
  C   C659      1.0  0.30368  0.86469  0.75412  1.0000
  H   H1160     1.0  0.40634  0.79729  0.59476  1.0000
  H   H1161     1.0  0.47893  0.86349  0.54770  1.0000
  H   H1162     1.0  0.06618  0.73899  0.51006  1.0000
  H   H1163     1.0  0.18337  0.69842  0.75085  1.0000
  C   C660      1.0  0.30134  0.71857  0.68039  1.0000
  C   C661      1.0  0.29520  0.69708  0.68943  1.0000
  C   C662      1.0  0.27410  0.68647  0.68538  1.0000
  C   C663      1.0  0.25910  0.69690  0.67185  1.0000
  C   C664      1.0  0.26504  0.71855  0.66299  1.0000
  C   C665      1.0  0.28588  0.72946  0.66734  1.0000
  H   H1164     1.0  0.30700  0.68850  0.69956  1.0000
  H   H1165     1.0  0.26974  0.66999  0.69246  1.0000
  H   H1166     1.0  0.25357  0.72687  0.65253  1.0000
  H   H1167     1.0  0.29034  0.74592  0.66022  1.0000
  C   C666      1.0  0.46558  0.78167  0.67565  1.0000
  C   C667      1.0  0.46594  0.80597  0.67862  1.0000
  H   H1168     1.0  0.17494  0.69408  0.54001  1.0000
  H   H1169     1.0  0.44933  0.81661  0.68040  1.0000
  C   C668      1.0  0.48435  0.84910  0.55801  1.0000
  H   H1170     1.0  0.42852  0.85537  0.66122  1.0000
  H   H1171     1.0  0.21042  0.66036  0.72962  1.0000
  C   C669      1.0  0.31806  0.85049  0.74182  1.0000
  H   H1172     1.0  0.16542  0.73723  0.70989  1.0000
  H   H1173     1.0  0.31401  0.85060  0.72731  1.0000
  C   C670      1.0  0.36438  0.83934  0.57258  1.0000
  C   C671      1.0  0.36782  0.86000  0.58191  1.0000
  C   C672      1.0  0.36554  0.86000  0.60143  1.0000
  C   C673      1.0  0.36028  0.83930  0.61197  1.0000
  C   C674      1.0  0.35760  0.81842  0.60269  1.0000
  C   C675      1.0  0.35932  0.81856  0.58313  1.0000
  H   H1174     1.0  0.37160  0.87617  0.57406  1.0000
  H   H1175     1.0  0.36766  0.87627  0.60841  1.0000
  H   H1176     1.0  0.35347  0.80237  0.61055  1.0000
  H   H1177     1.0  0.35653  0.80249  0.57611  1.0000
  H   H1178     1.0  0.47664  0.83254  0.55405  1.0000
  C   C676      1.0  0.18604  0.55614  0.63441  1.0000
  H   H1179     1.0  0.28863  0.87567  0.74889  1.0000
  H   H1180     1.0  0.46347  0.90196  0.51254  1.0000
  H   H1181     1.0  0.21399  0.73040  0.69079  1.0000
  H   H1182     1.0  0.25340  0.65192  0.72077  1.0000
  C   C677      1.0  0.23053  0.51191  0.67105  1.0000
  H   H1183     1.0  0.18143  0.68528  0.72070  1.0000
  H   H1184     1.0  0.43655  0.76069  0.71899  1.0000
  H   H1185     1.0  0.40581  0.83129  0.72480  1.0000
  H   H1186     1.0  0.48554  0.80319  0.73947  1.0000
  H   H1187     1.0  0.11307  0.54206  0.67470  1.0000
  H   H1188     1.0  0.45974  0.94172  0.53532  1.0000
  N   N37       1.0  0.16872  0.53684  0.63372  1.0000
  C   C678      1.0  0.15452  0.53636  0.65187  1.0000
  C   C679      1.0  0.42395  0.85323  0.64662  1.0000
  H   H1189     1.0  0.15567  0.70977  0.68580  1.0000
  C   C680      1.0  0.44742  0.76559  0.73067  1.0000
  C   C681      1.0  0.43309  0.85185  0.71221  1.0000
  H   H1190     1.0  0.36396  0.79753  0.52106  1.0000
  H   H1191     1.0  0.23041  0.57533  0.63375  1.0000
  H   H1192     1.0  0.17637  0.57410  0.63437  1.0000
  H   H1193     1.0  0.44094  0.80393  0.55536  1.0000
  C   C682      1.0  0.16118  0.68118  0.54321  1.0000
  H   H1194     1.0  0.40521  0.82424  0.62074  1.0000
  H   H1195     1.0  0.11998  0.67331  0.74917  1.0000
  H   H1196     1.0  0.44577  0.82987  0.58167  1.0000
  H   H1197     1.0  0.16244  0.66783  0.53229  1.0000
  H   H1198     1.0  0.24259  0.72701  0.70150  1.0000
  H   H1199     1.0  0.40432  0.85663  0.64552  1.0000
  H   H1200     1.0  0.44584  0.75125  0.74157  1.0000
  H   H1201     1.0  0.10767  0.55457  0.60343  1.0000
  H   H1202     1.0  0.14271  0.69042  0.70355  1.0000
  H   H1203     1.0  0.12658  0.53934  0.58624  1.0000
  H   H1204     1.0  0.19411  0.70022  0.70133  1.0000
  H   H1205     1.0  0.46508  0.97256  0.51051  1.0000
  H   H1206     1.0  0.20030  0.51327  0.63868  1.0000
  H   H1207     1.0  0.17827  0.50141  0.70605  1.0000
  C   C683      1.0  0.24750  0.65447  0.73541  1.0000
  H   H1208     1.0  0.43371  0.78429  0.58617  1.0000
  H   H1209     1.0  0.40526  0.73802  0.62820  1.0000
  H   H1210     1.0  0.45279  0.99574  0.52461  1.0000
  H   H1211     1.0  0.24159  0.77059  0.70533  1.0000
  C   C684      1.0  0.20516  0.55708  0.61828  1.0000
  H   H1212     1.0  0.42295  0.81554  0.65075  1.0000
  S   S163      1.0  0.40565  0.94973  0.52578  1.0000
  H   H1213     1.0  0.15252  0.71773  0.72758  1.0000
  H   H1214     1.0  0.21300  0.77424  0.69433  1.0000
  H   H1215     1.0  0.45145  0.82536  0.64254  1.0000
  C   C685      1.0  0.19539  0.71308  0.74763  1.0000
  H   H1216     1.0  0.00120  0.74519  0.72564  1.0000
  H   H1217     1.0  0.44502  0.96416  0.54969  1.0000
  H   H1218     1.0  0.06888  0.61526  0.58028  1.0000
  H   H1219     1.0  0.14532  0.56170  0.61804  1.0000
  H   H1220     1.0  0.42873  0.84763  0.69794  1.0000
  H   H1221     1.0  0.26163  0.66284  0.74264  1.0000
  H   H1222     1.0  0.15852  0.53229  0.53172  1.0000
  H   H1223     1.0  0.10262  0.71244  0.61125  1.0000
  H   H1224     1.0  0.47229  0.77007  0.59543  1.0000
  Fe  Fe81      1.0  0.40101  0.91310  0.51462  1.0000
  H   H1225     1.0  0.13393  0.70331  0.53002  1.0000
  H   H1226     1.0  0.07004  0.71306  0.56679  1.0000
  N   N38       1.0  0.29139  0.63768  0.63959  1.0000
  C   C686      1.0  0.30033  0.66236  0.63755  1.0000
  C   C687      1.0  0.26586  0.63810  0.63347  1.0000
  C   C688      1.0  0.29158  0.63026  0.65992  1.0000
  C   C689      1.0  0.30724  0.61961  0.62924  1.0000
  C   C690      1.0  0.31154  0.62492  0.60827  1.0000
  C   C691      1.0  0.32538  0.66538  0.64507  1.0000
  C   C692      1.0  0.28054  0.60636  0.66558  1.0000
  C   C693      1.0  0.25825  0.65616  0.61755  1.0000
  C   C694      1.0  0.23333  0.65203  0.61111  1.0000
  C   C695      1.0  0.32976  0.60649  0.60001  1.0000
  C   C696      1.0  0.33403  0.68985  0.63935  1.0000
  C   C697      1.0  0.28085  0.60173  0.68655  1.0000
  H   H1227     1.0  0.28763  0.67516  0.64484  1.0000
  H   H1228     1.0  0.30058  0.66901  0.62290  1.0000
  H   H1229     1.0  0.26148  0.62000  0.62967  1.0000
  H   H1230     1.0  0.25326  0.64287  0.64518  1.0000
  H   H1231     1.0  0.28180  0.64432  0.66813  1.0000
  H   H1232     1.0  0.31012  0.62849  0.66493  1.0000
  H   H1233     1.0  0.32490  0.61666  0.63574  1.0000
  H   H1234     1.0  0.29954  0.60195  0.63037  1.0000
  H   H1235     1.0  0.31853  0.64264  0.60539  1.0000
  H   H1236     1.0  0.29472  0.62381  0.60093  1.0000
  H   H1237     1.0  0.32471  0.66407  0.66045  1.0000
  H   H1238     1.0  0.33886  0.65177  0.63981  1.0000
  H   H1239     1.0  0.29080  0.59112  0.65916  1.0000
  H   H1240     1.0  0.26173  0.60645  0.66147  1.0000
  H   H1241     1.0  0.25753  0.67462  0.62251  1.0000
  H   H1242     1.0  0.27076  0.65521  0.60540  1.0000
  H   H1243     1.0  0.21987  0.65468  0.62264  1.0000
  H   H1244     1.0  0.22846  0.66501  0.59965  1.0000
  H   H1245     1.0  0.23275  0.63377  0.60604  1.0000
  H   H1246     1.0  0.33219  0.61036  0.58489  1.0000
  H   H1247     1.0  0.34733  0.60713  0.60645  1.0000
  H   H1248     1.0  0.32351  0.58827  0.60213  1.0000
  H   H1249     1.0  0.33686  0.69162  0.62409  1.0000
  H   H1250     1.0  0.32086  0.70423  0.64393  1.0000
  H   H1251     1.0  0.35119  0.69220  0.64595  1.0000
  H   H1252     1.0  0.27070  0.61642  0.69381  1.0000
  H   H1253     1.0  0.27239  0.58487  0.69035  1.0000
  H   H1254     1.0  0.29948  0.60001  0.69131  1.0000
  S   S164      1.0  0.13746  0.58128  0.50908  1.0000
  H   H1255     1.0  0.23245  0.69153  0.71240  1.0000
  N   N39       1.0  0.43778  0.78934  0.73776  1.0000
  C   C698      1.0  0.43189  0.82800  0.64092  1.0000
  H   H1256     1.0  0.13113  0.49975  0.70457  1.0000
  H   H1257     1.0  0.43019  0.80121  0.70965  1.0000
  H   H1258     1.0  0.43308  0.86662  0.63774  1.0000
  H   H1259     1.0  0.03637  0.72912  0.50979  1.0000
  C   C699      1.0  0.22997  0.76294  0.69537  1.0000
  H   H1260     1.0  0.05316  0.72252  0.54076  1.0000
  H   H1261     1.0  0.47696  0.85406  0.57187  1.0000
  C   C700      1.0  0.13899  0.55932  0.65635  1.0000
  C   C701      1.0  0.43715  0.75546  0.61845  1.0000
  C   C702      1.0  0.49865  0.91489  0.50993  1.0000
  C   C703      1.0  0.46995  0.98632  0.52008  1.0000
  H   H1262     1.0  0.15025  0.57443  0.65732  1.0000
  H   H1263     1.0  0.12964  0.72014  0.69927  1.0000
  H   H1264     1.0  0.11477  0.68833  0.58458  1.0000
  H   H1265     1.0  0.46948  0.73673  0.70393  1.0000
  H   H1266     1.0  0.16390  0.54253  0.60427  1.0000
  H   H1267     1.0  0.40416  0.80401  0.74964  1.0000
  H   H1268     1.0  0.43190  0.71839  0.62588  1.0000
  H   H1269     1.0  0.22278  0.95989  0.73984  1.0000
  C   C704      1.0  0.42591  0.81638  0.56001  1.0000
  H   H1270     1.0  0.13638  0.70785  0.55442  1.0000
  C   C705      1.0  0.46288  0.80216  0.61172  1.0000
  H   H1271     1.0  0.42826  0.73780  0.64504  1.0000
  N   N40       1.0  0.43600  0.80145  0.61229  1.0000
  C   C706      1.0  0.42484  0.73632  0.63013  1.0000
  H   H1272     1.0  0.27386  0.95219  0.75371  1.0000
  H   H1273     1.0  0.04676  0.69514  0.53076  1.0000
  C   C707      1.0  0.18311  0.51329  0.63144  1.0000
  H   H1274     1.0  0.45660  0.75255  0.62070  1.0000
  N   N41       1.0  0.09145  0.68778  0.55035  1.0000
  C   C708      1.0  0.11669  0.67673  0.54837  1.0000
  C   C709      1.0  0.07412  0.66865  0.55423  1.0000
  C   C710      1.0  0.08537  0.70020  0.53199  1.0000
  C   C711      1.0  0.08897  0.70613  0.56502  1.0000
  C   C712      1.0  0.09680  0.69781  0.58468  1.0000
  H   H1275     1.0  0.41419  0.83626  0.58375  1.0000
  C   C713      1.0  0.08264  0.64677  0.56664  1.0000
  C   C714      1.0  0.06199  0.63143  0.57229  1.0000
  H   H1276     1.0  0.24686  0.94065  0.73049  1.0000
  C   C715      1.0  0.16443  0.52084  0.54383  1.0000
  H   H1277     1.0  0.11773  0.66345  0.53736  1.0000
  H   H1278     1.0  0.12212  0.66627  0.56104  1.0000
  C   C716      1.0  0.48748  0.76824  0.67299  1.0000
  H   H1279     1.0  0.06940  0.66088  0.54102  1.0000
  H   H1280     1.0  0.08982  0.68791  0.52045  1.0000
  H   H1281     1.0  0.09630  0.71572  0.52918  1.0000
  H   H1282     1.0  0.09877  0.72198  0.56050  1.0000
  H   H1283     1.0  0.16502  0.67199  0.55679  1.0000
  H   H1284     1.0  0.23516  0.57725  0.60896  1.0000
  H   H1285     1.0  0.08359  0.68606  0.59125  1.0000
  H   H1286     1.0  0.40879  0.80822  0.55817  1.0000
  H   H1287     1.0  0.36800  0.76985  0.75392  1.0000
  H   H1288     1.0  0.09621  0.63558  0.55880  1.0000
  H   H1289     1.0  0.09097  0.65165  0.57938  1.0000
  H   H1290     1.0  0.14220  0.52183  0.65270  1.0000
  H   H1291     1.0  0.04856  0.64148  0.58113  1.0000
  H   H1292     1.0  0.05324  0.62573  0.55986  1.0000
  H   H1293     1.0  0.19732  0.74982  0.72073  1.0000
  C   C717      1.0  0.42580  0.80005  0.59340  1.0000
  H   H1294     1.0  0.47838  0.72459  0.72639  1.0000
  C   C718      1.0  0.11630  0.53702  0.59955  1.0000
  C   C719      1.0  0.42837  0.82226  0.58024  1.0000
  C   C720      1.0  0.42502  0.82392  0.62077  1.0000
  N   N42       1.0  0.20481  0.71212  0.72773  1.0000
  C   C721      1.0  0.21256  0.73621  0.72091  1.0000
  H   H1295     1.0  0.05695  0.67651  0.56029  1.0000
  C   C722      1.0  0.22668  0.69483  0.72702  1.0000
  C   C723      1.0  0.18648  0.70314  0.71553  1.0000
  C   C724      1.0  0.16261  0.71849  0.71409  1.0000
  C   C725      1.0  0.22505  0.73737  0.70140  1.0000
  C   C726      1.0  0.22398  0.66985  0.73649  1.0000
  H   H1296     1.0  0.47013  0.94570  0.55814  1.0000
  C   C727      1.0  0.42534  0.83236  0.72603  1.0000
  C   C728      1.0  0.14678  0.70906  0.69977  1.0000
  C   C729      1.0  0.46257  0.95515  0.54567  1.0000
  C   C730      1.0  0.18223  0.73681  0.75380  1.0000
  H   H1297     1.0  0.22523  0.74261  0.73076  1.0000
  H   H1298     1.0  0.18907  0.63602  0.75269  1.0000
  H   H1299     1.0  0.23932  0.76310  0.68156  1.0000
  C   C731      1.0  0.05892  0.70986  0.52992  1.0000
  H   H1300     1.0  0.40824  0.78153  0.62553  1.0000
  H   H1301     1.0  0.47834  0.77741  0.71369  1.0000
  H   H1302     1.0  0.46806  0.82090  0.61020  1.0000
  C   C732      1.0  0.12552  0.55647  0.67500  1.0000
  H   H1303     1.0  0.47361  0.79765  0.58239  1.0000
  H   H1304     1.0  0.21870  0.67104  0.75136  1.0000
  C   C733      1.0  0.42813  0.78070  0.62435  1.0000
  H   H1305     1.0  0.10207  0.52478  0.59751  1.0000
  H   H1306     1.0  0.43433  0.78175  0.63864  1.0000
  H   H1307     1.0  0.43364  0.75257  0.60380  1.0000
  C   C734      1.0  0.48788  0.81644  0.67980  1.0000
  C   C735      1.0  0.09762  0.71897  0.59711  1.0000
  H   H1308     1.0  0.42609  0.83295  0.55113  1.0000
  H   H1309     1.0  0.12137  0.52453  0.62760  1.0000
  H   H1310     1.0  0.24497  0.63669  0.74215  1.0000
  H   H1311     1.0  0.15331  0.52641  0.55612  1.0000
  C   C736      1.0  0.19263  0.50427  0.69602  1.0000
  H   H1312     1.0  0.40111  0.78487  0.73120  1.0000
  H   H1313     1.0  0.34850  0.83647  0.50930  1.0000
  H   H1314     1.0  0.18814  0.51082  0.61657  1.0000
  H   H1315     1.0  0.13825  0.55235  0.68628  1.0000
  H   H1316     1.0  0.16687  0.53232  0.66347  1.0000
  Fe  Fe82      1.0  0.09824  0.57612  0.50906  1.0000
  H   H1317     1.0  0.49970  0.73847  0.71091  1.0000
  C   C737      1.0  0.43848  0.80782  0.72204  1.0000
  H   H1318     1.0  0.11116  0.73114  0.59163  1.0000
  H   H1319     1.0  0.48111  0.98633  0.54875  1.0000
  H   H1320     1.0  0.49232  0.93319  0.51177  1.0000
  C   C738      1.0  0.47405  0.76343  0.72426  1.0000
  C   C739      1.0  0.15309  0.54297  0.61744  1.0000
  H   H1321     1.0  0.48748  0.74942  0.67060  1.0000
  H   H1322     1.0  0.45709  0.81079  0.71740  1.0000
  C   C740      1.0  0.12509  0.50246  0.71919  1.0000
  H   H1323     1.0  0.19571  0.55430  0.64760  1.0000
  H   H1324     1.0  0.12563  0.56386  0.64563  1.0000
  C   C741      1.0  0.13261  0.52668  0.61480  1.0000
  H   H1325     1.0  0.40952  0.99587  0.53977  1.0000
  H   H1326     1.0  0.21680  0.54034  0.61794  1.0000
  H   H1327     1.0  0.14008  0.50897  0.61040  1.0000
  H   H1328     1.0  0.24193  0.70260  0.73345  1.0000
  H   H1329     1.0  0.21071  0.59477  0.61951  1.0000
  C   C742      1.0  0.22133  0.57739  0.62034  1.0000
  H   H1330     1.0  0.16906  0.74429  0.74377  1.0000
  H   H1331     1.0  0.24905  0.97244  0.72918  1.0000
  H   H1332     1.0  0.45257  0.85383  0.71282  1.0000
  H   H1333     1.0  0.26775  0.80140  0.50746  1.0000
  H   H1334     1.0  0.11500  0.57340  0.67803  1.0000
  Fe  Fe83      1.0  0.43270  0.86812  0.50791  1.0000
  C   C743      1.0  0.05550  0.72312  0.51121  1.0000
  H   H1335     1.0  0.48789  0.83515  0.68258  1.0000
  C   C744      1.0  0.48072  0.73930  0.71589  1.0000
  H   H1336     1.0  0.42338  0.86907  0.71558  1.0000
  H   H1337     1.0  0.18344  0.52369  0.54611  1.0000
  C   C745      1.0  0.39534  0.97843  0.51710  1.0000
  C   C746      1.0  0.48231  0.89720  0.51028  1.0000
  H   H1338     1.0  0.42841  0.83788  0.74021  1.0000
  S   S165      1.0  0.47014  0.85140  0.50712  1.0000
  H   H1339     1.0  0.46778  0.82910  0.74605  1.0000
  C   C747      1.0  0.41183  0.78721  0.74353  1.0000
  C   C748      1.0  0.47337  0.81052  0.75051  1.0000
  H   H1340     1.0  0.13860  0.51209  0.72613  1.0000
  C   C749      1.0  0.49038  0.87351  0.50757  1.0000
  S   S166      1.0  0.08105  0.54147  0.51357  1.0000
  H   H1341     1.0  0.10803  0.51371  0.71923  1.0000
  H   H1342     1.0  0.40862  0.74932  0.75114  1.0000
  H   H1343     1.0  0.32494  0.81638  0.51112  1.0000
  C   C750      1.0  0.45116  0.79582  0.75437  1.0000
  H   H1344     1.0  0.29322  0.78171  0.75272  1.0000
  H   H1345     1.0  0.02042  0.62134  0.50962  1.0000
  S   S167      1.0  0.36765  0.89459  0.50951  1.0000
  C   C751      1.0  0.09941  0.51667  0.50694  1.0000
  C   C752      1.0  0.40011  0.99839  0.52700  1.0000
  H   H1346     1.0  0.19544  0.75031  0.75533  1.0000
  C   C753      1.0  0.28354  0.97372  0.78839  1.0000
  H   H1347     1.0  0.04902  0.51765  0.99469  1.0000
  H   H1348     1.0  0.02979  0.80826  0.96001  1.0000
  H   H1349     1.0  0.20877  0.96403  0.78589  1.0000
  Fe  Fe84      1.0  0.36259  0.89687  0.98516  1.0000
  S   S168      1.0  0.33436  0.88353  0.96691  1.0000
  S   S169      1.0  0.38458  0.92754  0.97731  1.0000
  Fe  Fe85      1.0  0.30302  0.88497  0.85990  1.0000
  S   S170      1.0  0.26597  0.89413  0.87103  1.0000
  S   S171      1.0  0.33533  0.88251  0.87838  1.0000
  Fe  Fe86      1.0  0.28675  0.88615  0.81939  1.0000
  S   S172      1.0  0.24861  0.89634  0.82851  1.0000
  S   S173      1.0  0.29015  0.88359  0.78778  1.0000
  Fe  Fe87      1.0  0.26410  0.92169  0.84741  1.0000
  S   S174      1.0  0.24816  0.95959  0.85276  1.0000
  Fe  Fe88      1.0  0.25402  0.86791  0.85104  1.0000
  S   S175      1.0  0.23136  0.83667  0.86002  1.0000
  S   S176      1.0  0.30167  0.91349  0.83692  1.0000
  S   S177      1.0  0.29169  0.85685  0.84131  1.0000
  H   H1350     1.0  0.46677  0.97555  0.00185  1.0000
  H   H1351     1.0  0.32697  0.83340  0.98550  1.0000
  H   H1352     1.0  0.28729  0.93627  0.77951  1.0000
  H   H1353     1.0  0.22805  0.76177  0.78813  1.0000
  H   H1354     1.0  0.24791  0.96391  0.91054  1.0000
  H   H1355     1.0  0.32773  0.95222  0.77590  1.0000
  Fe  Fe89      1.0  0.11793  0.64540  0.99214  1.0000
  S   S178      1.0  0.14224  0.65513  0.96728  1.0000
  S   S179      1.0  0.08646  0.62334  0.99010  1.0000
  Fe  Fe90      1.0  0.13256  0.70250  0.82391  1.0000
  S   S180      1.0  0.11296  0.73540  0.81207  1.0000
  S   S181      1.0  0.16051  0.67871  0.80812  1.0000
  Fe  Fe91      1.0  0.10955  0.70993  0.86311  1.0000
  S   S182      1.0  0.08912  0.74403  0.85367  1.0000
  S   S183      1.0  0.09766  0.69125  0.89034  1.0000
  Fe  Fe92      1.0  0.08038  0.72416  0.82878  1.0000
  S   S184      1.0  0.04406  0.71706  0.81729  1.0000
  Fe  Fe93      1.0  0.12354  0.75260  0.83798  1.0000
  S   S185      1.0  0.13823  0.78964  0.83345  1.0000
  S   S186      1.0  0.09965  0.68996  0.83869  1.0000
  S   S187      1.0  0.14441  0.71990  0.84927  1.0000
  H   H1356     1.0  0.30688  0.76651  0.77270  1.0000
  C   C754      1.0  0.34151  0.82784  0.99509  1.0000
  H   H1357     1.0  0.25346  0.90921  0.91350  1.0000
  C   C755      1.0  0.13590  0.66834  0.75680  1.0000
  H   H1358     1.0  0.02200  0.75501  0.84045  1.0000
  H   H1359     1.0  0.03676  0.75122  0.93618  1.0000
  C   C756      1.0  0.15781  0.66967  0.78509  1.0000
  H   H1360     1.0  0.12283  0.68688  0.78118  1.0000
  C   C757      1.0  0.13051  0.66372  0.94531  1.0000
  C   C758      1.0  0.14447  0.67598  0.93198  1.0000
  C   C759      1.0  0.13511  0.68399  0.91477  1.0000
  C   C760      1.0  0.11175  0.67952  0.91067  1.0000
  C   C761      1.0  0.09812  0.66665  0.92378  1.0000
  C   C762      1.0  0.10737  0.65887  0.94100  1.0000
  H   H1361     1.0  0.16243  0.67978  0.93518  1.0000
  H   H1362     1.0  0.14576  0.69407  0.90490  1.0000
  H   H1363     1.0  0.08005  0.66309  0.92079  1.0000
  H   H1364     1.0  0.09648  0.64932  0.95103  1.0000
  H   H1365     1.0  0.34083  0.93409  0.94920  1.0000
  C   C763      1.0  0.32078  0.94521  0.78948  1.0000
  H   H1366     1.0  0.23784  0.88059  0.78622  1.0000
  C   C764      1.0  0.24393  0.96022  0.79874  1.0000
  H   H1367     1.0  0.06923  0.55365  0.98352  1.0000
  H   H1368     1.0  0.30338  0.97363  0.87541  1.0000
  H   H1369     1.0  0.39381  0.98348  0.96435  1.0000
  C   C765      1.0  0.20559  0.82387  0.85208  1.0000
  C   C766      1.0  0.19023  0.83577  0.83941  1.0000
  C   C767      1.0  0.16989  0.82495  0.83381  1.0000
  C   C768      1.0  0.16448  0.80213  0.84082  1.0000
  C   C769      1.0  0.17987  0.79024  0.85348  1.0000
  C   C770      1.0  0.20025  0.80104  0.85903  1.0000
  H   H1370     1.0  0.19373  0.85351  0.83422  1.0000
  H   H1371     1.0  0.15802  0.83446  0.82417  1.0000
  H   H1372     1.0  0.17598  0.77278  0.85910  1.0000
  H   H1373     1.0  0.21186  0.79169  0.86894  1.0000
  C   C771      1.0  0.30865  0.86488  0.77306  1.0000
  C   C772      1.0  0.32821  0.85061  0.77957  1.0000
  H   H1374     1.0  0.43919  0.80650  0.76400  1.0000
  H   H1375     1.0  0.33236  0.85061  0.79404  1.0000
  H   H1376     1.0  0.19221  0.65009  0.78459  1.0000
  C   C773      1.0  0.26096  0.98727  0.84761  1.0000
  H   H1377     1.0  0.29377  0.97229  0.83540  1.0000
  H   H1378     1.0  0.21198  0.94301  0.82576  1.0000
  C   C774      1.0  0.33470  0.88475  0.94223  1.0000
  C   C775      1.0  0.35541  0.88878  0.93152  1.0000
  C   C776      1.0  0.35521  0.88829  0.91203  1.0000
  C   C777      1.0  0.33427  0.88418  0.90295  1.0000
  C   C778      1.0  0.31335  0.88096  0.91364  1.0000
  C   C779      1.0  0.31365  0.88106  0.93314  1.0000
  H   H1379     1.0  0.37176  0.89159  0.93828  1.0000
  H   H1380     1.0  0.37151  0.89075  0.90393  1.0000
  H   H1381     1.0  0.29713  0.87761  0.90691  1.0000
  H   H1382     1.0  0.29752  0.87790  0.94125  1.0000
  H   H1383     1.0  0.47651  0.81966  0.77928  1.0000
  H   H1384     1.0  0.24749  0.94005  0.76448  1.0000
  C   C780      1.0  0.04876  0.77361  0.95715  1.0000
  H   H1385     1.0  0.20117  0.76272  0.82593  1.0000
  H   H1386     1.0  0.26287  0.98955  0.88784  1.0000
  N   N43       1.0  0.30038  0.96331  0.90460  1.0000
  H   H1387     1.0  0.03056  0.74168  0.95942  1.0000
  C   C781      1.0  0.31738  0.95403  0.91939  1.0000
  C   C782      1.0  0.31508  0.96694  0.88685  1.0000
  C   C783      1.0  0.28209  0.94563  0.90143  1.0000
  H   H1388     1.0  0.29304  0.98245  0.77642  1.0000
  H   H1389     1.0  0.15375  0.72229  0.77111  1.0000
  C   C784      1.0  0.32919  0.94451  0.87936  1.0000
  C   C785      1.0  0.30667  0.94973  0.93923  1.0000
  C   C786      1.0  0.32620  0.94722  0.95349  1.0000
  C   C787      1.0  0.24343  0.92662  0.91059  1.0000
  H   H1390     1.0  0.23042  0.98496  0.76590  1.0000
  C   C788      1.0  0.34222  0.95019  0.86093  1.0000
  C   C789      1.0  0.02675  0.79078  0.95432  1.0000
  H   H1391     1.0  0.21397  0.86812  0.77456  1.0000
  H   H1392     1.0  0.32613  0.93642  0.91585  1.0000
  H   H1393     1.0  0.33207  0.96622  0.92012  1.0000
  H   H1394     1.0  0.26887  0.77334  0.79019  1.0000
  H   H1395     1.0  0.20783  0.88293  0.79599  1.0000
  H   H1396     1.0  0.27611  0.94741  0.88689  1.0000
  H   H1397     1.0  0.29039  0.92711  0.90292  1.0000
  C   C790      1.0  0.00454  0.60457  0.00359  1.0000
  H   H1398     1.0  0.21037  0.98070  0.80654  1.0000
  H   H1399     1.0  0.06422  0.78168  0.95010  1.0000
  H   H1400     1.0  0.11306  0.60459  0.79993  1.0000
  H   H1401     1.0  0.31680  0.93058  0.87702  1.0000
  H   H1402     1.0  0.34304  0.93722  0.88896  1.0000
  H   H1403     1.0  0.30022  0.80397  0.79005  1.0000
  H   H1404     1.0  0.29757  0.93282  0.93990  1.0000
  H   H1405     1.0  0.07808  0.77026  0.92289  1.0000
  H   H1406     1.0  0.33369  0.96464  0.95526  1.0000
  H   H1407     1.0  0.12957  0.74229  0.97592  1.0000
  H   H1408     1.0  0.23781  0.82900  0.77476  1.0000
  H   H1409     1.0  0.05195  0.77214  0.97224  1.0000
  C   C791      1.0  0.25886  0.94719  0.91382  1.0000
  H   H1410     1.0  0.00870  0.53373  0.97851  1.0000
  H   H1411     1.0  0.49490  0.79349  0.77248  1.0000
  H   H1412     1.0  0.29383  0.96432  0.94370  1.0000
  H   H1413     1.0  0.40595  0.97645  0.00450  1.0000
  H   H1414     1.0  0.35541  0.96361  0.86267  1.0000
  H   H1415     1.0  0.35186  0.93368  0.85588  1.0000
  C   C792      1.0  0.34280  0.83673  0.76722  1.0000
  H   H1416     1.0  0.22727  0.92782  0.91993  1.0000
  H   H1417     1.0  0.29118  0.77561  0.85094  1.0000
  H   H1418     1.0  0.27588  0.80465  0.85242  1.0000
  C   C793      1.0  0.04997  0.55239  0.98100  1.0000
  H   H1419     1.0  0.02327  0.79361  0.93934  1.0000
  C   C794      1.0  0.16901  0.73347  0.77250  1.0000
  H   H1420     1.0  0.02751  0.71224  0.86961  1.0000
  H   H1421     1.0  0.25020  0.96001  0.81316  1.0000
  H   H1422     1.0  0.37750  0.96709  0.94885  1.0000
  H   H1423     1.0  0.43814  0.97137  0.97731  1.0000
  C   C795      1.0  0.47757  0.90671  0.99235  1.0000
  H   H1424     1.0  0.03311  0.72159  0.89241  1.0000
  H   H1425     1.0  0.32938  0.95700  0.85035  1.0000
  C   C796      1.0  0.24962  0.97895  0.76701  1.0000
  C   C797      1.0  0.49906  0.90960  0.98216  1.0000
  H   H1426     1.0  0.40247  0.98283  0.93998  1.0000
  C   C798      1.0  0.48229  0.97597  0.99182  1.0000
  H   H1427     1.0  0.27740  0.98599  0.92233  1.0000
  H   H1428     1.0  0.00337  0.55139  0.99777  1.0000
  S   S188      1.0  0.45053  0.90859  0.98048  1.0000
  H   H1429     1.0  0.31861  0.94096  0.96710  1.0000
  H   H1430     1.0  0.32722  0.92615  0.79121  1.0000
  C   C799      1.0  0.28359  0.98852  0.83905  1.0000
  Fe  Fe94      1.0  0.37119  0.94242  0.00418  1.0000
  C   C800      1.0  0.38710  0.98344  0.95011  1.0000
  N   N44       1.0  0.24960  0.80642  0.79814  1.0000
  H   H1431     1.0  0.28765  0.93945  0.80389  1.0000
  C   C801      1.0  0.22608  0.79537  0.80252  1.0000
  C   C802      1.0  0.24430  0.83078  0.78897  1.0000
  C   C803      1.0  0.26252  0.80969  0.81564  1.0000
  C   C804      1.0  0.27056  0.78676  0.82691  1.0000
  C   C805      1.0  0.22576  0.84773  0.79930  1.0000
  C   C806      1.0  0.22613  0.76777  0.80258  1.0000
  C   C807      1.0  0.20277  0.75908  0.81097  1.0000
  C   C808      1.0  0.28597  0.79230  0.84291  1.0000
  C   C809      1.0  0.22113  0.87126  0.78827  1.0000
  C   C810      1.0  0.13745  0.67607  0.77497  1.0000
  C   C811      1.0  0.26473  0.79170  0.78454  1.0000
  H   H1432     1.0  0.21834  0.80136  0.81610  1.0000
  H   H1433     1.0  0.21261  0.80172  0.79216  1.0000
  H   H1434     1.0  0.35811  0.82616  0.77240  1.0000
  H   H1435     1.0  0.26085  0.84054  0.78723  1.0000
  H   H1436     1.0  0.27825  0.82037  0.81270  1.0000
  H   H1437     1.0  0.25095  0.82047  0.82535  1.0000
  C   C812      1.0  0.01998  0.62300  0.00279  1.0000
  C   C813      1.0  0.17650  0.65538  0.77681  1.0000
  H   H1438     1.0  0.23223  0.85195  0.81297  1.0000
  H   H1439     1.0  0.20832  0.83982  0.80149  1.0000
  H   H1440     1.0  0.04087  0.57051  0.98178  1.0000
  H   H1441     1.0  0.24090  0.75879  0.81049  1.0000
  H   H1442     1.0  0.18711  0.76801  0.80393  1.0000
  H   H1443     1.0  0.20252  0.73954  0.80962  1.0000
  H   H1444     1.0  0.25467  0.77838  0.83312  1.0000
  C   C814      1.0  0.29351  0.94733  0.79032  1.0000
  H   H1445     1.0  0.13881  0.71126  0.98004  1.0000
  H   H1446     1.0  0.30246  0.80045  0.83763  1.0000
  H   H1447     1.0  0.02425  0.71258  0.93634  1.0000
  H   H1448     1.0  0.32798  0.98078  0.88847  1.0000
  H   H1449     1.0  0.11392  0.72455  0.99329  1.0000
  N   N45       1.0  0.13801  0.61968  0.85265  1.0000
  C   C815      1.0  0.15076  0.59854  0.86250  1.0000
  C   C816      1.0  0.11305  0.62425  0.86100  1.0000
  C   C817      1.0  0.13584  0.61336  0.83267  1.0000
  C   C818      1.0  0.15193  0.64162  0.85271  1.0000
  C   C819      1.0  0.15774  0.65054  0.87187  1.0000
  C   C820      1.0  0.17657  0.59159  0.85528  1.0000
  C   C821      1.0  0.11890  0.63027  0.82075  1.0000
  C   C822      1.0  0.10947  0.62078  0.88232  1.0000
  C   C823      1.0  0.08346  0.62692  0.88838  1.0000
  C   C824      1.0  0.17913  0.66592  0.87044  1.0000
  C   C825      1.0  0.18763  0.57029  0.86656  1.0000
  C   C826      1.0  0.11940  0.62272  0.80069  1.0000
  H   H1450     1.0  0.14015  0.58264  0.86179  1.0000
  H   H1451     1.0  0.15199  0.60129  0.87749  1.0000
  H   H1452     1.0  0.10586  0.64264  0.85708  1.0000
  H   H1453     1.0  0.10078  0.61202  0.85518  1.0000
  H   H1454     1.0  0.12948  0.59513  0.83197  1.0000
  H   H1455     1.0  0.15360  0.61291  0.82526  1.0000
  H   H1456     1.0  0.16879  0.63911  0.84420  1.0000
  H   H1457     1.0  0.14211  0.65694  0.84556  1.0000
  H   H1458     1.0  0.16211  0.63602  0.88219  1.0000
  H   H1459     1.0  0.14211  0.66166  0.87728  1.0000
  H   H1460     1.0  0.17687  0.58649  0.84064  1.0000
  H   H1461     1.0  0.18819  0.60653  0.85644  1.0000
  H   H1462     1.0  0.12421  0.64876  0.82055  1.0000
  H   H1463     1.0  0.10012  0.63024  0.82609  1.0000
  H   H1464     1.0  0.11363  0.60188  0.88680  1.0000
  H   H1465     1.0  0.12077  0.63205  0.88988  1.0000
  H   H1466     1.0  0.07145  0.61510  0.88193  1.0000
  H   H1467     1.0  0.08139  0.62448  0.90366  1.0000
  H   H1468     1.0  0.07797  0.64573  0.88443  1.0000
  H   H1469     1.0  0.18118  0.67425  0.88387  1.0000
  H   H1470     1.0  0.19574  0.65482  0.86709  1.0000
  H   H1471     1.0  0.17668  0.68021  0.85951  1.0000
  H   H1472     1.0  0.17696  0.55456  0.86560  1.0000
  H   H1473     1.0  0.20604  0.56560  0.86110  1.0000
  H   H1474     1.0  0.18862  0.57466  0.88134  1.0000
  H   H1475     1.0  0.13775  0.62298  0.79442  1.0000
  C   C827      1.0  0.48399  0.85322  0.95432  1.0000
  H   H1476     1.0  0.10751  0.63538  0.79245  1.0000
  N   N46       1.0  0.06639  0.73080  0.94904  1.0000
  C   C828      1.0  0.08324  0.73424  0.96435  1.0000
  C   C829      1.0  0.04490  0.74864  0.94999  1.0000
  C   C830      1.0  0.05740  0.70623  0.95212  1.0000
  C   C831      1.0  0.07873  0.73213  0.93018  1.0000
  C   C832      1.0  0.09149  0.75505  0.92500  1.0000
  C   C833      1.0  0.10638  0.71741  0.96473  1.0000
  C   C834      1.0  0.03943  0.69903  0.93791  1.0000
  H   H1477     1.0  0.26256  0.94675  0.92870  1.0000
  H   H1478     1.0  0.34863  0.80956  0.99180  1.0000
  C   C835      1.0  0.10605  0.75247  0.90681  1.0000
  C   C836      1.0  0.12311  0.72443  0.97942  1.0000
  C   C837      1.0  0.02916  0.67536  0.94381  1.0000
  H   H1479     1.0  0.07371  0.73207  0.97808  1.0000
  H   H1480     1.0  0.08921  0.75258  0.96380  1.0000
  H   H1481     1.0  0.25448  0.78965  0.77189  1.0000
  C   C838      1.0  0.28927  0.98741  0.90981  1.0000
  H   H1482     1.0  0.04898  0.70428  0.96629  1.0000
  H   H1483     1.0  0.07233  0.69232  0.95169  1.0000
  H   H1484     1.0  0.09187  0.71667  0.92859  1.0000
  H   H1485     1.0  0.06585  0.73049  0.91908  1.0000
  H   H1486     1.0  0.10396  0.75921  0.93569  1.0000
  C   C839      1.0  0.01397  0.72593  0.82400  1.0000
  H   H1487     1.0  0.10221  0.69878  0.96813  1.0000
  H   H1488     1.0  0.11651  0.71800  0.95129  1.0000
  H   H1489     1.0  0.04852  0.69667  0.92415  1.0000
  C   C840      1.0  0.47251  0.98718  0.97341  1.0000
  N   N47       1.0  0.25678  0.97840  0.78693  1.0000
  H   H1490     1.0  0.18108  0.72483  0.78300  1.0000
  H   H1491     1.0  0.21009  0.92630  0.80510  1.0000
  C   C841      1.0  0.21628  0.96382  0.79985  1.0000
  H   H1492     1.0  0.28124  0.77387  0.81828  1.0000
  H   H1493     1.0  0.11450  0.76932  0.90299  1.0000
  H   H1494     1.0  0.12038  0.73792  0.90821  1.0000
  H   H1495     1.0  0.09439  0.74847  0.89546  1.0000
  H   H1496     1.0  0.18569  0.94679  0.81218  1.0000
  H   H1497     1.0  0.41845  0.76637  0.76965  1.0000
  C   C842      1.0  0.02456  0.70810  0.88466  1.0000
  H   H1498     1.0  0.04369  0.66130  0.94642  1.0000
  H   H1499     1.0  0.01776  0.67736  0.95660  1.0000
  H   H1500     1.0  0.01805  0.66959  0.93272  1.0000
  H   H1501     1.0  0.45986  0.95497  0.96281  1.0000
  H   H1502     1.0  0.47818  0.86463  0.94218  1.0000
  H   H1503     1.0  0.03345  0.69031  0.88821  1.0000
  C   C843      1.0  0.28901  0.80139  0.77811  1.0000
  C   C844      1.0  0.01210  0.53405  0.99348  1.0000
  H   H1504     1.0  0.16182  0.75101  0.77751  1.0000
  C   C845      1.0  0.03932  0.53546  0.99563  1.0000
  C   C846      1.0  0.20544  0.94370  0.81143  1.0000
  H   H1505     1.0  0.48771  0.95689  0.98977  1.0000
  H   H1506     1.0  0.24843  0.94187  0.79413  1.0000
  Fe  Fe95      1.0  0.41344  0.90849  0.99440  1.0000
  H   H1507     1.0  0.37703  0.75421  0.77507  1.0000
  C   C847      1.0  0.00798  0.74534  0.83511  1.0000
  C   C848      1.0  0.38065  0.76947  0.76539  1.0000
  C   C849      1.0  0.25440  0.95556  0.75661  1.0000
  H   H1508     1.0  0.47164  0.83875  0.95650  1.0000
  H   H1509     1.0  0.32788  0.95508  0.80079  1.0000
  C   C850      1.0  0.30316  0.78408  0.76541  1.0000
  H   H1510     1.0  0.23754  0.92754  0.89607  1.0000
  H   H1511     1.0  0.37749  0.78614  0.77301  1.0000
  H   H1512     1.0  0.28967  0.98191  0.80093  1.0000
  H   H1513     1.0  0.04831  0.54573  0.96692  1.0000
  H   H1514     1.0  0.44491  0.98224  0.95404  1.0000
  C   C851      1.0  0.01242  0.64549  0.99541  1.0000
  S   S189      1.0  0.03108  0.66891  0.99602  1.0000
  S   S190      1.0  0.39221  0.87633  0.00062  1.0000
  C   C852      1.0  0.45262  0.97306  0.96655  1.0000
  H   H1515     1.0  0.35610  0.84004  0.99276  1.0000
  H   H1516     1.0  0.24123  0.84144  0.00013  1.0000
  H   H1517     1.0  0.21029  0.70987  0.75737  1.0000
  C   C853      1.0  0.48778  0.81161  0.76790  1.0000
  C   C854      1.0  0.17489  0.64757  0.75865  1.0000
  H   H1518     1.0  0.28629  0.81857  0.77014  1.0000
  C   C855      1.0  0.39933  0.99492  0.00318  1.0000
  C   C856      1.0  0.40643  0.76676  0.75781  1.0000
  H   H1519     1.0  0.45686  0.77940  0.76264  1.0000
  H   H1520     1.0  0.14740  0.51640  0.99876  1.0000
  H   H1521     1.0  0.48667  0.98733  0.96231  1.0000
  H   H1522     1.0  0.32053  0.79124  0.76114  1.0000
  H   H1523     1.0  0.48266  0.86407  0.96683  1.0000
  H   H1524     1.0  0.25920  0.99252  0.75867  1.0000
  H   H1525     1.0  0.49861  0.91332  0.96738  1.0000
  H   H1526     1.0  0.28398  0.83489  0.00547  1.0000
  S   S191      1.0  0.35406  0.97933  0.00571  1.0000
  H   H1527     1.0  0.01080  0.78374  0.96161  1.0000
  N   N48       1.0  0.00100  0.51387  0.00430  1.0000
  S   S192      1.0  0.09697  0.67569  0.00554  1.0000
  Fe  Fe96      1.0  0.06646  0.65277  0.00523  1.0000
  C   C857      1.0  0.13023  0.51815  0.00606  1.0000
  Fe  Fe97      1.0  0.63551  0.12169  0.02777  1.0000
  S   S193      1.0  0.66454  0.13155  0.04651  1.0000
  S   S194      1.0  0.59706  0.11820  0.03612  1.0000
  Fe  Fe98      1.0  0.69085  0.14797  0.19665  1.0000
  S   S195      1.0  0.73081  0.14044  0.19500  1.0000
  S   S196      1.0  0.66595  0.16309  0.21979  1.0000
  Fe  Fe99      1.0  0.68601  0.13813  0.15503  1.0000
  S   S197      1.0  0.72555  0.13105  0.15050  1.0000
  S   S198      1.0  0.65698  0.13342  0.13452  1.0000
  Fe  Fe100     1.0  0.72322  0.10933  0.17754  1.0000
  S   S199      1.0  0.74268  0.07202  0.17880  1.0000
  Fe  Fe101     1.0  0.72988  0.16256  0.16817  1.0000
  S   S200      1.0  0.74835  0.19735  0.16165  1.0000
  S   S201      1.0  0.68350  0.11536  0.18130  1.0000
  S   S202      1.0  0.69007  0.17108  0.17056  1.0000
  Fe  Fe102     1.0  0.87406  0.36339  0.01662  1.0000
  H   H1528     1.0  0.97204  0.35380  0.02355  1.0000
  S   S203      1.0  0.86874  0.33572  0.04028  1.0000
  H   H1529     1.0  0.77901  0.25543  0.19906  1.0000
  Fe  Fe103     1.0  0.86705  0.27177  0.16478  1.0000
  S   S204      1.0  0.84606  0.30624  0.17069  1.0000
  S   S205      1.0  0.85322  0.23467  0.16252  1.0000
  Fe  Fe104     1.0  0.91579  0.29542  0.16487  1.0000
  S   S206      1.0  0.89784  0.33112  0.17141  1.0000
  S   S207      1.0  0.95535  0.28768  0.15667  1.0000
  Fe  Fe105     1.0  0.87377  0.31141  0.19170  1.0000
  S   S208      1.0  0.86494  0.31519  0.22280  1.0000
  Fe  Fe106     1.0  0.87182  0.32294  0.14986  1.0000
  S   S209      1.0  0.86210  0.35113  0.12730  1.0000
  S   S210      1.0  0.89382  0.27596  0.18652  1.0000
  S   S211      1.0  0.89072  0.28819  0.14256  1.0000
  C   C858      1.0  0.98113  0.29835  0.16609  1.0000
  C   C859      1.0  0.67862  0.02811  0.23522  1.0000
  C   C860      1.0  0.97953  0.31633  0.17886  1.0000
  H   H1530     1.0  0.96763  0.34430  0.07790  1.0000
  H   H1531     1.0  0.96225  0.32480  0.18251  1.0000
  C   C861      1.0  0.85005  0.36245  0.23024  1.0000
  C   C862      1.0  0.85248  0.33868  0.23677  1.0000
  C   C863      1.0  0.72617  0.01287  0.11754  1.0000
  H   H1532     1.0  0.85515  0.36700  0.21603  1.0000
  C   C864      1.0  0.51780  0.14727  0.00791  1.0000
  C   C865      1.0  0.86798  0.34078  0.06435  1.0000
  C   C866      1.0  0.87352  0.32152  0.07685  1.0000
  C   C867      1.0  0.87263  0.32463  0.09611  1.0000
  C   C868      1.0  0.86544  0.34686  0.10312  1.0000
  C   C869      1.0  0.86008  0.36613  0.09060  1.0000
  C   C870      1.0  0.86151  0.36318  0.07132  1.0000
  H   H1533     1.0  0.87866  0.30414  0.07161  1.0000
  H   H1534     1.0  0.87736  0.30985  0.10554  1.0000
  H   H1535     1.0  0.85454  0.38343  0.09585  1.0000
  H   H1536     1.0  0.85713  0.37815  0.06187  1.0000
  C   C871      1.0  0.77774  0.20708  0.16210  1.0000
  C   C872      1.0  0.78067  0.23173  0.16155  1.0000
  C   C873      1.0  0.80353  0.24047  0.16216  1.0000
  C   C874      1.0  0.82387  0.22467  0.16262  1.0000
  C   C875      1.0  0.82096  0.20003  0.16302  1.0000
  C   C876      1.0  0.79804  0.19125  0.16297  1.0000
  H   H1537     1.0  0.76509  0.24415  0.16095  1.0000
  H   H1538     1.0  0.80546  0.25941  0.16236  1.0000
  H   H1539     1.0  0.83658  0.18762  0.16341  1.0000
  H   H1540     1.0  0.79613  0.17227  0.16334  1.0000
  H   H1541     1.0  0.70545  0.15673  0.24562  1.0000
  C   C877      1.0  0.97880  0.41996  0.01708  1.0000
  C   C878      1.0  0.91965  0.29792  0.02779  1.0000
  C   C879      1.0  0.74461  0.20289  0.25152  1.0000
  C   C880      1.0  0.51609  0.19023  0.00822  1.0000
  H   H1542     1.0  0.95979  0.36188  0.12138  1.0000
  C   C881      1.0  0.70558  0.04153  0.18281  1.0000
  C   C882      1.0  0.73007  0.04376  0.17980  1.0000
  C   C883      1.0  0.74512  0.02292  0.17749  1.0000
  H   H1543     1.0  0.76957  0.18246  0.19993  1.0000
  S   S212      1.0  0.58205  0.05368  0.02829  1.0000
  H   H1544     1.0  0.69378  0.05729  0.18492  1.0000
  H   H1545     1.0  0.76413  0.02434  0.17532  1.0000
  C   C884      1.0  0.66214  0.13176  0.07098  1.0000
  C   C885      1.0  0.64160  0.12515  0.08084  1.0000
  C   C886      1.0  0.64040  0.12571  0.10031  1.0000
  C   C887      1.0  0.65973  0.13268  0.11009  1.0000
  C   C888      1.0  0.68037  0.13898  0.10024  1.0000
  C   C889      1.0  0.68149  0.13864  0.08076  1.0000
  H   H1546     1.0  0.62669  0.11961  0.07349  1.0000
  H   H1547     1.0  0.62443  0.12066  0.10786  1.0000
  H   H1548     1.0  0.69535  0.14439  0.10761  1.0000
  H   H1549     1.0  0.69747  0.14372  0.07322  1.0000
  H   H1550     1.0  0.94297  0.28560  0.19793  1.0000
  C   C890      1.0  0.76944  0.18390  0.21528  1.0000
  H   H1551     1.0  0.91104  0.28936  0.23558  1.0000
  C   C891      1.0  0.68858  0.24996  0.25374  1.0000
  C   C892      1.0  0.79106  0.14285  0.21696  1.0000
  C   C893      1.0  0.69628  0.01887  0.18320  1.0000
  C   C894      1.0  0.96592  0.25368  0.20080  1.0000
  H   H1552     1.0  0.65951  0.00483  0.08808  1.0000
  H   H1553     1.0  0.72754  0.19362  0.19932  1.0000
  H   H1554     1.0  0.94969  0.32556  0.10654  1.0000
  H   H1555     1.0  0.90329  0.37851  0.22337  1.0000
  C   C895      1.0  0.54505  0.23597  0.05169  1.0000
  C   C896      1.0  0.96867  0.35622  0.13446  1.0000
  H   H1556     1.0  0.64668  0.06824  0.05855  1.0000
  S   S213      1.0  0.90027  0.39114  0.01787  1.0000
  C   C897      1.0  0.70329  0.22436  0.20031  1.0000
  H   H1557     1.0  0.54096  0.24207  0.03727  1.0000
  H   H1558     1.0  0.52631  0.02839  0.01083  1.0000
  C   C898      1.0  0.52962  0.16842  0.00828  1.0000
  C   C899      1.0  0.79162  0.16873  0.22235  1.0000
  C   C900      1.0  0.99391  0.34516  0.13054  1.0000
  H   H1559     1.0  0.79073  0.14176  0.20166  1.0000
  H   H1560     1.0  0.63573  0.00410  0.02186  1.0000
  H   H1561     1.0  0.54194  0.14242  0.04562  1.0000
  H   H1562     1.0  0.93327  0.26429  0.21535  1.0000
  H   H1563     1.0  0.65522  0.18520  0.04491  1.0000
  H   H1564     1.0  0.72798  0.21346  0.24786  1.0000
  H   H1565     1.0  0.65956  0.00212  0.25100  1.0000
  N   N49       1.0  0.70328  0.05506  0.11922  1.0000
  C   C901      1.0  0.70460  0.05406  0.09836  1.0000
  C   C902      1.0  0.70832  0.03036  0.12804  1.0000
  C   C903      1.0  0.67803  0.06382  0.12471  1.0000
  C   C904      1.0  0.71999  0.07221  0.12619  1.0000
  C   C905      1.0  0.74682  0.06714  0.12105  1.0000
  C   C906      1.0  0.69882  0.07786  0.08732  1.0000
  C   C907      1.0  0.67173  0.06355  0.14579  1.0000
  H   H1566     1.0  0.74793  0.32160  0.24402  1.0000
  H   H1567     1.0  0.65525  0.23234  0.25388  1.0000
  C   C908      1.0  0.76151  0.08738  0.12641  1.0000
  C   C909      1.0  0.70335  0.07484  0.06655  1.0000
  C   C910      1.0  0.64507  0.06954  0.14953  1.0000
  H   H1568     1.0  0.69209  0.04112  0.09389  1.0000
  H   H1569     1.0  0.72252  0.04718  0.09328  1.0000
  H   H1570     1.0  0.71474  0.03161  0.14234  1.0000
  H   H1571     1.0  0.78022  0.25654  0.22366  1.0000
  H   H1572     1.0  0.66502  0.05314  0.11807  1.0000
  H   H1573     1.0  0.67415  0.08260  0.11969  1.0000
  H   H1574     1.0  0.71438  0.09085  0.12169  1.0000
  H   H1575     1.0  0.71883  0.07224  0.14158  1.0000
  H   H1576     1.0  0.75001  0.06502  0.10601  1.0000
  H   H1577     1.0  0.75385  0.05084  0.12879  1.0000
  H   H1578     1.0  0.67975  0.08406  0.08940  1.0000
  H   H1579     1.0  0.71010  0.09193  0.09147  1.0000
  H   H1580     1.0  0.68157  0.07695  0.15260  1.0000
  H   H1581     1.0  0.67609  0.04584  0.15250  1.0000
  H   H1582     1.0  0.77696  0.47345  0.23180  1.0000
  H   H1583     1.0  0.74299  0.02094  0.11326  1.0000
  H   H1584     1.0  0.65598  0.00213  0.22638  1.0000
  C   C911      1.0  0.66990  0.23714  0.24399  1.0000
  H   H1585     1.0  0.61119  0.01535  0.04942  1.0000
  H   H1586     1.0  0.78060  0.08322  0.12249  1.0000
  H   H1587     1.0  0.75536  0.10437  0.11914  1.0000
  H   H1588     1.0  0.76012  0.08955  0.14160  1.0000
  H   H1589     1.0  0.69200  0.06134  0.06146  1.0000
  H   H1590     1.0  0.69894  0.09203  0.05893  1.0000
  H   H1591     1.0  0.72243  0.06941  0.06346  1.0000
  H   H1592     1.0  0.63446  0.05560  0.14420  1.0000
  H   H1593     1.0  0.64138  0.07051  0.16468  1.0000
  H   H1594     1.0  0.63930  0.08703  0.14288  1.0000
  C   C912      1.0  0.66889  0.17027  0.24329  1.0000
  H   H1595     1.0  0.97586  0.29581  0.21595  1.0000
  N   N50       1.0  0.81870  0.26781  0.10675  1.0000
  C   C913      1.0  0.80555  0.24529  0.10802  1.0000
  C   C914      1.0  0.84366  0.26273  0.11382  1.0000
  C   C915      1.0  0.80530  0.28556  0.11912  1.0000
  C   C916      1.0  0.81939  0.27889  0.08737  1.0000
  C   C917      1.0  0.83220  0.26378  0.07217  1.0000
  C   C918      1.0  0.77883  0.24780  0.10313  1.0000
  H   H1596     1.0  0.99233  0.32843  0.12322  1.0000
  C   C919      1.0  0.85633  0.23780  0.11020  1.0000
  C   C920      1.0  0.88292  0.23696  0.11410  1.0000
  C   C921      1.0  0.82951  0.27628  0.05309  1.0000
  C   C922      1.0  0.76805  0.22359  0.10459  1.0000
  H   H1597     1.0  0.53819  0.17491  0.06810  1.0000
  H   H1598     1.0  0.80647  0.23727  0.12238  1.0000
  H   H1599     1.0  0.81424  0.23155  0.09902  1.0000
  H   H1600     1.0  0.85545  0.27655  0.10824  1.0000
  H   H1601     1.0  0.84348  0.26400  0.12916  1.0000
  H   H1602     1.0  0.80131  0.27694  0.13290  1.0000
  H   H1603     1.0  0.78774  0.29163  0.11331  1.0000
  H   H1604     1.0  0.80104  0.28450  0.08291  1.0000
  H   H1605     1.0  0.82881  0.29560  0.08703  1.0000
  H   H1606     1.0  0.82487  0.24610  0.07162  1.0000
  H   H1607     1.0  0.85162  0.26157  0.07462  1.0000
  H   H1608     1.0  0.76823  0.25939  0.11289  1.0000
  H   H1609     1.0  0.77662  0.25523  0.08880  1.0000
  H   H1610     1.0  0.61709  0.01357  0.07321  1.0000
  H   H1611     1.0  0.95258  0.31261  0.01901  1.0000
  H   H1612     1.0  0.84825  0.22408  0.11951  1.0000
  H   H1613     1.0  0.85471  0.23247  0.09582  1.0000
  H   H1614     1.0  0.88549  0.24005  0.12891  1.0000
  H   H1615     1.0  0.89143  0.21910  0.11103  1.0000
  H   H1616     1.0  0.90071  0.35575  0.20708  1.0000
  H   H1617     1.0  0.81042  0.27854  0.04947  1.0000
  H   H1618     1.0  0.83696  0.29406  0.05277  1.0000
  H   H1619     1.0  0.83940  0.26548  0.04243  1.0000
  H   H1620     1.0  0.76931  0.21570  0.11892  1.0000
  H   H1621     1.0  0.74889  0.22579  0.10119  1.0000
  H   H1622     1.0  0.77739  0.21114  0.09478  1.0000
  H   H1623     1.0  0.92270  0.31545  0.21286  1.0000
  H   H1624     1.0  0.83530  0.30464  0.12886  1.0000
  N   N51       1.0  0.58728  0.18449  0.07299  1.0000
  C   C923      1.0  0.57654  0.16400  0.06436  1.0000
  C   C924      1.0  0.61208  0.18784  0.06476  1.0000
  C   C925      1.0  0.58962  0.17792  0.09338  1.0000
  C   C926      1.0  0.57156  0.20727  0.07122  1.0000
  H   H1625     1.0  0.63915  0.21276  0.03737  1.0000
  C   C927      1.0  0.55065  0.15911  0.07095  1.0000
  C   C928      1.0  0.60369  0.19476  0.10467  1.0000
  C   C929      1.0  0.61663  0.18333  0.04386  1.0000
  H   H1626     1.0  0.67728  0.01748  0.18549  1.0000
  C   C930      1.0  0.94173  0.31070  0.03210  1.0000
  H   H1627     1.0  0.95693  0.24552  0.18949  1.0000
  C   C931      1.0  0.60515  0.18579  0.12488  1.0000
  H   H1628     1.0  0.58805  0.14736  0.06697  1.0000
  H   H1629     1.0  0.57615  0.16644  0.04909  1.0000
  H   H1630     1.0  0.61738  0.20604  0.06734  1.0000
  H   H1631     1.0  0.62554  0.17537  0.07180  1.0000
  H   H1632     1.0  0.59858  0.15969  0.09522  1.0000
  H   H1633     1.0  0.57175  0.17720  0.10046  1.0000
  H   H1634     1.0  0.55484  0.20583  0.07985  1.0000
  H   H1635     1.0  0.58036  0.22224  0.07699  1.0000
  H   H1636     1.0  0.58043  0.22285  0.04379  1.0000
  C   C932      1.0  0.76605  0.21294  0.24057  1.0000
  H   H1637     1.0  0.54961  0.15427  0.08596  1.0000
  C   C933      1.0  0.64386  0.03033  0.05543  1.0000
  H   H1638     1.0  0.59485  0.21300  0.10453  1.0000
  H   H1639     1.0  0.62230  0.19576  0.09913  1.0000
  H   H1640     1.0  0.55282  0.12176  0.06378  1.0000
  H   H1641     1.0  0.60224  0.19135  0.03510  1.0000
  H   H1642     1.0  0.79482  0.21468  0.19836  1.0000
  H   H1643     1.0  0.90510  0.33865  0.23865  1.0000
  H   H1644     1.0  0.97095  0.23953  0.21139  1.0000
  H   H1645     1.0  0.79912  0.31500  0.14909  1.0000
  H   H1646     1.0  0.96922  0.37184  0.14324  1.0000
  H   H1647     1.0  0.70179  0.25554  0.24299  1.0000
  H   H1648     1.0  0.89226  0.49640  0.01999  1.0000
  H   H1649     1.0  0.61800  0.16386  0.04185  1.0000
  H   H1650     1.0  0.61429  0.16764  0.12583  1.0000
  H   H1651     1.0  0.61560  0.19781  0.13263  1.0000
  H   H1652     1.0  0.58703  0.18534  0.13154  1.0000
  N   N52       1.0  0.95432  0.34618  0.05012  1.0000
  C   C934      1.0  0.93500  0.33571  0.03979  1.0000
  C   C935      1.0  0.94705  0.37198  0.05360  1.0000
  C   C936      1.0  0.97643  0.34570  0.03749  1.0000
  C   C937      1.0  0.96004  0.33244  0.06806  1.0000
  C   C938      1.0  0.93921  0.32001  0.07843  1.0000
  H   H1653     1.0  0.92971  0.34764  0.02772  1.0000
  H   H1654     1.0  0.76544  0.29503  0.23768  1.0000
  C   C939      1.0  0.92385  0.37717  0.06537  1.0000
  C   C940      1.0  0.91775  0.40396  0.06656  1.0000
  C   C941      1.0  0.94614  0.31064  0.09778  1.0000
  H   H1655     1.0  0.51194  0.01642  0.03148  1.0000
  H   H1656     1.0  0.98235  0.26132  0.19484  1.0000
  H   H1657     1.0  0.73719  0.30252  0.22709  1.0000
  H   H1658     1.0  0.91841  0.33472  0.04846  1.0000
  H   H1659     1.0  0.96116  0.38028  0.06093  1.0000
  H   H1660     1.0  0.94512  0.38220  0.04015  1.0000
  H   H1661     1.0  0.52295  0.13565  0.06545  1.0000
  C   C942      1.0  0.96171  0.28652  0.22389  1.0000
  H   H1662     1.0  0.97435  0.31805  0.06569  1.0000
  C   C943      1.0  0.98271  0.32750  0.24120  1.0000
  H   H1663     1.0  0.93433  0.30457  0.07075  1.0000
  H   H1664     1.0  0.92291  0.33203  0.07999  1.0000
  C   C944      1.0  0.64010  0.19306  0.03667  1.0000
  H   H1665     1.0  0.95243  0.29919  0.04199  1.0000
  H   H1666     1.0  0.83975  0.39882  0.23705  1.0000
  H   H1667     1.0  0.80725  0.13235  0.22188  1.0000
  H   H1668     1.0  0.90847  0.36957  0.05930  1.0000
  H   H1669     1.0  0.92605  0.37001  0.07976  1.0000
  H   H1670     1.0  0.93213  0.41252  0.07335  1.0000
  H   H1671     1.0  0.91517  0.41248  0.05258  1.0000
  H   H1672     1.0  0.90086  0.40709  0.07488  1.0000
  H   H1673     1.0  0.93119  0.30120  0.10452  1.0000
  H   H1674     1.0  0.96219  0.29796  0.09705  1.0000
  C   C945      1.0  0.56472  0.21578  0.05135  1.0000
  H   H1675     1.0  0.64745  0.03280  0.04029  1.0000
  N   N53       1.0  0.94594  0.30375  0.23519  1.0000
  H   H1676     1.0  0.50953  0.06015  0.03071  1.0000
  H   H1677     1.0  0.90859  0.29474  0.04060  1.0000
  C   C946      1.0  0.72365  0.20852  0.20873  1.0000
  C   C947      1.0  0.58900  0.03244  0.01176  1.0000
  C   C948      1.0  0.81775  0.30865  0.12251  1.0000
  H   H1678     1.0  0.68715  0.21410  0.19992  1.0000
  H   H1679     1.0  0.75139  0.22774  0.19593  1.0000
  C   C949      1.0  0.78908  0.24849  0.21130  1.0000
  H   H1680     1.0  0.55805  0.20138  0.04345  1.0000
  H   H1681     1.0  0.94945  0.33007  0.21277  1.0000
  H   H1682     1.0  0.66121  0.02574  0.06183  1.0000
  C   C950      1.0  0.93532  0.32298  0.22217  1.0000
  Fe  Fe107     1.0  0.59990  0.08645  0.01857  1.0000
  H   H1683     1.0  0.79223  0.16877  0.23765  1.0000
  C   C951      1.0  0.63412  0.05440  0.06258  1.0000
  H   H1684     1.0  0.52846  0.22969  0.05852  1.0000
  H   H1685     1.0  0.71801  0.00732  0.10482  1.0000
  C   C952      1.0  0.92135  0.34443  0.23118  1.0000
  C   C953      1.0  0.79834  0.49677  0.21518  1.0000
  H   H1686     1.0  0.64360  0.18837  0.02202  1.0000
  H   H1687     1.0  0.92515  0.28047  0.02182  1.0000
  H   H1688     1.0  0.80836  0.17545  0.21616  1.0000
  H   H1689     1.0  0.55082  0.25130  0.05911  1.0000
  H   H1690     1.0  0.73416  0.27000  0.25123  1.0000
  H   H1691     1.0  0.66219  0.24857  0.23250  1.0000
  H   H1692     1.0  0.89194  0.25056  0.10534  1.0000
  H   H1693     1.0  0.68835  0.03043  0.22168  1.0000
  H   H1694     1.0  0.78502  0.33023  0.12935  1.0000
  H   H1695     1.0  0.82415  0.24974  0.19722  1.0000
  H   H1696     1.0  0.71707  0.20074  0.22206  1.0000
  C   C954      1.0  0.78995  0.22077  0.21252  1.0000
  H   H1697     1.0  0.63192  0.05345  0.07791  1.0000
  H   H1698     1.0  0.82057  0.31927  0.10945  1.0000
  H   H1699     1.0  0.78268  0.20523  0.24703  1.0000
  H   H1700     1.0  0.63244  0.18489  0.24576  1.0000
  H   H1701     1.0  0.61663  0.05996  0.05653  1.0000
  H   H1702     1.0  0.66352  0.04194  0.23590  1.0000
  C   C955      1.0  0.94900  0.27303  0.20931  1.0000
  H   H1703     1.0  0.80542  0.21446  0.22106  1.0000
  C   C956      1.0  0.91307  0.36326  0.21652  1.0000
  H   H1704     1.0  0.99883  0.33676  0.19713  1.0000
  H   H1705     1.0  0.97666  0.34200  0.23124  1.0000
  C   C957      1.0  0.74627  0.22258  0.21052  1.0000
  S   S214      1.0  0.87481  0.45201  0.01174  1.0000
  C   C958      1.0  0.50879  0.02604  0.01799  1.0000
  C   C959      1.0  0.64903  0.18127  0.25280  1.0000
  H   H1706     1.0  0.95785  0.34290  0.14203  1.0000
  Fe  Fe108     1.0  0.58885  0.13829  0.00944  1.0000
  C   C960      1.0  0.69016  0.16554  0.25264  1.0000
  N   N54       1.0  0.76747  0.20984  0.21994  1.0000
  H   H1707     1.0  0.81290  0.27720  0.20721  1.0000
  H   H1708     1.0  0.81175  0.34074  0.13809  1.0000
  C   C961      1.0  0.74693  0.30283  0.24014  1.0000
  H   H1709     1.0  0.75356  0.17479  0.22063  1.0000
  H   H1710     1.0  0.81242  0.48268  0.21159  1.0000
  H   H1711     1.0  0.93243  0.35324  0.24081  1.0000
  H   H1712     1.0  0.92854  0.36991  0.20834  1.0000
  C   C962      1.0  0.54164  0.13846  0.06081  1.0000
  H   H1713     1.0  0.69086  0.03088  0.24650  1.0000
  C   C963      1.0  0.66909  0.00334  0.23733  1.0000
  C   C964      1.0  0.80239  0.32454  0.13557  1.0000
  H   H1714     1.0  0.77508  0.13476  0.22336  1.0000
  H   H1715     1.0  0.94482  0.40709  0.01165  1.0000
  H   H1716     1.0  0.74081  0.23951  0.21739  1.0000
  C   C965      1.0  0.81414  0.25750  0.20929  1.0000
  H   H1717     1.0  0.70831  0.23020  0.18590  1.0000
  H   H1718     1.0  0.97125  0.27304  0.23323  1.0000
  H   H1719     1.0  0.99412  0.37811  0.04293  1.0000
  H   H1720     1.0  0.69885  0.24024  0.20865  1.0000
  H   H1721     1.0  0.99498  0.47946  0.03255  1.0000
  H   H1722     1.0  0.67828  0.22052  0.23816  1.0000
  H   H1723     1.0  0.82431  0.25276  0.22195  1.0000
  C   C966      1.0  0.96144  0.31362  0.24919  1.0000
  C   C967      1.0  0.78560  0.49032  0.23357  1.0000
  S   S215      1.0  0.63918  0.08787  0.01228  1.0000
  C   C968      1.0  0.84130  0.38050  0.24223  1.0000
  H   H1724     1.0  0.98320  0.32700  0.03508  1.0000
  H   H1725     1.0  0.69157  0.02088  0.12977  1.0000
  H   H1726     1.0  0.56904  0.00562  0.02606  1.0000
  C   C969      1.0  0.58065  0.00972  0.01426  1.0000
  H   H1727     1.0  0.97189  0.43075  0.02835  1.0000
  S   S216      1.0  0.56112  0.16940  0.00851  1.0000
  H   H1728     1.0  0.99631  0.31546  0.23412  1.0000
  H   H1729     1.0  0.74282  0.18388  0.24889  1.0000
  H   H1730     1.0  0.90868  0.30869  0.01761  1.0000
  C   C970      1.0  0.96350  0.40630  0.00779  1.0000
  H   H1731     1.0  0.93289  0.27094  0.24742  1.0000
  C   C971      1.0  0.62576  0.01086  0.05928  1.0000
  C   C972      1.0  0.99782  0.35848  0.04429  1.0000
  C   C973      1.0  0.80347  0.48682  0.24949  1.0000
  H   H1732     1.0  0.76527  0.23211  0.24363  1.0000
  H   H1733     1.0  0.81489  0.47048  0.24595  1.0000
  H   H1734     1.0  0.69999  0.30430  0.24717  1.0000
  C   C974      1.0  0.92645  0.28994  0.24479  1.0000
  H   H1735     1.0  0.66732  0.28305  0.25286  1.0000
  H   H1736     1.0  0.67915  0.00660  0.01391  1.0000
  H   H1737     1.0  0.52807  0.13028  0.00797  1.0000
  C   C975      1.0  0.73582  0.00021  0.17796  1.0000
  C   C976      1.0  0.99616  0.49729  0.03821  1.0000
  H   H1738     1.0  0.52493  0.20664  0.00847  1.0000
  C   C977      1.0  0.84567  0.33326  0.25534  1.0000
  C   C978      1.0  0.73450  0.28850  0.25565  1.0000
  H   H1739     1.0  0.99981  0.48249  0.06622  1.0000
  H   H1740     1.0  0.78528  0.49848  0.20397  1.0000
  Fe  Fe109     1.0  0.62447  0.22294  0.36039  1.0000
  S   S217      1.0  0.60294  0.25538  0.34936  1.0000
  S   S218      1.0  0.61639  0.21929  0.39160  1.0000
  Fe  Fe110     1.0  0.64629  0.21332  0.32119  1.0000
  S   S219      1.0  0.62548  0.24486  0.30826  1.0000
  S   S220      1.0  0.67453  0.19167  0.30389  1.0000
  Fe  Fe111     1.0  0.63622  0.26441  0.33295  1.0000
  S   S221      1.0  0.64767  0.30280  0.33045  1.0000
  Fe  Fe112     1.0  0.59420  0.23285  0.32613  1.0000
  S   S222      1.0  0.55723  0.22619  0.31571  1.0000
  S   S223      1.0  0.65828  0.23347  0.34531  1.0000
  S   S224      1.0  0.61454  0.19990  0.33762  1.0000
  Fe  Fe113     1.0  0.61609  0.13751  0.48243  1.0000
  S   S225      1.0  0.58052  0.12273  0.48818  1.0000
  S   S226      1.0  0.62947  0.13419  0.45243  1.0000
  H   H1741     1.0  0.83136  0.34553  0.41157  1.0000
  H   H1742     1.0  0.87711  0.43523  0.34543  1.0000
  C   C979      1.0  0.55786  0.17898  0.35950  1.0000
  H   H1743     1.0  0.86714  0.45943  0.43579  1.0000
  H   H1744     1.0  0.55344  0.05115  0.46173  1.0000
  H   H1745     1.0  0.76940  0.45586  0.29786  1.0000
  Fe  Fe114     1.0  0.77986  0.42904  0.33206  1.0000
  S   S227      1.0  0.81895  0.42265  0.32571  1.0000
  S   S228      1.0  0.76343  0.46664  0.33743  1.0000
  Fe  Fe115     1.0  0.77166  0.37512  0.33260  1.0000
  S   S229      1.0  0.81099  0.36592  0.32655  1.0000
  S   S230      1.0  0.75163  0.34109  0.33763  1.0000
  Fe  Fe116     1.0  0.81733  0.39302  0.34753  1.0000
  S   S231      1.0  0.84600  0.38800  0.36913  1.0000
  Fe  Fe117     1.0  0.80873  0.39621  0.30530  1.0000
  S   S232      1.0  0.82417  0.39862  0.27546  1.0000
  S   S233      1.0  0.77859  0.40041  0.35489  1.0000
  S   S234      1.0  0.76915  0.40442  0.31031  1.0000
  Fe  Fe118     1.0  0.86061  0.40100  0.47679  1.0000
  S   S235      1.0  0.89775  0.41102  0.46935  1.0000
  S   S236      1.0  0.83238  0.39135  0.45696  1.0000
  Fe  Fe119     1.0  0.88883  0.44256  0.48674  1.0000
  S   S237      1.0  0.89748  0.47834  0.47455  1.0000
  H   H1746     1.0  0.88526  0.46316  0.35374  1.0000
  H   H1747     1.0  0.83057  0.48238  0.35928  1.0000
  S   S238      1.0  0.85101  0.43404  0.49240  1.0000
  H   H1748     1.0  0.55816  0.16118  0.45904  1.0000
  H   H1749     1.0  0.52643  0.13124  0.43690  1.0000
  H   H1750     1.0  0.55212  0.16510  0.43464  1.0000
  C   C980      1.0  0.62752  0.05035  0.43647  1.0000
  H   H1751     1.0  0.52396  0.19439  0.36911  1.0000
  N   N55       1.0  0.69318  0.28623  0.27385  1.0000
  H   H1752     1.0  0.79555  0.42427  0.49228  1.0000
  H   H1753     1.0  0.53434  0.27069  0.32887  1.0000
  H   H1754     1.0  0.62742  0.00095  0.43469  1.0000
  H   H1755     1.0  0.55402  0.26437  0.35873  1.0000
  H   H1756     1.0  0.83164  0.34672  0.28149  1.0000
  H   H1757     1.0  0.80504  0.46779  0.29514  1.0000
  C   C981      1.0  0.83460  0.37505  0.26083  1.0000
  H   H1758     1.0  0.67202  0.03957  0.47896  1.0000
  C   C982      1.0  0.84173  0.39174  0.39333  1.0000
  C   C983      1.0  0.86181  0.39045  0.40444  1.0000
  C   C984      1.0  0.85923  0.39125  0.42387  1.0000
  C   C985      1.0  0.83648  0.39297  0.43246  1.0000
  C   C986      1.0  0.81637  0.39503  0.42131  1.0000
  C   C987      1.0  0.81899  0.39477  0.40184  1.0000
  H   H1759     1.0  0.87950  0.38827  0.39802  1.0000
  H   H1760     1.0  0.87486  0.38971  0.43224  1.0000
  H   H1761     1.0  0.79869  0.39662  0.42780  1.0000
  H   H1762     1.0  0.80340  0.39630  0.39349  1.0000
  H   H1763     1.0  0.64735  0.31351  0.26684  1.0000
  C   C988      1.0  0.64792  0.05826  0.40519  1.0000
  C   C989      1.0  0.65044  0.18786  0.27131  1.0000
  C   C990      1.0  0.53144  0.20270  0.26913  1.0000
  C   C991      1.0  0.80392  0.46056  0.38531  1.0000
  H   H1764     1.0  0.66393  0.35237  0.29092  1.0000
  C   C992      1.0  0.67657  0.31325  0.33308  1.0000
  C   C993      1.0  0.68007  0.33752  0.32930  1.0000
  C   C994      1.0  0.70285  0.34641  0.33044  1.0000
  C   C995      1.0  0.72242  0.33114  0.33562  1.0000
  C   C996      1.0  0.71886  0.30692  0.33960  1.0000
  C   C997      1.0  0.69614  0.29803  0.33836  1.0000
  H   H1765     1.0  0.66503  0.34956  0.32551  1.0000
  H   H1766     1.0  0.70518  0.36510  0.32749  1.0000
  H   H1767     1.0  0.73377  0.29494  0.34379  1.0000
  H   H1768     1.0  0.69369  0.27945  0.34170  1.0000
  C   C998      1.0  0.62508  0.15772  0.43548  1.0000
  C   C999      1.0  0.61491  0.18013  0.44016  1.0000
  C   C1000     1.0  0.61244  0.19866  0.42650  1.0000
  C   C1001     1.0  0.61982  0.19498  0.40798  1.0000
  C   C1002     1.0  0.62953  0.17243  0.40319  1.0000
  C   C1003     1.0  0.63223  0.15392  0.41691  1.0000
  H   H1769     1.0  0.60944  0.18334  0.45438  1.0000
  H   H1770     1.0  0.60513  0.21609  0.43037  1.0000
  H   H1771     1.0  0.63530  0.16936  0.38900  1.0000
  H   H1772     1.0  0.64014  0.13666  0.41316  1.0000
  H   H1773     1.0  0.72408  0.22875  0.30554  1.0000
  C   C1004     1.0  0.52884  0.23361  0.32645  1.0000
  H   H1774     1.0  0.50770  0.25485  0.39532  1.0000
  C   C1005     1.0  0.66797  0.05566  0.46987  1.0000
  H   H1775     1.0  0.65998  0.01723  0.45372  1.0000
  C   C1006     1.0  0.96465  0.46573  0.47220  1.0000
  C   C1007     1.0  0.67171  0.18326  0.28065  1.0000
  C   C1008     1.0  0.55355  0.15197  0.44652  1.0000
  H   H1776     1.0  0.56840  0.13850  0.44329  1.0000
  H   H1777     1.0  0.70768  0.16731  0.27855  1.0000
  H   H1778     1.0  0.67229  0.33134  0.26174  1.0000
  H   H1779     1.0  0.88768  0.29132  0.28389  1.0000
  H   H1780     1.0  0.63503  0.19645  0.27835  1.0000
  H   H1781     1.0  0.95076  0.32575  0.25849  1.0000
  H   H1782     1.0  0.87184  0.46590  0.29013  1.0000
  H   H1783     1.0  0.50870  0.08912  0.48899  1.0000
  C   C1009     1.0  0.91646  0.29829  0.26392  1.0000
  H   H1784     1.0  0.54818  0.30707  0.38379  1.0000
  H   H1785     1.0  0.63878  0.04398  0.39881  1.0000
  H   H1786     1.0  0.55082  0.16122  0.35835  1.0000
  C   C1010     1.0  0.86504  0.32675  0.40637  1.0000
  H   H1787     1.0  0.81204  0.47872  0.32613  1.0000
  H   H1788     1.0  0.55746  0.18828  0.34565  1.0000
  C   C1011     1.0  0.55120  0.21864  0.37485  1.0000
  H   H1789     1.0  0.72182  0.46678  0.27870  1.0000
  H   H1790     1.0  0.51714  0.19817  0.32497  1.0000
  H   H1791     1.0  0.50529  0.10158  0.45588  1.0000
  H   H1792     1.0  0.91063  0.31744  0.26361  1.0000
  H   H1793     1.0  0.88087  0.28649  0.26027  1.0000
  C   C1012     1.0  0.84063  0.47527  0.37148  1.0000
  C   C1013     1.0  0.83678  0.47758  0.28020  1.0000
  H   H1794     1.0  0.84748  0.45847  0.30567  1.0000
  C   C1014     1.0  0.70801  0.27112  0.28748  1.0000
  C   C1015     1.0  0.52536  0.00370  0.49004  1.0000
  C   C1016     1.0  0.89512  0.28442  0.27056  1.0000
  C   C1017     1.0  0.75792  0.46753  0.28868  1.0000
  C   C1018     1.0  0.78404  0.46005  0.40065  1.0000
  H   H1795     1.0  0.75541  0.45495  0.38195  1.0000
  H   H1796     1.0  0.79562  0.46637  0.37196  1.0000
  H   H1797     1.0  0.74916  0.44633  0.40584  1.0000
  H   H1798     1.0  0.81029  0.44163  0.38348  1.0000
  H   H1799     1.0  0.79107  0.45074  0.41335  1.0000
  S   S239      1.0  0.87148  0.37971  0.50273  1.0000
  C   C1019     1.0  0.77706  0.49413  0.33357  1.0000
  C   C1020     1.0  0.69429  0.25547  0.30183  1.0000
  S   S240      1.0  0.60738  0.16961  0.49963  1.0000
  H   H1800     1.0  0.85853  0.46695  0.40212  1.0000
  H   H1801     1.0  0.53588  0.21675  0.25857  1.0000
  N   N56       1.0  0.54080  0.23325  0.39062  1.0000
  C   C1021     1.0  0.54845  0.22102  0.40866  1.0000
  H   H1802     1.0  0.66549  0.05996  0.39785  1.0000
  C   C1022     1.0  0.55184  0.25702  0.38894  1.0000
  Fe  Fe120     1.0  0.90826  0.39288  0.49645  1.0000
  H   H1803     1.0  0.59571  0.07487  0.47713  1.0000
  C   C1023     1.0  0.54375  0.23587  0.42617  1.0000
  H   H1804     1.0  0.93034  0.29504  0.27445  1.0000
  H   H1805     1.0  0.83821  0.44443  0.40548  1.0000
  C   C1024     1.0  0.67794  0.07664  0.47893  1.0000
  C   C1025     1.0  0.60324  0.04042  0.46407  1.0000
  H   H1806     1.0  0.56798  0.21589  0.40791  1.0000
  H   H1807     1.0  0.54004  0.20396  0.41122  1.0000
  C   C1026     1.0  0.96741  0.47144  0.49276  1.0000
  H   H1808     1.0  0.57167  0.25438  0.38981  1.0000
  H   H1809     1.0  0.54557  0.26829  0.40061  1.0000
  H   H1810     1.0  0.77669  0.47822  0.40390  1.0000
  H   H1811     1.0  0.55751  0.24903  0.42671  1.0000
  H   H1812     1.0  0.51004  0.17380  0.44659  1.0000
  H   H1813     1.0  0.75336  0.48465  0.29544  1.0000
  C   C1027     1.0  0.77042  0.47152  0.26942  1.0000
  H   H1814     1.0  0.63713  0.07547  0.40335  1.0000
  H   H1815     1.0  0.71246  0.31751  0.26600  1.0000
  H   H1816     1.0  0.54664  0.19972  0.27856  1.0000
  H   H1817     1.0  0.69762  0.07360  0.47978  1.0000
  H   H1818     1.0  0.72648  0.45233  0.30113  1.0000
  H   H1819     1.0  0.52662  0.27589  0.36962  1.0000
  C   C1028     1.0  0.52184  0.25701  0.33100  1.0000
  C   C1029     1.0  0.70912  0.29993  0.26042  1.0000
  C   C1030     1.0  0.64055  0.05976  0.46762  1.0000
  H   H1820     1.0  0.95049  0.43862  0.45612  1.0000
  H   H1821     1.0  0.63652  0.07827  0.46189  1.0000
  H   H1822     1.0  0.78989  0.38243  0.50065  1.0000
  H   H1823     1.0  0.51483  0.16369  0.46960  1.0000
  C   C1031     1.0  0.67679  0.27174  0.26364  1.0000
  H   H1824     1.0  0.72084  0.25855  0.28022  1.0000
  H   H1825     1.0  0.72245  0.25220  0.32199  1.0000
  H   H1826     1.0  0.87165  0.33982  0.39577  1.0000
  C   C1032     1.0  0.84765  0.45917  0.43900  1.0000
  H   H1827     1.0  0.63307  0.05987  0.48204  1.0000
  H   H1828     1.0  0.51252  0.22675  0.28739  1.0000
  H   H1829     1.0  0.71899  0.28270  0.29533  1.0000
  H   H1830     1.0  0.58760  0.07545  0.45337  1.0000
  H   H1831     1.0  0.57107  0.21718  0.37522  1.0000
  H   H1832     1.0  0.69728  0.23698  0.26377  1.0000
  N   N57       1.0  0.80186  0.32004  0.38674  1.0000
  C   C1033     1.0  0.79612  0.31812  0.36669  1.0000
  C   C1034     1.0  0.78867  0.34224  0.39395  1.0000
  C   C1035     1.0  0.82828  0.32338  0.38751  1.0000
  C   C1036     1.0  0.79611  0.29824  0.39857  1.0000
  C   C1037     1.0  0.77472  0.28442  0.39288  1.0000
  C   C1038     1.0  0.81174  0.29919  0.35586  1.0000
  C   C1039     1.0  0.83777  0.32767  0.40688  1.0000
  C   C1040     1.0  0.76106  0.34321  0.39429  1.0000
  C   C1041     1.0  0.75029  0.36751  0.40023  1.0000
  C   C1042     1.0  0.76816  0.26582  0.40787  1.0000
  C   C1043     1.0  0.80040  0.29375  0.33779  1.0000
  C   C1044     1.0  0.58820  0.06441  0.46641  1.0000
  H   H1833     1.0  0.79796  0.33553  0.35905  1.0000
  H   H1834     1.0  0.77718  0.31451  0.36527  1.0000
  H   H1835     1.0  0.79326  0.34496  0.40847  1.0000
  H   H1836     1.0  0.79433  0.35809  0.38561  1.0000
  H   H1837     1.0  0.83318  0.33857  0.37804  1.0000
  H   H1838     1.0  0.83894  0.30742  0.38244  1.0000
  H   H1839     1.0  0.81174  0.28488  0.39878  1.0000
  H   H1840     1.0  0.79290  0.30312  0.41326  1.0000
  H   H1841     1.0  0.77937  0.27485  0.38000  1.0000
  H   H1842     1.0  0.75853  0.29623  0.39022  1.0000
  H   H1843     1.0  0.82947  0.30600  0.35218  1.0000
  H   H1844     1.0  0.81464  0.28233  0.36423  1.0000
  C   C1045     1.0  0.81103  0.46907  0.28036  1.0000
  N   N58       1.0  0.62860  0.04202  0.45655  1.0000
  H   H1845     1.0  0.75414  0.34018  0.38051  1.0000
  H   H1846     1.0  0.75452  0.32979  0.40458  1.0000
  H   H1847     1.0  0.75621  0.37137  0.41420  1.0000
  H   H1848     1.0  0.75562  0.38180  0.39019  1.0000
  H   H1849     1.0  0.73050  0.36762  0.40070  1.0000
  H   H1850     1.0  0.76222  0.27455  0.42090  1.0000
  H   H1851     1.0  0.75327  0.25584  0.40323  1.0000
  H   H1852     1.0  0.78366  0.25294  0.41061  1.0000
  H   H1853     1.0  0.78272  0.28642  0.34062  1.0000
  H   H1854     1.0  0.79801  0.31019  0.32880  1.0000
  H   H1855     1.0  0.81213  0.28044  0.33024  1.0000
  C   C1046     1.0  0.76327  0.44640  0.39467  1.0000
  H   H1856     1.0  0.53339  0.12585  0.46106  1.0000
  H   H1857     1.0  0.54702  0.22756  0.36131  1.0000
  C   C1047     1.0  0.56243  0.06022  0.47256  1.0000
  H   H1858     1.0  0.86146  0.44090  0.37742  1.0000
  C   C1048     1.0  0.73467  0.45539  0.28707  1.0000
  C   C1049     1.0  0.50963  0.15773  0.45597  1.0000
  H   H1859     1.0  0.66515  0.29509  0.29432  1.0000
  C   C1050     1.0  0.83919  0.46415  0.40463  1.0000
  C   C1051     1.0  0.83328  0.47355  0.42428  1.0000
  C   C1052     1.0  0.85346  0.45981  0.29090  1.0000
  H   H1860     1.0  0.67022  0.07838  0.49320  1.0000
  H   H1861     1.0  0.73071  0.20010  0.27993  1.0000
  C   C1053     1.0  0.65168  0.05222  0.42573  1.0000
  N   N59       1.0  0.98071  0.49308  0.49616  1.0000
  H   H1862     1.0  0.66236  0.26534  0.27323  1.0000
  C   C1054     1.0  0.87007  0.45320  0.34965  1.0000
  C   C1055     1.0  0.67776  0.30417  0.28470  1.0000
  H   H1863     1.0  0.70200  0.22897  0.32396  1.0000
  H   H1864     1.0  0.68228  0.26641  0.31106  1.0000
  C   C1056     1.0  0.97023  0.38202  0.50079  1.0000
  H   H1865     1.0  0.97580  0.45539  0.50003  1.0000
  C   C1057     1.0  0.74732  0.20494  0.27233  1.0000
  H   H1866     1.0  0.57666  0.17637  0.36385  1.0000
  H   H1867     1.0  0.50575  0.19611  0.29098  1.0000
  C   C1058     1.0  0.64116  0.01748  0.45892  1.0000
  H   H1868     1.0  0.50906  0.23919  0.37460  1.0000
  C   C1059     1.0  0.71185  0.24054  0.31403  1.0000
  H   H1869     1.0  0.52590  0.24567  0.42605  1.0000
  H   H1870     1.0  0.75058  0.22345  0.27566  1.0000
  H   H1871     1.0  0.73818  0.43788  0.28064  1.0000
  H   H1872     1.0  0.68906  0.31418  0.29355  1.0000
  C   C1060     1.0  0.51198  0.21629  0.32859  1.0000
  C   C1061     1.0  0.54615  0.27274  0.37127  1.0000
  H   H1873     1.0  0.52922  0.18582  0.26222  1.0000
  H   H1874     1.0  0.84387  0.46695  0.45274  1.0000
  C   C1062     1.0  0.69142  0.17174  0.27127  1.0000
  C   C1063     1.0  0.65015  0.34199  0.28505  1.0000
  H   H1875     1.0  0.81234  0.45045  0.27557  1.0000
  H   H1876     1.0  0.96833  0.42697  0.47507  1.0000
  H   H1877     1.0  0.64219  0.01240  0.47396  1.0000
  S   S241      1.0  0.94292  0.36947  0.49692  1.0000
  H   H1878     1.0  0.68341  0.24306  0.29493  1.0000
  H   H1879     1.0  0.76938  0.42767  0.39194  1.0000
  C   C1064     1.0  0.54267  0.19325  0.37369  1.0000
  H   H1880     1.0  0.67780  0.05302  0.45651  1.0000
  H   H1881     1.0  0.50458  0.20035  0.39617  1.0000
  H   H1882     1.0  0.56288  0.20968  0.44435  1.0000
  H   H1883     1.0  0.60324  0.03087  0.47790  1.0000
  H   H1884     1.0  0.87274  0.30863  0.40318  1.0000
  H   H1885     1.0  0.84266  0.44047  0.43995  1.0000
  C   C1065     1.0  0.55649  0.29703  0.37204  1.0000
  H   H1886     1.0  0.87127  0.33136  0.42008  1.0000
  H   H1887     1.0  0.63914  0.33415  0.29652  1.0000
  N   N60       1.0  0.79317  0.48433  0.26909  1.0000
  N   N61       1.0  0.82464  0.47521  0.38876  1.0000
  H   H1888     1.0  0.83197  0.31414  0.41738  1.0000
  H   H1889     1.0  0.74574  0.28830  0.26799  1.0000
  H   H1890     1.0  0.55244  0.07759  0.47505  1.0000
  H   H1891     1.0  0.83811  0.43948  0.36127  1.0000
  H   H1892     1.0  0.66303  0.03534  0.42670  1.0000
  H   H1893     1.0  0.55286  0.30755  0.35898  1.0000
  H   H1894     1.0  0.57614  0.29488  0.37359  1.0000
  C   C1066     1.0  0.50880  0.21041  0.28033  1.0000
  H   H1895     1.0  0.54387  0.18296  0.38704  1.0000
  H   H1896     1.0  0.61839  0.06848  0.43522  1.0000
  H   H1897     1.0  0.95193  0.47918  0.46554  1.0000
  C   C1067     1.0  0.85206  0.45062  0.36585  1.0000
  H   H1898     1.0  0.94892  0.47341  0.49885  1.0000
  H   H1899     1.0  0.90062  0.26519  0.27268  1.0000
  H   H1900     1.0  0.66127  0.06688  0.43106  1.0000
  H   H1901     1.0  0.85526  0.48735  0.37297  1.0000
  C   C1068     1.0  0.66190  0.32249  0.27305  1.0000
  C   C1069     1.0  0.95486  0.44131  0.47068  1.0000
  H   H1902     1.0  0.67387  0.09350  0.47073  1.0000
  H   H1903     1.0  0.86141  0.46265  0.33762  1.0000
  H   H1904     1.0  0.53079  0.20805  0.44496  1.0000
  H   H1905     1.0  0.63833  0.35436  0.27654  1.0000
  C   C1070     1.0  0.83673  0.35125  0.26727  1.0000
  H   H1906     1.0  0.59305  0.02971  0.45499  1.0000
  H   H1907     1.0  0.56198  0.04921  0.48566  1.0000
  C   C1071     1.0  0.54542  0.22025  0.44395  1.0000
  H   H1908     1.0  0.61634  0.03892  0.42877  1.0000
  H   H1909     1.0  0.83697  0.49491  0.28687  1.0000
  C   C1072     1.0  0.53022  0.13973  0.44988  1.0000
  H   H1910     1.0  0.83804  0.49231  0.42483  1.0000
  H   H1911     1.0  0.84720  0.31498  0.26057  1.0000
  H   H1912     1.0  0.76233  0.19268  0.27727  1.0000
  H   H1913     1.0  0.85391  0.44191  0.28496  1.0000
  H   H1914     1.0  0.93836  0.43988  0.47948  1.0000
  C   C1073     1.0  0.80106  0.49507  0.32785  1.0000
  H   H1915     1.0  0.51743  0.00618  0.47620  1.0000
  H   H1916     1.0  0.81411  0.47287  0.42823  1.0000
  H   H1917     1.0  0.54375  0.23163  0.45615  1.0000
  H   H1918     1.0  0.52812  0.02155  0.49511  1.0000
  C   C1074     1.0  0.51401  0.23746  0.38941  1.0000
  H   H1919     1.0  0.84450  0.47951  0.26592  1.0000
  C   C1075     1.0  0.99179  0.37103  0.49382  1.0000
  H   H1920     1.0  0.99141  0.35538  0.48572  1.0000
  H   H1921     1.0  0.75683  0.48106  0.26061  1.0000
  H   H1922     1.0  0.98183  0.46542  0.46416  1.0000
  H   H1923     1.0  0.77411  0.45370  0.26333  1.0000
  H   H1924     1.0  0.56167  0.00095  0.47837  1.0000
  H   H1925     1.0  0.96897  0.29883  0.25844  1.0000
  H   H1926     1.0  0.98292  0.35200  0.26374  1.0000
  C   C1076     1.0  0.99531  0.33884  0.25658  1.0000
  S   S242      1.0  0.63374  0.11569  0.50580  1.0000
  H   H1927     1.0  0.76912  0.30675  0.50593  1.0000
  Fe  Fe121     1.0  0.62185  0.14674  0.52369  1.0000
  S   S243      1.0  0.58703  0.13195  0.53210  1.0000
  S   S244      1.0  0.64339  0.16402  0.54490  1.0000
  Fe  Fe122     1.0  0.61555  0.20590  0.64935  1.0000
  S   S245      1.0  0.60275  0.24438  0.64673  1.0000
  S   S246      1.0  0.60491  0.18028  0.62792  1.0000
  Fe  Fe123     1.0  0.63208  0.21176  0.68926  1.0000
  S   S247      1.0  0.61882  0.25066  0.68910  1.0000
  S   S248      1.0  0.65774  0.19441  0.71076  1.0000
  Fe  Fe124     1.0  0.58619  0.23879  0.67527  1.0000
  S   S249      1.0  0.54735  0.25467  0.67654  1.0000
  Fe  Fe125     1.0  0.63629  0.25280  0.66062  1.0000
  S   S250      1.0  0.65949  0.28191  0.64802  1.0000
  S   S251      1.0  0.59823  0.19987  0.67770  1.0000
  S   S252      1.0  0.65042  0.21435  0.66091  1.0000
  Fe  Fe126     1.0  0.86435  0.41376  0.51793  1.0000
  H   H1928     1.0  0.68866  0.05597  0.74795  1.0000
  S   S253      1.0  0.84013  0.42161  0.54348  1.0000
  Fe  Fe127     1.0  0.80076  0.38447  0.64668  1.0000
  S   S254      1.0  0.76216  0.39789  0.64528  1.0000
  S   S255      1.0  0.82326  0.36898  0.62239  1.0000
  Fe  Fe128     1.0  0.80217  0.39314  0.68850  1.0000
  S   S256      1.0  0.76384  0.40779  0.68944  1.0000
  S   S257      1.0  0.82336  0.39476  0.71477  1.0000
  Fe  Fe129     1.0  0.75672  0.37667  0.67220  1.0000
  S   S258      1.0  0.72847  0.35182  0.68384  1.0000
  Fe  Fe130     1.0  0.77282  0.42774  0.66271  1.0000
  S   S259      1.0  0.76106  0.46637  0.65378  1.0000
  S   S260      1.0  0.79486  0.36130  0.67257  1.0000
  S   S261      1.0  0.81165  0.41510  0.66269  1.0000
  H   H1929     1.0  0.75432  0.47633  0.59888  1.0000
  H   H1930     1.0  0.78922  0.47889  0.68488  1.0000
  H   H1931     1.0  0.54370  0.12121  0.51531  1.0000
  H   H1932     1.0  0.55596  0.24763  0.62855  1.0000
  C   C1077     1.0  0.83069  0.37151  0.73144  1.0000
  C   C1078     1.0  0.82713  0.34770  0.72840  1.0000
  C   C1079     1.0  0.84360  0.48535  0.60204  1.0000
  H   H1933     1.0  0.57355  0.01776  0.51731  1.0000
  H   H1934     1.0  0.81987  0.34312  0.71552  1.0000
  H   H1935     1.0  0.75283  0.35239  0.55726  1.0000
  C   C1080     1.0  0.83587  0.40626  0.56517  1.0000
  C   C1081     1.0  0.85128  0.38719  0.57129  1.0000
  C   C1082     1.0  0.84700  0.37572  0.58873  1.0000
  C   C1083     1.0  0.82744  0.38332  0.60027  1.0000
  C   C1084     1.0  0.81184  0.40213  0.59399  1.0000
  C   C1085     1.0  0.81610  0.41356  0.57658  1.0000
  H   H1936     1.0  0.86657  0.38139  0.56268  1.0000
  H   H1937     1.0  0.85913  0.36111  0.59343  1.0000
  H   H1938     1.0  0.79652  0.40791  0.60261  1.0000
  H   H1939     1.0  0.80394  0.42813  0.57185  1.0000
  C   C1086     1.0  0.78389  0.49506  0.67701  1.0000
  H   H1940     1.0  0.58877  0.20150  0.55545  1.0000
  H   H1941     1.0  0.76615  0.33905  0.58872  1.0000
  C   C1087     1.0  0.67750  0.30207  0.65845  1.0000
  C   C1088     1.0  0.68093  0.30148  0.67753  1.0000
  C   C1089     1.0  0.69628  0.31709  0.68500  1.0000
  C   C1090     1.0  0.70856  0.33339  0.67354  1.0000
  C   C1091     1.0  0.70506  0.33408  0.65448  1.0000
  C   C1092     1.0  0.68951  0.31862  0.64703  1.0000
  H   H1942     1.0  0.67176  0.28897  0.68650  1.0000
  H   H1943     1.0  0.69873  0.31646  0.69977  1.0000
  H   H1944     1.0  0.71426  0.34654  0.64548  1.0000
  H   H1945     1.0  0.68692  0.31932  0.63227  1.0000
  C   C1093     1.0  0.65383  0.18409  0.73413  1.0000
  C   C1094     1.0  0.78992  0.38534  0.53110  1.0000
  H   H1946     1.0  0.94779  0.48663  0.52703  1.0000
  C   C1095     1.0  0.76190  0.35821  0.58515  1.0000
  H   H1947     1.0  0.69152  0.17543  0.73687  1.0000
  H   H1948     1.0  0.61558  0.18992  0.73574  1.0000
  C   C1096     1.0  0.51983  0.24201  0.68270  1.0000
  H   H1949     1.0  0.64159  0.10859  0.71652  1.0000
  C   C1097     1.0  0.51867  0.22083  0.69346  1.0000
  H   H1950     1.0  0.76352  0.45240  0.61492  1.0000
  H   H1951     1.0  0.53499  0.21146  0.69809  1.0000
  C   C1098     1.0  0.63328  0.16759  0.56827  1.0000
  C   C1099     1.0  0.64464  0.18298  0.57934  1.0000
  C   C1100     1.0  0.63632  0.18711  0.59767  1.0000
  C   C1101     1.0  0.61685  0.17542  0.60523  1.0000
  C   C1102     1.0  0.60598  0.15949  0.59436  1.0000
  C   C1103     1.0  0.61408  0.15564  0.57600  1.0000
  H   H1952     1.0  0.65973  0.19207  0.57359  1.0000
  H   H1953     1.0  0.64497  0.19930  0.60592  1.0000
  H   H1954     1.0  0.59122  0.15001  0.60021  1.0000
  H   H1955     1.0  0.60568  0.14314  0.56792  1.0000
  H   H1956     1.0  0.66060  0.01463  0.75544  1.0000
  H   H1957     1.0  0.55322  0.26863  0.60915  1.0000
  H   H1958     1.0  0.95453  0.41069  0.51689  1.0000
  H   H1959     1.0  0.69153  0.11463  0.73089  1.0000
  N   N62       1.0  0.83410  0.47241  0.61919  1.0000
  C   C1104     1.0  0.81118  0.46113  0.61583  1.0000
  C   C1105     1.0  0.85267  0.45391  0.62663  1.0000
  S   S262      1.0  0.58405  0.06628  0.51885  1.0000
  C   C1106     1.0  0.50884  0.23062  0.53052  1.0000
  C   C1107     1.0  0.84716  0.47093  0.58428  1.0000
  C   C1108     1.0  0.83334  0.32979  0.74196  1.0000
  H   H1960     1.0  0.79604  0.48841  0.59576  1.0000
  C   C1109     1.0  0.85256  0.42826  0.61973  1.0000
  C   C1110     1.0  0.87407  0.41257  0.62648  1.0000
  C   C1111     1.0  0.84037  0.37715  0.74824  1.0000
  C   C1112     1.0  0.69990  0.24980  0.75196  1.0000
  N   N63       1.0  0.55591  0.21576  0.56876  1.0000
  H   H1961     1.0  0.80451  0.45216  0.62887  1.0000
  H   H1962     1.0  0.81426  0.44686  0.60587  1.0000
  H   H1963     1.0  0.87098  0.45994  0.62394  1.0000
  H   H1964     1.0  0.85051  0.45165  0.64200  1.0000
  C   C1113     1.0  0.76703  0.30376  0.52118  1.0000
  H   H1965     1.0  0.87086  0.49531  0.56982  1.0000
  H   H1966     1.0  0.75992  0.38239  0.56158  1.0000
  H   H1967     1.0  0.52888  0.25039  0.61599  1.0000
  H   H1968     1.0  0.69688  0.49078  0.69296  1.0000
  H   H1969     1.0  0.86195  0.45700  0.58590  1.0000
  C   C1114     1.0  0.52543  0.12683  0.51877  1.0000
  H   H1970     1.0  0.74309  0.36294  0.58963  1.0000
  H   H1971     1.0  0.77674  0.37427  0.72759  1.0000
  H   H1972     1.0  0.58850  0.24414  0.54623  1.0000
  H   H1973     1.0  0.83631  0.41999  0.62532  1.0000
  H   H1974     1.0  0.85272  0.42787  0.60448  1.0000
  H   H1975     1.0  0.87410  0.41164  0.64185  1.0000
  H   H1976     1.0  0.87306  0.39421  0.62169  1.0000
  H   H1977     1.0  0.89097  0.41954  0.62084  1.0000
  C   C1115     1.0  0.54741  0.23408  0.58260  1.0000
  C   C1116     1.0  0.83705  0.33576  0.54553  1.0000
  C   C1117     1.0  0.51232  0.02087  0.53452  1.0000
  C   C1118     1.0  0.82868  0.49040  0.63395  1.0000
  Fe  Fe131     1.0  0.59727  0.10291  0.51249  1.0000
  N   N64       1.0  0.79686  0.35981  0.53716  1.0000
  H   H1978     1.0  0.51319  0.24925  0.52703  1.0000
  C   C1119     1.0  0.75899  0.36898  0.73288  1.0000
  H   H1979     1.0  0.83283  0.37151  0.53491  1.0000
  H   H1980     1.0  0.74856  0.30982  0.52575  1.0000
  H   H1981     1.0  0.55337  0.21143  0.53925  1.0000
  C   C1120     1.0  0.76957  0.46386  0.60302  1.0000
  C   C1121     1.0  0.59393  0.23805  0.56033  1.0000
  C   C1122     1.0  0.89954  0.49473  0.50966  1.0000
  C   C1123     1.0  0.86277  0.33084  0.53831  1.0000
  H   H1982     1.0  0.79803  0.43096  0.51622  1.0000
  C   C1124     1.0  0.82341  0.35505  0.53315  1.0000
  C   C1125     1.0  0.67414  0.17557  0.74386  1.0000
  H   H1983     1.0  0.52961  0.18071  0.62713  1.0000
  H   H1984     1.0  0.55180  0.20678  0.64666  1.0000
  H   H1985     1.0  0.52410  0.15031  0.57547  1.0000
  H   H1986     1.0  0.69991  0.26812  0.72492  1.0000
  C   C1126     1.0  0.58276  0.21432  0.56624  1.0000
  H   H1987     1.0  0.83788  0.34196  0.55983  1.0000
  C   C1127     1.0  0.55918  0.23150  0.60174  1.0000
  C   C1128     1.0  0.55164  0.17136  0.56225  1.0000
  C   C1129     1.0  0.54859  0.25072  0.61456  1.0000
  H   H1988     1.0  0.59134  0.20695  0.57906  1.0000
  H   H1989     1.0  0.52790  0.23342  0.58552  1.0000
  H   H1990     1.0  0.57872  0.23334  0.60041  1.0000
  H   H1991     1.0  0.55621  0.21396  0.60867  1.0000
  H   H1992     1.0  0.58855  0.25230  0.57004  1.0000
  H   H1993     1.0  0.54128  0.17537  0.54967  1.0000
  H   H1994     1.0  0.57064  0.16825  0.55790  1.0000
  H   H1995     1.0  0.78346  0.49048  0.61896  1.0000
  H   H1996     1.0  0.51718  0.21888  0.51980  1.0000
  C   C1130     1.0  0.51766  0.15096  0.51798  1.0000
  H   H1997     1.0  0.71103  0.08912  0.75055  1.0000
  N   N65       1.0  0.75559  0.26787  0.67028  1.0000
  C   C1131     1.0  0.74435  0.27604  0.65227  1.0000
  C   C1132     1.0  0.73695  0.25804  0.68363  1.0000
  C   C1133     1.0  0.76470  0.28950  0.67864  1.0000
  C   C1134     1.0  0.77662  0.25001  0.66747  1.0000
  C   C1135     1.0  0.77200  0.22715  0.65748  1.0000
  C   C1136     1.0  0.76079  0.28815  0.63754  1.0000
  C   C1137     1.0  0.77324  0.28609  0.69884  1.0000
  C   C1138     1.0  0.71742  0.24382  0.67542  1.0000
  C   C1139     1.0  0.70255  0.23174  0.69072  1.0000
  C   C1140     1.0  0.79545  0.21294  0.65263  1.0000
  C   C1141     1.0  0.74775  0.29397  0.61957  1.0000
  C   C1142     1.0  0.78314  0.30879  0.70524  1.0000
  H   H1998     1.0  0.72885  0.28887  0.65514  1.0000
  H   H1999     1.0  0.73664  0.26121  0.64553  1.0000
  H   H2000     1.0  0.74574  0.24670  0.69475  1.0000
  H   H2001     1.0  0.72667  0.27288  0.69077  1.0000
  H   H2002     1.0  0.75062  0.30443  0.67850  1.0000
  H   H2003     1.0  0.78001  0.29612  0.67018  1.0000
  H   H2004     1.0  0.79157  0.25865  0.65994  1.0000
  H   H2005     1.0  0.78394  0.24371  0.68100  1.0000
  H   H2006     1.0  0.76261  0.23108  0.64440  1.0000
  H   H2007     1.0  0.76145  0.21541  0.66680  1.0000
  H   H2008     1.0  0.76641  0.30523  0.64242  1.0000
  H   H2009     1.0  0.77689  0.27636  0.63419  1.0000
  H   H2010     1.0  0.78766  0.27170  0.70007  1.0000
  H   H2011     1.0  0.75829  0.28175  0.70859  1.0000
  H   H2012     1.0  0.70499  0.25600  0.66726  1.0000
  H   H2013     1.0  0.72488  0.22998  0.66609  1.0000
  H   H2014     1.0  0.68997  0.22044  0.68442  1.0000
  H   H2015     1.0  0.71400  0.22011  0.70005  1.0000
  H   H2016     1.0  0.69187  0.24522  0.69888  1.0000
  H   H2017     1.0  0.79162  0.19634  0.64592  1.0000
  H   H2018     1.0  0.80668  0.22347  0.64283  1.0000
  H   H2019     1.0  0.80552  0.20798  0.66532  1.0000
  H   H2020     1.0  0.74184  0.27752  0.61376  1.0000
  H   H2021     1.0  0.73193  0.30657  0.62205  1.0000
  H   H2022     1.0  0.75992  0.30244  0.60922  1.0000
  H   H2023     1.0  0.76919  0.32381  0.70490  1.0000
  H   H2024     1.0  0.78925  0.30589  0.71962  1.0000
  H   H2025     1.0  0.79865  0.31365  0.69623  1.0000
  H   H2026     1.0  0.74380  0.34435  0.75285  1.0000
  H   H2027     1.0  0.87207  0.31705  0.54740  1.0000
  C   C1143     1.0  0.79143  0.35722  0.55773  1.0000
  H   H2028     1.0  0.80322  0.30961  0.52637  1.0000
  H   H2029     1.0  0.72231  0.47613  0.70426  1.0000
  C   C1144     1.0  0.54502  0.18973  0.65217  1.0000
  C   C1145     1.0  0.62785  0.04071  0.51589  1.0000
  H   H2030     1.0  0.83073  0.46258  0.58083  1.0000
  C   C1146     1.0  0.79038  0.47798  0.60830  1.0000
  H   H2031     1.0  0.54951  0.24127  0.54598  1.0000
  H   H2032     1.0  0.52927  0.19315  0.58083  1.0000
  C   C1147     1.0  0.78530  0.31698  0.53111  1.0000
  H   H2033     1.0  0.51762  0.16637  0.64785  1.0000
  C   C1148     1.0  0.98435  0.34987  0.58356  1.0000
  H   H2034     1.0  0.86506  0.48990  0.64504  1.0000
  H   H2035     1.0  0.97403  0.48152  0.55400  1.0000
  H   H2036     1.0  0.82685  0.35054  0.51839  1.0000
  H   H2037     1.0  0.99337  0.42650  0.52329  1.0000
  H   H2038     1.0  0.78261  0.31296  0.54614  1.0000
  C   C1149     1.0  0.76518  0.36323  0.56429  1.0000
  H   H2039     1.0  0.77365  0.36896  0.59293  1.0000
  H   H2040     1.0  0.99801  0.37297  0.56205  1.0000
  H   H2041     1.0  0.74836  0.38492  0.73796  1.0000
  C   C1150     1.0  0.63138  0.18363  0.74310  1.0000
  C   C1151     1.0  0.71611  0.49193  0.69555  1.0000
  H   H2042     1.0  0.79648  0.33895  0.56321  1.0000
  C   C1152     1.0  0.67505  0.10482  0.73113  1.0000
  C   C1153     1.0  0.50305  0.20353  0.64266  1.0000
  C   C1154     1.0  0.78256  0.34401  0.52623  1.0000
  H   H2043     1.0  0.84328  0.39551  0.75070  1.0000
  H   H2044     1.0  0.54036  0.19118  0.66712  1.0000
  H   H2045     1.0  0.96669  0.34993  0.57714  1.0000
  H   H2046     1.0  0.50864  0.23494  0.55970  1.0000
  H   H2047     1.0  0.77493  0.45247  0.59122  1.0000
  H   H2048     1.0  0.81998  0.48173  0.64638  1.0000
  C   C1155     1.0  0.65791  0.11833  0.71779  1.0000
  H   H2049     1.0  0.85663  0.47605  0.55508  1.0000
  H   H2050     1.0  0.82843  0.31873  0.54643  1.0000
  H   H2051     1.0  0.55960  0.17548  0.65070  1.0000
  H   H2052     1.0  0.76975  0.28434  0.52450  1.0000
  H   H2053     1.0  0.86130  0.49186  0.60458  1.0000
  H   H2054     1.0  0.65266  0.13643  0.72268  1.0000
  H   H2055     1.0  0.79728  0.39777  0.54060  1.0000
  H   H2056     1.0  0.51553  0.09095  0.52348  1.0000
  C   C1156     1.0  0.54325  0.14812  0.57108  1.0000
  H   H2057     1.0  0.76324  0.34993  0.52722  1.0000
  H   H2058     1.0  0.54537  0.13394  0.56083  1.0000
  H   H2059     1.0  0.51056  0.21973  0.63619  1.0000
  C   C1157     1.0  0.51072  0.03938  0.54942  1.0000
  H   H2060     1.0  0.51164  0.20451  0.55286  1.0000
  H   H2061     1.0  0.54961  0.25244  0.57678  1.0000
  H   H2062     1.0  0.52729  0.03772  0.55742  1.0000
  H   H2063     1.0  0.72637  0.49139  0.68213  1.0000
  C   C1158     1.0  0.52342  0.18345  0.64168  1.0000
  H   H2064     1.0  0.74961  0.36215  0.72119  1.0000
  C   C1159     1.0  0.70894  0.26884  0.73824  1.0000
  H   H2065     1.0  0.55407  0.14231  0.58321  1.0000
  H   H2066     1.0  0.62775  0.22042  0.55070  1.0000
  S   S263      1.0  0.90182  0.42534  0.51340  1.0000
  C   C1160     1.0  0.54832  0.19181  0.57597  1.0000
  C   C1161     1.0  0.54519  0.22286  0.55034  1.0000
  C   C1162     1.0  0.77029  0.49384  0.66134  1.0000
  H   H2067     1.0  0.62768  0.23110  0.57401  1.0000
  H   H2068     1.0  0.55861  0.18564  0.58835  1.0000
  C   C1163     1.0  0.59273  0.01827  0.51614  1.0000
  C   C1164     1.0  0.51762  0.22260  0.54969  1.0000
  C   C1165     1.0  0.50938  0.10956  0.52350  1.0000
  H   H2069     1.0  0.87259  0.34726  0.53832  1.0000
  H   H2070     1.0  0.77020  0.38902  0.53208  1.0000
  H   H2071     1.0  0.66675  0.12023  0.70386  1.0000
  H   H2072     1.0  0.67957  0.08682  0.72581  1.0000
  H   H2073     1.0  0.80271  0.36885  0.56517  1.0000
  H   H2074     1.0  0.90042  0.47635  0.51456  1.0000
  C   C1166     1.0  0.97094  0.40223  0.51127  1.0000
  H   H2075     1.0  0.63593  0.05745  0.51688  1.0000
  H   H2076     1.0  0.86319  0.32429  0.52402  1.0000
  C   C1167     1.0  0.60300  0.04014  0.51697  1.0000
  C   C1168     1.0  0.62116  0.23504  0.55983  1.0000
  S   S264      1.0  0.53724  0.17217  0.50982  1.0000
  C   C1169     1.0  0.66397  0.10336  0.75109  1.0000
  H   H2077     1.0  0.62865  0.25177  0.55439  1.0000
  H   H2078     1.0  0.64505  0.09915  0.74982  1.0000
  H   H2079     1.0  0.70414  0.23226  0.74590  1.0000
  H   H2080     1.0  0.77184  0.33401  0.74218  1.0000
  H   H2081     1.0  0.52898  0.02329  0.52613  1.0000
  C   C1170     1.0  0.76180  0.34965  0.74827  1.0000
  H   H2082     1.0  0.72850  0.26578  0.73558  1.0000
  H   H2083     1.0  0.65729  0.05993  0.75072  1.0000
  H   H2084     1.0  0.51437  0.00310  0.54158  1.0000
  C   C1171     1.0  0.64229  0.01954  0.51344  1.0000
  H   H2085     1.0  0.78751  0.34586  0.51123  1.0000
  H   H2086     1.0  0.68015  0.25265  0.75298  1.0000
  H   H2087     1.0  0.50877  0.05765  0.54305  1.0000
  H   H2088     1.0  0.98315  0.36351  0.59425  1.0000
  H   H2089     1.0  0.83068  0.31142  0.73940  1.0000
  H   H2090     1.0  0.73809  0.21230  0.75548  1.0000
  C   C1172     1.0  0.79779  0.39315  0.51101  1.0000
  C   C1173     1.0  0.98407  0.49406  0.51672  1.0000
  H   H2091     1.0  0.70489  0.28691  0.74362  1.0000
  H   H2092     1.0  0.98849  0.33200  0.59025  1.0000
  C   C1174     1.0  0.99298  0.41116  0.51486  1.0000
  H   H2093     1.0  0.74977  0.16953  0.75377  1.0000
  Fe  Fe132     1.0  0.57332  0.15270  0.50723  1.0000
  C   C1175     1.0  0.85398  0.48693  0.56756  1.0000
  H   H2094     1.0  0.81748  0.39137  0.50894  1.0000
  H   H2095     1.0  0.66152  0.02005  0.51251  1.0000
  H   H2096     1.0  0.99211  0.47666  0.52223  1.0000
  H   H2097     1.0  0.77003  0.42211  0.50800  1.0000
  C   C1176     1.0  0.78978  0.41923  0.50670  1.0000
  H   H2098     1.0  0.89958  0.44199  0.88358  1.0000
  H   H2099     1.0  0.87269  0.45791  0.95856  1.0000
  C   C1177     1.0  0.96706  0.32623  0.88511  1.0000
  H   H2100     1.0  0.60394  0.18703  0.94092  1.0000
  H   H2101     1.0  0.71173  0.07679  0.79238  1.0000
  C   C1178     1.0  0.73390  0.36822  0.78898  1.0000
  Fe  Fe133     1.0  0.62822  0.11036  0.98700  1.0000
  S   S265      1.0  0.64660  0.10003  0.95935  1.0000
  S   S266      1.0  0.58887  0.10617  0.99241  1.0000
  Fe  Fe134     1.0  0.67565  0.14624  0.81508  1.0000
  S   S267      1.0  0.71234  0.13047  0.80775  1.0000
  S   S268      1.0  0.64618  0.15597  0.79472  1.0000
  Fe  Fe135     1.0  0.68539  0.14526  0.85652  1.0000
  S   S269      1.0  0.72305  0.12959  0.85198  1.0000
  S   S270      1.0  0.67042  0.15888  0.88422  1.0000
  Fe  Fe136     1.0  0.72540  0.15590  0.82775  1.0000
  S   S271      1.0  0.75845  0.17505  0.81781  1.0000
  Fe  Fe137     1.0  0.70716  0.10533  0.83243  1.0000
  S   S272      1.0  0.72292  0.06674  0.83252  1.0000
  S   S273      1.0  0.68882  0.17335  0.83341  1.0000
  S   S274      1.0  0.66930  0.11936  0.83863  1.0000
  Fe  Fe138     1.0  0.86708  0.37472  0.97483  1.0000
  S   S275      1.0  0.89273  0.40365  0.97332  1.0000
  S   S276      1.0  0.84943  0.35864  0.95085  1.0000
  H   H2102     1.0  0.97514  0.29021  0.96733  1.0000
  H   H2103     1.0  0.93002  0.38791  0.83345  1.0000
  H   H2104     1.0  0.74547  0.23954  0.81081  1.0000
  H   H2105     1.0  0.71346  0.28035  0.82724  1.0000
  C   C1179     1.0  0.71080  0.25157  0.77127  1.0000
  Fe  Fe139     1.0  0.89691  0.28689  0.83311  1.0000
  S   S277      1.0  0.89045  0.32405  0.82110  1.0000
  S   S278      1.0  0.93442  0.26966  0.83895  1.0000
  Fe  Fe140     1.0  0.84228  0.28088  0.83956  1.0000
  S   S279      1.0  0.83319  0.31854  0.82910  1.0000
  S   S280      1.0  0.81030  0.26061  0.85075  1.0000
  Fe  Fe141     1.0  0.86007  0.31030  0.80597  1.0000
  S   S281      1.0  0.84917  0.31209  0.77566  1.0000
  Fe  Fe142     1.0  0.86412  0.32868  0.84537  1.0000
  S   S282      1.0  0.86644  0.36107  0.86306  1.0000
  S   S283      1.0  0.86856  0.27223  0.81622  1.0000
  S   S284      1.0  0.87121  0.29186  0.85762  1.0000
  H   H2106     1.0  0.85372  0.36390  0.77474  1.0000
  H   H2107     1.0  0.90822  0.32268  0.89834  1.0000
  H   H2108     1.0  0.93824  0.45742  0.99430  1.0000
  C   C1180     1.0  0.96221  0.28317  0.83738  1.0000
  C   C1181     1.0  0.98233  0.27128  0.84557  1.0000
  C   C1182     1.0  0.96504  0.30476  0.82753  1.0000
  H   H2109     1.0  0.98039  0.25454  0.85319  1.0000
  H   H2110     1.0  0.94983  0.31402  0.82100  1.0000
  C   C1183     1.0  0.85722  0.35859  0.92679  1.0000
  C   C1184     1.0  0.85107  0.33943  0.91654  1.0000
  C   C1185     1.0  0.85460  0.33959  0.89715  1.0000
  C   C1186     1.0  0.86371  0.35929  0.88765  1.0000
  C   C1187     1.0  0.87017  0.37839  0.89788  1.0000
  C   C1188     1.0  0.86729  0.37790  0.91738  1.0000
  H   H2111     1.0  0.84301  0.32454  0.92364  1.0000
  H   H2112     1.0  0.84936  0.32486  0.88950  1.0000
  H   H2113     1.0  0.87706  0.39379  0.89065  1.0000
  H   H2114     1.0  0.87170  0.39289  0.92507  1.0000
  Fe  Fe143     1.0  0.87531  0.41492  0.00044  1.0000
  H   H2115     1.0  0.70041  0.38541  0.79912  1.0000
  H   H2116     1.0  0.81063  0.34544  0.78986  1.0000
  C   C1189     1.0  0.56418  0.12468  0.94491  1.0000
  H   H2117     1.0  0.89072  0.47105  0.90801  1.0000
  H   H2118     1.0  0.84005  0.42608  0.93657  1.0000
  C   C1190     1.0  0.72742  0.26539  0.82795  1.0000
  C   C1191     1.0  0.77241  0.19905  0.82707  1.0000
  C   C1192     1.0  0.79425  0.20579  0.81905  1.0000
  C   C1193     1.0  0.80599  0.22470  0.82596  1.0000
  C   C1194     1.0  0.79604  0.23705  0.84108  1.0000
  C   C1195     1.0  0.77407  0.23041  0.84900  1.0000
  C   C1196     1.0  0.76216  0.21175  0.84188  1.0000
  H   H2119     1.0  0.80229  0.19620  0.80749  1.0000
  H   H2120     1.0  0.82288  0.22953  0.81974  1.0000
  H   H2121     1.0  0.76612  0.23996  0.86061  1.0000
  H   H2122     1.0  0.74496  0.20734  0.84766  1.0000
  C   C1197     1.0  0.67855  0.01642  0.81831  1.0000
  C   C1198     1.0  0.68692  0.03822  0.82328  1.0000
  C   C1199     1.0  0.71117  0.03981  0.82635  1.0000
  C   C1200     1.0  0.72680  0.01929  0.82466  1.0000
  H   H2123     1.0  0.61150  0.20922  0.96831  1.0000
  H   H2124     1.0  0.65981  0.01544  0.81573  1.0000
  H   H2125     1.0  0.67467  0.05375  0.82476  1.0000
  H   H2126     1.0  0.74559  0.02029  0.82704  1.0000
  C   C1201     1.0  0.64971  0.16678  0.77144  1.0000
  H   H2127     1.0  0.68102  0.20568  0.79356  1.0000
  H   H2128     1.0  0.60292  0.14237  0.92347  1.0000
  H   H2129     1.0  0.61187  0.17444  0.76840  1.0000
  C   C1202     1.0  0.65220  0.11685  0.93848  1.0000
  C   C1203     1.0  0.65894  0.10470  0.92229  1.0000
  C   C1204     1.0  0.66439  0.11724  0.90553  1.0000
  C   C1205     1.0  0.66317  0.14213  0.90479  1.0000
  C   C1206     1.0  0.65626  0.15429  0.92092  1.0000
  C   C1207     1.0  0.65090  0.14175  0.93770  1.0000
  H   H2130     1.0  0.66018  0.08543  0.92278  1.0000
  H   H2131     1.0  0.66972  0.10764  0.89325  1.0000
  H   H2132     1.0  0.65538  0.17355  0.92052  1.0000
  H   H2133     1.0  0.64632  0.15129  0.95010  1.0000
  H   H2134     1.0  0.72255  0.25248  0.83928  1.0000
  H   H2135     1.0  0.62240  0.02463  0.97199  1.0000
  H   H2136     1.0  0.67292  0.07698  0.79406  1.0000
  S   S285      1.0  0.89150  0.34864  0.99061  1.0000
  H   H2137     1.0  0.79456  0.35882  0.75980  1.0000
  C   C1208     1.0  0.74669  0.17747  0.76751  1.0000
  C   C1209     1.0  0.91765  0.46372  0.96959  1.0000
  C   C1210     1.0  0.99451  0.24835  0.80144  1.0000
  C   C1211     1.0  0.58478  0.15153  0.92218  1.0000
  C   C1212     1.0  0.91584  0.43572  0.89116  1.0000
  H   H2138     1.0  0.85602  0.46039  0.91848  1.0000
  H   H2139     1.0  0.59554  0.16047  0.88477  1.0000
  H   H2140     1.0  0.72810  0.37082  0.77449  1.0000
  C   C1213     1.0  0.79228  0.35027  0.79551  1.0000
  C   C1214     1.0  0.67373  0.04051  0.77348  1.0000
  H   H2141     1.0  0.77314  0.26907  0.77922  1.0000
  H   H2142     1.0  0.70367  0.22746  0.81556  1.0000
  C   C1215     1.0  0.94021  0.45403  0.97928  1.0000
  C   C1216     1.0  0.72575  0.21185  0.78454  1.0000
  H   H2143     1.0  0.66119  0.00452  0.91540  1.0000
  H   H2144     1.0  0.92012  0.37914  0.86663  1.0000
  C   C1217     1.0  0.78089  0.31748  0.77769  1.0000
  C   C1218     1.0  0.58605  0.15753  0.95543  1.0000
  H   H2145     1.0  0.73526  0.26670  0.79875  1.0000
  N   N66       1.0  0.89850  0.46808  0.93727  1.0000
  C   C1219     1.0  0.85355  0.46155  0.93368  1.0000
  C   C1220     1.0  0.89433  0.49447  0.94047  1.0000
  C   C1221     1.0  0.58476  0.10493  0.94327  1.0000
  H   H2146     1.0  0.68854  0.04080  0.78304  1.0000
  H   H2147     1.0  0.72208  0.19773  0.79535  1.0000
  H   H2148     1.0  0.68791  0.16067  0.76977  1.0000
  H   H2149     1.0  0.79921  0.30266  0.80247  1.0000
  H   H2150     1.0  0.93623  0.46555  0.94279  1.0000
  H   H2151     1.0  0.74346  0.21798  0.78758  1.0000
  C   C1222     1.0  0.81238  0.38164  0.81212  1.0000
  H   H2152     1.0  0.76416  0.18178  0.77272  1.0000
  H   H2153     1.0  0.68078  0.21468  0.77000  1.0000
  C   C1223     1.0  0.93969  0.37641  0.92880  1.0000
  H   H2154     1.0  0.81189  0.37101  0.82542  1.0000
  H   H2155     1.0  0.90931  0.36515  0.83666  1.0000
  H   H2156     1.0  0.59136  0.06673  0.94764  1.0000
  N   N67       1.0  0.57077  0.14985  0.94035  1.0000
  C   C1224     1.0  0.73033  0.25312  0.80949  1.0000
  C   C1225     1.0  0.70703  0.24169  0.80474  1.0000
  C   C1226     1.0  0.62934  0.17481  0.76161  1.0000
  C   C1227     1.0  0.78792  0.27385  0.78778  1.0000
  N   N68       1.0  0.74574  0.16599  0.89940  1.0000
  C   C1228     1.0  0.73151  0.18312  0.88671  1.0000
  C   C1229     1.0  0.76345  0.15014  0.88830  1.0000
  C   C1230     1.0  0.72831  0.15023  0.90942  1.0000
  C   C1231     1.0  0.75831  0.17877  0.91364  1.0000
  C   C1232     1.0  0.77552  0.19746  0.90606  1.0000
  C   C1233     1.0  0.71306  0.20102  0.89611  1.0000
  C   C1234     1.0  0.73939  0.13011  0.92248  1.0000
  C   C1235     1.0  0.77413  0.16087  0.86991  1.0000
  C   C1236     1.0  0.79377  0.14405  0.86151  1.0000
  C   C1237     1.0  0.78451  0.21139  0.92172  1.0000
  C   C1238     1.0  0.70077  0.21775  0.88162  1.0000
  C   C1239     1.0  0.72043  0.11369  0.92995  1.0000
  H   H2157     1.0  0.72183  0.17301  0.87681  1.0000
  H   H2158     1.0  0.74339  0.19417  0.87804  1.0000
  H   H2159     1.0  0.77859  0.14327  0.89698  1.0000
  H   H2160     1.0  0.75500  0.13396  0.88415  1.0000
  H   H2161     1.0  0.71758  0.14176  0.89918  1.0000
  H   H2162     1.0  0.71521  0.16079  0.91820  1.0000
  H   H2163     1.0  0.74508  0.18745  0.92352  1.0000
  H   H2164     1.0  0.76932  0.16583  0.92235  1.0000
  H   H2165     1.0  0.76685  0.21061  0.89616  1.0000
  H   H2166     1.0  0.79142  0.18840  0.89916  1.0000
  H   H2167     1.0  0.69886  0.19178  0.90394  1.0000
  H   H2168     1.0  0.72184  0.21222  0.90567  1.0000
  H   H2169     1.0  0.74713  0.13776  0.93458  1.0000
  H   H2170     1.0  0.75360  0.11893  0.91528  1.0000
  H   H2171     1.0  0.75999  0.16375  0.85958  1.0000
  H   H2172     1.0  0.78174  0.17813  0.87174  1.0000
  H   H2173     1.0  0.80894  0.14111  0.87094  1.0000
  H   H2174     1.0  0.78669  0.12669  0.85872  1.0000
  H   H2175     1.0  0.80045  0.15206  0.84816  1.0000
  H   H2176     1.0  0.76940  0.22147  0.92889  1.0000
  H   H2177     1.0  0.79403  0.19919  0.93191  1.0000
  H   H2178     1.0  0.79714  0.22433  0.91593  1.0000
  H   H2179     1.0  0.69134  0.20742  0.87179  1.0000
  H   H2180     1.0  0.68740  0.23016  0.88859  1.0000
  H   H2181     1.0  0.71401  0.22839  0.87381  1.0000
  H   H2182     1.0  0.70577  0.12396  0.93749  1.0000
  H   H2183     1.0  0.71290  0.10454  0.91845  1.0000
  H   H2184     1.0  0.72853  0.09993  0.93971  1.0000
  C   C1240     1.0  0.91130  0.43772  0.91202  1.0000
  H   H2185     1.0  0.89647  0.42642  0.91606  1.0000
  H   H2186     1.0  0.73036  0.25323  0.76907  1.0000
  C   C1241     1.0  0.90518  0.46399  0.91717  1.0000
  C   C1242     1.0  0.57295  0.14209  0.90520  1.0000
  H   H2187     1.0  0.96064  0.23579  0.81160  1.0000
  C   C1243     1.0  0.98774  0.31400  0.82555  1.0000
  C   C1244     1.0  0.98475  0.34363  0.87626  1.0000
  H   H2188     1.0  0.93177  0.34035  0.92621  1.0000
  H   H2189     1.0  0.55681  0.12313  0.95939  1.0000
  H   H2190     1.0  0.96388  0.23803  0.78676  1.0000
  C   C1245     1.0  0.78357  0.29926  0.79433  1.0000
  H   H2191     1.0  0.94312  0.43451  0.97769  1.0000
  C   C1246     1.0  0.61061  0.02048  0.98369  1.0000
  H   H2192     1.0  0.92043  0.41680  0.88796  1.0000
  H   H2193     1.0  0.74458  0.27261  0.83128  1.0000
  H   H2194     1.0  0.92186  0.43872  0.94803  1.0000
  H   H2195     1.0  0.92772  0.43030  0.91882  1.0000
  H   H2196     1.0  0.63572  0.07035  0.81168  1.0000
  C   C1247     1.0  0.72979  0.19990  0.76575  1.0000
  H   H2197     1.0  0.52850  0.15170  0.96380  1.0000
  C   C1248     1.0  0.83439  0.44472  0.94004  1.0000
  C   C1249     1.0  0.87703  0.45495  0.94373  1.0000
  C   C1250     1.0  0.59282  0.18385  0.95367  1.0000
  H   H2198     1.0  0.58801  0.17038  0.91835  1.0000
  H   H2199     1.0  0.91755  0.26928  0.90798  1.0000
  C   C1251     1.0  0.77561  0.35813  0.76466  1.0000
  H   H2200     1.0  0.75038  0.33985  0.80656  1.0000
  H   H2201     1.0  0.97960  0.21382  0.79969  1.0000
  H   H2202     1.0  0.60311  0.14628  0.95586  1.0000
  H   H2203     1.0  0.79225  0.38877  0.78783  1.0000
  H   H2204     1.0  0.55177  0.18365  0.93298  1.0000
  H   H2205     1.0  0.56281  0.07572  0.93796  1.0000
  C   C1252     1.0  0.71138  0.36843  0.80153  1.0000
  H   H2206     1.0  0.69251  0.25592  0.80666  1.0000
  C   C1253     1.0  0.79132  0.37681  0.80037  1.0000
  H   H2207     1.0  0.95125  0.37364  0.86082  1.0000
  C   C1254     1.0  0.62855  0.08741  0.80508  1.0000
  H   H2208     1.0  0.56769  0.12361  0.90772  1.0000
  H   H2209     1.0  0.79070  0.34022  0.80902  1.0000
  H   H2210     1.0  0.90913  0.25940  0.88591  1.0000
  H   H2211     1.0  0.63382  0.10252  0.81299  1.0000
  H   H2212     1.0  0.71614  0.36700  0.81633  1.0000
  H   H2213     1.0  0.63939  0.22782  0.76550  1.0000
  H   H2214     1.0  0.60876  0.08771  0.80556  1.0000
  C   C1255     1.0  0.68254  0.22159  0.78395  1.0000
  C   C1256     1.0  0.70241  0.09144  0.76450  1.0000
  H   H2215     1.0  0.84391  0.47137  0.98198  1.0000
  H   H2216     1.0  0.51629  0.00535  0.97468  1.0000
  H   H2217     1.0  0.81150  0.40079  0.81531  1.0000
  H   H2218     1.0  0.82961  0.37720  0.80456  1.0000
  C   C1257     1.0  0.68277  0.05078  0.88184  1.0000
  C   C1258     1.0  0.53319  0.16905  0.95735  1.0000
  H   H2219     1.0  0.70639  0.01999  0.87755  1.0000
  H   H2220     1.0  0.55674  0.15359  0.90168  1.0000
  H   H2221     1.0  0.70352  0.26909  0.77641  1.0000
  H   H2222     1.0  0.59304  0.10443  0.92912  1.0000
  H   H2223     1.0  0.74369  0.38379  0.79208  1.0000
  H   H2224     1.0  0.96408  0.28741  0.94455  1.0000
  H   H2225     1.0  0.58131  0.13569  0.87617  1.0000
  H   H2226     1.0  0.95599  0.46287  0.97344  1.0000
  H   H2227     1.0  0.72051  0.05737  0.77363  1.0000
  H   H2228     1.0  0.94415  0.37327  0.94356  1.0000
  H   H2229     1.0  0.62219  0.24260  0.78371  1.0000
  H   H2230     1.0  0.89173  0.28349  0.89667  1.0000
  H   H2231     1.0  0.98154  0.34637  0.86124  1.0000
  H   H2232     1.0  0.54952  0.11993  0.93615  1.0000
  H   H2233     1.0  0.67069  0.01424  0.86055  1.0000
  H   H2234     1.0  0.57732  0.15444  0.96933  1.0000
  H   H2235     1.0  0.97335  0.31992  0.89897  1.0000
  H   H2236     1.0  0.62452  0.17917  0.97024  1.0000
  H   H2237     1.0  0.69703  0.06048  0.88776  1.0000
  H   H2238     1.0  0.68180  0.05609  0.86688  1.0000
  H   H2239     1.0  0.66554  0.05615  0.88905  1.0000
  C   C1259     1.0  0.91013  0.27524  0.89441  1.0000
  H   H2240     1.0  0.70048  0.35346  0.79851  1.0000
  H   H2241     1.0  0.65743  0.24024  0.80328  1.0000
  N   N69       1.0  0.94112  0.33525  0.88631  1.0000
  C   C1260     1.0  0.93703  0.35669  0.89816  1.0000
  C   C1261     1.0  0.93171  0.34106  0.86716  1.0000
  C   C1262     1.0  0.92704  0.31571  0.89534  1.0000
  H   H2242     1.0  0.66987  0.10765  0.78835  1.0000
  C   C1263     1.0  0.84632  0.35927  0.76191  1.0000
  C   C1264     1.0  0.94343  0.35302  0.91881  1.0000
  C   C1265     1.0  0.59013  0.14217  0.88828  1.0000
  C   C1266     1.0  0.93343  0.36704  0.85925  1.0000
  C   C1267     1.0  0.92799  0.36934  0.83871  1.0000
  H   H2243     1.0  0.65153  0.01765  0.88036  1.0000
  H   H2244     1.0  0.98731  0.32252  0.94543  1.0000
  H   H2245     1.0  0.98722  0.26715  0.80176  1.0000
  H   H2246     1.0  0.91783  0.36317  0.89795  1.0000
  H   H2247     1.0  0.94696  0.37179  0.89246  1.0000
  H   H2248     1.0  0.94050  0.32865  0.85700  1.0000
  H   H2249     1.0  0.91237  0.33795  0.86691  1.0000
  H   H2250     1.0  0.59880  0.10798  0.95292  1.0000
  C   C1268     1.0  0.98049  0.28650  0.95273  1.0000
  C   C1269     1.0  0.67545  0.01610  0.76493  1.0000
  C   C1270     1.0  0.57598  0.08027  0.94807  1.0000
  S   S286      1.0  0.62742  0.14446  0.00207  1.0000
  C   C1271     1.0  0.66031  0.23881  0.78808  1.0000
  C   C1272     1.0  0.91937  0.45845  0.94863  1.0000
  C   C1273     1.0  0.54804  0.16570  0.93895  1.0000
  H   H2251     1.0  0.54316  0.17832  0.96747  1.0000
  H   H2252     1.0  0.90256  0.45499  0.97659  1.0000
  H   H2253     1.0  0.83082  0.44542  0.95524  1.0000
  N   N70       1.0  0.70644  0.23187  0.78563  1.0000
  C   C1274     1.0  0.92602  0.29287  0.88425  1.0000
  C   C1275     1.0  0.68862  0.02392  0.88437  1.0000
  H   H2254     1.0  0.76735  0.30014  0.80360  1.0000
  H   H2255     1.0  0.88103  0.43543  0.94309  1.0000
  C   C1276     1.0  0.84287  0.33545  0.75882  1.0000
  H   H2256     1.0  0.53602  0.15849  0.92902  1.0000
  H   H2257     1.0  0.81751  0.45005  0.93298  1.0000
  C   C1277     1.0  0.66937  0.00974  0.87571  1.0000
  H   H2258     1.0  0.60641  0.13028  0.89095  1.0000
  H   H2259     1.0  0.94040  0.35723  0.83058  1.0000
  N   N71       1.0  0.67651  0.08583  0.76456  1.0000
  H   H2260     1.0  0.73883  0.16405  0.77720  1.0000
  C   C1278     1.0  0.74930  0.34434  0.79144  1.0000
  H   H2261     1.0  0.77487  0.38153  0.80873  1.0000
  H   H2262     1.0  0.73842  0.33054  0.78609  1.0000
  H   H2263     1.0  0.78917  0.26122  0.79998  1.0000
  H   H2264     1.0  0.93454  0.30954  0.90886  1.0000
  H   H2265     1.0  0.56762  0.07951  0.96223  1.0000
  C   C1279     1.0  0.60739  0.19024  0.96988  1.0000
  H   H2266     1.0  0.98319  0.36100  0.88295  1.0000
  N   N72       1.0  0.77406  0.34304  0.78238  1.0000
  S   S287      1.0  0.95464  0.37202  0.98342  1.0000
  H   H2267     1.0  0.57673  0.19641  0.95334  1.0000
  H   H2268     1.0  0.63130  0.07513  0.77726  1.0000
  H   H2269     1.0  0.59722  0.18770  0.98318  1.0000
  H   H2270     1.0  0.80504  0.27196  0.77957  1.0000
  H   H2271     1.0  0.84657  0.47982  0.93713  1.0000
  H   H2272     1.0  0.96934  0.31031  0.87648  1.0000
  H   H2273     1.0  0.91866  0.29711  0.87045  1.0000
  C   C1280     1.0  0.63771  0.08985  0.78499  1.0000
  H   H2274     1.0  0.93091  0.44636  0.88624  1.0000
  H   H2275     1.0  0.99485  0.47680  0.00078  1.0000
  H   H2276     1.0  0.94397  0.28359  0.88231  1.0000
  C   C1281     1.0  0.74393  0.08466  0.77730  1.0000
  H   H2277     1.0  0.79806  0.31630  0.76945  1.0000
  H   H2278     1.0  0.95138  0.38985  0.92249  1.0000
  C   C1282     1.0  0.71868  0.07610  0.77786  1.0000
  H   H2279     1.0  0.60988  0.05553  0.99416  1.0000
  H   H2280     1.0  0.70365  0.11053  0.76763  1.0000
  H   H2281     1.0  0.96232  0.34633  0.92016  1.0000
  H   H2282     1.0  0.76954  0.37697  0.76687  1.0000
  H   H2283     1.0  0.66256  0.25692  0.78193  1.0000
  H   H2284     1.0  0.63400  0.21233  0.78761  1.0000
  C   C1283     1.0  0.66535  0.09003  0.78357  1.0000
  H   H2285     1.0  0.92090  0.47420  0.91288  1.0000
  Fe  Fe144     1.0  0.91558  0.37838  0.99088  1.0000
  H   H2286     1.0  0.99106  0.38106  0.94441  1.0000
  H   H2287     1.0  0.88295  0.49737  0.95322  1.0000
  C   C1284     1.0  0.97344  0.23300  0.79966  1.0000
  H   H2288     1.0  0.62952  0.10692  0.77904  1.0000
  H   H2289     1.0  0.74366  0.10359  0.78098  1.0000
  H   H2290     1.0  0.75488  0.07381  0.78748  1.0000
  H   H2291     1.0  0.65684  0.04200  0.78193  1.0000
  C   C1285     1.0  0.67216  0.16717  0.76246  1.0000
  H   H2292     1.0  0.92072  0.38343  0.92829  1.0000
  C   C1286     1.0  0.99665  0.39167  0.98823  1.0000
  C   C1287     1.0  0.67410  0.06087  0.75827  1.0000
  C   C1288     1.0  0.85334  0.48565  0.98709  1.0000
  H   H2293     1.0  0.98922  0.26821  0.95209  1.0000
  H   H2294     1.0  0.69044  0.01960  0.89931  1.0000
  C   C1289     1.0  0.97259  0.39153  0.99375  1.0000
  C   C1290     1.0  0.63765  0.22977  0.78073  1.0000
  H   H2295     1.0  0.76745  0.31074  0.76871  1.0000
  H   H2296     1.0  0.99901  0.45439  0.97209  1.0000
  H   H2297     1.0  0.91517  0.48306  0.97196  1.0000
  C   C1291     1.0  0.60359  0.03795  0.99630  1.0000
  H   H2298     1.0  0.98972  0.33048  0.81756  1.0000
  H   H2299     1.0  0.53723  0.00005  0.99210  1.0000
  S   S288      1.0  0.84747  0.38770  0.00096  1.0000
  C   C1292     1.0  0.99728  0.30484  0.94476  1.0000
  C   C1293     1.0  0.86919  0.48089  0.00146  1.0000
  H   H2300     1.0  0.71296  0.19457  0.76038  1.0000
  H   H2301     1.0  0.75249  0.08264  0.76331  1.0000
  C   C1294     1.0  0.50985  0.18402  0.95409  1.0000
  H   H2302     1.0  0.51349  0.20206  0.94835  1.0000
  H   H2303     1.0  0.69280  0.01297  0.75724  1.0000
  H   H2304     1.0  0.67426  0.00198  0.77606  1.0000
  H   H2305     1.0  0.99969  0.39055  0.92113  1.0000
  H   H2306     1.0  0.66307  0.12163  0.75642  1.0000
  H   H2307     1.0  0.97776  0.50474  0.04171  1.0000
  Fe  Fe145     1.0  0.63817  0.90703  0.01638  1.0000
  S   S289      1.0  0.66719  0.91148  0.03723  1.0000
  S   S290      1.0  0.60621  0.93320  0.01660  1.0000
  Fe  Fe146     1.0  0.69690  0.89259  0.14847  1.0000
  S   S291      1.0  0.72908  0.91390  0.15103  1.0000
  S   S292      1.0  0.67532  0.88399  0.12357  1.0000
  Fe  Fe147     1.0  0.69203  0.88246  0.19111  1.0000
  S   S293      1.0  0.72363  0.90304  0.19638  1.0000
  S   S294      1.0  0.66704  0.86393  0.21203  1.0000
  Fe  Fe148     1.0  0.70911  0.93080  0.17543  1.0000
  S   S295      1.0  0.69815  0.97009  0.18115  1.0000
  Fe  Fe149     1.0  0.74127  0.88439  0.17177  1.0000
  S   S296      1.0  0.77957  0.86831  0.17551  1.0000
  S   S297      1.0  0.67633  0.91094  0.17153  1.0000
  S   S298      1.0  0.71035  0.86227  0.16775  1.0000
  H   H2308     1.0  0.93250  0.70773  0.02453  1.0000
  C   C1295     1.0  0.78167  0.72854  0.20610  1.0000
  C   C1296     1.0  0.65517  0.98192  0.04328  1.0000
  Fe  Fe150     1.0  0.88016  0.62761  0.01452  1.0000
  S   S299      1.0  0.86290  0.64996  0.03780  1.0000
  S   S300      1.0  0.89334  0.58878  0.01440  1.0000
  Fe  Fe151     1.0  0.86425  0.74514  0.15542  1.0000
  S   S301      1.0  0.85227  0.70864  0.15033  1.0000
  S   S302      1.0  0.83432  0.77276  0.14622  1.0000
  Fe  Fe152     1.0  0.91225  0.72384  0.17068  1.0000
  S   S303      1.0  0.90185  0.68672  0.16661  1.0000
  S   S304      1.0  0.94787  0.72063  0.18565  1.0000
  Fe  Fe153     1.0  0.88938  0.70000  0.13863  1.0000
  S   S305      1.0  0.90423  0.67640  0.11510  1.0000
  Fe  Fe154     1.0  0.86578  0.69866  0.17866  1.0000
  S   S306      1.0  0.84393  0.67539  0.19861  1.0000
  S   S307      1.0  0.90117  0.73696  0.14203  1.0000
  S   S308      1.0  0.87634  0.73510  0.18439  1.0000
  C   C1297     1.0  0.97628  0.73200  0.18052  1.0000
  C   C1298     1.0  0.59350  0.96944  0.06614  1.0000
  H   H2309     1.0  0.55963  0.74840  0.21651  1.0000
  H   H2310     1.0  0.51891  0.95524  0.01099  1.0000
  H   H2311     1.0  0.75780  0.79845  0.18470  1.0000
  H   H2312     1.0  0.74411  0.99464  0.14075  1.0000
  C   C1299     1.0  0.83948  0.67732  0.22295  1.0000
  C   C1300     1.0  0.84335  0.69800  0.23207  1.0000
  H   H2313     1.0  0.69838  0.98614  0.22158  1.0000
  C   C1301     1.0  0.83136  0.65764  0.23338  1.0000
  H   H2314     1.0  0.84923  0.71335  0.22419  1.0000
  C   C1302     1.0  0.78802  0.74614  0.17493  1.0000
  C   C1303     1.0  0.87474  0.65698  0.05926  1.0000
  C   C1304     1.0  0.89567  0.64535  0.06603  1.0000
  C   C1305     1.0  0.90409  0.65123  0.08328  1.0000
  C   C1306     1.0  0.89195  0.66900  0.09389  1.0000
  C   C1307     1.0  0.87098  0.68057  0.08715  1.0000
  C   C1308     1.0  0.86242  0.67451  0.06998  1.0000
  H   H2315     1.0  0.90513  0.63157  0.05812  1.0000
  H   H2316     1.0  0.91993  0.64171  0.08857  1.0000
  H   H2317     1.0  0.86139  0.69421  0.09512  1.0000
  H   H2318     1.0  0.84613  0.68351  0.06496  1.0000
  H   H2319     1.0  0.60796  0.97759  0.03898  1.0000
  C   C1309     1.0  0.90969  0.71079  0.22987  1.0000
  N   N73       1.0  0.63525  0.98516  0.05777  1.0000
  H   H2320     1.0  0.79888  0.71808  0.20301  1.0000
  C   C1310     1.0  0.93009  0.68893  0.02148  1.0000
  H   H2321     1.0  0.57935  0.93853  0.05440  1.0000
  H   H2322     1.0  0.59841  0.95890  0.07892  1.0000
  C   C1311     1.0  0.79407  0.84098  0.16810  1.0000
  C   C1312     1.0  0.78361  0.82675  0.15581  1.0000
  C   C1313     1.0  0.79629  0.80614  0.14917  1.0000
  C   C1314     1.0  0.81926  0.79887  0.15534  1.0000
  C   C1315     1.0  0.82943  0.81263  0.16817  1.0000
  C   C1316     1.0  0.81699  0.83369  0.17434  1.0000
  H   H2323     1.0  0.76590  0.83191  0.15129  1.0000
  H   H2324     1.0  0.78821  0.79565  0.13927  1.0000
  H   H2325     1.0  0.84715  0.80744  0.17292  1.0000
  H   H2326     1.0  0.82532  0.84456  0.18385  1.0000
  H   H2327     1.0  0.91063  0.68671  0.02090  1.0000
  N   N74       1.0  0.68291  0.95816  0.23863  1.0000
  H   H2328     1.0  0.75378  0.73597  0.16450  1.0000
  C   C1317     1.0  0.66708  0.85993  0.23661  1.0000
  C   C1318     1.0  0.83937  0.69885  0.25141  1.0000
  H   H2329     1.0  0.70005  0.87600  0.24030  1.0000
  H   H2330     1.0  0.63390  0.84286  0.23779  1.0000
  C   C1319     1.0  0.66815  0.90508  0.06150  1.0000
  C   C1320     1.0  0.68733  0.91253  0.07124  1.0000
  C   C1321     1.0  0.68943  0.90704  0.09037  1.0000
  C   C1322     1.0  0.67248  0.89372  0.09995  1.0000
  C   C1323     1.0  0.65320  0.88647  0.09023  1.0000
  C   C1324     1.0  0.65087  0.89232  0.07119  1.0000
  H   H2331     1.0  0.70080  0.92243  0.06388  1.0000
  H   H2332     1.0  0.70435  0.91278  0.09760  1.0000
  H   H2333     1.0  0.64002  0.87607  0.09747  1.0000
  H   H2334     1.0  0.63604  0.88642  0.06391  1.0000
  H   H2335     1.0  0.55812  0.95627  0.06811  1.0000
  C   C1325     1.0  0.78166  0.72727  0.14450  1.0000
  C   C1326     1.0  0.97883  0.75349  0.17044  1.0000
  H   H2336     1.0  0.98148  0.64711  0.11722  1.0000
  C   C1327     1.0  0.74760  0.78300  0.18175  1.0000
  N   N75       1.0  0.98103  0.65818  0.05173  1.0000
  H   H2337     1.0  0.75254  0.93027  0.22327  1.0000
  C   C1328     1.0  0.97669  0.63289  0.04713  1.0000
  C   C1329     1.0  0.96795  0.67487  0.03798  1.0000
  C   C1330     1.0  0.97111  0.66366  0.07086  1.0000
  C   C1331     1.0  0.98269  0.64900  0.08714  1.0000
  H   H2338     1.0  0.96930  0.69372  0.04143  1.0000
  H   H2339     1.0  0.74167  0.90754  0.23930  1.0000
  C   C1332     1.0  0.99642  0.61305  0.05204  1.0000
  C   C1333     1.0  0.98721  0.58825  0.05123  1.0000
  C   C1334     1.0  0.97255  0.65759  0.10577  1.0000
  C   C1335     1.0  0.79490  0.76980  0.20160  1.0000
  C   C1336     1.0  0.68529  0.86746  0.24714  1.0000
  H   H2340     1.0  0.85435  0.77549  0.21215  1.0000
  H   H2341     1.0  0.96704  0.73782  0.13633  1.0000
  H   H2342     1.0  0.95941  0.62769  0.05364  1.0000
  H   H2343     1.0  0.97455  0.63162  0.03194  1.0000
  H   H2344     1.0  0.99504  0.70327  0.19585  1.0000
  H   H2345     1.0  0.64513  0.96149  0.23305  1.0000
  C   C1337     1.0  0.66232  0.95476  0.22633  1.0000
  H   H2346     1.0  0.95188  0.66033  0.07208  1.0000
  H   H2347     1.0  0.97636  0.67290  0.02384  1.0000
  H   H2348     1.0  0.96872  0.53472  0.01222  1.0000
  H   H2349     1.0  0.78044  0.74499  0.13708  1.0000
  H   H2350     1.0  0.77062  0.71516  0.13737  1.0000
  H   H2351     1.0  0.66414  0.96563  0.21314  1.0000
  H   H2352     1.0  0.92588  0.66570  0.20779  1.0000
  H   H2353     1.0  0.56690  0.96693  0.04515  1.0000
  H   H2354     1.0  0.51732  0.93916  0.04424  1.0000
  H   H2355     1.0  0.52808  0.98075  0.02121  1.0000
  H   H2356     1.0  0.81556  0.50169  0.24830  1.0000
  H   H2357     1.0  0.94877  0.66338  0.23944  1.0000
  H   H2358     1.0  0.73385  0.96172  0.24298  1.0000
  H   H2359     1.0  0.91406  0.70862  0.21491  1.0000
  H   H2360     1.0  0.97536  0.67665  0.10718  1.0000
  H   H2361     1.0  0.80051  0.71986  0.14377  1.0000
  C   C1338     1.0  0.63573  0.92784  0.21043  1.0000
  H   H2362     1.0  0.68080  0.98579  0.07498  1.0000
  H   H2363     1.0  0.78925  0.76287  0.16644  1.0000
  H   H2364     1.0  0.67035  0.99254  0.04612  1.0000
  H   H2365     1.0  0.93715  0.65363  0.03323  1.0000
  C   C1339     1.0  0.57328  0.95707  0.05786  1.0000
  H   H2366     1.0  0.88088  0.63758  0.21388  1.0000
  C   C1340     1.0  0.65939  0.92922  0.21993  1.0000
  C   C1341     1.0  0.72111  0.79117  0.18367  1.0000
  H   H2367     1.0  0.80656  0.73765  0.17470  1.0000
  H   H2368     1.0  0.82992  0.76286  0.18795  1.0000
  H   H2369     1.0  0.67395  0.92422  0.20976  1.0000
  H   H2370     1.0  0.70044  0.92315  0.23375  1.0000
  H   H2371     1.0  0.75134  0.77849  0.16711  1.0000
  C   C1342     1.0  0.94077  0.67202  0.03657  1.0000
  H   H2372     1.0  0.71647  0.79687  0.19795  1.0000
  H   H2373     1.0  0.96323  0.76335  0.16498  1.0000
  H   H2374     1.0  0.70324  0.98767  0.24565  1.0000
  S   S309      1.0  0.54898  0.90067  0.02176  1.0000
  C   C1343     1.0  0.67208  0.97286  0.10256  1.0000
  H   H2375     1.0  0.78826  0.77530  0.21557  1.0000
  C   C1344     1.0  0.74725  0.92608  0.23795  1.0000
  H   H2376     1.0  0.71709  0.80661  0.17394  1.0000
  C   C1345     1.0  0.64792  0.98777  0.02298  1.0000
  C   C1346     1.0  0.77949  0.73119  0.22738  1.0000
  C   C1347     1.0  0.70446  0.94214  0.23305  1.0000
  H   H2377     1.0  0.83108  0.79847  0.20786  1.0000
  C   C1348     1.0  0.50688  0.95565  0.04851  1.0000
  C   C1349     1.0  0.75397  0.76141  0.19524  1.0000
  C   C1350     1.0  0.94422  0.68297  0.23852  1.0000
  H   H2378     1.0  0.88544  0.67019  0.23796  1.0000
  H   H2379     1.0  0.77136  0.50444  0.23626  1.0000
  H   H2380     1.0  0.62045  0.93186  0.22025  1.0000
  H   H2381     1.0  0.70983  0.77664  0.18033  1.0000
  H   H2382     1.0  0.70951  0.94607  0.21823  1.0000
  H   H2383     1.0  0.82814  0.64161  0.22645  1.0000
  H   H2384     1.0  0.91160  0.62541  0.21449  1.0000
  C   C1351     1.0  0.66488  0.98622  0.08453  1.0000
  H   H2385     1.0  0.62921  0.97631  0.08693  1.0000
  C   C1352     1.0  0.77639  0.70720  0.23756  1.0000
  H   H2386     1.0  0.74168  0.74731  0.19282  1.0000
  C   C1353     1.0  0.52174  0.90317  0.01009  1.0000
  H   H2387     1.0  0.95312  0.65514  0.10715  1.0000
  H   H2388     1.0  0.65681  0.97295  0.11279  1.0000
  H   H2389     1.0  0.68682  0.98146  0.10872  1.0000
  H   H2390     1.0  0.89976  0.63839  0.19322  1.0000
  C   C1354     1.0  0.77282  0.72936  0.16465  1.0000
  H   H2391     1.0  0.57370  0.79807  0.24634  1.0000
  H   H2392     1.0  0.63449  0.90957  0.20554  1.0000
  N   N76       1.0  0.91758  0.68858  0.24112  1.0000
  H   H2393     1.0  0.55829  0.82835  0.01046  1.0000
  C   C1355     1.0  0.71126  0.99806  0.18063  1.0000
  H   H2394     1.0  0.82899  0.77860  0.22814  1.0000
  C   C1356     1.0  0.64810  0.84872  0.24579  1.0000
  C   C1357     1.0  0.89941  0.63987  0.20850  1.0000
  C   C1358     1.0  0.92092  0.73401  0.23451  1.0000
  H   H2395     1.0  0.79355  0.78640  0.19270  1.0000
  H   H2396     1.0  0.64879  0.95531  0.07506  1.0000
  C   C1359     1.0  0.90725  0.66425  0.21318  1.0000
  N   N77       1.0  0.73068  0.83484  0.10417  1.0000
  C   C1360     1.0  0.71101  0.83517  0.09048  1.0000
  C   C1361     1.0  0.72072  0.82984  0.12356  1.0000
  C   C1362     1.0  0.73982  0.85950  0.10342  1.0000
  C   C1363     1.0  0.75150  0.81745  0.09944  1.0000
  C   C1364     1.0  0.74612  0.79111  0.09791  1.0000
  C   C1365     1.0  0.71778  0.84273  0.07018  1.0000
  C   C1366     1.0  0.75703  0.86493  0.11876  1.0000
  C   C1367     1.0  0.70275  0.81002  0.12663  1.0000
  C   C1368     1.0  0.67685  0.82000  0.12943  1.0000
  C   C1369     1.0  0.76838  0.77619  0.09128  1.0000
  C   C1370     1.0  0.69719  0.83990  0.05742  1.0000
  C   C1371     1.0  0.76705  0.88926  0.11506  1.0000
  H   H2397     1.0  0.69588  0.84771  0.09499  1.0000
  H   H2398     1.0  0.70335  0.81769  0.09008  1.0000
  H   H2399     1.0  0.73558  0.82498  0.13299  1.0000
  H   H2400     1.0  0.71187  0.84642  0.12921  1.0000
  H   H2401     1.0  0.72454  0.87320  0.10423  1.0000
  H   H2402     1.0  0.74943  0.86311  0.08996  1.0000
  H   H2403     1.0  0.76077  0.82329  0.08633  1.0000
  H   H2404     1.0  0.76524  0.81730  0.11011  1.0000
  H   H2405     1.0  0.73193  0.78913  0.08798  1.0000
  H   H2406     1.0  0.74086  0.78346  0.11172  1.0000
  H   H2407     1.0  0.72168  0.86179  0.06909  1.0000
  H   H2408     1.0  0.73354  0.83176  0.06488  1.0000
  H   H2409     1.0  0.77249  0.85163  0.11954  1.0000
  H   H2410     1.0  0.74751  0.86523  0.13249  1.0000
  H   H2411     1.0  0.70343  0.79704  0.11561  1.0000
  H   H2412     1.0  0.70747  0.79944  0.13948  1.0000
  H   H2413     1.0  0.66510  0.80515  0.13228  1.0000
  H   H2414     1.0  0.67507  0.83175  0.14143  1.0000
  H   H2415     1.0  0.67051  0.83029  0.11693  1.0000
  H   H2416     1.0  0.76423  0.75727  0.09059  1.0000
  H   H2417     1.0  0.77448  0.78255  0.07725  1.0000
  H   H2418     1.0  0.78310  0.77707  0.10102  1.0000
  H   H2419     1.0  0.70200  0.84655  0.04318  1.0000
  H   H2420     1.0  0.69331  0.82090  0.05693  1.0000
  H   H2421     1.0  0.68084  0.85042  0.06227  1.0000
  H   H2422     1.0  0.77856  0.88926  0.10223  1.0000
  H   H2423     1.0  0.75237  0.90344  0.11361  1.0000
  H   H2424     1.0  0.77804  0.89333  0.12682  1.0000
  H   H2425     1.0  0.62233  0.95182  0.05010  1.0000
  C   C1372     1.0  0.82197  0.76252  0.20222  1.0000
  H   H2426     1.0  0.67828  0.95414  0.09992  1.0000
  H   H2427     1.0  0.82562  0.74444  0.20849  1.0000
  H   H2428     1.0  0.97164  0.68294  0.07338  1.0000
  C   C1373     1.0  0.83479  0.77988  0.21331  1.0000
  H   H2429     1.0  0.57640  0.77447  0.21688  1.0000
  H   H2430     1.0  0.56992  0.75583  0.24826  1.0000
  H   H2431     1.0  0.77745  0.70912  0.25271  1.0000
  C   C1374     1.0  0.96875  0.72624  0.12428  1.0000
  H   H2432     1.0  0.53793  0.75918  0.24549  1.0000
  H   H2433     1.0  0.74278  0.97697  0.12081  1.0000
  C   C1375     1.0  0.64379  0.97477  0.07615  1.0000
  H   H2434     1.0  0.74767  0.98441  0.17620  1.0000
  H   H2435     1.0  0.93099  0.67649  0.04970  1.0000
  C   C1376     1.0  0.96062  0.69369  0.25231  1.0000
  H   H2436     1.0  0.97972  0.58578  0.03754  1.0000
  H   H2437     1.0  0.66288  0.96310  0.04382  1.0000
  C   C1377     1.0  0.73263  0.99037  0.12939  1.0000
  H   H2438     1.0  0.76402  0.74342  0.23141  1.0000
  H   H2439     1.0  0.77408  0.71122  0.17135  1.0000
  H   H2440     1.0  0.96539  0.50353  0.01211  1.0000
  N   N78       1.0  0.77967  0.75147  0.19445  1.0000
  C   C1378     1.0  0.61528  0.97055  0.05234  1.0000
  Fe  Fe155     1.0  0.58537  0.90370  0.00736  1.0000
  H   H2441     1.0  0.63461  0.94054  0.19825  1.0000
  C   C1379     1.0  0.55508  0.76719  0.24211  1.0000
  H   H2442     1.0  0.88993  0.75758  0.22715  1.0000
  H   H2443     1.0  0.76774  0.71669  0.20235  1.0000
  H   H2444     1.0  0.98921  0.70160  0.23224  1.0000
  H   H2445     1.0  0.97859  0.63009  0.08660  1.0000
  H   H2446     1.0  0.74888  0.76740  0.20938  1.0000
  H   H2447     1.0  0.76307  0.92729  0.24651  1.0000
  H   H2448     1.0  0.95791  0.73495  0.11304  1.0000
  C   C1380     1.0  0.90487  0.66809  0.23425  1.0000
  H   H2449     1.0  0.79590  0.73830  0.23240  1.0000
  H   H2450     1.0  0.91145  0.65103  0.24126  1.0000
  H   H2451     1.0  0.54399  0.80492  0.23982  1.0000
  H   H2452     1.0  0.91244  0.75358  0.20868  1.0000
  C   C1381     1.0  0.99488  0.72264  0.11760  1.0000
  H   H2453     1.0  0.89547  0.67789  0.20584  1.0000
  H   H2454     1.0  0.77743  0.53276  0.25521  1.0000
  C   C1382     1.0  0.55913  0.76700  0.22110  1.0000
  C   C1383     1.0  0.98675  0.69125  0.24553  1.0000
  H   H2455     1.0  0.66019  0.91561  0.23137  1.0000
  C   C1384     1.0  0.90939  0.75554  0.22381  1.0000
  C   C1385     1.0  0.66963  0.99105  0.01003  1.0000
  C   C1386     1.0  0.88035  0.49983  0.00863  1.0000
  H   H2456     1.0  0.99265  0.67226  0.24352  1.0000
  H   H2457     1.0  0.97310  0.58565  0.06216  1.0000
  H   H2458     1.0  0.91755  0.77194  0.22761  1.0000
  H   H2459     1.0  0.54440  0.77755  0.21403  1.0000
  H   H2460     1.0  0.88994  0.71394  0.23104  1.0000
  H   H2461     1.0  0.96129  0.70895  0.12833  1.0000
  H   H2462     1.0  0.95019  0.68857  0.22419  1.0000
  H   H2463     1.0  0.93860  0.68491  0.00775  1.0000
  C   C1387     1.0  0.72706  0.94371  0.24449  1.0000
  H   H2464     1.0  0.68200  0.97475  0.01050  1.0000
  H   H2465     1.0  0.51903  0.96779  0.05440  1.0000
  C   C1388     1.0  0.55516  0.79275  0.24904  1.0000
  H   H2466     1.0  0.88480  0.53762  0.00708  1.0000
  H   H2467     1.0  0.58647  0.98757  0.06991  1.0000
  H   H2468     1.0  0.63852  0.97285  0.01779  1.0000
  H   H2469     1.0  0.79066  0.69378  0.23316  1.0000
  C   C1389     1.0  0.82738  0.65847  0.25274  1.0000
  C   C1390     1.0  0.68974  0.98358  0.23562  1.0000
  H   H2470     1.0  0.80656  0.51404  0.21594  1.0000
  H   H2471     1.0  0.95587  0.71277  0.25443  1.0000
  H   H2472     1.0  0.50586  0.79778  0.24693  1.0000
  H   H2473     1.0  0.71637  0.98241  0.13542  1.0000
  C   C1391     1.0  0.51215  0.97306  0.01579  1.0000
  H   H2474     1.0  0.94018  0.73285  0.23034  1.0000
  H   H2475     1.0  0.99542  0.71240  0.10487  1.0000
  C   C1392     1.0  0.99678  0.71978  0.18789  1.0000
  H   H2476     1.0  0.75879  0.70063  0.23471  1.0000
  H   H2477     1.0  0.91872  0.73765  0.24942  1.0000
  H   H2478     1.0  0.50060  0.89693  0.03511  1.0000
  S   S310      1.0  0.61689  0.87640  0.00895  1.0000
  H   H2479     1.0  0.99819  0.69831  0.25589  1.0000
  Fe  Fe156     1.0  0.64002  0.82632  0.31853  1.0000
  S   S311      1.0  0.61776  0.79947  0.30702  1.0000
  S   S312      1.0  0.66510  0.84865  0.30035  1.0000
  Fe  Fe157     1.0  0.62595  0.81111  0.35903  1.0000
  S   S313      1.0  0.60351  0.78245  0.34966  1.0000
  S   S314      1.0  0.62806  0.81253  0.39050  1.0000
  Fe  Fe158     1.0  0.63386  0.77409  0.32898  1.0000
  S   S315      1.0  0.64957  0.73840  0.31839  1.0000
  Fe  Fe159     1.0  0.58964  0.81031  0.32882  1.0000
  S   S316      1.0  0.55055  0.82323  0.32427  1.0000
  S   S317      1.0  0.65710  0.80060  0.33974  1.0000
  S   S318      1.0  0.61100  0.83933  0.33894  1.0000
  H   H2480     1.0  0.82925  0.51774  0.31929  1.0000
  C   C1393     1.0  0.56965  0.85946  0.27675  1.0000
  H   H2481     1.0  0.51017  0.82100  0.36267  1.0000
  H   H2482     1.0  0.58804  0.94421  0.43606  1.0000
  H   H2483     1.0  0.55182  0.81410  0.36974  1.0000
  H   H2484     1.0  0.78303  0.55663  0.28292  1.0000
  Fe  Fe160     1.0  0.62066  0.90312  0.47485  1.0000
  S   S319      1.0  0.62278  0.90096  0.44332  1.0000
  S   S320      1.0  0.60414  0.93906  0.48260  1.0000
  Fe  Fe161     1.0  0.76951  0.65076  0.33601  1.0000
  S   S321      1.0  0.80107  0.67285  0.33471  1.0000
  S   S322      1.0  0.73639  0.67018  0.34940  1.0000
  Fe  Fe162     1.0  0.80114  0.60590  0.32577  1.0000
  S   S323      1.0  0.83459  0.62632  0.32402  1.0000
  S   S324      1.0  0.80993  0.56615  0.32024  1.0000
  Fe  Fe163     1.0  0.82046  0.64265  0.35043  1.0000
  S   S325      1.0  0.84257  0.65400  0.37409  1.0000
  Fe  Fe164     1.0  0.81248  0.65486  0.30837  1.0000
  S   S326      1.0  0.82682  0.68126  0.28622  1.0000
  S   S327      1.0  0.78846  0.62102  0.35310  1.0000
  S   S328      1.0  0.77953  0.63401  0.30859  1.0000
  Fe  Fe165     1.0  0.87287  0.62019  0.48217  1.0000
  S   S329      1.0  0.91063  0.60780  0.48928  1.0000
  S   S330      1.0  0.85613  0.60862  0.45587  1.0000
  C   C1394     1.0  0.80210  0.51471  0.37700  1.0000
  H   H2485     1.0  0.57396  0.90464  0.42897  1.0000
  H   H2486     1.0  0.78625  0.50531  0.37363  1.0000
  C   C1395     1.0  0.89612  0.52438  0.48449  1.0000
  H   H2487     1.0  0.91213  0.68133  0.46885  1.0000
  H   H2488     1.0  0.66287  0.97525  0.44447  1.0000
  H   H2489     1.0  0.70020  0.76631  0.32745  1.0000
  H   H2490     1.0  0.70551  0.79546  0.31846  1.0000
  C   C1396     1.0  0.76328  0.51567  0.33619  1.0000
  H   H2491     1.0  0.89419  0.52895  0.46991  1.0000
  C   C1397     1.0  0.76614  0.54810  0.28086  1.0000
  H   H2492     1.0  0.62762  0.81534  0.43000  1.0000
  C   C1398     1.0  0.50875  0.98976  0.50358  1.0000
  C   C1399     1.0  0.83139  0.67910  0.26188  1.0000
  H   H2493     1.0  0.74040  0.78191  0.27838  1.0000
  H   H2494     1.0  0.51266  0.82263  0.38719  1.0000
  C   C1400     1.0  0.84600  0.64096  0.39673  1.0000
  C   C1401     1.0  0.85499  0.65451  0.41044  1.0000
  C   C1402     1.0  0.85784  0.64505  0.42865  1.0000
  C   C1403     1.0  0.85233  0.62169  0.43328  1.0000
  C   C1404     1.0  0.84326  0.60816  0.41960  1.0000
  C   C1405     1.0  0.84000  0.61774  0.40145  1.0000
  H   H2495     1.0  0.85944  0.67257  0.40700  1.0000
  H   H2496     1.0  0.86392  0.65592  0.43919  1.0000
  H   H2497     1.0  0.83878  0.59010  0.42307  1.0000
  H   H2498     1.0  0.83307  0.60709  0.39107  1.0000
  C   C1406     1.0  0.68443  0.86381  0.26660  1.0000
  C   C1407     1.0  0.81081  0.51725  0.32409  1.0000
  C   C1408     1.0  0.79693  0.53883  0.32642  1.0000
  C   C1409     1.0  0.77316  0.53788  0.33275  1.0000
  H   H2499     1.0  0.95939  0.60253  0.40463  1.0000
  H   H2500     1.0  0.99351  0.54087  0.48384  1.0000
  H   H2501     1.0  0.76220  0.55426  0.33457  1.0000
  H   H2502     1.0  0.68483  0.92985  0.29291  1.0000
  C   C1410     1.0  0.50189  0.82259  0.32213  1.0000
  C   C1411     1.0  0.90650  0.68138  0.45434  1.0000
  H   H2503     1.0  0.56262  0.81610  0.47506  1.0000
  H   H2504     1.0  0.56309  0.86051  0.29141  1.0000
  H   H2505     1.0  0.53600  0.83306  0.26233  1.0000
  C   C1412     1.0  0.67446  0.72041  0.32700  1.0000
  C   C1413     1.0  0.68556  0.70263  0.31587  1.0000
  C   C1414     1.0  0.70517  0.68776  0.32217  1.0000
  C   C1415     1.0  0.71359  0.69014  0.33990  1.0000
  C   C1416     1.0  0.70252  0.70796  0.35102  1.0000
  C   C1417     1.0  0.68330  0.72322  0.34454  1.0000
  H   H2506     1.0  0.67883  0.70020  0.30233  1.0000
  H   H2507     1.0  0.71323  0.67394  0.31356  1.0000
  H   H2508     1.0  0.70869  0.70982  0.36483  1.0000
  H   H2509     1.0  0.67491  0.73670  0.35331  1.0000
  C   C1418     1.0  0.66544  0.85257  0.27577  1.0000
  C   C1419     1.0  0.91917  0.60036  0.43301  1.0000
  H   H2510     1.0  0.57058  0.84352  0.48416  1.0000
  C   C1420     1.0  0.56105  0.75705  0.28821  1.0000
  H   H2511     1.0  0.63245  0.83658  0.27206  1.0000
  C   C1421     1.0  0.52346  0.80871  0.32462  1.0000
  H   H2512     1.0  0.57668  0.84389  0.38931  1.0000
  C   C1422     1.0  0.52286  0.78397  0.32671  1.0000
  H   H2513     1.0  0.65924  0.76362  0.27763  1.0000
  H   H2514     1.0  0.53927  0.77307  0.32873  1.0000
  C   C1423     1.0  0.62668  0.83742  0.40489  1.0000
  C   C1424     1.0  0.62553  0.86089  0.39765  1.0000
  C   C1425     1.0  0.62454  0.88005  0.40964  1.0000
  C   C1426     1.0  0.62458  0.87603  0.42898  1.0000
  C   C1427     1.0  0.62558  0.85259  0.43625  1.0000
  C   C1428     1.0  0.62665  0.83342  0.42425  1.0000
  H   H2515     1.0  0.62557  0.86425  0.38281  1.0000
  H   H2516     1.0  0.62380  0.89811  0.40387  1.0000
  H   H2517     1.0  0.62577  0.84921  0.45107  1.0000
  C   C1429     1.0  0.55772  0.92742  0.44950  1.0000
  H   H2518     1.0  0.75335  0.51852  0.26767  1.0000
  C   C1430     1.0  0.55539  0.90949  0.43409  1.0000
  H   H2519     1.0  0.94761  0.51523  0.49450  1.0000
  H   H2520     1.0  0.83245  0.51100  0.39468  1.0000
  C   C1431     1.0  0.64521  0.97362  0.45168  1.0000
  H   H2521     1.0  0.54562  0.79129  0.38722  1.0000
  C   C1432     1.0  0.55740  0.87322  0.45389  1.0000
  C   C1433     1.0  0.56984  0.94940  0.44175  1.0000
  H   H2522     1.0  0.50353  0.77724  0.38904  1.0000
  H   H2523     1.0  0.94034  0.60707  0.45640  1.0000
  C   C1434     1.0  0.58184  0.74579  0.29938  1.0000
  C   C1435     1.0  0.67040  0.92872  0.26540  1.0000
  H   H2524     1.0  0.55915  0.95872  0.43068  1.0000
  H   H2525     1.0  0.56575  0.79261  0.29506  1.0000
  H   H2526     1.0  0.98544  0.64701  0.42947  1.0000
  H   H2527     1.0  0.78338  0.54923  0.37168  1.0000
  H   H2528     1.0  0.68945  0.96060  0.26777  1.0000
  H   H2529     1.0  0.90699  0.65882  0.43160  1.0000
  C   C1436     1.0  0.90946  0.69183  0.26106  1.0000
  H   H2530     1.0  0.96463  0.51411  0.47359  1.0000
  H   H2531     1.0  0.95789  0.61331  0.37103  1.0000
  H   H2532     1.0  0.94444  0.64717  0.46117  1.0000
  H   H2533     1.0  0.94997  0.66805  0.44266  1.0000
  H   H2534     1.0  0.95637  0.59306  0.43801  1.0000
  H   H2535     1.0  0.67604  0.78939  0.30014  1.0000
  H   H2536     1.0  0.92897  0.65905  0.27203  1.0000
  C   C1437     1.0  0.96633  0.51486  0.48881  1.0000
  H   H2537     1.0  0.55707  0.88275  0.46704  1.0000
  C   C1438     1.0  0.91157  0.57692  0.44206  1.0000
  S   S331      1.0  0.64982  0.90362  0.49545  1.0000
  C   C1439     1.0  0.95915  0.62158  0.40000  1.0000
  C   C1440     1.0  0.97342  0.66156  0.49962  1.0000
  H   H2538     1.0  0.96759  0.57701  0.48780  1.0000
  H   H2539     1.0  0.89560  0.56078  0.49212  1.0000
  H   H2540     1.0  0.80030  0.79967  0.29197  1.0000
  C   C1441     1.0  0.94585  0.63781  0.41442  1.0000
  H   H2541     1.0  0.75592  0.69586  0.30961  1.0000
  C   C1442     1.0  0.56848  0.83413  0.47125  1.0000
  H   H2542     1.0  0.52936  0.88515  0.41227  1.0000
  H   H2543     1.0  0.92648  0.63766  0.41209  1.0000
  H   H2544     1.0  0.58397  0.75592  0.31199  1.0000
  C   C1443     1.0  0.54734  0.82249  0.27241  1.0000
  H   H2545     1.0  0.54633  0.91932  0.42230  1.0000
  H   H2546     1.0  0.92150  0.59755  0.41795  1.0000
  H   H2547     1.0  0.78483  0.50599  0.29274  1.0000
  C   C1444     1.0  0.97664  0.53910  0.49213  1.0000
  C   C1445     1.0  0.51398  0.81035  0.37564  1.0000
  N   N79       1.0  0.54765  0.79615  0.26904  1.0000
  H   H2548     1.0  0.80851  0.54998  0.38628  1.0000
  N   N80       1.0  0.95134  0.63158  0.43440  1.0000
  C   C1446     1.0  0.91136  0.66903  0.27390  1.0000
  H   H2549     1.0  0.54697  0.85761  0.38671  1.0000
  C   C1447     1.0  0.79324  0.53956  0.38307  1.0000
  H   H2550     1.0  0.58603  0.83212  0.46365  1.0000
  C   C1448     1.0  0.62968  0.99695  0.44968  1.0000
  H   H2551     1.0  0.77916  0.80285  0.27375  1.0000
  C   C1449     1.0  0.67567  0.95439  0.25881  1.0000
  H   H2552     1.0  0.78096  0.53836  0.39542  1.0000
  C   C1450     1.0  0.54965  0.99010  0.48723  1.0000
  C   C1451     1.0  0.52280  0.78844  0.27354  1.0000
  H   H2553     1.0  0.67906  0.77528  0.25956  1.0000
  H   H2554     1.0  0.51159  0.91272  0.44128  1.0000
  H   H2555     1.0  0.63631  0.95903  0.44549  1.0000
  H   H2556     1.0  0.66347  0.90789  0.29073  1.0000
  C   C1452     1.0  0.90754  0.67501  0.29425  1.0000
  H   H2557     1.0  0.53010  0.85792  0.42530  1.0000
  C   C1453     1.0  0.94091  0.65140  0.44632  1.0000
  H   H2558     1.0  0.77373  0.81930  0.29464  1.0000
  H   H2559     1.0  0.75351  0.56138  0.27392  1.0000
  H   H2560     1.0  0.90416  0.64362  0.45399  1.0000
  H   H2561     1.0  0.89489  0.57206  0.43586  1.0000
  H   H2562     1.0  0.97794  0.62639  0.39798  1.0000
  H   H2563     1.0  0.92560  0.56231  0.43988  1.0000
  H   H2564     1.0  0.74392  0.79513  0.33268  1.0000
  H   H2565     1.0  0.55228  0.83228  0.40281  1.0000
  H   H2566     1.0  0.54816  0.83711  0.44697  1.0000
  H   H2567     1.0  0.54472  0.75656  0.29733  1.0000
  H   H2568     1.0  0.58504  0.82394  0.28022  1.0000
  H   H2569     1.0  0.54753  0.97314  0.48042  1.0000
  N   N81       1.0  0.54263  0.88744  0.43971  1.0000
  H   H2570     1.0  0.54178  0.78639  0.36302  1.0000
  C   C1454     1.0  0.64724  0.84507  0.26523  1.0000
  H   H2571     1.0  0.84238  0.71495  0.25833  1.0000
  N   N82       1.0  0.77475  0.66409  0.41191  1.0000
  C   C1455     1.0  0.77534  0.64268  0.40000  1.0000
  C   C1456     1.0  0.78786  0.68348  0.40174  1.0000
  C   C1457     1.0  0.78837  0.65668  0.42912  1.0000
  C   C1458     1.0  0.74965  0.67315  0.41766  1.0000
  C   C1459     1.0  0.72961  0.67020  0.40387  1.0000
  C   C1460     1.0  0.76725  0.61949  0.40999  1.0000
  C   C1461     1.0  0.79350  0.67689  0.44198  1.0000
  C   C1462     1.0  0.77818  0.69283  0.38286  1.0000
  C   C1463     1.0  0.79447  0.71068  0.37345  1.0000
  C   C1464     1.0  0.70652  0.68451  0.40944  1.0000
  C   C1465     1.0  0.76292  0.60050  0.39632  1.0000
  C   C1466     1.0  0.80285  0.66679  0.46050  1.0000
  H   H2572     1.0  0.79378  0.63858  0.39424  1.0000
  H   H2573     1.0  0.76447  0.64636  0.38759  1.0000
  H   H2574     1.0  0.78774  0.69948  0.41020  1.0000
  H   H2575     1.0  0.80699  0.67731  0.39944  1.0000
  H   H2576     1.0  0.80590  0.64738  0.42527  1.0000
  H   H2577     1.0  0.77861  0.64353  0.43784  1.0000
  H   H2578     1.0  0.74372  0.66406  0.43086  1.0000
  H   H2579     1.0  0.74931  0.69234  0.42086  1.0000
  H   H2580     1.0  0.72556  0.65124  0.40356  1.0000
  H   H2581     1.0  0.73459  0.67599  0.38957  1.0000
  H   H2582     1.0  0.78138  0.61178  0.41928  1.0000
  H   H2583     1.0  0.75065  0.62306  0.41852  1.0000
  H   H2584     1.0  0.77714  0.68859  0.44479  1.0000
  H   H2585     1.0  0.80750  0.68783  0.43550  1.0000
  H   H2586     1.0  0.77704  0.67821  0.37327  1.0000
  H   H2587     1.0  0.76039  0.70240  0.38483  1.0000
  H   H2588     1.0  0.81258  0.70205  0.37062  1.0000
  H   H2589     1.0  0.78696  0.71730  0.36005  1.0000
  H   H2590     1.0  0.79592  0.72612  0.38227  1.0000
  H   H2591     1.0  0.70930  0.70385  0.40905  1.0000
  H   H2592     1.0  0.69249  0.68158  0.39953  1.0000
  H   H2593     1.0  0.70016  0.67879  0.42356  1.0000
  H   H2594     1.0  0.77983  0.59502  0.38871  1.0000
  H   H2595     1.0  0.75640  0.58456  0.40393  1.0000
  H   H2596     1.0  0.74928  0.60727  0.38629  1.0000
  H   H2597     1.0  0.80721  0.68157  0.46917  1.0000
  H   H2598     1.0  0.78919  0.65651  0.46815  1.0000
  H   H2599     1.0  0.81932  0.65496  0.45832  1.0000
  C   C1467     1.0  0.78949  0.50826  0.27775  1.0000
  H   H2600     1.0  0.57660  0.87186  0.44932  1.0000
  H   H2601     1.0  0.91477  0.69606  0.44626  1.0000
  C   C1468     1.0  0.91360  0.65743  0.44581  1.0000
  H   H2602     1.0  0.51942  0.89884  0.46290  1.0000
  H   H2603     1.0  0.56875  0.91909  0.46073  1.0000
  H   H2604     1.0  0.50446  0.97350  0.49646  1.0000
  H   H2605     1.0  0.55717  0.87036  0.26773  1.0000
  H   H2606     1.0  0.57832  0.72722  0.30382  1.0000
  Fe  Fe166     1.0  0.63125  0.93831  0.50433  1.0000
  H   H2607     1.0  0.80543  0.50217  0.40530  1.0000
  H   H2608     1.0  0.70571  0.77592  0.35976  1.0000
  C   C1469     1.0  0.51824  0.89538  0.44791  1.0000
  H   H2609     1.0  0.54009  0.93360  0.45565  1.0000
  H   H2610     1.0  0.70810  0.80667  0.35191  1.0000
  H   H2611     1.0  0.65917  0.96562  0.26229  1.0000
  H   H2612     1.0  0.57643  0.85579  0.42175  1.0000
  H   H2613     1.0  0.78009  0.71373  0.30165  1.0000
  C   C1470     1.0  0.94754  0.62453  0.38119  1.0000
  H   H2614     1.0  0.88967  0.68444  0.29659  1.0000
  H   H2615     1.0  0.57159  0.96194  0.45293  1.0000
  H   H2616     1.0  0.74474  0.51521  0.34073  1.0000
  C   C1471     1.0  0.81659  0.50083  0.39237  1.0000
  H   H2617     1.0  0.76703  0.69489  0.28596  1.0000
  H   H2618     1.0  0.53289  0.84885  0.46746  1.0000
  C   C1472     1.0  0.53981  0.79981  0.37386  1.0000
  H   H2619     1.0  0.92157  0.68633  0.29854  1.0000
  C   C1473     1.0  0.94265  0.60777  0.44107  1.0000
  H   H2620     1.0  0.95025  0.65646  0.41073  1.0000
  H   H2621     1.0  0.95423  0.55871  0.47173  1.0000
  C   C1474     1.0  0.95923  0.55995  0.48635  1.0000
  H   H2622     1.0  0.65654  0.79471  0.27063  1.0000
  H   H2623     1.0  0.57269  0.88099  0.40561  1.0000
  H   H2624     1.0  0.53906  0.82621  0.28631  1.0000
  H   H2625     1.0  0.69858  0.86972  0.27462  1.0000
  H   H2626     1.0  0.73108  0.79155  0.36562  1.0000
  H   H2627     1.0  0.90786  0.57869  0.45713  1.0000
  H   H2628     1.0  0.69655  0.80025  0.28249  1.0000
  H   H2629     1.0  0.98680  0.61548  0.42815  1.0000
  H   H2630     1.0  0.82119  0.64317  0.26057  1.0000
  C   C1475     1.0  0.98764  0.62764  0.45588  1.0000
  N   N83       1.0  0.72505  0.76686  0.30394  1.0000
  C   C1476     1.0  0.73768  0.74294  0.30876  1.0000
  C   C1477     1.0  0.71444  0.77750  0.32149  1.0000
  C   C1478     1.0  0.70453  0.76267  0.29183  1.0000
  C   C1479     1.0  0.74103  0.78385  0.29361  1.0000
  C   C1480     1.0  0.76796  0.78145  0.29799  1.0000
  C   C1481     1.0  0.74498  0.72710  0.29218  1.0000
  C   C1482     1.0  0.68692  0.78457  0.28755  1.0000
  C   C1483     1.0  0.73185  0.78106  0.33705  1.0000
  C   C1484     1.0  0.66943  0.77910  0.27291  1.0000
  H   H2631     1.0  0.98416  0.64457  0.46313  1.0000
  C   C1485     1.0  0.76309  0.70671  0.29774  1.0000
  C   C1486     1.0  0.89702  0.54243  0.49707  1.0000
  H   H2632     1.0  0.72612  0.73243  0.31834  1.0000
  H   H2633     1.0  0.75388  0.74481  0.31668  1.0000
  H   H2634     1.0  0.61203  0.99372  0.45639  1.0000
  S   S332      1.0  0.87418  0.65597  0.49465  1.0000
  H   H2635     1.0  0.69379  0.74842  0.29820  1.0000
  H   H2636     1.0  0.71134  0.75600  0.27823  1.0000
  H   H2637     1.0  0.94287  0.56012  0.49546  1.0000
  H   H2638     1.0  0.51796  0.79161  0.28833  1.0000
  H   H2639     1.0  0.77660  0.76475  0.29248  1.0000
  H   H2640     1.0  0.77093  0.78100  0.31302  1.0000
  H   H2641     1.0  0.72900  0.71901  0.28729  1.0000
  H   H2642     1.0  0.75280  0.73761  0.28043  1.0000
  H   H2643     1.0  0.95927  0.68419  0.26604  1.0000
  C   C1487     1.0  0.97818  0.63057  0.43595  1.0000
  H   H2644     1.0  0.74247  0.76437  0.34092  1.0000
  C   C1488     1.0  0.89742  0.50052  0.49075  1.0000
  H   H2645     1.0  0.94718  0.64340  0.37598  1.0000
  H   H2646     1.0  0.89032  0.69870  0.26180  1.0000
  C   C1489     1.0  0.66785  0.92634  0.28650  1.0000
  H   H2647     1.0  0.65326  0.93889  0.29177  1.0000
  C   C1490     1.0  0.56391  0.86556  0.41218  1.0000
  H   H2648     1.0  0.90432  0.61403  0.43495  1.0000
  H   H2649     1.0  0.75814  0.54293  0.29460  1.0000
  S   S333      1.0  0.59667  0.88342  0.49463  1.0000
  H   H2650     1.0  0.88681  0.68491  0.45435  1.0000
  C   C1491     1.0  0.54993  0.84782  0.45923  1.0000
  C   C1492     1.0  0.54019  0.87394  0.42239  1.0000
  H   H2651     1.0  0.57950  0.83342  0.25665  1.0000
  C   C1493     1.0  0.55953  0.84885  0.39682  1.0000
  C   C1494     1.0  0.71827  0.78929  0.35462  1.0000
  H   H2652     1.0  0.92897  0.61885  0.38227  1.0000
  H   H2653     1.0  0.58742  0.86697  0.27548  1.0000
  H   H2654     1.0  0.73418  0.80262  0.29580  1.0000
  H   H2655     1.0  0.59880  0.74541  0.29094  1.0000
  H   H2656     1.0  0.89725  0.65711  0.27073  1.0000
  C   C1495     1.0  0.56537  0.78315  0.28189  1.0000
  H   H2657     1.0  0.64797  0.96867  0.46651  1.0000
  H   H2658     1.0  0.81335  0.51727  0.36425  1.0000
  C   C1496     1.0  0.78100  0.80212  0.28900  1.0000
  S   S334      1.0  0.94194  0.66616  0.49840  1.0000
  C   C1497     1.0  0.57196  0.83358  0.27105  1.0000
  H   H2659     1.0  0.90834  0.65832  0.30303  1.0000
  H   H2660     1.0  0.97899  0.61332  0.46406  1.0000
  H   H2661     1.0  0.91913  0.70566  0.26743  1.0000
  C   C1498     1.0  0.77071  0.52631  0.26901  1.0000
  H   H2662     1.0  0.50214  0.84175  0.32045  1.0000
  H   H2663     1.0  0.65322  0.92410  0.25994  1.0000
  H   H2664     1.0  0.80638  0.51742  0.27718  1.0000
  C   C1499     1.0  0.98564  0.63978  0.50492  1.0000
  H   H2665     1.0  0.55869  0.74569  0.27646  1.0000
  H   H2666     1.0  0.55812  0.98588  0.50070  1.0000
  C   C1500     1.0  0.98659  0.68112  0.49466  1.0000
  H   H2667     1.0  0.97743  0.69794  0.49050  1.0000
  H   H2668     1.0  0.58383  0.78334  0.27568  1.0000
  H   H2669     1.0  0.52191  0.76901  0.27218  1.0000
  H   H2670     1.0  0.68482  0.91551  0.26106  1.0000
  Fe  Fe167     1.0  0.58213  0.91931  0.50358  1.0000
  Fe  Fe168     1.0  0.91127  0.64234  0.50332  1.0000
  C   C1501     1.0  0.50099  0.77327  0.32582  1.0000
  H   H2671     1.0  0.72324  0.93941  0.25937  1.0000
  H   H2672     1.0  0.50250  0.86043  0.45120  1.0000
  H   H2673     1.0  0.50077  0.75408  0.32706  1.0000
  H   H2674     1.0  0.54973  0.88039  0.50238  1.0000
  H   H2675     1.0  0.52099  0.84918  0.50264  1.0000
  C   C1502     1.0  0.50244  0.80069  0.26189  1.0000
  H   H2676     1.0  0.50034  0.82010  0.26407  1.0000
  C   C1503     1.0  0.51476  0.86751  0.50476  1.0000
  C   C1504     1.0  0.53105  0.88521  0.50449  1.0000
  Fe  Fe169     1.0  0.62410  0.88679  0.51618  1.0000
  S   S335      1.0  0.63189  0.85421  0.53552  1.0000
  S   S336      1.0  0.60782  0.92159  0.52631  1.0000
  Fe  Fe170     1.0  0.61545  0.82463  0.64764  1.0000
  S   S337      1.0  0.59675  0.79043  0.65183  1.0000
  S   S338      1.0  0.61861  0.85226  0.62363  1.0000
  Fe  Fe171     1.0  0.62395  0.82762  0.68983  1.0000
  S   S339      1.0  0.60476  0.79474  0.69676  1.0000
  S   S340      1.0  0.64670  0.84912  0.70762  1.0000
  Fe  Fe172     1.0  0.62594  0.77932  0.67228  1.0000
  S   S341      1.0  0.64816  0.74566  0.68210  1.0000
  Fe  Fe173     1.0  0.57720  0.80815  0.67602  1.0000
  S   S342      1.0  0.53678  0.81697  0.68056  1.0000
  S   S343      1.0  0.64562  0.81218  0.66599  1.0000
  S   S344      1.0  0.59513  0.84245  0.67115  1.0000
  Fe  Fe174     1.0  0.86172  0.63861  0.52175  1.0000
  S   S345      1.0  0.89866  0.62822  0.53126  1.0000
  S   S346      1.0  0.83050  0.65079  0.54094  1.0000
  Fe  Fe175     1.0  0.78698  0.60572  0.67248  1.0000
  S   S347      1.0  0.81886  0.62666  0.67718  1.0000
  S   S348      1.0  0.79317  0.56586  0.68037  1.0000
  Fe  Fe176     1.0  0.75694  0.65128  0.66008  1.0000
  S   S349      1.0  0.78705  0.67451  0.66365  1.0000
  S   S350      1.0  0.72333  0.66833  0.64675  1.0000
  Fe  Fe177     1.0  0.80995  0.64554  0.64992  1.0000
  S   S351      1.0  0.83917  0.65356  0.62836  1.0000
  Fe  Fe178     1.0  0.79304  0.65370  0.69058  1.0000
  S   S352      1.0  0.79327  0.67434  0.71724  1.0000
  S   S353      1.0  0.77966  0.62330  0.64451  1.0000
  S   S354      1.0  0.76141  0.63165  0.68767  1.0000
  C   C1505     1.0  0.81588  0.67826  0.73329  1.0000
  C   C1506     1.0  0.83951  0.66905  0.73063  1.0000
  C   C1507     1.0  0.86268  0.58696  0.60652  1.0000
  H   H2677     1.0  0.84451  0.65906  0.71849  1.0000
  C   C1508     1.0  0.85674  0.67280  0.74374  1.0000
  C   C1509     1.0  0.74435  0.55783  0.72806  1.0000
  C   C1510     1.0  0.79040  0.51728  0.68267  1.0000
  C   C1511     1.0  0.78381  0.53855  0.67261  1.0000
  C   C1512     1.0  0.77024  0.53736  0.65692  1.0000
  H   H2678     1.0  0.78201  0.54833  0.72162  1.0000
  H   H2679     1.0  0.80086  0.51796  0.69486  1.0000
  H   H2680     1.0  0.76506  0.55352  0.64901  1.0000
  C   C1513     1.0  0.83317  0.65126  0.56523  1.0000
  C   C1514     1.0  0.85425  0.65717  0.57300  1.0000
  C   C1515     1.0  0.85573  0.65783  0.59234  1.0000
  C   C1516     1.0  0.83624  0.65245  0.60415  1.0000
  C   C1517     1.0  0.81514  0.64645  0.59642  1.0000
  C   C1518     1.0  0.81350  0.64628  0.57702  1.0000
  H   H2681     1.0  0.86936  0.66148  0.56406  1.0000
  H   H2682     1.0  0.87205  0.66268  0.59820  1.0000
  H   H2683     1.0  0.80005  0.64214  0.60534  1.0000
  H   H2684     1.0  0.79708  0.64187  0.57109  1.0000
  C   C1519     1.0  0.50981  0.80289  0.67769  1.0000
  H   H2685     1.0  0.72292  0.72956  0.59673  1.0000
  H   H2686     1.0  0.58037  0.86731  0.54627  1.0000
  C   C1520     1.0  0.73758  0.74536  0.65452  1.0000
  C   C1521     1.0  0.50947  0.77875  0.67397  1.0000
  C   C1522     1.0  0.67016  0.72569  0.67164  1.0000
  C   C1523     1.0  0.68473  0.71059  0.68319  1.0000
  C   C1524     1.0  0.70173  0.69365  0.67574  1.0000
  C   C1525     1.0  0.70379  0.69100  0.65661  1.0000
  C   C1526     1.0  0.68919  0.70603  0.64502  1.0000
  C   C1527     1.0  0.67274  0.72356  0.65246  1.0000
  H   H2687     1.0  0.68259  0.71168  0.69804  1.0000
  H   H2688     1.0  0.71266  0.68210  0.68484  1.0000
  H   H2689     1.0  0.69040  0.70396  0.63022  1.0000
  H   H2690     1.0  0.66145  0.73481  0.64341  1.0000
  C   C1528     1.0  0.64704  0.85168  0.73205  1.0000
  H   H2691     1.0  0.66236  0.87943  0.63303  1.0000
  C   C1529     1.0  0.63061  0.84103  0.74421  1.0000
  H   H2692     1.0  0.95291  0.51787  0.52508  1.0000
  H   H2693     1.0  0.61703  0.83088  0.73879  1.0000
  H   H2694     1.0  0.75117  0.55745  0.69854  1.0000
  H   H2695     1.0  0.66371  0.96495  0.61697  1.0000
  C   C1530     1.0  0.65313  0.55810  0.73179  1.0000
  H   H2696     1.0  0.79739  0.73515  0.62137  1.0000
  H   H2697     1.0  0.52614  0.76806  0.67231  1.0000
  C   C1531     1.0  0.62819  0.85386  0.56003  1.0000
  C   C1532     1.0  0.62408  0.87486  0.56960  1.0000
  C   C1533     1.0  0.62128  0.87390  0.58906  1.0000
  C   C1534     1.0  0.62234  0.85197  0.59918  1.0000
  C   C1535     1.0  0.62622  0.83092  0.58962  1.0000
  C   C1536     1.0  0.62927  0.83190  0.57015  1.0000
  H   H2698     1.0  0.62341  0.89186  0.56204  1.0000
  H   H2699     1.0  0.61837  0.89029  0.59631  1.0000
  H   H2700     1.0  0.62712  0.81394  0.59723  1.0000
  H   H2701     1.0  0.63250  0.81556  0.56286  1.0000
  H   H2702     1.0  0.84384  0.70664  0.61635  1.0000
  H   H2703     1.0  0.61706  0.75619  0.75259  1.0000
  C   C1537     1.0  0.65029  0.91262  0.69784  1.0000
  H   H2704     1.0  0.80027  0.70388  0.62651  1.0000
  H   H2705     1.0  0.72015  0.74892  0.64782  1.0000
  H   H2706     1.0  0.62705  0.90165  0.72105  1.0000
  C   C1538     1.0  0.90313  0.60740  0.58880  1.0000
  C   C1539     1.0  0.92077  0.62128  0.57681  1.0000
  C   C1540     1.0  0.63196  0.99775  0.51211  1.0000
  H   H2707     1.0  0.93448  0.62776  0.58563  1.0000
  H   H2708     1.0  0.92992  0.60978  0.56624  1.0000
  H   H2709     1.0  0.91135  0.63701  0.56984  1.0000
  N   N84       1.0  0.71282  0.56070  0.70200  1.0000
  C   C1541     1.0  0.72963  0.74898  0.72146  1.0000
  C   C1542     1.0  0.73741  0.56574  0.70805  1.0000
  C   C1543     1.0  0.70505  0.57992  0.68781  1.0000
  H   H2710     1.0  0.97908  0.73344  0.75417  1.0000
  C   C1544     1.0  0.72210  0.58301  0.67055  1.0000
  H   H2711     1.0  0.56528  0.92102  0.63867  1.0000
  C   C1545     1.0  0.71388  0.60489  0.65860  1.0000
  H   H2712     1.0  0.70039  0.54936  0.72961  1.0000
  H   H2713     1.0  0.90320  0.50831  0.53676  1.0000
  C   C1546     1.0  0.65150  0.93040  0.65727  1.0000
  H   H2714     1.0  0.73997  0.58522  0.70696  1.0000
  H   H2715     1.0  0.70245  0.59748  0.69445  1.0000
  H   H2716     1.0  0.68753  0.57650  0.68220  1.0000
  C   C1547     1.0  0.71354  0.53703  0.69293  1.0000
  H   H2717     1.0  0.63451  0.55486  0.72851  1.0000
  H   H2718     1.0  0.50966  0.80676  0.59893  1.0000
  H   H2719     1.0  0.72228  0.56735  0.66177  1.0000
  H   H2720     1.0  0.74067  0.58527  0.67444  1.0000
  C   C1548     1.0  0.90941  0.52189  0.59226  1.0000
  H   H2721     1.0  0.62504  0.93339  0.71554  1.0000
  H   H2722     1.0  0.77549  0.57900  0.72759  1.0000
  H   H2723     1.0  0.83816  0.50745  0.66904  1.0000
  H   H2724     1.0  0.72628  0.60682  0.64638  1.0000
  H   H2725     1.0  0.69567  0.60316  0.65360  1.0000
  H   H2726     1.0  0.71382  0.62129  0.66658  1.0000
  H   H2727     1.0  0.69481  0.58007  0.72416  1.0000
  C   C1549     1.0  0.66225  0.88700  0.66289  1.0000
  H   H2728     1.0  0.86458  0.54231  0.59169  1.0000
  H   H2729     1.0  0.97956  0.51286  0.55187  1.0000
  H   H2730     1.0  0.82580  0.57359  0.64515  1.0000
  H   H2731     1.0  0.91589  0.55793  0.58499  1.0000
  H   H2732     1.0  0.55195  0.83129  0.57872  1.0000
  H   H2733     1.0  0.72503  0.81617  0.68352  1.0000
  H   H2734     1.0  0.67669  0.89091  0.67212  1.0000
  H   H2735     1.0  0.73342  0.74964  0.56640  1.0000
  Fe  Fe179     1.0  0.89502  0.59462  0.51653  1.0000
  C   C1550     1.0  0.56830  0.83243  0.54475  1.0000
  H   H2736     1.0  0.56238  0.90597  0.54133  1.0000
  H   H2737     1.0  0.91346  0.59342  0.59689  1.0000
  H   H2738     1.0  0.73054  0.72366  0.69943  1.0000
  C   C1551     1.0  0.63238  0.90764  0.68287  1.0000
  H   H2739     1.0  0.61775  0.92194  0.68392  1.0000
  H   H2740     1.0  0.68395  0.95621  0.63515  1.0000
  H   H2741     1.0  0.53364  0.91482  0.55147  1.0000
  H   H2742     1.0  0.73753  0.74934  0.73527  1.0000
  H   H2743     1.0  0.69608  0.73984  0.73374  1.0000
  H   H2744     1.0  0.65977  0.77320  0.71462  1.0000
  C   C1552     1.0  0.76335  0.51516  0.65144  1.0000
  H   H2745     1.0  0.69175  0.81422  0.71695  1.0000
  H   H2746     1.0  0.62417  0.89069  0.68716  1.0000
  H   H2747     1.0  0.87938  0.54995  0.57054  1.0000
  H   H2748     1.0  0.54589  0.89772  0.58210  1.0000
  C   C1553     1.0  0.69223  0.86002  0.64512  1.0000
  H   H2749     1.0  0.98034  0.54104  0.50690  1.0000
  H   H2750     1.0  0.66102  0.57113  0.70425  1.0000
  H   H2751     1.0  0.86323  0.73197  0.73908  1.0000
  H   H2752     1.0  0.67010  0.93128  0.66188  1.0000
  H   H2753     1.0  0.63250  0.94190  0.63198  1.0000
  H   H2754     1.0  0.70907  0.51436  0.71846  1.0000
  C   C1554     1.0  0.88869  0.75624  0.74812  1.0000
  H   H2755     1.0  0.66030  0.92842  0.69381  1.0000
  H   H2756     1.0  0.57898  0.89119  0.63706  1.0000
  C   C1555     1.0  0.90221  0.54848  0.59332  1.0000
  H   H2757     1.0  0.62848  0.89939  0.63648  1.0000
  C   C1556     1.0  0.70617  0.81263  0.68135  1.0000
  C   C1557     1.0  0.85050  0.50290  0.64045  1.0000
  C   C1558     1.0  0.69503  0.56213  0.71818  1.0000
  H   H2758     1.0  0.55284  0.86720  0.53533  1.0000
  H   H2759     1.0  0.70440  0.80841  0.66664  1.0000
  C   C1559     1.0  0.72996  0.75995  0.57909  1.0000
  H   H2760     1.0  0.51800  0.88099  0.55106  1.0000
  H   H2761     1.0  0.94989  0.50395  0.55750  1.0000
  C   C1560     1.0  0.86321  0.74879  0.74656  1.0000
  H   H2762     1.0  0.87378  0.61303  0.57102  1.0000
  H   H2763     1.0  0.73710  0.69490  0.58542  1.0000
  N   N85       1.0  0.64235  0.90653  0.66318  1.0000
  H   H2764     1.0  0.72056  0.79947  0.71663  1.0000
  C   C1561     1.0  0.70147  0.79661  0.71454  1.0000
  H   H2765     1.0  0.75263  0.51448  0.63940  1.0000
  H   H2766     1.0  0.85236  0.76287  0.73882  1.0000
  H   H2767     1.0  0.85522  0.59486  0.54893  1.0000
  H   H2768     1.0  0.81115  0.60188  0.55117  1.0000
  C   C1562     1.0  0.88409  0.59709  0.57690  1.0000
  C   C1563     1.0  0.55280  0.91099  0.55439  1.0000
  C   C1564     1.0  0.56209  0.93428  0.56022  1.0000
  H   H2769     1.0  0.90267  0.55316  0.60801  1.0000
  H   H2770     1.0  0.68585  0.89742  0.63961  1.0000
  C   C1565     1.0  0.75771  0.74087  0.63999  1.0000
  H   H2771     1.0  0.58037  0.80818  0.52330  1.0000
  H   H2772     1.0  0.55995  0.94798  0.54876  1.0000
  H   H2773     1.0  0.55190  0.94089  0.57264  1.0000
  H   H2774     1.0  0.58135  0.93173  0.56331  1.0000
  H   H2775     1.0  0.51766  0.83965  0.54420  1.0000
  H   H2776     1.0  0.73780  0.76257  0.71221  1.0000
  H   H2777     1.0  0.82851  0.53162  0.65316  1.0000
  S   S355      1.0  0.85748  0.60397  0.50852  1.0000
  H   H2778     1.0  0.51378  0.77904  0.58731  1.0000
  H   H2779     1.0  0.57364  0.83241  0.61501  1.0000
  H   H2780     1.0  0.65536  0.86991  0.66849  1.0000
  H   H2781     1.0  0.55475  0.87217  0.60519  1.0000
  H   H2782     1.0  0.85266  0.56329  0.55154  1.0000
  C   C1566     1.0  0.96991  0.74614  0.74421  1.0000
  C   C1567     1.0  0.90108  0.51282  0.52220  1.0000
  H   H2783     1.0  0.82041  0.58198  0.53306  1.0000
  C   C1568     1.0  0.73692  0.72461  0.71369  1.0000
  H   H2784     1.0  0.83197  0.50172  0.59879  1.0000
  H   H2785     1.0  0.51319  0.87591  0.57513  1.0000
  C   C1569     1.0  0.72002  0.51470  0.70542  1.0000
  H   H2786     1.0  0.59107  0.91550  0.62342  1.0000
  C   C1570     1.0  0.62272  0.89958  0.65129  1.0000
  H   H2787     1.0  0.87493  0.66556  0.74153  1.0000
  C   C1571     1.0  0.81954  0.58390  0.54828  1.0000
  C   C1572     1.0  0.55637  0.89108  0.56979  1.0000
  H   H2788     1.0  0.51589  0.83053  0.56856  1.0000
  H   H2789     1.0  0.69423  0.74836  0.71008  1.0000
  C   C1573     1.0  0.57471  0.82735  0.52455  1.0000
  H   H2790     1.0  0.50869  0.77872  0.61207  1.0000
  C   C1574     1.0  0.58256  0.91036  0.63698  1.0000
  H   H2791     1.0  0.68005  0.78856  0.69100  1.0000
  H   H2792     1.0  0.58898  0.91010  0.66596  1.0000
  H   H2793     1.0  0.66794  0.53959  0.70834  1.0000
  C   C1575     1.0  0.84379  0.58274  0.57717  1.0000
  H   H2794     1.0  0.69443  0.82886  0.68428  1.0000
  H   H2795     1.0  0.89720  0.51132  0.60115  1.0000
  H   H2796     1.0  0.55898  0.83172  0.51591  1.0000
  H   H2797     1.0  0.62162  0.75874  0.72782  1.0000
  C   C1576     1.0  0.90009  0.53667  0.51586  1.0000
  H   H2798     1.0  0.68219  0.84402  0.64846  1.0000
  H   H2799     1.0  0.65062  0.91952  0.72713  1.0000
  H   H2800     1.0  0.75859  0.75697  0.63067  1.0000
  C   C1577     1.0  0.69878  0.79164  0.69383  1.0000
  C   C1578     1.0  0.56265  0.85952  0.54747  1.0000
  H   H2801     1.0  0.67731  0.87324  0.73015  1.0000
  C   C1579     1.0  0.66482  0.95982  0.63193  1.0000
  H   H2802     1.0  0.83844  0.60115  0.63850  1.0000
  H   H2803     1.0  0.80819  0.57015  0.55459  1.0000
  H   H2804     1.0  0.77195  0.75091  0.59808  1.0000
  H   H2805     1.0  0.77466  0.73832  0.64749  1.0000
  H   H2806     1.0  0.85734  0.60637  0.60689  1.0000
  H   H2807     1.0  0.65898  0.92340  0.62746  1.0000
  H   H2808     1.0  0.77529  0.55553  0.74537  1.0000
  N   N86       1.0  0.54940  0.86664  0.56523  1.0000
  C   C1580     1.0  0.63737  0.91711  0.71648  1.0000
  H   H2809     1.0  0.66329  0.89710  0.70009  1.0000
  H   H2810     1.0  0.97286  0.76462  0.74778  1.0000
  H   H2811     1.0  0.65302  0.57581  0.73799  1.0000
  C   C1581     1.0  0.76669  0.69118  0.60437  1.0000
  C   C1582     1.0  0.81318  0.71526  0.59905  1.0000
  C   C1583     1.0  0.74170  0.68506  0.59858  1.0000
  C   C1584     1.0  0.74134  0.65849  0.59519  1.0000
  C   C1585     1.0  0.83829  0.71954  0.60499  1.0000
  H   H2812     1.0  0.77835  0.68803  0.59187  1.0000
  H   H2813     1.0  0.77299  0.67760  0.61513  1.0000
  H   H2814     1.0  0.76718  0.72838  0.58259  1.0000
  H   H2815     1.0  0.80856  0.72830  0.58759  1.0000
  H   H2816     1.0  0.81422  0.69721  0.59355  1.0000
  H   H2817     1.0  0.74102  0.76105  0.66252  1.0000
  H   H2818     1.0  0.74527  0.64775  0.60812  1.0000
  H   H2819     1.0  0.72336  0.65459  0.59080  1.0000
  H   H2820     1.0  0.75469  0.65317  0.58415  1.0000
  H   H2821     1.0  0.85117  0.71700  0.59308  1.0000
  H   H2822     1.0  0.83899  0.73795  0.60971  1.0000
  H   H2823     1.0  0.70182  0.85758  0.63155  1.0000
  H   H2824     1.0  0.57674  0.84811  0.58154  1.0000
  N   N87       1.0  0.86742  0.58022  0.58664  1.0000
  H   H2825     1.0  0.75825  0.70279  0.63859  1.0000
  C   C1586     1.0  0.54706  0.85586  0.60065  1.0000
  C   C1587     1.0  0.52278  0.86831  0.56278  1.0000
  C   C1588     1.0  0.66568  0.77935  0.72800  1.0000
  C   C1589     1.0  0.76184  0.73483  0.59660  1.0000
  C   C1590     1.0  0.70202  0.75328  0.72319  1.0000
  C   C1591     1.0  0.79477  0.71761  0.61560  1.0000
  C   C1592     1.0  0.65112  0.93766  0.63629  1.0000
  C   C1593     1.0  0.69154  0.80686  0.75524  1.0000
  N   N88       1.0  0.76885  0.71586  0.61121  1.0000
  H   H2826     1.0  0.69636  0.53479  0.68628  1.0000
  H   H2827     1.0  0.74124  0.77540  0.57840  1.0000
  H   H2828     1.0  0.87909  0.58431  0.61461  1.0000
  H   H2829     1.0  0.72762  0.68936  0.60925  1.0000
  H   H2830     1.0  0.64093  0.94504  0.66439  1.0000
  H   H2831     1.0  0.89434  0.61999  0.59877  1.0000
  C   C1594     1.0  0.73511  0.74412  0.59637  1.0000
  S   S356      1.0  0.90369  0.55922  0.53122  1.0000
  C   C1595     1.0  0.66445  0.86497  0.73939  1.0000
  C   C1596     1.0  0.84122  0.58150  0.63777  1.0000
  H   H2832     1.0  0.57547  0.89010  0.57353  1.0000
  H   H2833     1.0  0.73658  0.72966  0.66429  1.0000
  C   C1597     1.0  0.67504  0.88227  0.64393  1.0000
  C   C1598     1.0  0.75417  0.71839  0.62903  1.0000
  H   H2834     1.0  0.73030  0.75498  0.60857  1.0000
  H   H2835     1.0  0.84611  0.55460  0.61755  1.0000
  H   H2836     1.0  0.83430  0.60024  0.58025  1.0000
  H   H2837     1.0  0.72712  0.53641  0.68133  1.0000
  H   H2838     1.0  0.70557  0.86165  0.65585  1.0000
  C   C1599     1.0  0.77090  0.56036  0.73079  1.0000
  C   C1600     1.0  0.80981  0.69127  0.74919  1.0000
  H   H2839     1.0  0.73486  0.71789  0.62667  1.0000
  H   H2840     1.0  0.89334  0.58859  0.56471  1.0000
  H   H2841     1.0  0.60158  0.93417  0.65267  1.0000
  H   H2842     1.0  0.85776  0.57530  0.64499  1.0000
  H   H2843     1.0  0.99720  0.50719  0.51965  1.0000
  H   H2844     1.0  0.98020  0.72369  0.72100  1.0000
  C   C1601     1.0  0.59871  0.91490  0.65281  1.0000
  C   C1602     1.0  0.55689  0.84957  0.58100  1.0000
  H   H2845     1.0  0.94009  0.72675  0.73621  1.0000
  C   C1603     1.0  0.66891  0.55740  0.71410  1.0000
  C   C1604     1.0  0.84352  0.51857  0.65674  1.0000
  C   C1605     1.0  0.84470  0.58086  0.55579  1.0000
  S   S357      1.0  0.65033  0.97166  0.50811  1.0000
  C   C1606     1.0  0.87732  0.55472  0.58529  1.0000
  H   H2846     1.0  0.54585  0.81924  0.61183  1.0000
  C   C1607     1.0  0.84278  0.57419  0.61763  1.0000
  H   H2847     1.0  0.82505  0.57928  0.61181  1.0000
  H   H2848     1.0  0.61860  0.88094  0.65492  1.0000
  C   C1608     1.0  0.55394  0.83594  0.61492  1.0000
  H   H2849     1.0  0.71091  0.76681  0.57950  1.0000
  H   H2850     1.0  0.65959  0.54409  0.74206  1.0000
  H   H2851     1.0  0.83197  0.56886  0.58266  1.0000
  H   H2852     1.0  0.58376  0.82592  0.55316  1.0000
  H   H2853     1.0  0.89615  0.75908  0.73385  1.0000
  C   C1609     1.0  0.50395  0.78832  0.59882  1.0000
  H   H2854     1.0  0.71015  0.77570  0.68971  1.0000
  H   H2855     1.0  0.93527  0.75803  0.73498  1.0000
  C   C1610     1.0  0.65287  0.76457  0.74350  1.0000
  H   H2856     1.0  0.51949  0.98278  0.51541  1.0000
  C   C1611     1.0  0.94281  0.74299  0.74389  1.0000
  H   H2857     1.0  0.79162  0.69851  0.75141  1.0000
  H   H2858     1.0  0.55324  0.82164  0.54907  1.0000
  H   H2859     1.0  0.74071  0.53909  0.73153  1.0000
  C   C1612     1.0  0.62590  0.76636  0.74111  1.0000
  H   H2860     1.0  0.72950  0.71015  0.72260  1.0000
  H   H2861     1.0  0.58965  0.83791  0.51928  1.0000
  N   N89       1.0  0.69262  0.77801  0.72826  1.0000
  H   H2862     1.0  0.75670  0.72160  0.71318  1.0000
  H   H2863     1.0  0.65812  0.79814  0.72859  1.0000
  H   H2864     1.0  0.54759  0.84122  0.62898  1.0000
  C   C1613     1.0  0.70115  0.78283  0.74715  1.0000
  H   H2865     1.0  0.81558  0.50489  0.62914  1.0000
  H   H2866     1.0  0.97563  0.62452  0.50876  1.0000
  H   H2867     1.0  0.65706  0.97498  0.64004  1.0000
  H   H2868     1.0  0.65901  0.74546  0.74324  1.0000
  H   H2869     1.0  0.90914  0.51626  0.57773  1.0000
  H   H2870     1.0  0.73411  0.56930  0.73814  1.0000
  H   H2871     1.0  0.92782  0.51816  0.59722  1.0000
  H   H2872     1.0  0.97375  0.75489  0.71459  1.0000
  H   H2873     1.0  0.73922  0.51408  0.70865  1.0000
  H   H2874     1.0  0.72095  0.78301  0.74680  1.0000
  H   H2875     1.0  0.95359  0.69621  0.75507  1.0000
  H   H2876     1.0  0.61864  0.78522  0.74130  1.0000
  H   H2877     1.0  0.69770  0.82205  0.74649  1.0000
  C   C1614     1.0  0.51152  0.84514  0.55825  1.0000
  C   C1615     1.0  0.52306  0.90892  0.50712  1.0000
  H   H2878     1.0  0.85892  0.52851  0.66039  1.0000
  C   C1616     1.0  0.60713  0.99715  0.51357  1.0000
  H   H2879     1.0  0.59908  0.98038  0.51278  1.0000
  H   H2880     1.0  0.52731  0.85863  0.60106  1.0000
  H   H2881     1.0  0.90355  0.72027  0.75126  1.0000
  H   H2882     1.0  0.85771  0.51449  0.62911  1.0000
  C   C1617     1.0  0.98190  0.74223  0.72515  1.0000
  S   S358      1.0  0.54312  0.93137  0.50707  1.0000
  H   H2883     1.0  0.67178  0.80848  0.75618  1.0000
  H   H2884     1.0  0.83955  0.50104  0.56481  1.0000
  C   C1618     1.0  0.96112  0.49987  0.52876  1.0000
  C   C1619     1.0  0.96661  0.49948  0.54929  1.0000
  H   H2885     1.0  0.88747  0.77346  0.75509  1.0000
  H   H2886     1.0  0.95717  0.63352  0.98256  1.0000
  Fe  Fe180     1.0  0.61470  0.93969  0.98649  1.0000
  H   H2887     1.0  0.59460  0.91214  0.93362  1.0000
  N   N90       1.0  0.50223  0.98834  0.99986  1.0000
  S   S359      1.0  0.61395  0.97532  0.97174  1.0000
  Fe  Fe181     1.0  0.62447  0.88786  0.97894  1.0000
  S   S360      1.0  0.63169  0.86363  0.95456  1.0000
  S   S361      1.0  0.59139  0.91257  0.97719  1.0000
  Fe  Fe182     1.0  0.68772  0.89541  0.84995  1.0000
  S   S362      1.0  0.71862  0.91511  0.83816  1.0000
  S   S363      1.0  0.68379  0.90336  0.88072  1.0000
  Fe  Fe183     1.0  0.67571  0.88072  0.81064  1.0000
  S   S364      1.0  0.70553  0.90025  0.79691  1.0000
  S   S365      1.0  0.64980  0.85963  0.79527  1.0000
  Fe  Fe184     1.0  0.72727  0.88347  0.82046  1.0000
  S   S366      1.0  0.76609  0.86815  0.81755  1.0000
  Fe  Fe185     1.0  0.69413  0.93000  0.81618  1.0000
  S   S367      1.0  0.68294  0.96931  0.80919  1.0000
  S   S368      1.0  0.69789  0.86285  0.83351  1.0000
  S   S369      1.0  0.66284  0.91127  0.82847  1.0000
  H   H2888     1.0  0.57090  0.93401  0.92761  1.0000
  H   H2889     1.0  0.66979  0.97678  0.84996  1.0000
  C   C1620     1.0  0.52219  0.99204  0.98570  1.0000
  Fe  Fe186     1.0  0.89258  0.63590  0.97274  1.0000
  S   S370      1.0  0.89442  0.66716  0.95172  1.0000
  S   S371      1.0  0.90684  0.59806  0.96930  1.0000
  Fe  Fe187     1.0  0.84555  0.74161  0.83152  1.0000
  S   S372      1.0  0.84221  0.70271  0.82612  1.0000
  S   S373      1.0  0.80955  0.76231  0.83768  1.0000
  Fe  Fe188     1.0  0.90062  0.73519  0.82909  1.0000
  S   S374      1.0  0.90039  0.69677  0.82282  1.0000
  S   S375      1.0  0.93509  0.75248  0.83494  1.0000
  Fe  Fe189     1.0  0.87035  0.70766  0.80370  1.0000
  S   S376      1.0  0.87321  0.68992  0.77566  1.0000
  Fe  Fe190     1.0  0.87233  0.69506  0.84566  1.0000
  S   S377      1.0  0.87556  0.66298  0.86592  1.0000
  S   S378      1.0  0.87270  0.74696  0.80810  1.0000
  S   S379      1.0  0.87356  0.73315  0.85289  1.0000
  C   C1621     1.0  0.96525  0.74101  0.83135  1.0000
  C   C1622     1.0  0.97122  0.72099  0.82092  1.0000
  C   C1623     1.0  0.73854  0.96915  0.86756  1.0000
  H   H2890     1.0  0.95723  0.71150  0.81541  1.0000
  H   H2891     1.0  0.97937  0.76845  0.84670  1.0000
  H   H2892     1.0  0.92719  0.52878  0.97413  1.0000
  H   H2893     1.0  0.68326  0.97953  0.91756  1.0000
  H   H2894     1.0  0.93054  0.79973  0.79832  1.0000
  H   H2895     1.0  0.82197  0.70486  0.77451  1.0000
  H   H2896     1.0  0.94963  0.80856  0.77877  1.0000
  C   C1624     1.0  0.89023  0.66562  0.92776  1.0000
  C   C1625     1.0  0.88948  0.64385  0.91938  1.0000
  C   C1626     1.0  0.88521  0.64335  0.90037  1.0000
  C   C1627     1.0  0.88203  0.66458  0.88954  1.0000
  C   C1628     1.0  0.88355  0.68635  0.89782  1.0000
  C   C1629     1.0  0.88748  0.68685  0.91689  1.0000
  H   H2897     1.0  0.89205  0.62743  0.92760  1.0000
  H   H2898     1.0  0.88422  0.62643  0.89402  1.0000
  H   H2899     1.0  0.88120  0.70281  0.88961  1.0000
  H   H2900     1.0  0.88819  0.70377  0.92329  1.0000
  H   H2901     1.0  0.57987  0.91073  0.91194  1.0000
  N   N91       1.0  0.67077  0.98299  0.87929  1.0000
  H   H2902     1.0  0.65607  0.77106  0.75738  1.0000
  H   H2903     1.0  0.58110  0.97472  0.00344  1.0000
  C   C1630     1.0  0.56670  0.87246  0.93477  1.0000
  H   H2904     1.0  0.60648  0.97504  0.83975  1.0000
  C   C1631     1.0  0.77784  0.83836  0.82235  1.0000
  C   C1632     1.0  0.80276  0.83328  0.82206  1.0000
  C   C1633     1.0  0.81282  0.81000  0.82612  1.0000
  C   C1634     1.0  0.79803  0.79154  0.83078  1.0000
  C   C1635     1.0  0.77310  0.79662  0.83099  1.0000
  C   C1636     1.0  0.76308  0.81976  0.82651  1.0000
  H   H2905     1.0  0.81439  0.84746  0.81870  1.0000
  H   H2906     1.0  0.83200  0.80646  0.82598  1.0000
  H   H2907     1.0  0.76147  0.78247  0.83442  1.0000
  H   H2908     1.0  0.74395  0.82316  0.82601  1.0000
  Fe  Fe191     1.0  0.87532  0.58768  0.98723  1.0000
  H   H2909     1.0  0.73074  0.98197  0.81823  1.0000
  H   H2910     1.0  0.94549  0.65215  0.93537  1.0000
  H   H2911     1.0  0.91238  0.76843  0.78052  1.0000
  C   C1637     1.0  0.64903  0.85709  0.77084  1.0000
  C   C1638     1.0  0.93980  0.72249  0.77527  1.0000
  C   C1639     1.0  0.66426  0.98488  0.91507  1.0000
  C   C1640     1.0  0.64525  0.87508  0.93373  1.0000
  C   C1641     1.0  0.65600  0.89673  0.93317  1.0000
  C   C1642     1.0  0.66749  0.90501  0.91676  1.0000
  C   C1643     1.0  0.66790  0.89215  0.90053  1.0000
  C   C1644     1.0  0.65686  0.87063  0.90093  1.0000
  C   C1645     1.0  0.64576  0.86205  0.91752  1.0000
  H   H2912     1.0  0.65590  0.90689  0.94550  1.0000
  H   H2913     1.0  0.67636  0.92142  0.91670  1.0000
  H   H2914     1.0  0.65722  0.86044  0.88858  1.0000
  H   H2915     1.0  0.63764  0.84521  0.91782  1.0000
  C   C1646     1.0  0.55878  0.89934  0.93630  1.0000
  H   H2916     1.0  0.62892  0.99756  0.86080  1.0000
  H   H2917     1.0  0.54154  0.90362  0.92946  1.0000
  H   H2918     1.0  0.97107  0.67333  0.84570  1.0000
  S   S380      1.0  0.64827  0.91595  0.98643  1.0000
  H   H2919     1.0  0.96484  0.50431  0.97817  1.0000
  H   H2920     1.0  0.89085  0.54355  0.93750  1.0000
  C   C1647     1.0  0.64962  0.97452  0.93132  1.0000
  C   C1648     1.0  0.60316  0.99747  0.98661  1.0000
  H   H2921     1.0  0.96959  0.53586  0.97678  1.0000
  C   C1649     1.0  0.95270  0.67899  0.78205  1.0000
  H   H2922     1.0  0.94832  0.75833  0.79682  1.0000
  H   H2923     1.0  0.86775  0.50333  0.91873  1.0000
  C   C1650     1.0  0.58894  0.79651  0.93193  1.0000
  H   H2924     1.0  0.58248  0.79660  0.91760  1.0000
  H   H2925     1.0  0.55623  0.90448  0.95084  1.0000
  C   C1651     1.0  0.98973  0.64930  0.98809  1.0000
  C   C1652     1.0  0.71843  0.99749  0.81973  1.0000
  H   H2926     1.0  0.70506  0.98051  0.89238  1.0000
  H   H2927     1.0  0.53738  0.91062  0.98308  1.0000
  C   C1653     1.0  0.55897  0.83068  0.94013  1.0000
  H   H2928     1.0  0.69697  0.76814  0.75730  1.0000
  N   N92       1.0  0.80923  0.66068  0.93812  1.0000
  C   C1654     1.0  0.78414  0.65348  0.93593  1.0000
  C   C1655     1.0  0.82633  0.63881  0.94060  1.0000
  C   C1656     1.0  0.80903  0.67449  0.95561  1.0000
  C   C1657     1.0  0.81750  0.67665  0.92220  1.0000
  C   C1658     1.0  0.81647  0.66710  0.90251  1.0000
  C   C1659     1.0  0.76460  0.67411  0.93323  1.0000
  C   C1660     1.0  0.83368  0.68150  0.96169  1.0000
  C   C1661     1.0  0.82161  0.61656  0.92974  1.0000
  C   C1662     1.0  0.84221  0.59743  0.93133  1.0000
  C   C1663     1.0  0.81895  0.68706  0.88767  1.0000
  C   C1664     1.0  0.74047  0.66449  0.92978  1.0000
  H   H2929     1.0  0.77864  0.64227  0.94825  1.0000
  H   H2930     1.0  0.78313  0.64193  0.92403  1.0000
  H   H2931     1.0  0.84499  0.64335  0.93725  1.0000
  H   H2932     1.0  0.82624  0.63235  0.95541  1.0000
  H   H2933     1.0  0.89446  0.73343  0.77251  1.0000
  H   H2934     1.0  0.79782  0.69149  0.95416  1.0000
  H   H2935     1.0  0.80745  0.69440  0.92249  1.0000
  H   H2936     1.0  0.83644  0.68051  0.92375  1.0000
  H   H2937     1.0  0.79949  0.65913  0.90015  1.0000
  H   H2938     1.0  0.83150  0.65354  0.90022  1.0000
  H   H2939     1.0  0.76217  0.68484  0.94573  1.0000
  H   H2940     1.0  0.76914  0.68596  0.92115  1.0000
  H   H2941     1.0  0.84157  0.69416  0.95141  1.0000
  H   H2942     1.0  0.84628  0.66566  0.96335  1.0000
  H   H2943     1.0  0.80532  0.60854  0.93562  1.0000
  H   H2944     1.0  0.81904  0.62091  0.91487  1.0000
  H   H2945     1.0  0.83736  0.58098  0.92494  1.0000
  H   H2946     1.0  0.85851  0.60354  0.92400  1.0000
  H   H2947     1.0  0.84612  0.59305  0.94608  1.0000
  H   H2948     1.0  0.83533  0.69647  0.88947  1.0000
  H   H2949     1.0  0.82019  0.67944  0.87373  1.0000
  H   H2950     1.0  0.80321  0.70014  0.88827  1.0000
  H   H2951     1.0  0.74147  0.65432  0.91692  1.0000
  H   H2952     1.0  0.73482  0.65273  0.94164  1.0000
  H   H2953     1.0  0.72673  0.67954  0.92813  1.0000
  C   C1665     1.0  0.62584  0.97037  0.84139  1.0000
  C   C1666     1.0  0.52103  0.90799  0.99099  1.0000
  C   C1667     1.0  0.94190  0.69701  0.76776  1.0000
  H   H2954     1.0  0.92885  0.72200  0.78847  1.0000
  C   C1668     1.0  0.66028  0.97166  0.86314  1.0000
  C   C1669     1.0  0.85060  0.68562  0.75972  1.0000
  H   H2955     1.0  0.83628  0.51283  0.96906  1.0000
  H   H2956     1.0  0.98748  0.69712  0.86387  1.0000
  H   H2957     1.0  0.58229  0.85460  0.96663  1.0000
  H   H2958     1.0  0.74934  0.96905  0.85437  1.0000
  H   H2959     1.0  0.53948  0.98425  0.94854  1.0000
  C   C1670     1.0  0.98376  0.75293  0.83861  1.0000
  H   H2960     1.0  0.69597  0.95306  0.88539  1.0000
  C   C1671     1.0  0.87587  0.53555  0.93101  1.0000
  H   H2961     1.0  0.87006  0.54725  0.91904  1.0000
  H   H2962     1.0  0.96733  0.76647  0.77763  1.0000
  C   C1672     1.0  0.93544  0.52690  0.98787  1.0000
  H   H2963     1.0  0.55989  0.95934  0.95507  1.0000
  H   H2964     1.0  0.74153  0.95153  0.87489  1.0000
  H   H2965     1.0  0.99586  0.67332  0.87951  1.0000
  H   H2966     1.0  0.66293  0.95184  0.86453  1.0000
  C   C1673     1.0  0.56662  0.83971  0.99944  1.0000
  H   H2967     1.0  0.95233  0.63468  0.84483  1.0000
  C   C1674     1.0  0.94950  0.77017  0.78427  1.0000
  H   H2968     1.0  0.94123  0.67864  0.79490  1.0000
  H   H2969     1.0  0.65577  0.95636  0.89776  1.0000
  H   H2970     1.0  0.69390  0.79511  0.78431  1.0000
  H   H2971     1.0  0.70976  0.99199  0.85653  1.0000
  H   H2972     1.0  0.97092  0.68348  0.78543  1.0000
  H   H2973     1.0  0.70748  0.96093  0.85347  1.0000
  C   C1675     1.0  0.69422  0.99591  0.81655  1.0000
  C   C1676     1.0  0.97415  0.51834  0.00451  1.0000
  H   H2974     1.0  0.51974  0.95833  0.97123  1.0000
  C   C1677     1.0  0.57718  0.91495  0.92676  1.0000
  C   C1678     1.0  0.97443  0.63069  0.98860  1.0000
  H   H2975     1.0  0.72031  0.80836  0.77456  1.0000
  C   C1679     1.0  0.58569  0.82147  0.93951  1.0000
  C   C1680     1.0  0.92882  0.76592  0.77145  1.0000
  H   H2976     1.0  0.89711  0.51254  0.91307  1.0000
  N   N93       1.0  0.92952  0.74213  0.76238  1.0000
  H   H2977     1.0  0.62231  0.96879  0.87089  1.0000
  H   H2978     1.0  0.56496  0.86830  0.91998  1.0000
  C   C1681     1.0  0.96235  0.52118  0.98548  1.0000
  C   C1682     1.0  0.71218  0.97412  0.86341  1.0000
  H   H2979     1.0  0.59655  0.83317  0.93040  1.0000
  C   C1683     1.0  0.98155  0.60853  0.99687  1.0000
  C   C1684     1.0  0.98532  0.69080  0.87860  1.0000
  H   H2980     1.0  0.81951  0.70986  0.97953  1.0000
  C   C1685     1.0  0.94784  0.79570  0.79073  1.0000
  C   C1686     1.0  0.63331  0.97810  0.86016  1.0000
  H   H2981     1.0  0.56696  0.85791  0.00459  1.0000
  S   S381      1.0  0.85463  0.55744  0.97760  1.0000
  H   H2982     1.0  0.92306  0.65037  0.84575  1.0000
  H   H2983     1.0  0.97092  0.66889  0.93953  1.0000
  S   S382      1.0  0.85936  0.62555  0.98855  1.0000
  C   C1687     1.0  0.99784  0.70874  0.88979  1.0000
  C   C1688     1.0  0.54995  0.97571  0.96005  1.0000
  H   H2984     1.0  0.97482  0.63720  0.93693  1.0000
  C   C1689     1.0  0.55221  0.84014  0.98194  1.0000
  C   C1690     1.0  0.84886  0.50920  0.97995  1.0000
  H   H2985     1.0  0.54422  0.95817  0.98657  1.0000
  C   C1691     1.0  0.82700  0.69490  0.76235  1.0000
  N   N94       1.0  0.74554  0.84020  0.88670  1.0000
  C   C1692     1.0  0.72154  0.83051  0.88410  1.0000
  C   C1693     1.0  0.74661  0.84687  0.90661  1.0000
  C   C1694     1.0  0.74796  0.86157  0.87357  1.0000
  C   C1695     1.0  0.76582  0.82203  0.88247  1.0000
  C   C1696     1.0  0.76580  0.79833  0.89422  1.0000
  C   C1697     1.0  0.71927  0.81657  0.86635  1.0000
  C   C1698     1.0  0.77087  0.87510  0.87540  1.0000
  C   C1699     1.0  0.72919  0.86809  0.91244  1.0000
  C   C1700     1.0  0.73050  0.87240  0.93306  1.0000
  C   C1701     1.0  0.78369  0.77951  0.88609  1.0000
  C   C1702     1.0  0.69364  0.80988  0.86427  1.0000
  C   C1703     1.0  0.76939  0.89891  0.86449  1.0000
  H   H2986     1.0  0.70727  0.84531  0.88384  1.0000
  H   H2987     1.0  0.71642  0.81862  0.89608  1.0000
  H   H2988     1.0  0.74248  0.83144  0.91604  1.0000
  H   H2989     1.0  0.76504  0.85070  0.91003  1.0000
  H   H2990     1.0  0.73205  0.87444  0.87492  1.0000
  H   H2991     1.0  0.74807  0.85622  0.85894  1.0000
  H   H2992     1.0  0.76659  0.81812  0.86749  1.0000
  H   H2993     1.0  0.78328  0.82933  0.88482  1.0000
  H   H2994     1.0  0.74804  0.79092  0.89502  1.0000
  H   H2995     1.0  0.77100  0.80129  0.90856  1.0000
  H   H2996     1.0  0.72445  0.82742  0.85402  1.0000
  H   H2997     1.0  0.73092  0.79982  0.86654  1.0000
  H   H2998     1.0  0.78674  0.86441  0.86988  1.0000
  H   H2999     1.0  0.77392  0.87906  0.88993  1.0000
  H   H3000     1.0  0.73344  0.88480  0.90472  1.0000
  H   H3001     1.0  0.71051  0.86453  0.90982  1.0000
  H   H3002     1.0  0.72542  0.85648  0.94150  1.0000
  H   H3003     1.0  0.74878  0.87669  0.93645  1.0000
  H   H3004     1.0  0.71779  0.88765  0.93673  1.0000
  H   H3005     1.0  0.78429  0.76307  0.89514  1.0000
  H   H3006     1.0  0.77830  0.77490  0.87214  1.0000
  H   H3007     1.0  0.80190  0.78607  0.88486  1.0000
  H   H3008     1.0  0.69247  0.80041  0.85122  1.0000
  H   H3009     1.0  0.68811  0.79797  0.87606  1.0000
  H   H3010     1.0  0.68113  0.82607  0.86365  1.0000
  H   H3011     1.0  0.78588  0.90821  0.86622  1.0000
  H   H3012     1.0  0.76774  0.89614  0.84953  1.0000
  H   H3013     1.0  0.75384  0.91039  0.86956  1.0000
  N   N95       1.0  0.95933  0.68778  0.88356  1.0000
  C   C1704     1.0  0.95523  0.68078  0.90379  1.0000
  C   C1705     1.0  0.94408  0.71024  0.87842  1.0000
  C   C1706     1.0  0.95139  0.66790  0.87240  1.0000
  H   H3014     1.0  0.96244  0.79783  0.80033  1.0000
  H   H3015     1.0  0.58619  0.87045  0.93721  1.0000
  C   C1707     1.0  0.96907  0.65764  0.91107  1.0000
  C   C1708     1.0  0.95238  0.67225  0.85104  1.0000
  C   C1709     1.0  0.93894  0.72882  0.89357  1.0000
  C   C1710     1.0  0.92766  0.75228  0.88547  1.0000
  H   H3016     1.0  0.92716  0.51237  0.99609  1.0000
  C   C1711     1.0  0.96479  0.65383  0.93198  1.0000
  C   C1712     1.0  0.94212  0.65182  0.84144  1.0000
  H   H3017     1.0  0.93588  0.67858  0.90667  1.0000
  H   H3018     1.0  0.95972  0.69505  0.91285  1.0000
  H   H3019     1.0  0.95198  0.71949  0.86600  1.0000
  H   H3020     1.0  0.92604  0.70583  0.87423  1.0000
  H   H3021     1.0  0.93272  0.66397  0.87667  1.0000
  H   H3022     1.0  0.96261  0.65115  0.87509  1.0000
  C   C1713     1.0  0.65624  0.97615  0.89646  1.0000
  H   H3023     1.0  0.95799  0.72595  0.77939  1.0000
  H   H3024     1.0  0.80093  0.66408  0.96742  1.0000
  C   C1714     1.0  0.66544  0.86771  0.75863  1.0000
  H   H3025     1.0  0.96298  0.64180  0.90454  1.0000
  H   H3026     1.0  0.98856  0.65841  0.90835  1.0000
  H   H3027     1.0  0.84953  0.69820  0.98419  1.0000
  H   H3028     1.0  0.94204  0.68897  0.84681  1.0000
  H   H3029     1.0  0.92618  0.72191  0.90428  1.0000
  H   H3030     1.0  0.95527  0.73282  0.90053  1.0000
  H   H3031     1.0  0.91114  0.74927  0.87824  1.0000
  H   H3032     1.0  0.92298  0.76473  0.89674  1.0000
  H   H3033     1.0  0.94039  0.76072  0.87552  1.0000
  H   H3034     1.0  0.99601  0.70481  0.90490  1.0000
  C   C1715     1.0  0.86035  0.52808  0.98699  1.0000
  H   H3035     1.0  0.61888  0.83541  0.77279  1.0000
  H   H3036     1.0  0.98394  0.66659  0.98213  1.0000
  H   H3037     1.0  0.52231  0.87719  0.95617  1.0000
  H   H3038     1.0  0.66365  0.99427  0.99560  1.0000
  C   C1716     1.0  0.50955  0.84253  0.95120  1.0000
  H   H3039     1.0  0.67895  0.87797  0.76403  1.0000
  H   H3040     1.0  0.94321  0.65520  0.82621  1.0000
  C   C1717     1.0  0.63166  0.84371  0.76349  1.0000
  C   C1718     1.0  0.58771  0.99220  0.00163  1.0000
  C   C1719     1.0  0.69601  0.97234  0.88116  1.0000
  H   H3041     1.0  0.59304  0.82046  0.95356  1.0000
  N   N96       1.0  0.55355  0.85526  0.94741  1.0000
  C   C1720     1.0  0.70048  0.80931  0.77471  1.0000
  S   S383      1.0  0.91217  0.64023  0.99873  1.0000
  H   H3042     1.0  0.60820  0.79042  0.93162  1.0000
  H   H3043     1.0  0.62916  0.95082  0.84034  1.0000
  C   C1721     1.0  0.88350  0.51062  0.92450  1.0000
  H   H3044     1.0  0.55250  0.82155  0.97758  1.0000
  H   H3045     1.0  0.54928  0.81711  0.94831  1.0000
  H   H3046     1.0  0.85464  0.74605  0.76053  1.0000
  H   H3047     1.0  0.55228  0.83020  0.92584  1.0000
  C   C1722     1.0  0.99541  0.71370  0.81711  1.0000
  H   H3048     1.0  0.63585  0.97948  0.82995  1.0000
  H   H3049     1.0  0.52239  0.86931  0.93264  1.0000
  H   H3050     1.0  0.55840  0.87524  0.97168  1.0000
  H   H3051     1.0  0.53362  0.84663  0.98580  1.0000
  H   H3052     1.0  0.86064  0.53478  0.94123  1.0000
  H   H3053     1.0  0.57910  0.78372  0.94089  1.0000
  H   H3054     1.0  0.51425  0.83133  0.96361  1.0000
  C   C1723     1.0  0.87612  0.52325  0.00135  1.0000
  H   H3055     1.0  0.65202  0.95478  0.93210  1.0000
  C   C1724     1.0  0.56246  0.85703  0.96669  1.0000
  C   C1725     1.0  0.83159  0.69339  0.98032  1.0000
  H   H3056     1.0  0.50965  0.83065  0.93932  1.0000
  C   C1726     1.0  0.53340  0.96929  0.97648  1.0000
  H   H3057     1.0  0.82482  0.68097  0.99134  1.0000
  C   C1727     1.0  0.52707  0.86231  0.94679  1.0000
  Fe  Fe192     1.0  0.92378  0.60157  0.99645  1.0000
  S   S384      1.0  0.96142  0.58626  0.00010  1.0000
  H   H3058     1.0  0.92422  0.69103  0.76458  1.0000
  H   H3059     1.0  0.95392  0.66091  0.77640  1.0000
  H   H3060     1.0  0.58525  0.83239  0.99665  1.0000
  H   H3061     1.0  0.69373  0.82682  0.78005  1.0000
  H   H3062     1.0  0.93156  0.54390  0.99499  1.0000
  H   H3063     1.0  0.99031  0.72709  0.88644  1.0000
  H   H3064     1.0  0.63033  0.98000  0.93004  1.0000
  H   H3065     1.0  0.63738  0.98335  0.89540  1.0000
  H   H3066     1.0  0.50310  0.82275  0.76487  1.0000
  H   H3067     1.0  0.91148  0.50230  0.94318  1.0000
  C   C1728     1.0  0.90409  0.73680  0.75904  1.0000
  H   H3068     1.0  0.65556  0.98121  0.94448  1.0000
  H   H3069     1.0  0.92762  0.78079  0.76079  1.0000
  H   H3070     1.0  0.56312  0.98810  0.96414  1.0000
  H   H3071     1.0  0.74461  0.98320  0.87621  1.0000
  H   H3072     1.0  0.99983  0.69862  0.80856  1.0000
