data_image0
_chemical_formula_structural       CH2CS2FeS2FeS2FeSFeS3FeSCHCH2C6H6CH3C7H4CH3C2H2CNHC3H4CHC2H14CH2C2H4C4HC2H7CH2CH6CH2CHCHC3HCH2CH3CNH2CH2CHCH3CH5CHSH7CHCHNCHC2HC3H2C2H2CH9C3H2CH8CH3C2H3NH3CH2CH3CH2NC2H2CSCHCH9CFeCH3C3H8CH3CS2FeS2FeS2FeSFeS3FeCS2FeS2FeSHFe2S3FeS2FeS2C6H5CH4CHFeSC3H5CHC7H4C6H5C6H5CH5CH2C2HCHFeH5C2H7CH3NC4HCH2C2H3CHNH3CH10CHNH3CH2CHC2HCH2SCH5CH2CH14CH5C2HC2H2CH2CHCH2C2H2CH2C2HC3HCH2CHC2HNHC2HSH2CH3C2H2CH4CH2CHCH2CH5CNCHSHC2HCH2CH2CHCH2FeH2CH2FeCHCSHFeS2FeS2FeS2FeSFeS3FeS2FeS2FeSFeS3H4C6H6CSC7H5C6H5NH6CNCSC2HC2HCHC2H2NHCH8CH7CHCHCH5CH11CHCHCH2CH2C2HCH2CH4CHC3H3NC10HCH20C2SC2FeC2HCHCH3CH3CH2C2HCH2C2HCH2C2H9C4HCHCHC2H7CH2CH3CH4CSHCNH4CSH6C3HC2HCH2CH3CH4NH4CH2CH3CH9C2H3SFeS4FeS2C6H2C7H4NC8H13NC8H14CH4CH7CHCHCH3SH2FeH2CH3C4H2C2H4CH3CH7C2H4CH3CSH4CH2NH4C3HCH2SH4SHFeHFeHCHC2SCNHCFeCHCH2CHC3H2FeHSCHCSH3C2HCH2C3HC2HSH2C5HCNHCHCH3SCSH2CSH2CSFeHC2H4CH4CHFeC2SH4CH2CH2CH7SCHCH4FeS2C6H4CH3C3NHCHFeH2C2H7CH2C2H2CH2CHCHCHCHCH2CH9FeCHC2SHC2H2C2H2SNHSHNHCH3C3H4FeH3CH2SC2H5SC2HC4H9FeH2C2H4CH2CH5SH3C3HSH3FeS2H3FeSCHSC8H6FeHNH2C3HC2HC2H11CHSNCHC3HCH5CHCH2C2H7CH4CHC3H2CHFeH9CH2SHS2CHCFeSHFeS2FeS2FeS2FeSFeHFeS2FeS2FeSFeCS2H2C3H4C7H5C2HCHCH5CHCHC6H4C7SHNH2C2HCH2S2CH13CHC2HCH2CH2CH2C3HNH2CH2CH4C2NC12H27NHC2H3C5HCH7C3H5CH3C3SH7CH5SC2H4C2H2C2HC2SH8SH2NCHCH5CH2FeSFeS2C2H2CHC2H3C2NH2CHNC2H3C5NH2CH4CH3CH6CH4CH4CHCH3CH3C2HCH2FeH6C2HCHC2H2SHCH3CHCH2CH2CHNH4CH2FeS2FeS2FeSFeS3FeCSH3FeS2FeS2FeSFeS3C3HCHCH4C6H4C6H4C3HCH6C2HCHC3H4CH2CHCSH8C2H6C3H3CH2CH5CHCH2C2H5CH7CH2CHC2H2C2H3C2H2CHCH2CHCNH4NHC2H4CHCHCHC3NHC2HCHC2HCNC2HCHC2H4CH4CH4CH7CH2CH2CH6CH5CH3C2H2CH8FeS2FeS2FeS2FeSFeS3FeHSFeS2FeS2FeSFeSFeS3CSHFeSHC7N2H2C6H4C6H4CH2C3HCH2C6H6C4H3CHC3HCH2CH4CNC12H30CHCHCH3C2HCH2C2HFeH5CH5CHC2H4C2H3CH2FeCHCHSH2C2H2CHC2HCHSH2CFeHCH2CH2C2HCHCHCNH3CHSCH3C2SH3CH4CHCH2SCH5CH10CH2CH9C3H2CH2CH3C3H4FeS2FeS2FeS2FeS2FeHFeS3FeS2HCH2CHSH4CH2C2H3C6H5CH3C2HC6H4C2HFeH6CH2CHNH3NHSCHCH4CH4CH2CH7CHCH2CH7SC2H2FeCHC2HCSH5C2HC2H2CH2CHCHC2H6CHNCHCHCHCHCH3C2H4C2H3C2HC3HCH4NC2SH2CHCH4CH7FeH3CSH3CHC2HCH2CHCHCHC2H5SH2C2HNH2CH7C3H3
_chemical_formula_sum              "C864 H1536 S192 Fe96 N48"
_cell_length_a       58.4508
_cell_length_b       58.4504
_cell_length_c       43.4406
_cell_angle_alpha    90.4247
_cell_angle_beta     90.0973
_cell_angle_gamma    120

_space_group_name_H-M_alt    "P 1"
_space_group_IT_number       1

loop_
  _space_group_symop_operation_xyz
  'x, y, z'

loop_
  _atom_site_type_symbol
  _atom_site_label
  _atom_site_symmetry_multiplicity
  _atom_site_fract_x
  _atom_site_fract_y
  _atom_site_fract_z
  _atom_site_occupancy
  C   C1        1.0  0.97883  0.22334  0.45457  1.0000
  H   H1        1.0  0.13627  0.29448  0.17019  1.0000
  H   H2        1.0  0.25986  0.29757  0.11557  1.0000
  C   C2        1.0  0.10052  0.29916  0.26482  1.0000
  S   S1        1.0  0.14627  0.01593  0.32901  1.0000
  S   S2        1.0  0.20521  0.00139  0.35037  1.0000
  Fe  Fe1       1.0  0.13613  0.17384  0.31572  1.0000
  S   S3        1.0  0.15932  0.21770  0.32101  1.0000
  S   S4        1.0  0.09146  0.15092  0.31480  1.0000
  Fe  Fe2       1.0  0.18543  0.16844  0.31823  1.0000
  S   S5        1.0  0.21244  0.21266  0.32413  1.0000
  S   S6        1.0  0.20303  0.14121  0.31516  1.0000
  Fe  Fe3       1.0  0.18149  0.20967  0.35789  1.0000
  S   S7        1.0  0.18270  0.22847  0.40457  1.0000
  Fe  Fe4       1.0  0.18787  0.21709  0.28666  1.0000
  S   S8        1.0  0.19687  0.24010  0.24090  1.0000
  S   S9        1.0  0.15666  0.16566  0.35415  1.0000
  S   S10       1.0  0.16274  0.17294  0.27919  1.0000
  Fe  Fe5       1.0  0.99402  0.20660  0.32752  1.0000
  S   S11       1.0  0.03786  0.22212  0.32104  1.0000
  C   C3        1.0  0.23641  0.29907  0.17851  1.0000
  H   H3        1.0  0.13654  0.23712  0.20769  1.0000
  C   C4        1.0  0.23624  0.06739  0.46776  1.0000
  H   H4        1.0  0.08088  0.16191  0.38608  1.0000
  H   H5        1.0  0.12458  0.20821  0.42323  1.0000
  C   C5        1.0  0.07584  0.17012  0.31515  1.0000
  C   C6        1.0  0.08942  0.19642  0.30573  1.0000
  C   C7        1.0  0.07722  0.21185  0.30719  1.0000
  C   C8        1.0  0.05125  0.20111  0.31774  1.0000
  C   C9        1.0  0.03730  0.17460  0.32650  1.0000
  C   C10       1.0  0.04961  0.15913  0.32516  1.0000
  H   H6        1.0  0.10922  0.20481  0.29692  1.0000
  H   H7        1.0  0.08797  0.23219  0.30006  1.0000
  H   H8        1.0  0.01719  0.16611  0.33456  1.0000
  H   H9        1.0  0.03887  0.13869  0.33219  1.0000
  H   H10       1.0  0.03473  0.24958  0.40103  1.0000
  H   H11       1.0  0.30497  0.28318  0.15984  1.0000
  C   C11       1.0  0.22110  0.27050  0.22405  1.0000
  H   H12       1.0  0.11667  0.27321  0.27304  1.0000
  H   H13       1.0  0.26297  0.23985  0.13744  1.0000
  H   H14       1.0  0.19721  0.30773  0.14951  1.0000
  C   C12       1.0  0.15267  0.02885  0.24599  1.0000
  C   C13       1.0  0.16312  0.05108  0.32877  1.0000
  C   C14       1.0  0.19027  0.06625  0.32333  1.0000
  C   C15       1.0  0.20227  0.09387  0.31988  1.0000
  C   C16       1.0  0.18742  0.10673  0.32226  1.0000
  C   C17       1.0  0.16054  0.09174  0.32910  1.0000
  C   C18       1.0  0.14842  0.06406  0.33200  1.0000
  H   H15       1.0  0.20185  0.05659  0.32072  1.0000
  H   H16       1.0  0.22314  0.10529  0.31478  1.0000
  H   H17       1.0  0.14897  0.10143  0.33136  1.0000
  H   H18       1.0  0.12742  0.05253  0.33624  1.0000
  C   C19       1.0  0.33051  0.25348  0.09088  1.0000
  H   H19       1.0  0.12222  0.23868  0.34573  1.0000
  H   H20       1.0  0.23381  0.30230  0.15464  1.0000
  H   H21       1.0  0.16313  0.29226  0.37521  1.0000
  C   C20       1.0  0.18726  0.21538  0.43934  1.0000
  C   C21       1.0  0.17936  0.22122  0.46751  1.0000
  H   H22       1.0  0.12727  0.08401  0.28204  1.0000
  H   H23       1.0  0.16969  0.23285  0.46760  1.0000
  C   C22       1.0  0.31864  0.26471  0.11365  1.0000
  N   N1        1.0  0.05363  0.28447  0.24186  1.0000
  H   H24       1.0  0.98762  0.29915  0.16058  1.0000
  C   C23       1.0  0.07227  0.27661  0.25631  1.0000
  C   C24       1.0  0.03419  0.26182  0.22167  1.0000
  C   C25       1.0  0.03804  0.28916  0.26623  1.0000
  H   H25       1.0  0.10192  0.23195  0.45624  1.0000
  H   H26       1.0  0.24485  0.25527  0.15108  1.0000
  H   H27       1.0  0.16447  0.28801  0.07235  1.0000
  H   H28       1.0  0.38752  0.98458  0.99922  1.0000
  C   C26       1.0  0.13687  0.04322  0.24744  1.0000
  H   H29       1.0  0.06319  0.19137  0.48464  1.0000
  C   C27       1.0  0.98978  0.22646  0.48437  1.0000
  C   C28       1.0  0.14278  0.07382  0.17834  1.0000
  H   H30       1.0  0.31435  0.28713  0.07664  1.0000
  H   H31       1.0  0.15389  0.13524  0.41675  1.0000
  H   H32       1.0  0.06317  0.26466  0.27731  1.0000
  H   H33       1.0  0.07545  0.26337  0.24045  1.0000
  H   H34       1.0  0.04433  0.25989  0.20093  1.0000
  H   H35       1.0  0.01849  0.26562  0.21296  1.0000
  H   H36       1.0  0.22746  0.04564  0.46534  1.0000
  H   H37       1.0  0.02747  0.27155  0.28116  1.0000
  H   H38       1.0  0.28065  0.24230  0.19036  1.0000
  H   H39       1.0  0.14792  0.30595  0.20792  1.0000
  H   H40       1.0  0.05533  0.26483  0.36816  1.0000
  H   H41       1.0  0.09798  0.08911  0.40219  1.0000
  H   H42       1.0  0.16102  0.03037  0.22267  1.0000
  H   H43       1.0  0.99063  0.22553  0.43447  1.0000
  C   C29       1.0  0.11501  0.28914  0.28504  1.0000
  H   H44       1.0  0.10391  0.06018  0.25616  1.0000
  H   H45       1.0  0.10427  0.28144  0.30703  1.0000
  C   C30       1.0  0.19995  0.20051  0.43954  1.0000
  C   C31       1.0  0.05551  0.26042  0.39296  1.0000
  H   H46       1.0  0.24500  0.29621  0.03016  1.0000
  H   H47       1.0  0.02215  0.29146  0.25540  1.0000
  H   H48       1.0  0.05566  0.22405  0.38638  1.0000
  H   H49       1.0  0.08227  0.21001  0.41393  1.0000
  C   C32       1.0  0.30245  0.27525  0.09659  1.0000
  C   C33       1.0  0.13775  0.11469  0.42054  1.0000
  C   C34       1.0  0.13005  0.25799  0.42112  1.0000
  C   C35       1.0  0.20578  0.19260  0.46767  1.0000
  H   H50       1.0  0.06596  0.06505  0.27057  1.0000
  C   C36       1.0  0.02808  0.18589  0.46219  1.0000
  C   C37       1.0  0.16015  0.11768  0.23820  1.0000
  H   H51       1.0  0.13957  0.00763  0.25139  1.0000
  H   H52       1.0  0.16429  0.27132  0.17058  1.0000
  H   H53       1.0  0.12719  0.03920  0.27033  1.0000
  H   H54       1.0  0.14588  0.25571  0.48168  1.0000
  H   H55       1.0  0.23194  0.07488  0.44641  1.0000
  H   H56       1.0  0.10974  0.05777  0.14582  1.0000
  H   H57       1.0  0.14534  0.25211  0.42444  1.0000
  C   C38       1.0  0.06837  0.24347  0.39787  1.0000
  H   H58       1.0  0.14013  0.05404  0.18332  1.0000
  H   H59       1.0  0.17494  0.08713  0.48154  1.0000
  C   C39       1.0  0.15384  0.30129  0.18549  1.0000
  H   H60       1.0  0.01193  0.21203  0.19391  1.0000
  H   H61       1.0  0.28083  0.29060  0.05270  1.0000
  H   H62       1.0  0.11696  0.24672  0.18488  1.0000
  H   H63       1.0  0.22161  0.16649  0.21097  1.0000
  H   H64       1.0  0.13712  0.28817  0.34957  1.0000
  H   H65       1.0  0.28418  0.29667  0.16207  1.0000
  C   C40       1.0  0.13124  0.07236  0.14631  1.0000
  H   H66       1.0  0.15489  0.27024  0.30907  1.0000
  H   H67       1.0  0.34451  0.26916  0.07519  1.0000
  C   C41       1.0  0.18528  0.12933  0.21809  1.0000
  H   H68       1.0  0.12110  0.03459  0.22961  1.0000
  C   C42       1.0  0.24328  0.28962  0.24022  1.0000
  H   H69       1.0  0.10806  0.06467  0.20399  1.0000
  C   C43       1.0  0.28761  0.28243  0.14853  1.0000
  C   C44       1.0  0.98504  0.29779  0.18527  1.0000
  C   C45       1.0  0.27000  0.29733  0.06774  1.0000
  H   H70       1.0  0.14117  0.06610  0.12920  1.0000
  C   C46       1.0  0.09664  0.25672  0.38415  1.0000
  H   H71       1.0  0.14226  0.07965  0.47236  1.0000
  H   H72       1.0  0.34146  0.24551  0.10362  1.0000
  C   C47       1.0  0.11538  0.10889  0.39786  1.0000
  H   H73       1.0  0.09764  0.09737  0.23261  1.0000
  H   H74       1.0  0.15057  0.28538  0.12593  1.0000
  H   H75       1.0  0.17828  0.30344  0.32145  1.0000
  C   C48       1.0  0.16712  0.28251  0.32880  1.0000
  N   N2        1.0  0.11388  0.24508  0.39249  1.0000
  H   H76       1.0  0.16425  0.08786  0.17740  1.0000
  H   H77       1.0  0.24504  0.22600  0.19055  1.0000
  C   C49       1.0  0.16345  0.09488  0.46938  1.0000
  H   H78       1.0  0.16611  0.08131  0.26527  1.0000
  H   H79       1.0  0.08547  0.20683  0.37395  1.0000
  C   C50       1.0  0.20380  0.15855  0.22573  1.0000
  H   H80       1.0  0.12671  0.09833  0.19403  1.0000
  C   C51       1.0  0.26342  0.24513  0.18670  1.0000
  H   H81       1.0  0.09325  0.25550  0.35874  1.0000
  H   H82       1.0  0.17328  0.28253  0.20979  1.0000
  H   H83       1.0  0.37882  0.99525  0.10039  1.0000
  C   C52       1.0  0.11478  0.25328  0.45158  1.0000
  H   H84       1.0  0.19397  0.98245  0.23068  1.0000
  H   H85       1.0  0.19385  0.17023  0.22154  1.0000
  H   H86       1.0  0.10280  0.26315  0.45089  1.0000
  H   H87       1.0  0.98540  0.21766  0.20582  1.0000
  H   H88       1.0  0.13440  0.09203  0.13953  1.0000
  C   C53       1.0  0.09715  0.21545  0.39551  1.0000
  H   H89       1.0  0.00706  0.23428  0.25640  1.0000
  S   S12       1.0  0.98509  0.23955  0.33433  1.0000
  H   H90       1.0  0.10923  0.12391  0.40060  1.0000
  H   H91       1.0  0.17032  0.07669  0.22627  1.0000
  H   H92       1.0  0.00670  0.17763  0.46693  1.0000
  H   H93       1.0  0.12567  0.25832  0.22430  1.0000
  H   H94       1.0  0.20109  0.26066  0.18013  1.0000
  H   H95       1.0  0.14750  0.24427  0.37259  1.0000
  H   H96       1.0  0.06821  0.23990  0.42277  1.0000
  C   C54       1.0  0.11925  0.08143  0.25828  1.0000
  H   H97       1.0  0.17984  0.12825  0.19346  1.0000
  C   C55       1.0  0.13300  0.25056  0.36641  1.0000
  H   H98       1.0  0.21034  0.16113  0.25017  1.0000
  N   N3        1.0  0.17044  0.09854  0.43548  1.0000
  C   C56       1.0  0.19459  0.12525  0.43037  1.0000
  H   H99       1.0  0.23198  0.26564  0.05089  1.0000
  C   C57       1.0  0.17723  0.07773  0.42569  1.0000
  C   C58       1.0  0.14731  0.09458  0.41606  1.0000
  H   H100      1.0  0.18160  0.27627  0.33515  1.0000
  C   C59       1.0  0.20461  0.13189  0.39681  1.0000
  C   C60       1.0  0.15674  0.04863  0.43366  1.0000
  C   C61       1.0  0.01932  0.23422  0.23702  1.0000
  H   H101      1.0  0.12484  0.20179  0.38251  1.0000
  H   H102      1.0  0.08661  0.08598  0.30186  1.0000
  C   C62       1.0  0.23079  0.15797  0.39547  1.0000
  C   C63       1.0  0.16608  0.02983  0.42238  1.0000
  H   H103      1.0  0.21121  0.12726  0.44499  1.0000
  H   H104      1.0  0.19113  0.14144  0.43783  1.0000
  C   C64       1.0  0.11216  0.20040  0.40221  1.0000
  H   H105      1.0  0.03637  0.20651  0.45421  1.0000
  H   H106      1.0  0.19651  0.08221  0.43594  1.0000
  H   H107      1.0  0.17973  0.07780  0.40027  1.0000
  H   H108      1.0  0.15175  0.09427  0.39124  1.0000
  H   H109      1.0  0.12980  0.07491  0.42047  1.0000
  H   H110      1.0  0.20633  0.19625  0.41803  1.0000
  H   H111      1.0  0.20830  0.11671  0.38638  1.0000
  H   H112      1.0  0.18996  0.13384  0.38243  1.0000
  H   H113      1.0  0.13744  0.04229  0.42237  1.0000
  C   C65       1.0  0.09292  0.17105  0.40720  1.0000
  C   C66       1.0  0.13267  0.25353  0.20279  1.0000
  C   C67       1.0  0.06864  0.30818  0.22137  1.0000
  H   H114      1.0  0.16662  0.12264  0.26271  1.0000
  H   H115      1.0  0.06627  0.27926  0.40615  1.0000
  C   C68       1.0  0.10448  0.09729  0.25643  1.0000
  H   H116      1.0  0.24640  0.15653  0.40847  1.0000
  H   H117      1.0  0.23722  0.16264  0.37117  1.0000
  H   H118      1.0  0.22870  0.17442  0.40512  1.0000
  H   H119      1.0  0.15126  0.00916  0.42824  1.0000
  H   H120      1.0  0.16859  0.03097  0.39697  1.0000
  H   H121      1.0  0.18512  0.03466  0.43342  1.0000
  H   H122      1.0  0.21686  0.18233  0.46765  1.0000
  H   H123      1.0  0.01008  0.23119  0.48693  1.0000
  C   C69       1.0  0.21791  0.27543  0.19306  1.0000
  H   H124      1.0  0.15044  0.12926  0.23216  1.0000
  H   H125      1.0  0.11752  0.11801  0.26420  1.0000
  H   H126      1.0  0.07965  0.16811  0.42688  1.0000
  C   C70       1.0  0.08045  0.08565  0.27756  1.0000
  C   C71       1.0  0.97388  0.27292  0.19982  1.0000
  H   H127      1.0  0.12956  0.11296  0.44393  1.0000
  H   H128      1.0  0.03013  0.17400  0.44346  1.0000
  H   H129      1.0  0.26414  0.25967  0.20387  1.0000
  N   N4        1.0  0.29321  0.29099  0.11536  1.0000
  H   H130      1.0  0.30574  0.24855  0.12946  1.0000
  H   H131      1.0  0.99068  0.19357  0.22521  1.0000
  H   H132      1.0  0.25252  0.26611  0.10068  1.0000
  C   C72       1.0  0.12869  0.08162  0.20312  1.0000
  H   H133      1.0  0.10428  0.16097  0.41236  1.0000
  H   H134      1.0  0.24621  0.28619  0.26397  1.0000
  C   C73       1.0  0.14975  0.27986  0.35635  1.0000
  H   H135      1.0  0.07062  0.09770  0.27618  1.0000
  H   H136      1.0  0.14148  0.27979  0.41840  1.0000
  H   H137      1.0  0.12192  0.10951  0.37373  1.0000
  C   C74       1.0  0.00076  0.21317  0.21395  1.0000
  H   H138      1.0  0.10688  0.27816  0.39017  1.0000
  H   H139      1.0  0.19664  0.11904  0.22174  1.0000
  N   N5        1.0  0.14094  0.08840  0.23498  1.0000
  C   C75       1.0  0.15493  0.07346  0.24331  1.0000
  C   C76       1.0  0.26341  0.25461  0.15400  1.0000
  H   H140      1.0  0.31116  0.98851  0.03230  1.0000
  H   H141      1.0  0.13522  0.30558  0.29037  1.0000
  C   C77       1.0  0.15807  0.27751  0.19164  1.0000
  S   S13       1.0  0.19601  0.98916  0.43931  1.0000
  C   C78       1.0  0.24272  0.28749  0.05339  1.0000
  H   H142      1.0  0.28530  0.25749  0.08603  1.0000
  C   C79       1.0  0.26794  0.28738  0.10121  1.0000
  H   H143      1.0  0.16902  0.03731  0.26318  1.0000
  H   H144      1.0  0.03311  0.22794  0.24591  1.0000
  H   H145      1.0  0.15361  0.04587  0.45885  1.0000
  H   H146      1.0  0.31470  0.23720  0.07695  1.0000
  H   H147      1.0  0.97483  0.29211  0.27401  1.0000
  H   H148      1.0  0.28912  0.98825  0.12653  1.0000
  H   H149      1.0  0.41747  0.98436  0.00824  1.0000
  H   H150      1.0  0.03731  0.30315  0.18880  1.0000
  H   H151      1.0  0.33499  0.28017  0.12756  1.0000
  C   C80       1.0  0.16692  0.30459  0.11793  1.0000
  Fe  Fe6       1.0  0.16352  0.98860  0.33650  1.0000
  C   C81       1.0  0.97776  0.29352  0.24937  1.0000
  H   H152      1.0  0.34819  0.30971  0.01177  1.0000
  H   H153      1.0  0.23089  0.29355  0.06769  1.0000
  H   H154      1.0  0.25803  0.07661  0.47001  1.0000
  C   C82       1.0  0.97031  0.27055  0.23199  1.0000
  C   C83       1.0  0.17965  0.29892  0.09041  1.0000
  C   C84       1.0  0.13390  0.26548  0.47877  1.0000
  H   H155      1.0  0.18846  0.28675  0.09741  1.0000
  H   H156      1.0  0.06561  0.30804  0.30455  1.0000
  H   H157      1.0  0.02126  0.30006  0.32104  1.0000
  H   H158      1.0  0.14739  0.28696  0.47522  1.0000
  H   H159      1.0  0.07944  0.30363  0.20344  1.0000
  H   H160      1.0  0.11223  0.30723  0.24350  1.0000
  H   H161      1.0  0.16107  0.13140  0.47757  1.0000
  H   H162      1.0  0.34487  0.97948  0.08701  1.0000
  C   C85       1.0  0.16905  0.11982  0.48851  1.0000
  H   H163      1.0  0.39970  0.11803  0.80146  1.0000
  H   H164      1.0  0.13553  0.10014  0.51968  1.0000
  H   H165      1.0  0.29024  0.00800  0.81337  1.0000
  C   C86       1.0  0.25324  0.10653  0.71074  1.0000
  S   S14       1.0  0.00525  0.16368  0.65146  1.0000
  S   S15       1.0  0.99533  0.22661  0.63776  1.0000
  Fe  Fe7       1.0  0.16033  0.14182  0.62240  1.0000
  S   S16       1.0  0.20331  0.16541  0.61186  1.0000
  S   S17       1.0  0.13941  0.09705  0.62212  1.0000
  Fe  Fe8       1.0  0.15482  0.19104  0.62646  1.0000
  S   S18       1.0  0.19838  0.21802  0.61594  1.0000
  S   S19       1.0  0.12988  0.21098  0.63399  1.0000
  Fe  Fe9       1.0  0.19177  0.18763  0.57915  1.0000
  S   S20       1.0  0.20764  0.18957  0.53055  1.0000
  Fe  Fe10      1.0  0.20605  0.19327  0.64981  1.0000
  S   S21       1.0  0.23794  0.20203  0.68720  1.0000
  S   S22       1.0  0.14834  0.16248  0.58789  1.0000
  S   S23       1.0  0.16289  0.16799  0.66207  1.0000
  Fe  Fe11      1.0  0.19195  0.99990  0.65250  1.0000
  C   C87       1.0  0.15740  0.11245  0.52083  1.0000
  S   S24       1.0  0.20767  0.04388  0.65675  1.0000
  S   S25       1.0  0.45671  0.06200  0.88016  1.0000
  Fe  Fe12      1.0  0.37507  0.07355  0.88537  1.0000
  S   S26       1.0  0.39687  0.07289  0.84298  1.0000
  S   S27       1.0  0.37362  0.11009  0.90375  1.0000
  Fe  Fe13      1.0  0.35805  0.01531  0.90114  1.0000
  S   S28       1.0  0.37834  0.01164  0.85870  1.0000
  H   H166      1.0  0.45847  0.09955  0.93223  1.0000
  Fe  Fe14      1.0  0.41299  0.05142  0.87131  1.0000
  Fe  Fe15      1.0  0.36038  0.03297  0.83395  1.0000
  S   S29       1.0  0.34161  0.02167  0.78541  1.0000
  S   S30       1.0  0.39309  0.05445  0.91461  1.0000
  S   S31       1.0  0.33824  0.03435  0.87542  1.0000
  Fe  Fe16      1.0  0.34424  0.27897  0.82919  1.0000
  S   S32       1.0  0.33054  0.24935  0.86779  1.0000
  S   S33       1.0  0.31919  0.28207  0.78982  1.0000
  Fe  Fe17      1.0  0.36842  0.24832  0.85998  1.0000
  S   S34       1.0  0.37089  0.21076  0.84790  1.0000
  S   S35       1.0  0.38122  0.27710  0.82044  1.0000
  C   C88       1.0  0.37107  0.13693  0.88756  1.0000
  C   C89       1.0  0.37058  0.14057  0.85576  1.0000
  C   C90       1.0  0.37042  0.16311  0.84423  1.0000
  C   C91       1.0  0.37035  0.18228  0.86414  1.0000
  C   C92       1.0  0.37038  0.17839  0.89592  1.0000
  C   C93       1.0  0.37087  0.15602  0.90746  1.0000
  H   H167      1.0  0.37060  0.12617  0.84003  1.0000
  H   H168      1.0  0.37033  0.16573  0.81962  1.0000
  H   H169      1.0  0.37031  0.19279  0.91166  1.0000
  H   H170      1.0  0.37126  0.15359  0.93208  1.0000
  H   H171      1.0  0.41489  0.28761  0.76364  1.0000
  C   C94       1.0  0.21426  0.08991  0.55587  1.0000
  H   H172      1.0  0.22547  0.05482  0.72745  1.0000
  H   H173      1.0  0.18560  0.23513  0.68539  1.0000
  H   H174      1.0  0.14117  0.01172  0.57639  1.0000
  H   H175      1.0  0.41643  0.99726  0.95420  1.0000
  C   C95       1.0  0.43209  0.30733  0.75849  1.0000
  H   H176      1.0  0.42999  0.14385  0.91171  1.0000
  Fe  Fe18      1.0  0.35479  0.28476  0.89921  1.0000
  S   S36       1.0  0.99029  0.23051  0.54771  1.0000
  C   C96       1.0  0.30846  0.00686  0.77089  1.0000
  C   C97       1.0  0.30362  0.99955  0.73955  1.0000
  C   C98       1.0  0.09008  0.19044  0.54190  1.0000
  H   H177      1.0  0.19442  0.27065  0.78065  1.0000
  H   H178      1.0  0.32005  0.00348  0.72477  1.0000
  H   H179      1.0  0.29395  0.98000  0.84841  1.0000
  H   H180      1.0  0.44622  0.19452  0.85370  1.0000
  H   H181      1.0  0.39262  0.29435  0.72300  1.0000
  C   C99       1.0  0.45946  0.20716  0.89948  1.0000
  H   H182      1.0  0.25444  0.11939  0.54058  1.0000
  C   C100      1.0  0.26823  0.05803  0.60982  1.0000
  C   C101      1.0  0.18790  0.05788  0.64777  1.0000
  C   C102      1.0  0.16138  0.04237  0.63901  1.0000
  C   C103      1.0  0.14663  0.05455  0.63108  1.0000
  C   C104      1.0  0.15825  0.08219  0.63219  1.0000
  C   C105      1.0  0.18472  0.09754  0.64107  1.0000
  C   C106      1.0  0.19951  0.08544  0.64857  1.0000
  H   H183      1.0  0.15227  0.02108  0.63836  1.0000
  H   H184      1.0  0.12611  0.04255  0.62437  1.0000
  H   H185      1.0  0.19379  0.11876  0.64251  1.0000
  H   H186      1.0  0.22004  0.09756  0.65500  1.0000
  C   C107      1.0  0.25977  0.22452  0.71616  1.0000
  C   C108      1.0  0.26428  0.25030  0.71987  1.0000
  C   C109      1.0  0.28221  0.26738  0.74266  1.0000
  C   C110      1.0  0.29571  0.25899  0.76246  1.0000
  C   C111      1.0  0.29082  0.23306  0.75910  1.0000
  C   C112      1.0  0.27317  0.21611  0.73606  1.0000
  H   H187      1.0  0.25430  0.25722  0.70485  1.0000
  H   H188      1.0  0.03994  0.15969  0.54612  1.0000
  H   H189      1.0  0.27902  0.00958  0.87417  1.0000
  H   H190      1.0  0.16252  0.13071  0.53418  1.0000
  H   H191      1.0  0.34820  0.30744  0.73156  1.0000
  C   C113      1.0  0.04010  0.17718  0.64787  1.0000
  C   C114      1.0  0.05784  0.20440  0.64885  1.0000
  C   C115      1.0  0.08515  0.21429  0.64459  1.0000
  C   C116      1.0  0.09522  0.19715  0.63963  1.0000
  C   C117      1.0  0.07759  0.16989  0.63934  1.0000
  C   C118      1.0  0.05026  0.16001  0.64369  1.0000
  H   H192      1.0  0.05045  0.21788  0.65260  1.0000
  H   H193      1.0  0.09856  0.23541  0.64511  1.0000
  H   H194      1.0  0.08497  0.15639  0.63582  1.0000
  H   H195      1.0  0.03683  0.13889  0.64333  1.0000
  H   H196      1.0  0.28579  0.28735  0.74483  1.0000
  C   C119      1.0  0.44464  0.18446  0.87585  1.0000
  H   H197      1.0  0.22759  0.04431  0.52216  1.0000
  H   H198      1.0  0.26382  0.06414  0.63229  1.0000
  H   H199      1.0  0.20239  0.08862  0.57661  1.0000
  H   H200      1.0  0.02172  0.20029  0.51799  1.0000
  H   H201      1.0  0.45378  0.16897  0.80792  1.0000
  C   C120      1.0  0.25605  0.98053  0.74609  1.0000
  H   H202      1.0  0.00266  0.13024  0.59476  1.0000
  H   H203      1.0  0.25939  0.10188  0.68851  1.0000
  C   C121      1.0  0.23166  0.13883  0.54678  1.0000
  C   C122      1.0  0.99364  0.13262  0.57335  1.0000
  H   H204      1.0  0.24697  0.13654  0.68941  1.0000
  C   C123      1.0  0.04212  0.20339  0.51652  1.0000
  H   H205      1.0  0.25412  0.07682  0.52715  1.0000
  Fe  Fe19      1.0  0.98005  0.18323  0.64289  1.0000
  H   H206      1.0  0.22603  0.13648  0.52208  1.0000
  H   H207      1.0  0.16506  0.05043  0.54224  1.0000
  H   H208      1.0  0.28369  0.99793  0.91097  1.0000
  H   H209      1.0  0.43616  0.10918  0.89090  1.0000
  H   H210      1.0  0.08470  0.17691  0.56185  1.0000
  C   C124      1.0  0.12003  0.20366  0.53820  1.0000
  C   C125      1.0  0.23204  0.02812  0.75385  1.0000
  H   H211      1.0  0.99557  0.12074  0.55454  1.0000
  H   H212      1.0  0.42332  0.17401  0.88190  1.0000
  H   H213      1.0  0.27442  0.98061  0.70323  1.0000
  H   H214      1.0  0.19574  0.20916  0.71292  1.0000
  H   H215      1.0  0.25165  0.14023  0.73044  1.0000
  H   H216      1.0  0.26034  0.10813  0.75925  1.0000
  H   H217      1.0  0.15807  0.25780  0.67518  1.0000
  C   C126      1.0  0.23918  0.07212  0.58155  1.0000
  H   H218      1.0  0.25234  0.99502  0.90129  1.0000
  H   H219      1.0  0.20011  0.17689  0.74452  1.0000
  H   H220      1.0  0.22765  0.03221  0.59801  1.0000
  N   N6        1.0  0.05190  0.20144  0.54801  1.0000
  C   C127      1.0  0.29367  0.04553  0.68144  1.0000
  C   C128      1.0  0.08131  0.21118  0.54792  1.0000
  C   C129      1.0  0.04718  0.21911  0.56948  1.0000
  C   C130      1.0  0.29703  0.08576  0.82441  1.0000
  H   H221      1.0  0.24500  0.02749  0.77201  1.0000
  C   C131      1.0  0.06289  0.24917  0.56263  1.0000
  H   H222      1.0  0.42553  0.21056  0.91387  1.0000
  H   H223      1.0  0.44297  0.23070  0.88120  1.0000
  C   C132      1.0  0.14648  0.00928  0.55251  1.0000
  C   C133      1.0  0.05910  0.26503  0.58824  1.0000
  H   H224      1.0  0.16417  0.18421  0.72720  1.0000
  H   H225      1.0  0.27719  0.03528  0.72660  1.0000
  H   H226      1.0  0.23024  0.06314  0.76699  1.0000
  C   C134      1.0  0.45682  0.11765  0.93387  1.0000
  H   H227      1.0  0.28519  0.06041  0.77049  1.0000
  N   N7        1.0  0.26654  0.07682  0.74151  1.0000
  H   H228      1.0  0.30879  0.06482  0.72482  1.0000
  H   H229      1.0  0.23434  0.01915  0.73231  1.0000
  H   H230      1.0  0.29217  0.09078  0.84729  1.0000
  C   C135      1.0  0.20355  0.01080  0.76450  1.0000
  H   H231      1.0  0.08439  0.25665  0.56074  1.0000
  H   H232      1.0  0.46697  0.03660  0.82648  1.0000
  H   H233      1.0  0.05580  0.25345  0.54087  1.0000
  H   H234      1.0  0.27447  0.03275  0.66978  1.0000
  H   H235      1.0  0.30418  0.03418  0.68357  1.0000
  H   H236      1.0  0.06602  0.26169  0.61071  1.0000
  H   H237      1.0  0.46358  0.16428  0.92078  1.0000
  H   H238      1.0  0.30096  0.22617  0.77395  1.0000
  H   H239      1.0  0.07058  0.28643  0.58297  1.0000
  H   H240      1.0  0.03795  0.25928  0.59008  1.0000
  C   C136      1.0  0.28691  0.00181  0.78951  1.0000
  H   H241      1.0  0.20608  0.26137  0.71047  1.0000
  N   N8        1.0  0.16676  0.23506  0.72831  1.0000
  H   H242      1.0  0.23201  0.07623  0.60350  1.0000
  H   H243      1.0  0.19816  0.02501  0.56117  1.0000
  H   H244      1.0  0.30534  0.09432  0.76233  1.0000
  C   C137      1.0  0.41997  0.13233  0.79358  1.0000
  H   H245      1.0  0.21503  0.13716  0.56082  1.0000
  H   H246      1.0  0.02600  0.21358  0.56947  1.0000
  C   C138      1.0  0.28462  0.07897  0.76772  1.0000
  H   H247      1.0  0.30584  0.06325  0.66723  1.0000
  C   C139      1.0  0.23807  0.05659  0.74759  1.0000
  C   C140      1.0  0.27805  0.08564  0.79999  1.0000
  H   H248      1.0  0.45657  0.99281  0.86972  1.0000
  C   C141      1.0  0.45384  0.12610  0.90161  1.0000
  H   H249      1.0  0.18201  0.28538  0.69751  1.0000
  H   H250      1.0  0.31310  0.31270  0.92617  1.0000
  S   S37       1.0  0.34753  0.29302  0.94926  1.0000
  C   C142      1.0  0.24503  0.04935  0.58753  1.0000
  H   H251      1.0  0.09145  0.22732  0.53099  1.0000
  H   H252      1.0  0.28653  0.07468  0.60017  1.0000
  H   H253      1.0  0.31776  0.10078  0.81896  1.0000
  H   H254      1.0  0.28008  0.10554  0.80046  1.0000
  H   H255      1.0  0.19238  0.26257  0.63878  1.0000
  C   C143      1.0  0.03703  0.17373  0.56051  1.0000
  H   H256      1.0  0.18500  0.18360  0.77690  1.0000
  H   H257      1.0  0.09026  0.22005  0.57080  1.0000
  C   C144      1.0  0.97486  0.22414  0.51081  1.0000
  H   H258      1.0  0.16357  0.28689  0.79482  1.0000
  H   H259      1.0  0.20176  0.28835  0.74509  1.0000
  H   H260      1.0  0.28945  0.11933  0.73686  1.0000
  H   H261      1.0  0.00304  0.17216  0.58341  1.0000
  H   H262      1.0  0.18875  0.04255  0.58667  1.0000
  H   H263      1.0  0.08067  0.17839  0.52102  1.0000
  H   H264      1.0  0.19926  0.99014  0.76725  1.0000
  H   H265      1.0  0.05418  0.22376  0.50753  1.0000
  H   H266      1.0  0.16785  0.21561  0.77020  1.0000
  H   H267      1.0  0.24891  0.15895  0.55033  1.0000
  H   H268      1.0  0.25770  0.07081  0.80691  1.0000
  H   H269      1.0  0.41577  0.13234  0.85810  1.0000
  H   H270      1.0  0.20164  0.08844  0.53602  1.0000
  H   H271      1.0  0.19247  0.29320  0.64313  1.0000
  C   C145      1.0  0.09547  0.17361  0.72063  1.0000
  H   H272      1.0  0.13110  0.22278  0.70161  1.0000
  H   H273      1.0  0.11393  0.20485  0.75390  1.0000
  H   H274      1.0  0.08104  0.15952  0.73733  1.0000
  H   H275      1.0  0.08594  0.18319  0.70806  1.0000
  H   H276      1.0  0.10050  0.16233  0.70391  1.0000
  C   C146      1.0  0.23884  0.11806  0.55624  1.0000
  C   C147      1.0  0.27574  0.07069  0.71153  1.0000
  H   H277      1.0  0.27956  0.14903  0.70542  1.0000
  C   C148      1.0  0.19482  0.04207  0.56251  1.0000
  C   C149      1.0  0.17057  0.03482  0.54170  1.0000
  H   H278      1.0  0.45087  0.30865  0.80243  1.0000
  H   H279      1.0  0.24723  0.12311  0.57995  1.0000
  C   C150      1.0  0.25825  0.13481  0.70900  1.0000
  H   H280      1.0  0.32614  0.27396  0.69210  1.0000
  H   H281      1.0  0.23160  0.09330  0.71312  1.0000
  C   C151      1.0  0.18333  0.20166  0.73375  1.0000
  H   H282      1.0  0.21774  0.28909  0.66194  1.0000
  C   C152      1.0  0.12022  0.19434  0.73768  1.0000
  H   H283      1.0  0.15009  0.26064  0.73396  1.0000
  H   H284      1.0  0.18952  0.01084  0.74724  1.0000
  C   C153      1.0  0.23213  0.06507  0.52581  1.0000
  C   C154      1.0  0.17934  0.22354  0.74864  1.0000
  H   H285      1.0  0.12576  0.18831  0.53493  1.0000
  H   H286      1.0  0.26989  0.19626  0.73360  1.0000
  C   C155      1.0  0.18529  0.24952  0.70213  1.0000
  H   H287      1.0  0.29541  0.06603  0.82589  1.0000
  H   H288      1.0  0.14828  0.24261  0.76715  1.0000
  C   C156      1.0  0.43618  0.14420  0.84895  1.0000
  C   C157      1.0  0.26834  0.10343  0.73845  1.0000
  H   H289      1.0  0.14456  0.20189  0.69722  1.0000
  C   C158      1.0  0.19815  0.19863  0.49589  1.0000
  C   C159      1.0  0.19714  0.19226  0.75601  1.0000
  C   C160      1.0  0.14098  0.21379  0.71465  1.0000
  H   H290      1.0  0.12804  0.18369  0.75117  1.0000
  C   C161      1.0  0.28914  0.05351  0.71339  1.0000
  H   H291      1.0  0.21685  0.20889  0.76284  1.0000
  H   H292      1.0  0.20044  0.01796  0.78699  1.0000
  C   C162      1.0  0.32364  0.98388  0.98700  1.0000
  H   H293      1.0  0.25899  0.06106  0.69478  1.0000
  C   C163      1.0  0.38394  0.30411  0.73681  1.0000
  C   C164      1.0  0.19655  0.27890  0.65514  1.0000
  H   H294      1.0  0.16553  0.10157  0.53336  1.0000
  N   N9        1.0  0.21999  0.06744  0.55560  1.0000
  H   H295      1.0  0.12934  0.00429  0.53722  1.0000
  C   C165      1.0  0.00687  0.16174  0.56452  1.0000
  C   C166      1.0  0.17884  0.26816  0.68335  1.0000
  H   H296      1.0  0.25858  0.09010  0.57717  1.0000
  S   S38       1.0  0.39165  0.28152  0.89391  1.0000
  H   H297      1.0  0.27170  0.04124  0.61372  1.0000
  H   H298      1.0  0.17130  0.30501  0.75907  1.0000
  C   C167      1.0  0.16136  0.25341  0.74756  1.0000
  H   H299      1.0  0.29071  0.08928  0.70028  1.0000
  H   H300      1.0  0.19931  0.23929  0.75628  1.0000
  H   H301      1.0  0.33673  0.26008  0.72197  1.0000
  C   C168      1.0  0.44873  0.98556  0.89309  1.0000
  C   C169      1.0  0.18604  0.27739  0.76219  1.0000
  H   H302      1.0  0.17447  0.03132  0.51774  1.0000
  H   H303      1.0  0.24992  0.04256  0.56589  1.0000
  C   C170      1.0  0.34372  0.27516  0.70359  1.0000
  H   H304      1.0  0.15052  0.99261  0.55180  1.0000
  H   H305      1.0  0.05172  0.21636  0.59347  1.0000
  H   H306      1.0  0.44304  0.12983  0.84445  1.0000
  H   H307      1.0  0.99725  0.16312  0.54315  1.0000
  C   C171      1.0  0.26947  0.99402  0.89187  1.0000
  H   H308      1.0  0.43687  0.30750  0.73387  1.0000
  H   H309      1.0  0.04523  0.17329  0.58350  1.0000
  C   C172      1.0  0.44535  0.22306  0.90362  1.0000
  H   H310      1.0  0.17871  0.21758  0.51722  1.0000
  C   C173      1.0  0.18445  0.21259  0.49566  1.0000
  H   H311      1.0  0.44850  0.00180  0.90633  1.0000
  H   H312      1.0  0.19068  0.13317  0.49124  1.0000
  C   C174      1.0  0.36109  0.30284  0.71719  1.0000
  H   H313      1.0  0.37469  0.29098  0.75696  1.0000
  H   H314      1.0  0.18754  0.00067  0.50062  1.0000
  H   H315      1.0  0.35487  0.27056  0.68632  1.0000
  H   H316      1.0  0.12270  0.26304  0.50026  1.0000
  H   H317      1.0  0.42212  0.16481  0.81882  1.0000
  C   C175      1.0  0.26090  0.98827  0.77734  1.0000
  N   N10       1.0  0.45395  0.16467  0.87246  1.0000
  C   C176      1.0  0.43398  0.15480  0.81706  1.0000
  H   H318      1.0  0.13031  0.21540  0.55916  1.0000
  S   S39       1.0  0.22381  0.98927  0.64780  1.0000
  H   H319      1.0  0.41841  0.14045  0.77115  1.0000
  C   C177      1.0  0.17884  0.29680  0.77682  1.0000
  C   C178      1.0  0.27770  0.98663  0.72719  1.0000
  H   H320      1.0  0.43119  0.12179  0.79008  1.0000
  C   C179      1.0  0.19224  0.98505  0.50210  1.0000
  H   H321      1.0  0.45701  0.24012  0.91934  1.0000
  H   H322      1.0  0.46075  0.19981  0.92247  1.0000
  C   C180      1.0  0.45023  0.15068  0.90270  1.0000
  H   H323      1.0  0.23301  0.09583  0.49603  1.0000
  H   H324      1.0  0.20317  0.06471  0.49235  1.0000
  C   C181      1.0  0.45544  0.31011  0.77744  1.0000
  H   H325      1.0  0.33026  0.00403  0.98033  1.0000
  C   C182      1.0  0.22474  0.07411  0.49574  1.0000
  H   H326      1.0  0.12667  0.21672  0.51783  1.0000
  H   H327      1.0  0.43925  0.11313  0.94803  1.0000
  Fe  Fe20      1.0  0.97023  0.21487  0.59430  1.0000
  H   H328      1.0  0.45947  0.29402  0.77117  1.0000
  H   H329      1.0  0.24439  0.98364  0.79228  1.0000
  C   C183      1.0  0.04250  0.18489  0.49114  1.0000
  H   H330      1.0  0.19060  0.98345  0.55191  1.0000
  H   H331      1.0  0.03259  0.16401  0.49846  1.0000
  Fe  Fe21      1.0  0.40187  0.31045  0.85514  1.0000
  C   C184      1.0  0.33216  0.30957  0.96699  1.0000
  H   H332      1.0  0.97233  0.12500  0.57771  1.0000
  C   C185      1.0  0.97908  0.61236  0.99729  1.0000
  S   S40       1.0  0.99763  0.60917  0.10560  1.0000
  H   H333      1.0  0.08866  0.52180  0.00325  1.0000
  Fe  Fe22      1.0  0.03311  0.60487  0.11786  1.0000
  S   S41       1.0  0.02602  0.56275  0.12903  1.0000
  S   S42       1.0  0.05876  0.63061  0.07949  1.0000
  Fe  Fe23      1.0  0.02227  0.37135  0.13816  1.0000
  S   S43       1.0  0.03782  0.35529  0.10124  1.0000
  S   S44       1.0  0.00651  0.35286  0.18577  1.0000
  Fe  Fe24      1.0  0.04043  0.42484  0.10390  1.0000
  S   S45       1.0  0.05778  0.41133  0.06640  1.0000
  S   S46       1.0  0.04567  0.46619  0.09193  1.0000
  Fe  Fe25      1.0  0.01990  0.37206  0.06782  1.0000
  S   S47       1.0  0.00246  0.35964  0.01873  1.0000
  Fe  Fe26      1.0  0.07430  0.39588  0.10243  1.0000
  S   S48       1.0  0.11885  0.40917  0.10762  1.0000
  S   S49       1.0  0.00226  0.38572  0.10472  1.0000
  S   S50       1.0  0.05923  0.41167  0.14006  1.0000
  Fe  Fe27      1.0  0.31370  0.42283  0.09879  1.0000
  S   S51       1.0  0.28473  0.40602  0.05874  1.0000
  S   S52       1.0  0.34719  0.46674  0.09329  1.0000
  Fe  Fe28      1.0  0.28437  0.36901  0.13207  1.0000
  S   S53       1.0  0.25529  0.34957  0.09352  1.0000
  S   S54       1.0  0.28348  0.34767  0.17686  1.0000
  Fe  Fe29      1.0  0.29009  0.37044  0.06153  1.0000
  S   S55       1.0  0.29398  0.35348  0.01484  1.0000
  Fe  Fe30      1.0  0.25181  0.38643  0.09343  1.0000
  S   S56       1.0  0.20783  0.37563  0.08875  1.0000
  S   S57       1.0  0.31990  0.38765  0.10020  1.0000
  S   S58       1.0  0.28009  0.40541  0.13350  1.0000
  H   H334      1.0  0.20339  0.33782  0.13351  1.0000
  H   H335      1.0  0.46701  0.53233  0.02035  1.0000
  H   H336      1.0  0.31718  0.32748  0.09068  1.0000
  H   H337      1.0  0.33941  0.32159  0.15248  1.0000
  C   C186      1.0  0.38098  0.49141  0.10180  1.0000
  C   C187      1.0  0.39204  0.51627  0.08742  1.0000
  C   C188      1.0  0.41836  0.53652  0.09354  1.0000
  C   C189      1.0  0.43421  0.53253  0.11459  1.0000
  C   C190      1.0  0.42328  0.50763  0.12878  1.0000
  C   C191      1.0  0.39702  0.48725  0.12241  1.0000
  H   H338      1.0  0.38007  0.51985  0.07129  1.0000
  H   H339      1.0  0.42634  0.55516  0.08189  1.0000
  H   H340      1.0  0.43515  0.50406  0.14507  1.0000
  H   H341      1.0  0.38907  0.46841  0.13379  1.0000
  H   H342      1.0  0.18430  0.36208  0.15135  1.0000
  H   H343      1.0  0.08410  0.35915  0.20002  1.0000
  C   C192      1.0  0.16075  0.35703  0.19205  1.0000
  S   S59       1.0  0.04860  0.63970  0.15125  1.0000
  C   C193      1.0  0.01159  0.42902  0.01911  1.0000
  C   C194      1.0  0.18348  0.38550  0.09426  1.0000
  C   C195      1.0  0.15696  0.36781  0.08592  1.0000
  C   C196      1.0  0.13692  0.37445  0.09005  1.0000
  C   C197      1.0  0.14302  0.39900  0.10268  1.0000
  C   C198      1.0  0.16949  0.41659  0.11129  1.0000
  C   C199      1.0  0.18953  0.40995  0.10714  1.0000
  H   H344      1.0  0.15190  0.34889  0.07578  1.0000
  H   H345      1.0  0.11680  0.36069  0.08310  1.0000
  H   H346      1.0  0.17461  0.43563  0.12110  1.0000
  H   H347      1.0  0.20970  0.42382  0.11381  1.0000
  H   H348      1.0  0.43862  0.50297  0.05752  1.0000
  C   C200      1.0  0.03196  0.53626  0.11822  1.0000
  C   C201      1.0  0.02050  0.51286  0.13566  1.0000
  C   C202      1.0  0.02447  0.49140  0.12818  1.0000
  C   C203      1.0  0.03985  0.49274  0.10278  1.0000
  C   C204      1.0  0.05100  0.51600  0.08503  1.0000
  C   C205      1.0  0.04737  0.53760  0.09281  1.0000
  H   H349      1.0  0.00859  0.51138  0.15541  1.0000
  H   H350      1.0  0.01565  0.47386  0.14220  1.0000
  H   H351      1.0  0.06291  0.51756  0.06532  1.0000
  H   H352      1.0  0.05660  0.55539  0.07925  1.0000
  H   H353      1.0  0.21918  0.37875  0.18240  1.0000
  N   N11       1.0  0.01235  0.55277  0.00929  1.0000
  H   H354      1.0  0.08971  0.47097  0.14616  1.0000
  H   H355      1.0  0.43698  0.55983  0.18833  1.0000
  H   H356      1.0  0.05704  0.34937  0.17352  1.0000
  H   H357      1.0  0.01188  0.41796  0.03962  1.0000
  H   H358      1.0  0.08409  0.32537  0.23438  1.0000
  H   H359      1.0  0.17741  0.36765  0.20850  1.0000
  C   C206      1.0  0.32473  0.32889  0.01381  1.0000
  N   N12       1.0  0.42731  0.61418  0.13632  1.0000
  C   C207      1.0  0.40238  0.60893  0.15267  1.0000
  S   S60       1.0  0.01041  0.63104  0.01625  1.0000
  C   C208      1.0  0.42021  0.60669  0.10283  1.0000
  C   C209      1.0  0.43832  0.59761  0.14886  1.0000
  H   H360      1.0  0.15845  0.31666  0.10949  1.0000
  C   C210      1.0  0.37942  0.57982  0.15236  1.0000
  C   C211      1.0  0.44366  0.61348  0.08088  1.0000
  H   H361      1.0  0.42480  0.61835  0.04004  1.0000
  C   C212      1.0  0.06952  0.34265  0.18528  1.0000
  H   H362      1.0  0.32837  0.33362  0.03802  1.0000
  C   C213      1.0  0.35618  0.57678  0.17157  1.0000
  C   C214      1.0  0.43425  0.60685  0.04746  1.0000
  H   H363      1.0  0.41997  0.58541  0.04465  1.0000
  H   H364      1.0  0.19143  0.33901  0.21922  1.0000
  N   N13       1.0  0.17725  0.32567  0.17266  1.0000
  H   H365      1.0  0.39474  0.62128  0.14245  1.0000
  C   C215      1.0  0.07303  0.62444  0.00137  1.0000
  H   H366      1.0  0.40665  0.58504  0.10018  1.0000
  H   H367      1.0  0.42497  0.57634  0.14322  1.0000
  H   H368      1.0  0.44583  0.48680  0.02679  1.0000
  H   H369      1.0  0.42715  0.59667  0.19767  1.0000
  H   H370      1.0  0.24899  0.35901  0.22272  1.0000
  H   H371      1.0  0.37185  0.57307  0.12865  1.0000
  H   H372      1.0  0.38580  0.56640  0.16212  1.0000
  H   H373      1.0  0.23443  0.36040  0.16877  1.0000
  C   C216      1.0  0.98359  0.41551  0.00433  1.0000
  H   H374      1.0  0.16599  0.43719  0.01349  1.0000
  H   H375      1.0  0.06689  0.33119  0.27607  1.0000
  H   H376      1.0  0.36036  0.36752  0.10681  1.0000
  H   H377      1.0  0.45583  0.58193  0.21945  1.0000
  H   H378      1.0  0.26163  0.39201  0.20865  1.0000
  H   H379      1.0  0.98586  0.44364  0.05531  1.0000
  H   H380      1.0  0.05181  0.43981  0.00763  1.0000
  C   C217      1.0  0.25860  0.31816  0.19464  1.0000
  H   H381      1.0  0.45146  0.61214  0.03233  1.0000
  C   C218      1.0  0.19900  0.33673  0.19658  1.0000
  H   H382      1.0  0.36224  0.58221  0.19601  1.0000
  C   C219      1.0  0.99245  0.32076  0.20265  1.0000
  H   H383      1.0  0.43151  0.46654  0.09321  1.0000
  H   H384      1.0  0.30508  0.33151  0.12651  1.0000
  H   H385      1.0  0.37748  0.36471  0.13984  1.0000
  H   H386      1.0  0.19775  0.56517  0.05863  1.0000
  H   H387      1.0  0.15134  0.33622  0.14876  1.0000
  C   C220      1.0  0.99702  0.54029  0.03829  1.0000
  H   H388      1.0  0.36042  0.38478  0.02317  1.0000
  H   H389      1.0  0.01810  0.44969  0.02609  1.0000
  H   H390      1.0  0.11493  0.50538  0.14882  1.0000
  H   H391      1.0  0.40938  0.61641  0.09365  1.0000
  H   H392      1.0  0.14600  0.38402  0.20072  1.0000
  H   H393      1.0  0.04605  0.58106  0.03618  1.0000
  H   H394      1.0  0.16983  0.39403  0.17025  1.0000
  H   H395      1.0  0.04680  0.33418  0.32487  1.0000
  H   H396      1.0  0.20790  0.56147  0.02064  1.0000
  H   H397      1.0  0.40637  0.61513  0.17719  1.0000
  H   H398      1.0  0.08546  0.62220  0.01912  1.0000
  C   C221      1.0  0.15272  0.37678  0.18094  1.0000
  H   H399      1.0  0.13632  0.36747  0.16384  1.0000
  C   C222      1.0  0.43032  0.46392  0.06778  1.0000
  H   H400      1.0  0.04186  0.54138  0.01707  1.0000
  C   C223      1.0  0.44449  0.60025  0.18379  1.0000
  H   H401      1.0  0.00008  0.57249  0.06672  1.0000
  H   H402      1.0  0.16649  0.43786  0.05483  1.0000
  C   C224      1.0  0.39710  0.39780  0.99772  1.0000
  H   H403      1.0  0.33994  0.55587  0.17065  1.0000
  H   H404      1.0  0.08009  0.33789  0.16737  1.0000
  C   C225      1.0  0.09715  0.50856  0.00199  1.0000
  C   C226      1.0  0.22401  0.36325  0.18846  1.0000
  H   H405      1.0  0.14367  0.34126  0.20449  1.0000
  C   C227      1.0  0.35770  0.35896  0.13018  1.0000
  H   H406      1.0  0.11823  0.48098  0.17054  1.0000
  H   H407      1.0  0.00369  0.49867  0.02086  1.0000
  C   C228      1.0  0.30893  0.33638  0.99737  1.0000
  H   H408      1.0  0.21165  0.54390  0.05236  1.0000
  H   H409      1.0  0.23454  0.37854  0.23545  1.0000
  H   H410      1.0  0.28042  0.31921  0.06760  1.0000
  H   H411      1.0  0.00984  0.53821  0.05570  1.0000
  C   C229      1.0  0.00805  0.50732  0.99742  1.0000
  H   H412      1.0  0.97484  0.47283  0.08626  1.0000
  C   C230      1.0  0.24338  0.37375  0.21557  1.0000
  C   C231      1.0  0.03214  0.43050  0.99625  1.0000
  C   C232      1.0  0.98867  0.31835  0.23479  1.0000
  H   H413      1.0  0.45329  0.60190  0.08689  1.0000
  H   H414      1.0  0.43675  0.44961  0.06123  1.0000
  H   H415      1.0  0.34858  0.58942  0.16240  1.0000
  N   N14       1.0  0.13195  0.48700  0.06238  1.0000
  C   C233      1.0  0.11613  0.48556  0.03417  1.0000
  C   C234      1.0  0.13722  0.46421  0.06139  1.0000
  C   C235      1.0  0.11490  0.48326  0.09018  1.0000
  C   C236      1.0  0.15744  0.51309  0.06574  1.0000
  C   C237      1.0  0.17118  0.52770  0.03565  1.0000
  C   C238      1.0  0.10482  0.50458  0.03432  1.0000
  C   C239      1.0  0.12612  0.48097  0.12168  1.0000
  C   C240      1.0  0.15362  0.46329  0.03393  1.0000
  C   C241      1.0  0.15537  0.43807  0.03423  1.0000
  C   C242      1.0  0.19880  0.55097  0.04236  1.0000
  H   H416      1.0  0.03966  0.49817  0.99196  1.0000
  C   C243      1.0  0.11131  0.48482  0.14838  1.0000
  H   H417      1.0  0.09897  0.46516  0.03126  1.0000
  H   H418      1.0  0.12781  0.48910  0.01290  1.0000
  H   H419      1.0  0.14814  0.46413  0.08237  1.0000
  H   H420      1.0  0.11813  0.44514  0.06157  1.0000
  H   H421      1.0  0.09520  0.46518  0.08731  1.0000
  H   H422      1.0  0.11087  0.49990  0.09245  1.0000
  H   H423      1.0  0.15425  0.52747  0.07943  1.0000
  H   H424      1.0  0.17204  0.51037  0.07943  1.0000
  H   H425      1.0  0.15968  0.53577  0.02445  1.0000
  H   H426      1.0  0.17317  0.51463  0.01868  1.0000
  H   H427      1.0  0.08672  0.49604  0.04855  1.0000
  H   H428      1.0  0.11904  0.52418  0.04430  1.0000
  H   H429      1.0  0.14737  0.49584  0.12426  1.0000
  H   H430      1.0  0.12376  0.46099  0.12398  1.0000
  H   H431      1.0  0.14478  0.46369  0.01152  1.0000
  H   H432      1.0  0.17416  0.48005  0.03554  1.0000
  H   H433      1.0  0.13535  0.42023  0.03431  1.0000
  H   H434      1.0  0.08215  0.48933  0.99178  1.0000
  H   H435      1.0  0.04158  0.32419  0.22152  1.0000
  H   H436      1.0  0.99413  0.33587  0.24853  1.0000
  C   C244      1.0  0.03516  0.31800  0.30809  1.0000
  C   C245      1.0  0.03320  0.58085  0.01702  1.0000
  S   S61       1.0  0.46759  0.55768  0.12400  1.0000
  C   C246      1.0  0.45259  0.58036  0.19414  1.0000
  C   C247      1.0  0.16868  0.34536  0.16461  1.0000
  Fe  Fe31      1.0  0.02321  0.63484  0.06737  1.0000
  C   C248      1.0  0.05377  0.31273  0.28849  1.0000
  C   C249      1.0  0.05104  0.59747  0.99015  1.0000
  H   H437      1.0  0.40936  0.45576  0.06075  1.0000
  C   C250      1.0  0.02605  0.53772  1.00000  1.0000
  H   H438      1.0  0.02400  0.59221  0.02575  1.0000
  C   C251      1.0  0.37992  0.40289  0.02012  1.0000
  H   H439      1.0  0.35139  0.32166  0.11398  1.0000
  H   H440      1.0  0.34835  0.36736  0.14533  1.0000
  H   H441      1.0  0.27913  0.32761  0.23826  1.0000
  C   C252      1.0  0.98442  0.55499  0.05438  1.0000
  H   H442      1.0  0.02366  0.32412  0.29331  1.0000
  H   H443      1.0  0.45708  0.60256  0.13721  1.0000
  H   H444      1.0  0.45877  0.63475  0.08188  1.0000
  C   C253      1.0  0.33608  0.31543  0.99877  1.0000
  H   H445      1.0  0.10039  0.31565  0.27726  1.0000
  H   H446      1.0  0.98049  0.39664  0.99404  1.0000
  C   C254      1.0  0.26193  0.31316  0.22553  1.0000
  C   C255      1.0  0.97138  0.34139  0.99907  1.0000
  H   H447      1.0  0.97459  0.56159  0.03767  1.0000
  C   C256      1.0  0.34076  0.32886  0.12870  1.0000
  H   H448      1.0  0.38977  0.40883  0.04298  1.0000
  H   H449      1.0  0.20613  0.32260  0.20088  1.0000
  C   C257      1.0  0.44781  0.64336  0.13790  1.0000
  C   C258      1.0  0.18751  0.31936  0.14390  1.0000
  H   H450      1.0  0.46136  0.62016  0.18914  1.0000
  C   C259      1.0  0.44737  0.49037  0.05195  1.0000
  H   H451      1.0  0.97317  0.53065  0.09558  1.0000
  H   H452      1.0  0.06454  0.63618  0.01111  1.0000
  C   C260      1.0  0.05201  0.31835  0.20466  1.0000
  C   C261      1.0  0.31322  0.32016  0.11467  1.0000
  H   H453      1.0  0.37669  0.41893  0.01156  1.0000
  H   H454      1.0  0.40146  0.38334  0.00881  1.0000
  H   H455      1.0  0.97142  0.40030  0.06907  1.0000
  H   H456      1.0  0.19522  0.31770  0.08032  1.0000
  H   H457      1.0  0.97173  0.45131  0.02332  1.0000
  H   H458      1.0  0.98062  0.51996  0.03331  1.0000
  H   H459      1.0  0.41581  0.41670  0.99463  1.0000
  H   H460      1.0  0.03914  0.60125  0.97314  1.0000
  H   H461      1.0  0.39257  0.37350  0.89240  1.0000
  C   C262      1.0  0.39156  0.34192  0.76842  1.0000
  C   C263      1.0  0.42882  0.33678  0.94415  1.0000
  C   C264      1.0  0.43843  0.36068  0.66872  1.0000
  C   C265      1.0  0.39503  0.37693  0.80626  1.0000
  H   H462      1.0  0.37641  0.34419  0.75547  1.0000
  C   C266      1.0  0.99979  0.54994  0.95089  1.0000
  H   H463      1.0  0.97302  0.53534  0.98881  1.0000
  C   C267      1.0  0.34468  0.36510  0.87600  1.0000
  H   H464      1.0  0.38061  0.32756  0.78711  1.0000
  C   C268      1.0  0.99337  0.55220  0.98510  1.0000
  C   C269      1.0  0.42572  0.32941  0.76690  1.0000
  H   H465      1.0  0.06068  0.58760  0.97858  1.0000
  H   H466      1.0  0.34353  0.36953  0.92467  1.0000
  H   H467      1.0  0.32883  0.37000  0.87217  1.0000
  H   H468      1.0  0.33541  0.34324  0.87647  1.0000
  H   H469      1.0  0.11479  0.51784  0.98692  1.0000
  H   H470      1.0  0.35871  0.37301  0.85655  1.0000
  H   H471      1.0  0.41862  0.38496  0.76599  1.0000
  C   C270      1.0  0.42232  0.40875  0.93253  1.0000
  H   H472      1.0  0.45345  0.38082  0.67666  1.0000
  H   H473      1.0  0.36687  0.39884  0.90533  1.0000
  C   C271      1.0  0.02156  0.49477  0.97960  1.0000
  H   H474      1.0  0.43302  0.40544  0.91344  1.0000
  H   H475      1.0  0.44296  0.34683  0.96340  1.0000
  H   H476      1.0  0.39050  0.34683  0.96316  1.0000
  C   C272      1.0  0.97027  0.34505  0.96717  1.0000
  H   H477      1.0  0.97685  0.64310  0.89476  1.0000
  H   H478      1.0  0.40748  0.34461  0.90974  1.0000
  H   H479      1.0  0.43855  0.33052  0.92673  1.0000
  H   H480      1.0  0.36928  0.34808  0.91650  1.0000
  C   C273      1.0  0.45898  0.39773  0.85497  1.0000
  S   S62       1.0  0.44545  0.34421  0.85066  1.0000
  H   H481      1.0  0.40900  0.42641  0.89779  1.0000
  C   C274      1.0  0.41774  0.43119  0.92128  1.0000
  N   N15       1.0  0.39815  0.38311  0.94121  1.0000
  H   H482      1.0  0.38787  0.36300  0.82579  1.0000
  H   H483      1.0  0.98815  0.35872  0.95527  1.0000
  H   H484      1.0  0.36463  0.36746  0.97147  1.0000
  H   H485      1.0  0.02718  0.41044  0.98825  1.0000
  C   C275      1.0  0.97791  0.61294  0.96490  1.0000
  S   S63       1.0  0.36585  0.31445  0.86131  1.0000
  H   H486      1.0  0.98625  0.57523  0.93110  1.0000
  H   H487      1.0  0.37795  0.37673  0.79473  1.0000
  H   H488      1.0  0.99656  0.52989  0.94591  1.0000
  H   H489      1.0  0.42656  0.36941  0.79654  1.0000
  H   H490      1.0  0.40324  0.35530  0.71121  1.0000
  H   H491      1.0  0.40837  0.39711  0.81553  1.0000
  C   C276      1.0  0.40742  0.36483  0.95310  1.0000
  C   C277      1.0  0.41752  0.35016  0.72155  1.0000
  C   C278      1.0  0.41010  0.36929  0.78365  1.0000
  H   H492      1.0  0.41975  0.32591  0.79150  1.0000
  C   C279      1.0  0.35881  0.37728  0.90645  1.0000
  C   C280      1.0  0.38046  0.36996  0.91350  1.0000
  H   H493      1.0  0.44463  0.34864  0.76705  1.0000
  C   C281      1.0  0.30492  0.33037  0.96565  1.0000
  H   H494      1.0  0.43915  0.37225  0.91997  1.0000
  H   H495      1.0  0.44033  0.47277  0.90958  1.0000
  C   C282      1.0  0.38257  0.38676  0.96657  1.0000
  H   H496      1.0  0.43675  0.41640  0.95195  1.0000
  H   H497      1.0  0.43407  0.36930  0.73019  1.0000
  H   H498      1.0  0.43804  0.39080  0.85508  1.0000
  C   C283      1.0  0.42088  0.35542  0.92928  1.0000
  H   H499      1.0  0.42202  0.37444  0.97210  1.0000
  H   H500      1.0  0.40478  0.43463  0.93688  1.0000
  H   H501      1.0  0.45285  0.46375  0.94247  1.0000
  H   H502      1.0  0.03661  0.54495  0.97792  1.0000
  N   N16       1.0  0.40491  0.33120  0.74780  1.0000
  H   H503      1.0  0.98417  0.42775  0.98452  1.0000
  H   H504      1.0  0.37487  0.39981  0.95937  1.0000
  H   H505      1.0  0.02681  0.50302  0.95604  1.0000
  H   H506      1.0  0.02048  0.56432  0.94502  1.0000
  C   C284      1.0  0.44387  0.45725  0.91922  1.0000
  H   H507      1.0  0.98362  0.61780  0.84197  1.0000
  H   H508      1.0  0.99125  0.57007  0.98751  1.0000
  C   C285      1.0  0.42938  0.34126  0.69545  1.0000
  H   H509      1.0  0.29272  0.33598  0.95262  1.0000
  H   H510      1.0  0.36861  0.31680  0.69772  1.0000
  H   H511      1.0  0.41490  0.32156  0.68602  1.0000
  C   C286      1.0  0.46770  0.37934  0.85346  1.0000
  H   H512      1.0  0.42138  0.36137  0.65841  1.0000
  H   H513      1.0  0.99592  0.62475  0.95221  1.0000
  H   H514      1.0  0.03327  0.44251  0.97601  1.0000
  H   H515      1.0  0.98900  0.50185  0.98592  1.0000
  H   H516      1.0  0.41111  0.31887  0.95291  1.0000
  H   H517      1.0  0.45797  0.45511  0.90398  1.0000
  H   H518      1.0  0.00795  0.47320  0.97744  1.0000
  H   H519      1.0  0.44744  0.35423  0.65060  1.0000
  H   H520      1.0  0.44706  0.34089  0.70405  1.0000
  C   C287      1.0  0.98190  0.55450  0.92913  1.0000
  C   C288      1.0  0.31651  0.31719  0.95052  1.0000
  H   H521      1.0  0.08582  0.63557  0.98175  1.0000
  H   H522      1.0  0.98548  0.55084  0.90496  1.0000
  H   H523      1.0  0.19666  0.31343  0.78776  1.0000
  S   S64       1.0  0.16018  0.95595  0.30492  1.0000
  Fe  Fe32      1.0  0.14614  0.92996  0.34658  1.0000
  S   S65       1.0  0.11697  0.88590  0.34571  1.0000
  S   S66       1.0  0.18665  0.93949  0.36287  1.0000
  S   S67       1.0  0.99507  0.82593  0.31155  1.0000
  S   S68       1.0  0.99464  0.76376  0.34781  1.0000
  Fe  Fe33      1.0  0.07188  0.66604  0.11160  1.0000
  S   S69       1.0  0.11080  0.70291  0.12834  1.0000
  S   S70       1.0  0.03857  0.67207  0.09602  1.0000
  C   C289      1.0  0.18998  0.77654  0.09884  1.0000
  C   C290      1.0  0.18087  0.77359  0.12921  1.0000
  C   C291      1.0  0.15663  0.75113  0.13762  1.0000
  C   C292      1.0  0.14082  0.73137  0.11585  1.0000
  C   C293      1.0  0.14967  0.73461  0.08540  1.0000
  C   C294      1.0  0.17408  0.75686  0.07709  1.0000
  H   H524      1.0  0.15024  0.74893  0.16129  1.0000
  H   H525      1.0  0.13797  0.71972  0.06831  1.0000
  C   C295      1.0  0.99293  0.67547  0.20038  1.0000
  C   C296      1.0  0.08390  0.87075  0.33290  1.0000
  C   C297      1.0  0.07057  0.84344  0.32728  1.0000
  C   C298      1.0  0.04350  0.82976  0.32025  1.0000
  C   C299      1.0  0.02946  0.84328  0.31867  1.0000
  C   C300      1.0  0.04296  0.87081  0.32313  1.0000
  C   C301      1.0  0.07015  0.88455  0.33042  1.0000
  H   H526      1.0  0.08123  0.83277  0.32851  1.0000
  H   H527      1.0  0.03356  0.80878  0.31574  1.0000
  H   H528      1.0  0.03226  0.88144  0.32167  1.0000
  H   H529      1.0  0.08031  0.90564  0.33473  1.0000
  N   N17       1.0  0.08281  0.74547  0.20662  1.0000
  C   C302      1.0  0.06182  0.73860  0.18236  1.0000
  C   C303      1.0  0.10652  0.77189  0.19899  1.0000
  C   C304      1.0  0.09156  0.72518  0.20742  1.0000
  C   C305      1.0  0.06956  0.69616  0.21243  1.0000
  C   C306      1.0  0.06861  0.73352  0.14941  1.0000
  C   C307      1.0  0.12823  0.78462  0.22432  1.0000
  C   C308      1.0  0.08140  0.67810  0.21496  1.0000
  C   C309      1.0  0.04826  0.73195  0.12605  1.0000
  H   H530      1.0  0.05710  0.75476  0.18057  1.0000
  H   H531      1.0  0.04294  0.72085  0.18906  1.0000
  H   H532      1.0  0.10033  0.78642  0.19262  1.0000
  H   H533      1.0  0.11662  0.77005  0.17820  1.0000
  H   H534      1.0  0.10213  0.72576  0.18586  1.0000
  H   H535      1.0  0.05517  0.68888  0.19305  1.0000
  H   H536      1.0  0.08819  0.74942  0.14181  1.0000
  H   H537      1.0  0.06865  0.71458  0.14840  1.0000
  H   H538      1.0  0.13627  0.77157  0.23016  1.0000
  H   H539      1.0  0.09501  0.68386  0.23505  1.0000
  H   H540      1.0  0.02832  0.71523  0.13147  1.0000
  H   H541      1.0  0.04761  0.75061  0.12597  1.0000
  H   H542      1.0  0.05377  0.72876  0.10261  1.0000
  N   N18       1.0  0.07208  0.81918  0.41662  1.0000
  C   C310      1.0  0.05594  0.79561  0.39586  1.0000
  C   C311      1.0  0.06285  0.83914  0.41356  1.0000
  C   C312      1.0  0.10044  0.83224  0.40587  1.0000
  C   C313      1.0  0.07155  0.81132  0.44979  1.0000
  C   C314      1.0  0.06426  0.77422  0.39512  1.0000
  C   C315      1.0  0.11990  0.85908  0.42159  1.0000
  C   C316      1.0  0.04460  0.74999  0.37643  1.0000
  C   C317      1.0  0.14819  0.86943  0.41049  1.0000
  H   H543      1.0  0.05664  0.80230  0.37177  1.0000
  H   H544      1.0  0.06891  0.85244  0.43410  1.0000
  H   H545      1.0  0.07276  0.85241  0.39372  1.0000
  H   H546      1.0  0.10143  0.83574  0.38057  1.0000
  H   H547      1.0  0.10886  0.81911  0.40959  1.0000
  H   H548      1.0  0.08381  0.80180  0.45280  1.0000
  H   H549      1.0  0.08383  0.78196  0.38406  1.0000
  H   H550      1.0  0.06524  0.76752  0.41865  1.0000
  H   H551      1.0  0.12008  0.85716  0.44692  1.0000
  H   H552      1.0  0.11445  0.87427  0.41616  1.0000
  H   H553      1.0  0.05111  0.73510  0.37600  1.0000
  H   H554      1.0  0.14936  0.87188  0.38510  1.0000
  H   H555      1.0  0.16150  0.88902  0.42124  1.0000
  H   H556      1.0  0.15530  0.85569  0.41693  1.0000
  C   C318      1.0  0.03297  0.82838  0.40761  1.0000
  H   H557      1.0  0.02464  0.74079  0.38694  1.0000
  H   H558      1.0  0.12048  0.78876  0.24565  1.0000
  H   H559      1.0  0.09244  0.67912  0.19372  1.0000
  H   H560      1.0  0.03471  0.78550  0.40209  1.0000
  C   C319      1.0  0.07142  0.74621  0.23754  1.0000
  H   H561      1.0  0.05874  0.69400  0.23410  1.0000
  H   H562      1.0  0.04678  0.76382  0.22670  1.0000
  H   H563      1.0  0.10619  0.72994  0.22624  1.0000
  H   H564      1.0  0.02725  0.81908  0.38439  1.0000
  H   H565      1.0  0.08510  0.74799  0.25646  1.0000
  H   H566      1.0  0.05289  0.72724  0.24175  1.0000
  H   H567      1.0  0.08033  0.78787  0.23652  1.0000
  C   C320      1.0  0.02638  0.85059  0.40857  1.0000
  H   H568      1.0  0.02047  0.81351  0.42466  1.0000
  C   C321      1.0  0.06375  0.76793  0.24186  1.0000
  H   H569      1.0  0.04923  0.78377  0.27731  1.0000
  C   C322      1.0  0.05536  0.76866  0.27501  1.0000
  H   H570      1.0  0.07200  0.77385  0.29123  1.0000
  H   H571      1.0  0.03836  0.74920  0.28141  1.0000
  H   H572      1.0  0.23008  0.95546  0.09236  1.0000
  S   S71       1.0  0.14545  0.96099  0.37645  1.0000
  H   H573      1.0  0.11076  0.91611  0.44906  1.0000
  H   H574      1.0  0.03825  0.86593  0.39133  1.0000
  Fe  Fe34      1.0  0.20083  0.96650  0.32183  1.0000
  H   H575      1.0  0.14119  0.94483  0.46140  1.0000
  H   H576      1.0  0.18078  0.75875  0.05356  1.0000
  C   C323      1.0  0.13077  0.92299  0.45877  1.0000
  H   H577      1.0  0.03031  0.85979  0.43185  1.0000
  H   H578      1.0  0.00514  0.84242  0.40289  1.0000
  H   H579      1.0  0.20094  0.91170  0.28115  1.0000
  C   C324      1.0  0.15137  0.81083  0.21346  1.0000
  C   C325      1.0  0.00108  0.66763  0.22662  1.0000
  C   C326      1.0  0.98866  0.69389  0.25998  1.0000
  C   C327      1.0  0.99884  0.67670  0.25616  1.0000
  H   H580      1.0  0.16058  0.80768  0.19268  1.0000
  H   H581      1.0  0.37960  0.89066  0.04672  1.0000
  C   C328      1.0  0.26037  0.94791  0.13940  1.0000
  C   C329      1.0  0.44841  0.65911  0.16715  1.0000
  H   H582      1.0  0.32163  0.86050  0.02559  1.0000
  H   H583      1.0  0.27194  0.97536  0.24360  1.0000
  H   H584      1.0  0.19275  0.78833  0.14634  1.0000
  H   H585      1.0  0.04338  0.75553  0.35230  1.0000
  C   C330      1.0  0.30607  0.93159  0.00496  1.0000
  H   H586      1.0  0.08091  0.82911  0.46497  1.0000
  H   H587      1.0  0.00475  0.67004  0.27624  1.0000
  H   H588      1.0  0.03273  0.77436  0.45012  1.0000
  C   C331      1.0  0.34244  0.83743  0.24370  1.0000
  H   H589      1.0  0.34721  0.82139  0.24714  1.0000
  H   H590      1.0  0.16667  0.81957  0.23187  1.0000
  H   H591      1.0  0.26110  0.93155  0.15141  1.0000
  H   H592      1.0  0.20723  0.87977  0.24912  1.0000
  H   H593      1.0  0.14465  0.82509  0.20809  1.0000
  H   H594      1.0  0.43428  0.95688  0.01867  1.0000
  H   H595      1.0  0.03264  0.80292  0.46619  1.0000
  C   C332      1.0  0.30701  0.81767  0.28487  1.0000
  C   C333      1.0  0.32503  0.80753  0.17897  1.0000
  H   H596      1.0  0.97693  0.69937  0.18412  1.0000
  H   H597      1.0  0.20624  0.94634  0.45624  1.0000
  H   H598      1.0  0.24773  0.95758  0.18063  1.0000
  H   H599      1.0  0.16908  0.88312  0.17440  1.0000
  C   C334      1.0  0.44579  0.94165  0.05676  1.0000
  H   H600      1.0  0.20780  0.92012  0.09028  1.0000
  H   H601      1.0  0.36327  0.92669  0.23005  1.0000
  H   H602      1.0  0.06534  0.65737  0.21809  1.0000
  C   C335      1.0  0.37010  0.95818  0.05304  1.0000
  S   S72       1.0  0.99333  0.66330  0.16256  1.0000
  H   H603      1.0  0.30189  0.80419  0.13797  1.0000
  H   H604      1.0  0.18899  0.85441  0.16484  1.0000
  H   H605      1.0  0.17735  0.92785  0.12774  1.0000
  H   H606      1.0  0.43063  0.66138  0.16758  1.0000
  C   C336      1.0  0.33915  0.86262  0.03819  1.0000
  H   H607      1.0  0.20114  0.94294  0.04701  1.0000
  H   H608      1.0  0.28249  0.79039  0.17237  1.0000
  N   N19       1.0  0.21173  0.93461  0.15408  1.0000
  H   H609      1.0  0.16661  0.88614  0.13329  1.0000
  H   H610      1.0  0.18449  0.85631  0.12389  1.0000
  H   H611      1.0  0.17215  0.92766  0.07084  1.0000
  H   H612      1.0  0.41616  0.83779  0.22011  1.0000
  C   C337      1.0  0.31250  0.82476  0.25086  1.0000
  C   C338      1.0  0.19858  0.93609  0.18341  1.0000
  C   C339      1.0  0.21772  0.91877  0.26593  1.0000
  H   H613      1.0  0.35300  0.95648  0.03982  1.0000
  C   C340      1.0  0.19919  0.94083  0.12748  1.0000
  H   H614      1.0  0.31199  0.83465  0.19338  1.0000
  H   H615      1.0  0.40908  0.88650  0.21935  1.0000
  S   S73       1.0  0.22123  0.80369  0.08687  1.0000
  H   H616      1.0  0.30460  0.83790  0.24515  1.0000
  H   H617      1.0  0.21653  0.90438  0.13048  1.0000
  H   H618      1.0  0.41469  0.92203  0.02362  1.0000
  H   H619      1.0  0.37175  0.82772  0.20417  1.0000
  S   S74       1.0  0.29013  0.93877  0.06326  1.0000
  H   H620      1.0  0.41337  0.91999  0.13970  1.0000
  Fe  Fe35      1.0  0.26704  0.88390  0.16015  1.0000
  H   H621      1.0  0.45991  0.93869  0.04262  1.0000
  Fe  Fe36      1.0  0.97412  0.78308  0.32579  1.0000
  H   H622      1.0  0.32264  0.79573  0.19984  1.0000
  C   C341      1.0  0.17840  0.88399  0.15187  1.0000
  H   H623      1.0  0.38140  0.85495  0.17931  1.0000
  C   C342      1.0  0.36309  0.89004  0.03333  1.0000
  C   C343      1.0  0.30387  0.94881  0.02574  1.0000
  S   S75       1.0  0.44485  0.85598  0.12112  1.0000
  C   C344      1.0  0.42436  0.94116  0.03608  1.0000
  N   N20       1.0  0.35152  0.84982  0.21239  1.0000
  H   H624      1.0  0.21777  0.90351  0.17092  1.0000
  C   C345      1.0  0.28843  0.97158  0.13943  1.0000
  Fe  Fe37      1.0  0.28294  0.90341  0.09298  1.0000
  C   C346      1.0  0.37466  0.85643  0.11608  1.0000
  H   H625      1.0  0.40013  0.93430  0.07677  1.0000
  C   C347      1.0  0.20261  0.95436  0.47698  1.0000
  H   H626      1.0  0.29663  0.77317  0.15269  1.0000
  H   H627      1.0  0.34354  0.84731  0.02949  1.0000
  C   C348      1.0  0.98133  0.70241  0.23367  1.0000
  H   H628      1.0  0.14211  0.91802  0.44219  1.0000
  C   C349      1.0  0.35767  0.91198  0.04493  1.0000
  C   C350      1.0  0.22137  0.90066  0.24766  1.0000
  C   C351      1.0  0.38181  0.94476  0.00508  1.0000
  H   H629      1.0  0.20390  0.92718  0.20281  1.0000
  H   H630      1.0  0.25451  0.94163  0.11522  1.0000
  Fe  Fe38      1.0  0.31233  0.87949  0.12636  1.0000
  H   H631      1.0  0.33719  0.84737  0.16593  1.0000
  S   S76       1.0  0.27556  0.85036  0.15248  1.0000
  C   C352      1.0  0.38119  0.88204  0.12530  1.0000
  H   H632      1.0  0.35437  0.84214  0.11044  1.0000
  C   C353      1.0  0.34699  0.91465  0.21358  1.0000
  S   S77       1.0  0.35695  0.89225  0.12983  1.0000
  H   H633      1.0  0.27819  0.94344  0.21151  1.0000
  H   H634      1.0  0.31385  0.80374  0.29152  1.0000
  H   H635      1.0  0.33863  0.90844  0.03475  1.0000
  C   C354      1.0  0.31273  0.97498  0.01650  1.0000
  C   C355      1.0  0.29996  0.79300  0.15932  1.0000
  H   H636      1.0  0.35417  0.92056  0.18967  1.0000
  C   C356      1.0  0.23589  0.94591  0.26470  1.0000
  H   H637      1.0  0.31712  0.83574  0.29953  1.0000
  H   H638      1.0  0.45685  0.96088  0.06915  1.0000
  C   C357      1.0  0.42106  0.86707  0.12209  1.0000
  C   C358      1.0  0.37584  0.84847  0.20350  1.0000
  C   C359      1.0  0.98315  0.69300  0.20420  1.0000
  H   H639      1.0  0.34232  0.93568  0.08941  1.0000
  C   C360      1.0  0.36194  0.95373  0.08736  1.0000
  C   C361      1.0  0.33685  0.88519  0.21803  1.0000
  H   H640      1.0  0.30098  0.80624  0.23730  1.0000
  S   S78       1.0  0.30524  0.91330  0.13806  1.0000
  H   H641      1.0  0.33455  0.85911  0.06311  1.0000
  H   H642      1.0  0.19448  0.96306  0.07298  1.0000
  C   C362      1.0  0.24098  0.95462  0.15629  1.0000
  C   C363      1.0  0.26121  0.93639  0.22637  1.0000
  C   C364      1.0  0.39436  0.84903  0.11476  1.0000
  C   C365      1.0  0.40461  0.94593  0.05513  1.0000
  C   C366      1.0  0.17702  0.85738  0.14706  1.0000
  H   H643      1.0  0.32933  0.88045  0.24190  1.0000
  C   C367      1.0  0.20926  0.93947  0.09496  1.0000
  N   N21       1.0  0.37911  0.94015  0.03938  1.0000
  H   H644      1.0  0.17670  0.92419  0.18104  1.0000
  C   C368      1.0  0.35925  0.87867  0.21324  1.0000
  H   H645      1.0  0.36970  0.88836  0.19161  1.0000
  C   C369      1.0  0.33097  0.83580  0.18750  1.0000
  H   H646      1.0  0.43690  0.92545  0.07381  1.0000
  H   H647      1.0  0.44791  0.90700  0.13662  1.0000
  H   H648      1.0  0.15623  0.84111  0.14876  1.0000
  S   S79       1.0  0.23240  0.96995  0.28706  1.0000
  C   C370      1.0  0.24304  0.90929  0.22759  1.0000
  S   S80       1.0  0.24644  0.88531  0.20501  1.0000
  H   H649      1.0  0.32035  0.87451  0.20149  1.0000
  H   H650      1.0  0.38886  0.82906  0.10803  1.0000
  C   C371      1.0  0.20745  0.90696  0.15156  1.0000
  S   S81       1.0  0.29063  0.87047  0.08087  1.0000
  H   H651      1.0  0.38984  0.93328  0.99369  1.0000
  H   H652      1.0  0.37641  0.95142  0.10163  1.0000
  C   C372      1.0  0.25762  0.95449  0.24472  1.0000
  S   S82       1.0  0.24406  0.87622  0.11589  1.0000
  Fe  Fe39      1.0  0.25321  0.84361  0.10765  1.0000
  H   H653      1.0  0.37367  0.88928  0.23215  1.0000
  C   C373      1.0  0.42763  0.89282  0.13075  1.0000
  C   C374      1.0  0.40788  0.90014  0.13244  1.0000
  H   H654      1.0  0.28543  0.80804  0.28913  1.0000
  H   H655      1.0  0.35397  0.90823  0.06989  1.0000
  H   H656      1.0  0.33065  0.91884  0.21760  1.0000
  H   H657      1.0  0.16661  0.95319  0.21389  1.0000
  C   C375      1.0  0.19667  0.97471  0.47488  1.0000
  H   H658      1.0  0.41601  0.96694  0.06294  1.0000
  H   H659      1.0  0.29917  0.91137  0.01153  1.0000
  H   H660      1.0  0.34153  0.80856  0.16520  1.0000
  H   H661      1.0  0.07287  0.87772  0.48891  1.0000
  C   C376      1.0  0.42265  0.85881  0.21539  1.0000
  H   H662      1.0  0.42800  0.86283  0.19068  1.0000
  Fe  Fe40      1.0  0.18706  0.97290  0.38982  1.0000
  C   C377      1.0  0.18755  0.96234  0.22143  1.0000
  C   C378      1.0  0.20518  0.96411  0.19450  1.0000
  S   S83       1.0  0.98530  0.70375  0.29806  1.0000
  H   H663      1.0  0.97417  0.71616  0.23597  1.0000
  H   H664      1.0  0.18899  0.95042  0.24034  1.0000
  H   H665      1.0  0.35366  0.85221  0.26216  1.0000
  H   H666      1.0  0.39643  0.86115  0.24838  1.0000
  C   C379      1.0  0.40091  0.86508  0.22353  1.0000
  H   H667      1.0  0.44061  0.87142  0.22942  1.0000
  H   H668      1.0  0.36192  0.93715  0.99436  1.0000
  C   C380      1.0  0.19319  0.94355  0.07003  1.0000
  H   H669      1.0  0.35245  0.97235  0.12473  1.0000
  H   H670      1.0  0.36778  0.89196  0.00846  1.0000
  C   C381      1.0  0.04416  0.79268  0.46394  1.0000
  H   H671      1.0  0.20245  0.96118  0.12991  1.0000
  H   H672      1.0  0.00847  0.65404  0.22423  1.0000
  H   H673      1.0  0.44505  0.65420  0.11851  1.0000
  H   H674      1.0  0.30191  0.96595  0.12801  1.0000
  H   H675      1.0  0.44873  0.64927  0.18863  1.0000
  H   H676      1.0  0.24487  0.97439  0.14859  1.0000
  H   H677      1.0  0.22596  0.97567  0.20272  1.0000
  S   S84       1.0  0.97657  0.76018  0.43278  1.0000
  C   C382      1.0  0.39864  0.97401  0.99510  1.0000
  H   H678      1.0  0.20232  0.97539  0.17602  1.0000
  C   C383      1.0  0.35942  0.97668  0.10057  1.0000
  H   H679      1.0  0.11631  0.88816  0.48673  1.0000
  H   H680      1.0  0.29557  0.97806  0.16338  1.0000
  H   H681      1.0  0.38596  0.97921  0.05112  1.0000
  H   H682      1.0  0.46798  0.64624  0.13462  1.0000
  Fe  Fe41      1.0  0.01554  0.64609  0.13561  1.0000
  S   S85       1.0  0.10255  0.91707  0.65425  1.0000
  S   S86       1.0  0.02381  0.79241  0.65893  1.0000
  C   C384      1.0  0.08184  0.88213  0.65227  1.0000
  C   C385      1.0  0.05549  0.87144  0.64225  1.0000
  C   C386      1.0  0.03777  0.84392  0.64263  1.0000
  C   C387      1.0  0.04596  0.82684  0.65409  1.0000
  C   C388      1.0  0.07251  0.83750  0.66325  1.0000
  C   C389      1.0  0.09045  0.86492  0.66199  1.0000
  H   H683      1.0  0.04866  0.88455  0.63446  1.0000
  H   H684      1.0  0.01767  0.83597  0.63461  1.0000
  H   H685      1.0  0.07917  0.82448  0.67188  1.0000
  H   H686      1.0  0.11064  0.87281  0.66973  1.0000
  C   C390      1.0  0.12417  0.88499  0.58705  1.0000
  H   H687      1.0  0.09571  0.90754  0.58958  1.0000
  H   H688      1.0  0.07155  0.87021  0.55930  1.0000
  H   H689      1.0  0.10368  0.86816  0.58869  1.0000
  C   C391      1.0  0.08315  0.87758  0.53766  1.0000
  C   C392      1.0  0.08305  0.92844  0.56093  1.0000
  C   C393      1.0  0.10319  0.91939  0.56831  1.0000
  N   N22       1.0  0.10789  0.90390  0.54363  1.0000
  H   H690      1.0  0.12225  0.93725  0.57480  1.0000
  C   C394      1.0  0.12937  0.89890  0.55540  1.0000
  H   H691      1.0  0.08886  0.90112  0.75240  1.0000
  Fe  Fe42      1.0  0.14781  0.94167  0.65616  1.0000
  H   H692      1.0  0.03215  0.85162  0.70557  1.0000
  H   H693      1.0  0.04981  0.85708  0.76323  1.0000
  C   C395      1.0  0.32559  0.96660  0.96613  1.0000
  C   C396      1.0  0.01147  0.69278  0.90933  1.0000
  H   H694      1.0  0.02804  0.69229  0.89743  1.0000
  H   H695      1.0  0.45597  0.96714  0.93152  1.0000
  H   H696      1.0  0.13307  0.88664  0.53864  1.0000
  H   H697      1.0  0.30827  0.95403  0.79716  1.0000
  H   H698      1.0  0.02723  0.84931  0.53469  1.0000
  H   H699      1.0  0.00566  0.67973  0.92976  1.0000
  H   H700      1.0  0.00141  0.80665  0.70758  1.0000
  C   C397      1.0  0.01742  0.80515  0.75094  1.0000
  H   H701      1.0  0.05772  0.77285  0.49531  1.0000
  H   H702      1.0  0.10204  0.96344  0.59078  1.0000
  C   C398      1.0  0.01147  0.77658  0.74807  1.0000
  C   C399      1.0  0.31932  0.95698  0.81895  1.0000
  H   H703      1.0  0.35473  0.95583  0.83259  1.0000
  H   H704      1.0  0.06290  0.91104  0.55890  1.0000
  C   C400      1.0  0.98044  0.83514  0.68099  1.0000
  H   H705      1.0  0.12743  0.89933  0.60583  1.0000
  H   H706      1.0  0.13950  0.86575  0.61624  1.0000
  C   C401      1.0  0.02460  0.85808  0.72538  1.0000
  H   H707      1.0  0.16390  0.89079  0.59180  1.0000
  C   C402      1.0  0.14305  0.87452  0.59292  1.0000
  H   H708      1.0  0.14844  0.91787  0.55754  1.0000
  C   C403      1.0  0.31676  0.94043  0.97538  1.0000
  H   H709      1.0  0.08017  0.87869  0.72029  1.0000
  C   C404      1.0  0.99321  0.83990  0.76903  1.0000
  H   H710      1.0  0.04079  0.83343  0.51105  1.0000
  C   C405      1.0  0.07357  0.89014  0.73448  1.0000
  H   H711      1.0  0.07194  0.90469  0.71965  1.0000
  H   H712      1.0  0.25184  0.87633  0.91651  1.0000
  C   C406      1.0  0.04717  0.87153  0.74965  1.0000
  H   H713      1.0  0.07560  0.93449  0.60869  1.0000
  H   H714      1.0  0.02730  0.77118  0.50620  1.0000
  H   H715      1.0  0.02205  0.87453  0.71651  1.0000
  H   H716      1.0  0.04269  0.88353  0.76592  1.0000
  H   H717      1.0  0.13983  0.85903  0.57571  1.0000
  H   H718      1.0  0.08812  0.94018  0.53957  1.0000
  H   H719      1.0  0.98326  0.70444  0.79232  1.0000
  H   H720      1.0  0.14904  0.91401  0.49610  1.0000
  H   H721      1.0  0.00885  0.84138  0.78475  1.0000
  Fe  Fe43      1.0  0.20313  0.96119  0.68648  1.0000
  C   C407      1.0  0.19405  0.97547  0.53113  1.0000
  H   H722      1.0  0.01684  0.80935  0.77573  1.0000
  C   C408      1.0  0.26003  0.96674  0.87764  1.0000
  C   C409      1.0  0.34286  0.95334  0.81153  1.0000
  S   S87       1.0  0.17187  0.97284  0.69194  1.0000
  H   H723      1.0  0.98290  0.81844  0.67314  1.0000
  C   C410      1.0  0.06413  0.87652  0.51191  1.0000
  C   C411      1.0  0.99749  0.80935  0.73189  1.0000
  H   H724      1.0  0.25189  0.92619  0.75926  1.0000
  H   H725      1.0  0.08827  0.86217  0.53129  1.0000
  C   C412      1.0  0.23967  0.90840  0.77340  1.0000
  C   C413      1.0  0.97823  0.65579  0.87503  1.0000
  H   H726      1.0  0.29786  0.91752  0.83837  1.0000
  H   H727      1.0  0.99795  0.85381  0.67362  1.0000
  S   S88       1.0  0.16544  0.97041  0.61695  1.0000
  N   N23       1.0  0.99840  0.83544  0.73609  1.0000
  H   H728      1.0  0.02500  0.84977  0.49332  1.0000
  S   S89       1.0  0.20486  0.94448  0.56970  1.0000
  H   H729      1.0  0.31482  0.94342  0.86540  1.0000
  N   N24       1.0  0.27668  0.93769  0.85165  1.0000
  H   H730      1.0  0.03769  0.81798  0.74200  1.0000
  C   C414      1.0  0.08223  0.94580  0.58693  1.0000
  H   H731      1.0  0.23530  0.89392  0.92933  1.0000
  H   H732      1.0  0.42811  0.96899  0.89066  1.0000
  H   H733      1.0  0.22076  0.90765  0.77900  1.0000
  C   C415      1.0  0.03772  0.85065  0.51286  1.0000
  C   C416      1.0  0.46566  0.97608  0.90940  1.0000
  C   C417      1.0  0.25477  0.89514  0.92659  1.0000
  H   H734      1.0  0.05997  0.89296  0.51371  1.0000
  H   H735      1.0  0.26386  0.89782  0.94978  1.0000
  H   H736      1.0  0.24897  0.95196  0.89563  1.0000
  H   H737      1.0  0.10307  0.92432  0.50470  1.0000
  Fe  Fe44      1.0  0.97946  0.76551  0.64956  1.0000
  H   H738      1.0  0.06812  0.95259  0.58094  1.0000
  H   H739      1.0  0.24205  0.89057  0.81546  1.0000
  H   H740      1.0  0.13478  0.94076  0.52158  1.0000
  C   C418      1.0  0.30197  0.93775  0.84452  1.0000
  H   H741      1.0  0.26993  0.95124  0.80815  1.0000
  H   H742      1.0  0.24088  0.93118  0.82888  1.0000
  S   S90       1.0  0.22269  0.96095  0.73269  1.0000
  C   C419      1.0  0.11824  0.92070  0.51523  1.0000
  C   C420      1.0  0.26042  0.93349  0.82294  1.0000
  H   H743      1.0  0.25774  0.89649  0.86399  1.0000
  H   H744      1.0  0.31808  0.92683  0.95946  1.0000
  H   H745      1.0  0.24047  0.91249  0.87622  1.0000
  H   H746      1.0  0.01226  0.77135  0.72359  1.0000
  H   H747      1.0  0.97675  0.66279  0.81689  1.0000
  S   S91       1.0  0.17704  0.92739  0.65376  1.0000
  C   C421      1.0  0.20095  0.95586  0.53336  1.0000
  C   C422      1.0  0.25452  0.90912  0.80277  1.0000
  H   H748      1.0  0.99466  0.65716  0.86081  1.0000
  C   C423      1.0  0.20498  0.94517  0.50614  1.0000
  C   C424      1.0  0.26073  0.91549  0.87362  1.0000
  C   C425      1.0  0.28363  0.96413  0.86557  1.0000
  C   C426      1.0  0.27287  0.91847  0.90628  1.0000
  H   H749      1.0  0.27592  0.93666  0.91814  1.0000
  H   H750      1.0  0.27289  0.90949  0.79559  1.0000
  H   H751      1.0  0.99468  0.69820  0.86817  1.0000
  H   H752      1.0  0.02642  0.77417  0.76122  1.0000
  H   H753      1.0  0.99403  0.85933  0.77108  1.0000
  H   H754      1.0  0.05805  0.80161  0.51169  1.0000
  H   H755      1.0  0.01850  0.71331  0.91749  1.0000
  H   H756      1.0  0.29218  0.91920  0.90504  1.0000
  H   H757      1.0  0.33601  0.93344  0.80141  1.0000
  Fe  Fe45      1.0  0.19533  0.95716  0.61549  1.0000
  H   H758      1.0  0.21031  0.92995  0.50762  1.0000
  H   H759      1.0  0.23519  0.89063  0.75944  1.0000
  C   C427      1.0  0.98794  0.68405  0.88749  1.0000
  C   C428      1.0  0.04712  0.78418  0.49624  1.0000
  H   H760      1.0  0.24621  0.96412  0.85863  1.0000
  H   H761      1.0  0.29823  0.96950  0.88461  1.0000
  H   H762      1.0  0.32713  0.97767  0.82671  1.0000
  H   H763      1.0  0.35574  0.96843  0.79456  1.0000
  C   C429      1.0  0.97259  0.75682  0.49549  1.0000
  H   H764      1.0  0.99159  0.76271  0.75736  1.0000
  H   H765      1.0  0.97119  0.75481  0.54513  1.0000
  C   C430      1.0  0.40482  0.97612  0.96073  1.0000
  H   H766      1.0  0.97241  0.68543  0.90055  1.0000
  H   H767      1.0  0.46565  0.96044  0.89481  1.0000
  H   H768      1.0  0.98732  0.77758  0.49531  1.0000
  H   H769      1.0  0.41650  0.96644  0.95513  1.0000
  H   H770      1.0  0.38623  0.96673  0.94696  1.0000
  S   S92       1.0  0.33819  0.97619  0.92808  1.0000
  H   H771      1.0  0.97728  0.79263  0.73628  1.0000
  H   H772      1.0  0.97388  0.85182  0.72231  1.0000
  H   H773      1.0  0.98017  0.82513  0.83063  1.0000
  C   C431      1.0  0.97665  0.83475  0.71643  1.0000
  C   C432      1.0  0.12890  0.90984  0.48971  1.0000
  C   C433      1.0  0.69770  0.99838  0.20871  1.0000
  H   H774      1.0  0.87147  0.21178  0.02030  1.0000
  S   S93       1.0  0.93900  0.21711  0.41393  1.0000
  H   H775      1.0  0.91564  0.09967  0.38547  1.0000
  H   H776      1.0  0.78511  0.06653  0.38847  1.0000
  H   H777      1.0  0.81747  0.20861  0.00721  1.0000
  Fe  Fe46      1.0  0.93462  0.16396  0.32493  1.0000
  S   S94       1.0  0.90625  0.11913  0.32690  1.0000
  S   S95       1.0  0.92259  0.19471  0.32889  1.0000
  H   H778      1.0  0.92297  0.13969  0.43638  1.0000
  H   H779      1.0  0.75403  0.11302  0.23697  1.0000
  H   H780      1.0  0.75618  0.07239  0.23235  1.0000
  Fe  Fe47      1.0  0.75377  0.00251  0.33059  1.0000
  S   S96       1.0  0.77996  0.04693  0.32208  1.0000
  C   C434      1.0  0.68639  0.00983  0.25824  1.0000
  H   H781      1.0  0.85642  0.22647  0.04373  1.0000
  S   S97       1.0  0.96509  0.18061  0.36317  1.0000
  C   C435      1.0  0.95303  0.21864  0.45085  1.0000
  C   C436      1.0  0.79612  0.07808  0.40919  1.0000
  C   C437      1.0  0.87107  0.09963  0.32561  1.0000
  C   C438      1.0  0.85899  0.07238  0.33156  1.0000
  C   C439      1.0  0.83123  0.05600  0.33069  1.0000
  C   C440      1.0  0.81511  0.06666  0.32371  1.0000
  C   C441      1.0  0.82716  0.09395  0.31793  1.0000
  C   C442      1.0  0.85493  0.11036  0.31895  1.0000
  H   H782      1.0  0.87123  0.06381  0.33662  1.0000
  H   H783      1.0  0.82234  0.03508  0.33512  1.0000
  H   H784      1.0  0.81494  0.10246  0.31251  1.0000
  H   H785      1.0  0.86386  0.13123  0.31418  1.0000
  H   H786      1.0  0.85283  0.06765  0.48379  1.0000
  H   H787      1.0  0.88918  0.24671  0.02860  1.0000
  Fe  Fe48      1.0  0.95340  0.21159  0.36694  1.0000
  H   H788      1.0  0.69394  0.04703  0.27970  1.0000
  N   N25       1.0  0.70786  0.01884  0.23435  1.0000
  H   H789      1.0  0.89178  0.11853  0.47736  1.0000
  H   H790      1.0  0.91947  0.09634  0.42628  1.0000
  C   C443      1.0  0.84146  0.11188  0.42976  1.0000
  C   C444      1.0  0.82527  0.03419  0.45735  1.0000
  C   C445      1.0  0.71421  0.04527  0.22122  1.0000
  H   H791      1.0  0.72016  0.04671  0.19663  1.0000
  C   C446      1.0  0.82530  0.09558  0.40126  1.0000
  C   C447      1.0  0.86932  0.22948  0.02362  1.0000
  H   H792      1.0  0.86526  0.17680  0.42201  1.0000
  C   C448      1.0  0.92415  0.30920  0.99708  1.0000
  C   C449      1.0  0.73161  0.01911  0.24853  1.0000
  H   H793      1.0  0.94604  0.12229  0.40473  1.0000
  H   H794      1.0  0.65087  0.01299  0.29907  1.0000
  H   H795      1.0  0.71255  0.00441  0.19002  1.0000
  H   H796      1.0  0.79360  0.06396  0.42764  1.0000
  H   H797      1.0  0.74039  0.09719  0.20042  1.0000
  H   H798      1.0  0.80426  0.01836  0.45777  1.0000
  H   H799      1.0  0.82650  0.10856  0.38213  1.0000
  H   H800      1.0  0.77126  0.98716  0.48900  1.0000
  H   H801      1.0  0.83860  0.09725  0.44768  1.0000
  H   H802      1.0  0.83255  0.08240  0.39280  1.0000
  H   H803      1.0  0.90317  0.16254  0.44925  1.0000
  C   C450      1.0  0.73666  0.07040  0.23731  1.0000
  H   H804      1.0  0.66586  0.99592  0.31715  1.0000
  S   S98       1.0  0.71030  0.98805  0.33766  1.0000
  N   N26       1.0  0.87052  0.13035  0.42449  1.0000
  C   C451      1.0  0.88312  0.11406  0.41613  1.0000
  H   H805      1.0  0.75613  0.03751  0.20726  1.0000
  C   C452      1.0  0.87499  0.14912  0.39848  1.0000
  C   C453      1.0  0.91368  0.12932  0.41447  1.0000
  C   C454      1.0  0.85983  0.16459  0.40071  1.0000
  H   H806      1.0  0.59506  0.00326  0.02382  1.0000
  C   C455      1.0  0.86629  0.18331  0.37363  1.0000
  H   H807      1.0  0.87614  0.10474  0.39301  1.0000
  H   H808      1.0  0.87683  0.09723  0.43215  1.0000
  H   H809      1.0  0.83196  0.12284  0.43923  1.0000
  H   H810      1.0  0.87013  0.13859  0.37588  1.0000
  H   H811      1.0  0.89633  0.16416  0.39682  1.0000
  C   C456      1.0  0.93805  0.21607  0.47729  1.0000
  H   H812      1.0  0.92019  0.14408  0.39591  1.0000
  C   C457      1.0  0.88255  0.14641  0.45348  1.0000
  H   H813      1.0  0.78746  0.09032  0.41670  1.0000
  H   H814      1.0  0.83816  0.15103  0.40046  1.0000
  C   C458      1.0  0.88244  0.13065  0.48217  1.0000
  C   C459      1.0  0.92424  0.11066  0.40734  1.0000
  H   H815      1.0  0.79541  0.03541  0.22465  1.0000
  H   H816      1.0  0.86209  0.17239  0.35138  1.0000
  H   H817      1.0  0.85409  0.19298  0.37486  1.0000
  H   H818      1.0  0.88740  0.19902  0.37457  1.0000
  H   H819      1.0  0.74846  0.00420  0.21417  1.0000
  H   H820      1.0  0.71038  0.03178  0.29892  1.0000
  H   H821      1.0  0.69609  0.04703  0.22081  1.0000
  C   C460      1.0  0.78041  0.03358  0.24160  1.0000
  H   H822      1.0  0.77514  0.17786  0.99843  1.0000
  H   H823      1.0  0.66797  0.00773  0.24812  1.0000
  H   H824      1.0  0.73460  0.06999  0.26262  1.0000
  H   H825      1.0  0.72541  0.00002  0.26028  1.0000
  C   C461      1.0  0.73740  0.09539  0.22573  1.0000
  H   H826      1.0  0.91818  0.21267  0.47472  1.0000
  C   C462      1.0  0.67139  0.99261  0.19306  1.0000
  C   C463      1.0  0.69213  0.02800  0.28671  1.0000
  C   C464      1.0  0.66934  0.01552  0.30962  1.0000
  H   H827      1.0  0.87189  0.15690  0.46043  1.0000
  H   H828      1.0  0.74051  0.03413  0.26721  1.0000
  C   C465      1.0  0.75372  0.02334  0.22554  1.0000
  H   H829      1.0  0.71872  0.09507  0.23145  1.0000
  Fe  Fe49      1.0  0.95575  0.21977  0.29576  1.0000
  H   H830      1.0  0.67417  0.02849  0.33027  1.0000
  H   H831      1.0  0.85704  0.25307  0.99892  1.0000
  H   H832      1.0  0.83799  0.02522  0.45437  1.0000
  H   H833      1.0  0.78717  0.05336  0.25210  1.0000
  H   H834      1.0  0.68130  0.98986  0.26661  1.0000
  H   H835      1.0  0.77907  0.01980  0.25988  1.0000
  H   H836      1.0  0.65445  0.98098  0.20854  1.0000
  H   H837      1.0  0.67162  0.01114  0.18704  1.0000
  H   H838      1.0  0.68130  0.98754  0.14602  1.0000
  C   C466      1.0  0.58808  0.98492  0.01118  1.0000
  H   H839      1.0  0.82804  0.04682  0.43712  1.0000
  H   H840      1.0  0.90639  0.29520  0.00886  1.0000
  S   S99       1.0  0.95605  0.23845  0.24888  1.0000
  H   H841      1.0  0.96795  0.25534  0.18601  1.0000
  S   S100      1.0  0.75683  0.97965  0.37030  1.0000
  S   S101      1.0  0.96517  0.18702  0.28883  1.0000
  C   C467      1.0  0.83256  0.05085  0.48686  1.0000
  H   H842      1.0  0.81880  0.05869  0.48883  1.0000
  C   C468      1.0  0.85791  0.23479  0.99464  1.0000
  Fe  Fe50      1.0  0.95870  0.22021  0.66364  1.0000
  S   S102      1.0  0.94519  0.17717  0.67159  1.0000
  H   H843      1.0  0.84646  0.19588  0.63719  1.0000
  Fe  Fe51      1.0  0.92309  0.17027  0.62715  1.0000
  S   S103      1.0  0.87958  0.14186  0.61854  1.0000
  S   S104      1.0  0.93544  0.21295  0.61952  1.0000
  Fe  Fe52      1.0  0.77644  0.99749  0.65877  1.0000
  S   S105      1.0  0.74933  0.00683  0.63235  1.0000
  S   S106      1.0  0.81785  0.02700  0.67516  1.0000
  Fe  Fe53      1.0  0.87727  0.29298  0.82537  1.0000
  S   S107      1.0  0.85833  0.26253  0.86276  1.0000
  S   S108      1.0  0.88984  0.28607  0.77709  1.0000
  Fe  Fe54      1.0  0.82503  0.27134  0.86108  1.0000
  S   S109      1.0  0.78019  0.24103  0.85903  1.0000
  Fe  Fe55      1.0  0.87830  0.29716  0.89642  1.0000
  H   H844      1.0  0.92183  0.25965  0.68574  1.0000
  Fe  Fe56      1.0  0.63089  0.02578  0.84242  1.0000
  S   S110      1.0  0.65473  0.04371  0.88573  1.0000
  S   S111      1.0  0.64409  0.99975  0.81595  1.0000
  Fe  Fe57      1.0  0.59553  0.05060  0.85720  1.0000
  S   S112      1.0  0.61943  0.07113  0.89988  1.0000
  S   S113      1.0  0.55669  0.04893  0.84046  1.0000
  Fe  Fe58      1.0  0.65616  0.08157  0.87191  1.0000
  S   S114      1.0  0.69992  0.11580  0.87298  1.0000
  Fe  Fe59      1.0  0.61651  0.03178  0.91007  1.0000
  C   C469      1.0  0.68266  0.98354  0.74807  1.0000
  S   S115      1.0  0.63260  0.06360  0.82813  1.0000
  S   S116      1.0  0.59230  0.01121  0.86804  1.0000
  H   H845      1.0  0.48589  0.19418  0.84519  1.0000
  H   H846      1.0  0.77734  0.22151  0.93068  1.0000
  C   C470      1.0  0.50629  0.04222  0.83344  1.0000
  C   C471      1.0  0.52904  0.05257  0.85237  1.0000
  C   C472      1.0  0.52896  0.06538  0.87979  1.0000
  H   H847      1.0  0.79626  0.17123  0.95203  1.0000
  H   H848      1.0  0.83067  0.07475  0.57391  1.0000
  H   H849      1.0  0.50590  0.03233  0.81214  1.0000
  H   H850      1.0  0.54622  0.07382  0.89454  1.0000
  C   C473      1.0  0.84910  0.01634  0.57431  1.0000
  C   C474      1.0  0.75838  0.20607  0.86282  1.0000
  C   C475      1.0  0.73087  0.19585  0.86070  1.0000
  C   C476      1.0  0.71274  0.16848  0.86372  1.0000
  C   C477      1.0  0.72178  0.15076  0.86918  1.0000
  C   C478      1.0  0.74933  0.16099  0.87138  1.0000
  C   C479      1.0  0.76748  0.18833  0.86796  1.0000
  H   H851      1.0  0.72346  0.20923  0.85666  1.0000
  H   H852      1.0  0.69173  0.16114  0.86191  1.0000
  H   H853      1.0  0.75669  0.14759  0.87548  1.0000
  H   H854      1.0  0.78849  0.19566  0.86926  1.0000
  H   H855      1.0  0.78444  0.18745  0.92838  1.0000
  C   C480      1.0  0.53155  0.20517  0.87102  1.0000
  C   C481      1.0  0.65285  0.00901  0.75249  1.0000
  H   H856      1.0  0.84304  0.21376  0.78082  1.0000
  C   C482      1.0  0.65739  0.99856  0.77921  1.0000
  H   H857      1.0  0.80609  0.27966  0.95182  1.0000
  C   C483      1.0  0.83006  0.21112  0.98690  1.0000
  H   H858      1.0  0.91794  0.08461  0.57305  1.0000
  H   H859      1.0  0.90698  0.19574  0.71579  1.0000
  H   H860      1.0  0.85265  0.20830  0.87550  1.0000
  H   H861      1.0  0.77442  0.25361  0.96526  1.0000
  H   H862      1.0  0.85211  0.23363  0.74646  1.0000
  C   C484      1.0  0.87537  0.20171  0.67275  1.0000
  H   H863      1.0  0.83050  0.25528  0.96469  1.0000
  C   C485      1.0  0.94876  0.21848  0.50708  1.0000
  H   H864      1.0  0.94987  0.24860  0.77253  1.0000
  C   C486      1.0  0.86276  0.11063  0.63593  1.0000
  C   C487      1.0  0.83547  0.09484  0.63091  1.0000
  C   C488      1.0  0.82152  0.06910  0.64262  1.0000
  C   C489      1.0  0.83473  0.05917  0.65995  1.0000
  C   C490      1.0  0.86192  0.07527  0.66573  1.0000
  C   C491      1.0  0.87597  0.10093  0.65364  1.0000
  H   H865      1.0  0.82514  0.10242  0.61752  1.0000
  H   H866      1.0  0.80055  0.05702  0.63836  1.0000
  H   H867      1.0  0.87221  0.06774  0.67931  1.0000
  H   H868      1.0  0.89701  0.11301  0.65769  1.0000
  C   C492      1.0  0.93753  0.25254  0.72703  1.0000
  C   C493      1.0  0.93784  0.25439  0.75946  1.0000
  C   C494      1.0  0.92310  0.26403  0.77523  1.0000
  C   C495      1.0  0.90807  0.27248  0.75878  1.0000
  C   C496      1.0  0.90759  0.27042  0.72635  1.0000
  C   C497      1.0  0.92204  0.26044  0.71062  1.0000
  C   C498      1.0  0.83636  0.19166  0.73767  1.0000
  S   S117      1.0  0.95588  0.17170  0.59916  1.0000
  H   H869      1.0  0.89616  0.27690  0.71322  1.0000
  N   N27       1.0  0.86468  0.17121  0.72015  1.0000
  H   H870      1.0  0.47962  0.22101  0.89099  1.0000
  H   H871      1.0  0.86956  0.03099  0.58147  1.0000
  C   C499      1.0  0.89225  0.17542  0.72286  1.0000
  C   C500      1.0  0.90091  0.17200  0.75549  1.0000
  H   H872      1.0  0.84317  0.02520  0.51075  1.0000
  C   C501      1.0  0.92777  0.17352  0.75462  1.0000
  H   H873      1.0  0.50203  0.20114  0.90322  1.0000
  H   H874      1.0  0.84484  0.14288  0.75655  1.0000
  S   S118      1.0  0.84356  0.30397  0.89703  1.0000
  S   S119      1.0  0.84303  0.30074  0.82253  1.0000
  C   C502      1.0  0.76928  0.18040  0.97496  1.0000
  H   H875      1.0  0.83607  0.00248  0.62104  1.0000
  H   H876      1.0  0.88663  0.15272  0.76560  1.0000
  H   H877      1.0  0.90290  0.18802  0.77111  1.0000
  H   H878      1.0  0.84545  0.12065  0.69173  1.0000
  H   H879      1.0  0.86511  0.12155  0.72409  1.0000
  H   H880      1.0  0.92679  0.15733  0.74008  1.0000
  H   H881      1.0  0.94307  0.19283  0.74532  1.0000
  H   H882      1.0  0.74927  0.13807  0.96453  1.0000
  H   H883      1.0  0.53772  0.02947  0.97759  1.0000
  H   H884      1.0  0.87183  0.19561  0.89335  1.0000
  H   H885      1.0  0.49907  0.99151  0.97368  1.0000
  H   H886      1.0  0.87182  0.21622  0.68528  1.0000
  H   H887      1.0  0.75807  0.17778  0.79041  1.0000
  C   C503      1.0  0.49400  0.99941  0.91536  1.0000
  H   H888      1.0  0.80449  0.09129  0.71928  1.0000
  C   C504      1.0  0.79585  0.23996  0.93654  1.0000
  C   C505      1.0  0.84581  0.20076  0.92467  1.0000
  H   H889      1.0  0.87144  0.18809  0.62509  1.0000
  C   C506      1.0  0.67771  0.99351  0.72125  1.0000
  H   H890      1.0  0.86367  0.16059  0.67215  1.0000
  H   H891      1.0  0.82411  0.14022  0.72544  1.0000
  C   C507      1.0  0.84434  0.14409  0.73102  1.0000
  H   H892      1.0  0.87941  0.21177  0.73487  1.0000
  H   H893      1.0  0.50142  0.01092  0.89382  1.0000
  C   C508      1.0  0.86766  0.20180  0.63914  1.0000
  H   H894      1.0  0.92389  0.26549  0.80008  1.0000
  H   H895      1.0  0.93715  0.21698  0.52714  1.0000
  C   C509      1.0  0.57054  0.06151  0.95555  1.0000
  C   C510      1.0  0.83186  0.02958  0.57155  1.0000
  C   C511      1.0  0.67237  0.98579  0.77668  1.0000
  H   H896      1.0  0.48532  0.16369  0.84672  1.0000
  N   N28       1.0  0.81721  0.21374  0.95802  1.0000
  H   H897      1.0  0.87477  0.09989  0.57727  1.0000
  H   H898      1.0  0.65860  0.01404  0.70328  1.0000
  C   C512      1.0  0.86284  0.19159  0.73986  1.0000
  H   H899      1.0  0.50462  0.17220  0.89802  1.0000
  H   H900      1.0  0.87970  0.22199  0.62969  1.0000
  C   C513      1.0  0.88065  0.08463  0.57508  1.0000
  H   H901      1.0  0.82622  0.07782  0.71877  1.0000
  H   H902      1.0  0.76057  0.05380  0.55463  1.0000
  H   H903      1.0  0.81789  0.21312  0.75616  1.0000
  H   H904      1.0  0.54716  0.21213  0.88906  1.0000
  C   C514      1.0  0.74480  0.15444  0.96536  1.0000
  C   C515      1.0  0.85930  0.17367  0.68667  1.0000
  N   N29       1.0  0.72179  0.08474  0.78432  1.0000
  C   C516      1.0  0.72413  0.06522  0.76352  1.0000
  C   C517      1.0  0.69388  0.07976  0.78228  1.0000
  C   C518      1.0  0.74151  0.11237  0.77421  1.0000
  C   C519      1.0  0.72773  0.08173  0.81739  1.0000
  C   C520      1.0  0.71116  0.05375  0.83114  1.0000
  C   C521      1.0  0.75054  0.06503  0.76561  1.0000
  C   C522      1.0  0.73862  0.13500  0.78923  1.0000
  C   C523      1.0  0.68506  0.08407  0.75012  1.0000
  C   C524      1.0  0.65778  0.08155  0.75148  1.0000
  C   C525      1.0  0.72018  0.05286  0.86392  1.0000
  C   C526      1.0  0.75060  0.04463  0.74341  1.0000
  C   C527      1.0  0.76085  0.16212  0.77936  1.0000
  H   H905      1.0  0.72175  0.06907  0.73900  1.0000
  H   H906      1.0  0.70770  0.04481  0.76765  1.0000
  H   H907      1.0  0.67953  0.05897  0.78843  1.0000
  H   H908      1.0  0.69063  0.09193  0.79970  1.0000
  H   H909      1.0  0.74092  0.11419  0.74876  1.0000
  H   H910      1.0  0.76195  0.11675  0.77943  1.0000
  H   H911      1.0  0.74902  0.08828  0.82058  1.0000
  H   H912      1.0  0.72416  0.09495  0.83262  1.0000
  H   H913      1.0  0.71265  0.03852  0.81735  1.0000
  H   H914      1.0  0.69014  0.04835  0.83241  1.0000
  H   H915      1.0  0.76744  0.08460  0.75955  1.0000
  H   H916      1.0  0.75385  0.05992  0.78911  1.0000
  H   H917      1.0  0.73943  0.13435  0.81461  1.0000
  H   H918      1.0  0.71962  0.13364  0.78268  1.0000
  H   H919      1.0  0.69889  0.10389  0.74094  1.0000
  H   H920      1.0  0.68380  0.06899  0.73345  1.0000
  H   H921      1.0  0.64279  0.06160  0.75947  1.0000
  H   H922      1.0  0.65805  0.09673  0.76728  1.0000
  H   H923      1.0  0.65188  0.08449  0.72818  1.0000
  H   H924      1.0  0.71841  0.06740  0.87891  1.0000
  H   H925      1.0  0.70741  0.03284  0.87350  1.0000
  H   H926      1.0  0.74096  0.05718  0.86410  1.0000
  H   H927      1.0  0.76993  0.04535  0.74459  1.0000
  H   H928      1.0  0.73498  0.02443  0.74970  1.0000
  H   H929      1.0  0.74721  0.04856  0.71931  1.0000
  H   H930      1.0  0.78034  0.16507  0.78680  1.0000
  H   H931      1.0  0.76066  0.16424  0.75399  1.0000
  N   N30       1.0  0.83910  0.04931  0.54588  1.0000
  H   H932      1.0  0.82943  0.18035  0.92029  1.0000
  C   C528      1.0  0.83084  0.03437  0.51562  1.0000
  C   C529      1.0  0.82512  0.06477  0.55109  1.0000
  H   H933      1.0  0.87411  0.07222  0.59594  1.0000
  H   H934      1.0  0.85205  0.24034  0.93209  1.0000
  H   H935      1.0  0.78840  0.08040  0.53544  1.0000
  C   C530      1.0  0.79450  0.04837  0.55081  1.0000
  C   C531      1.0  0.83500  0.21985  0.93052  1.0000
  C   C532      1.0  0.79214  0.18787  0.95192  1.0000
  C   C533      1.0  0.89763  0.14919  0.50900  1.0000
  C   C534      1.0  0.78246  0.06615  0.55467  1.0000
  H   H936      1.0  0.49176  0.01290  0.93164  1.0000
  C   C535      1.0  0.86383  0.20915  0.89659  1.0000
  H   H937      1.0  0.50270  0.98082  0.86217  1.0000
  H   H938      1.0  0.81028  0.01742  0.51695  1.0000
  H   H939      1.0  0.83175  0.08113  0.53429  1.0000
  H   H940      1.0  0.83232  0.03874  0.59431  1.0000
  H   H941      1.0  0.88072  0.22956  0.89983  1.0000
  H   H942      1.0  0.81099  0.01335  0.56890  1.0000
  H   H943      1.0  0.93380  0.17158  0.77826  1.0000
  C   C536      1.0  0.84638  0.12063  0.71716  1.0000
  C   C537      1.0  0.82365  0.09418  0.72797  1.0000
  C   C538      1.0  0.66279  0.00635  0.72378  1.0000
  H   H944      1.0  0.78738  0.03427  0.57022  1.0000
  H   H945      1.0  0.78673  0.03711  0.52899  1.0000
  H   H946      1.0  0.87933  0.05781  0.53893  1.0000
  H   H947      1.0  0.88974  0.16254  0.51443  1.0000
  H   H948      1.0  0.78879  0.07712  0.57691  1.0000
  C   C539      1.0  0.83749  0.21440  0.75650  1.0000
  H   H949      1.0  0.81993  0.17300  0.74684  1.0000
  H   H950      1.0  0.54596  0.02718  0.90746  1.0000
  H   H951      1.0  0.58498  0.05515  0.96167  1.0000
  C   C540      1.0  0.86849  0.06832  0.54517  1.0000
  C   C541      1.0  0.81166  0.23611  0.96267  1.0000
  C   C542      1.0  0.50442  0.18868  0.88573  1.0000
  S   S120      1.0  0.60583  0.01686  0.95997  1.0000
  H   H952      1.0  0.89503  0.16231  0.70643  1.0000
  H   H953      1.0  0.50732  0.07815  0.90890  1.0000
  H   H954      1.0  0.55611  0.01212  0.93511  1.0000
  H   H955      1.0  0.53294  0.22272  0.85947  1.0000
  H   H956      1.0  0.83794  0.16647  0.68266  1.0000
  H   H957      1.0  0.86546  0.18859  0.76459  1.0000
  H   H958      1.0  0.83151  0.19392  0.71361  1.0000
  C   C543      1.0  0.78827  0.26061  0.94554  1.0000
  H   H959      1.0  0.53521  0.19315  0.85391  1.0000
  H   H960      1.0  0.82327  0.09312  0.75349  1.0000
  H   H961      1.0  0.89683  0.20868  0.67339  1.0000
  H   H962      1.0  0.77832  0.26401  0.92572  1.0000
  H   H963      1.0  0.80816  0.24694  0.91558  1.0000
  S   S121      1.0  0.89244  0.29368  0.94492  1.0000
  C   C544      1.0  0.48210  0.17775  0.86101  1.0000
  C   C545      1.0  0.48404  0.04461  0.84157  1.0000
  H   H964      1.0  0.84991  0.00729  0.55213  1.0000
  H   H965      1.0  0.82435  0.21958  0.90914  1.0000
  H   H966      1.0  0.89579  0.13755  0.52989  1.0000
  H   H967      1.0  0.87348  0.08320  0.52686  1.0000
  C   C546      1.0  0.54257  0.03782  0.95412  1.0000
  C   C547      1.0  0.54033  0.01698  0.93004  1.0000
  H   H968      1.0  0.52919  0.04547  0.94814  1.0000
  H   H969      1.0  0.91868  0.11068  0.59613  1.0000
  C   C548      1.0  0.48405  0.05764  0.86882  1.0000
  C   C549      1.0  0.50677  0.06790  0.88784  1.0000
  H   H970      1.0  0.87209  0.23867  0.97575  1.0000
  C   C550      1.0  0.83811  0.99462  0.59845  1.0000
  C   C551      1.0  0.91080  0.09898  0.57452  1.0000
  S   S122      1.0  0.68896  0.98991  0.68405  1.0000
  H   H971      1.0  0.53769  0.99925  0.86846  1.0000
  H   H972      1.0  0.64099  0.01843  0.75376  1.0000
  H   H973      1.0  0.73758  0.15633  0.94233  1.0000
  H   H974      1.0  0.85758  0.20048  0.94456  1.0000
  H   H975      1.0  0.91852  0.11273  0.55477  1.0000
  H   H976      1.0  0.72872  0.14930  0.98222  1.0000
  H   H977      1.0  0.57596  0.07175  0.93308  1.0000
  H   H978      1.0  0.91893  0.16129  0.50330  1.0000
  S   S123      1.0  0.95797  0.24169  0.70845  1.0000
  H   H979      1.0  0.76331  0.19566  0.97599  1.0000
  H   H980      1.0  0.85170  0.98666  0.60145  1.0000
  N   N31       1.0  0.51367  0.99214  0.92766  1.0000
  C   C552      1.0  0.59100  0.98560  0.97893  1.0000
  H   H981      1.0  0.47492  0.13343  0.94533  1.0000
  C   C553      1.0  0.51976  0.97989  0.87189  1.0000
  H   H982      1.0  0.83146  0.19282  0.98601  1.0000
  H   H983      1.0  0.47128  0.12975  0.88781  1.0000
  H   H984      1.0  0.57168  0.07576  0.97337  1.0000
  H   H985      1.0  0.81068  0.31105  0.76210  1.0000
  H   H986      1.0  0.54279  0.99211  0.98175  1.0000
  C   C554      1.0  0.50441  0.97941  0.95865  1.0000
  H   H987      1.0  0.80133  0.23400  0.98487  1.0000
  H   H988      1.0  0.86190  0.11742  0.48997  1.0000
  Fe  Fe60      1.0  0.50198  0.60090  0.11702  1.0000
  S   S124      1.0  0.50917  0.62451  0.07399  1.0000
  Fe  Fe61      1.0  0.55088  0.63203  0.07627  1.0000
  S   S125      1.0  0.56655  0.62789  0.02895  1.0000
  S   S126      1.0  0.54362  0.60752  0.11887  1.0000
  C   C555      1.0  0.61702  0.57550  0.39657  1.0000
  C   C556      1.0  0.58317  0.59051  0.03027  1.0000
  H   H989      1.0  0.58670  0.59472  0.05465  1.0000
  H   H990      1.0  0.61551  0.57785  0.34759  1.0000
  C   C557      1.0  0.95504  0.46345  0.07503  1.0000
  H   H991      1.0  0.59209  0.61771  0.23673  1.0000
  C   C558      1.0  0.87840  0.61253  0.28408  1.0000
  C   C559      1.0  0.57258  0.60315  0.01293  1.0000
  H   H992      1.0  0.57335  0.59086  0.26269  1.0000
  H   H993      1.0  0.85956  0.60657  0.27150  1.0000
  H   H994      1.0  0.94083  0.34428  0.08283  1.0000
  C   C560      1.0  0.96402  0.53755  0.07823  1.0000
  C   C561      1.0  0.59063  0.57350  0.01573  1.0000
  N   N32       1.0  0.49644  0.52920  0.04776  1.0000
  H   H995      1.0  0.47375  0.54844  0.05667  1.0000
  H   H996      1.0  0.94056  0.46253  0.09222  1.0000
  C   C562      1.0  0.51712  0.54620  0.07145  1.0000
  H   H997      1.0  0.91993  0.38220  0.06929  1.0000
  N   N33       1.0  0.62383  0.63022  0.33942  1.0000
  C   C563      1.0  0.49392  0.51013  0.99268  1.0000
  C   C564      1.0  0.53235  0.53359  0.08644  1.0000
  H   H998      1.0  0.50792  0.55196  0.09018  1.0000
  H   H999      1.0  0.87324  0.56238  0.29104  1.0000
  H   H1000     1.0  0.86651  0.62606  0.34544  1.0000
  C   C565      1.0  0.50133  0.57092  0.02088  1.0000
  C   C566      1.0  0.55012  0.55072  0.11281  1.0000
  C   C567      1.0  0.95814  0.39010  0.04913  1.0000
  C   C568      1.0  0.48327  0.54428  0.03682  1.0000
  C   C569      1.0  0.93135  0.58239  0.99713  1.0000
  N   N34       1.0  0.96098  0.41026  0.02553  1.0000
  H   H1001     1.0  0.53816  0.55289  0.13124  1.0000
  H   H1002     1.0  0.53251  0.56503  0.06125  1.0000
  C   C570      1.0  0.66293  0.63043  0.30989  1.0000
  H   H1003     1.0  0.95721  0.64248  0.33277  1.0000
  H   H1004     1.0  0.96510  0.37687  0.03981  1.0000
  H   H1005     1.0  0.63159  0.62724  0.38762  1.0000
  H   H1006     1.0  0.94846  0.32021  0.03838  1.0000
  C   C571      1.0  0.60656  0.61217  0.31381  1.0000
  H   H1007     1.0  0.54530  0.53159  0.06925  1.0000
  H   H1008     1.0  0.51870  0.51380  0.09592  1.0000
  H   H1009     1.0  0.94715  0.52020  0.06692  1.0000
  C   C572      1.0  0.61917  0.61431  0.36834  1.0000
  H   H1010     1.0  0.84060  0.61628  0.31752  1.0000
  H   H1011     1.0  0.59529  0.56603  0.39955  1.0000
  H   H1012     1.0  0.91885  0.39551  0.01992  1.0000
  H   H1013     1.0  0.94551  0.42380  0.08417  1.0000
  H   H1014     1.0  0.58583  0.59993  0.32195  1.0000
  H   H1015     1.0  0.59294  0.63981  0.34784  1.0000
  C   C573      1.0  0.89274  0.59997  0.26683  1.0000
  H   H1016     1.0  0.52841  0.54205  0.01505  1.0000
  H   H1017     1.0  0.47134  0.58452  0.18295  1.0000
  H   H1018     1.0  0.56084  0.54130  0.12284  1.0000
  H   H1019     1.0  0.62233  0.55974  0.39538  1.0000
  C   C574      1.0  0.47646  0.50394  0.06352  1.0000
  H   H1020     1.0  0.88677  0.56137  0.25417  1.0000
  H   H1021     1.0  0.70069  0.64456  0.33361  1.0000
  H   H1022     1.0  0.95635  0.54910  0.09038  1.0000
  H   H1023     1.0  0.60622  0.59859  0.25088  1.0000
  C   C575      1.0  0.85744  0.63358  0.32900  1.0000
  H   H1024     1.0  0.49874  0.60220  0.99751  1.0000
  C   C576      1.0  0.91842  0.63929  0.33641  1.0000
  H   H1025     1.0  0.91333  0.57071  0.00990  1.0000
  H   H1026     1.0  0.48297  0.48900  0.06270  1.0000
  H   H1027     1.0  0.51301  0.56884  0.00215  1.0000
  C   C577      1.0  0.60545  0.62629  0.28419  1.0000
  H   H1028     1.0  0.51496  0.58548  0.03797  1.0000
  H   H1029     1.0  0.65657  0.63041  0.28580  1.0000
  H   H1030     1.0  0.93266  0.36241  0.99496  1.0000
  C   C578      1.0  0.93100  0.35570  0.08925  1.0000
  C   C579      1.0  0.95559  0.59682  0.01329  1.0000
  H   H1031     1.0  0.56495  0.57055  0.10432  1.0000
  C   C580      1.0  0.51032  0.52354  0.02204  1.0000
  H   H1032     1.0  0.94191  0.36918  0.10881  1.0000
  H   H1033     1.0  0.59954  0.56452  0.02928  1.0000
  Fe  Fe62      1.0  0.55549  0.64526  0.14591  1.0000
  H   H1034     1.0  0.51777  0.51045  0.03021  1.0000
  H   H1035     1.0  0.89604  0.60604  0.24235  1.0000
  H   H1036     1.0  0.47517  0.50776  0.08853  1.0000
  H   H1037     1.0  0.61261  0.59768  0.30700  1.0000
  H   H1038     1.0  0.59821  0.60582  0.37571  1.0000
  H   H1039     1.0  0.95600  0.59612  0.03816  1.0000
  C   C581      1.0  0.59351  0.60705  0.25706  1.0000
  C   C582      1.0  0.93001  0.37139  0.06179  1.0000
  H   H1040     1.0  0.64731  0.60005  0.36517  1.0000
  C   C583      1.0  0.96761  0.43608  0.04106  1.0000
  H   H1041     1.0  0.85676  0.56292  0.25587  1.0000
  C   C584      1.0  0.87627  0.56982  0.26707  1.0000
  C   C585      1.0  0.94688  0.43556  0.06359  1.0000
  H   H1042     1.0  0.91748  0.35687  0.04385  1.0000
  H   H1043     1.0  0.62713  0.58828  0.41693  1.0000
  S   S127      1.0  0.51314  0.63675  0.14730  1.0000
  H   H1044     1.0  0.69941  0.63280  0.29479  1.0000
  C   C586      1.0  0.62563  0.59168  0.36703  1.0000
  H   H1045     1.0  0.90771  0.61742  0.33535  1.0000
  H   H1046     1.0  0.87233  0.60254  0.30662  1.0000
  H   H1047     1.0  0.91062  0.34161  0.09694  1.0000
  C   C587      1.0  0.48516  0.58227  0.00686  1.0000
  H   H1048     1.0  0.92713  0.42728  0.05270  1.0000
  C   C588      1.0  0.94802  0.32348  0.01397  1.0000
  H   H1049     1.0  0.65525  0.60963  0.31637  1.0000
  H   H1050     1.0  0.83147  0.63425  0.36429  1.0000
  C   C589      1.0  0.93660  0.40116  0.00574  1.0000
  H   H1051     1.0  0.91208  0.60570  0.27773  1.0000
  H   H1052     1.0  0.94470  0.63873  0.37144  1.0000
  C   C590      1.0  0.69304  0.64391  0.30999  1.0000
  H   H1053     1.0  0.62542  0.64206  0.27763  1.0000
  N   N35       1.0  0.89377  0.64220  0.28797  1.0000
  H   H1054     1.0  0.59300  0.63548  0.28799  1.0000
  H   H1055     1.0  0.95548  0.47590  0.05562  1.0000
  H   H1056     1.0  0.47806  0.48977  0.99786  1.0000
  H   H1057     1.0  0.47257  0.58418  0.02465  1.0000
  C   C591      1.0  0.65289  0.64497  0.33137  1.0000
  H   H1058     1.0  0.88140  0.64541  0.24194  1.0000
  H   H1059     1.0  0.93860  0.41775  0.99130  1.0000
  Fe  Fe63      1.0  0.87161  0.56201  0.82950  1.0000
  S   S128      1.0  0.86265  0.57761  0.87263  1.0000
  S   S129      1.0  0.89376  0.58670  0.78699  1.0000
  Fe  Fe64      1.0  0.84723  0.50511  0.85540  1.0000
  S   S130      1.0  0.83639  0.51792  0.89961  1.0000
  S   S131      1.0  0.83331  0.46089  0.84481  1.0000
  Fe  Fe65      1.0  0.82245  0.54056  0.87054  1.0000
  S   S132      1.0  0.78595  0.54417  0.88410  1.0000
  Fe  Fe66      1.0  0.87724  0.55387  0.89859  1.0000
  S   S133      1.0  0.89868  0.56460  0.94582  1.0000
  S   S134      1.0  0.83086  0.52589  0.82620  1.0000
  S   S135      1.0  0.88862  0.54015  0.85554  1.0000
  Fe  Fe67      1.0  0.86380  0.33278  0.85863  1.0000
  C   C592      1.0  0.80517  0.43354  0.91980  1.0000
  S   S136      1.0  0.87353  0.37664  0.86201  1.0000
  H   H1060     1.0  0.85833  0.33874  0.76781  1.0000
  H   H1061     1.0  0.85297  0.61633  0.67929  1.0000
  H   H1062     1.0  0.85854  0.35631  0.80147  1.0000
  Fe  Fe68      1.0  0.60366  0.53976  0.91538  1.0000
  S   S137      1.0  0.57887  0.54190  0.87748  1.0000
  S   S138      1.0  0.59940  0.54889  0.96621  1.0000
  Fe  Fe69      1.0  0.63212  0.52042  0.87007  1.0000
  S   S139      1.0  0.60679  0.52005  0.83019  1.0000
  S   S140      1.0  0.66474  0.51085  0.85570  1.0000
  Fe  Fe70      1.0  0.61583  0.56004  0.84817  1.0000
  S   S141      1.0  0.63593  0.60143  0.82572  1.0000
  Fe  Fe71      1.0  0.57188  0.50142  0.86295  1.0000
  S   S142      1.0  0.52735  0.47023  0.85523  1.0000
  S   S143      1.0  0.64115  0.56030  0.88749  1.0000
  S   S144      1.0  0.59656  0.49922  0.90157  1.0000
  C   C593      1.0  0.93026  0.37787  0.98336  1.0000
  C   C594      1.0  0.50499  0.43501  0.85546  1.0000
  C   C595      1.0  0.47745  0.42524  0.85558  1.0000
  H   H1063     1.0  0.96680  0.61904  0.80775  1.0000
  C   C596      1.0  0.94493  0.61448  0.85108  1.0000
  H   H1064     1.0  0.91863  0.47412  0.77595  1.0000
  C   C597      1.0  0.51365  0.41656  0.85461  1.0000
  H   H1065     1.0  0.95029  0.56979  0.84721  1.0000
  H   H1066     1.0  0.96779  0.57748  0.81120  1.0000
  H   H1067     1.0  0.78984  0.32543  0.76645  1.0000
  H   H1068     1.0  0.53461  0.42348  0.85437  1.0000
  C   C598      1.0  0.75297  0.53646  0.87413  1.0000
  C   C599      1.0  0.73967  0.54547  0.89347  1.0000
  C   C600      1.0  0.71305  0.53849  0.88788  1.0000
  C   C601      1.0  0.69904  0.52200  0.86298  1.0000
  C   C602      1.0  0.71251  0.51346  0.84324  1.0000
  C   C603      1.0  0.73926  0.52080  0.84854  1.0000
  H   H1069     1.0  0.74991  0.55756  0.91337  1.0000
  H   H1070     1.0  0.70316  0.54526  0.90338  1.0000
  H   H1071     1.0  0.70204  0.50080  0.82381  1.0000
  H   H1072     1.0  0.74908  0.51385  0.83322  1.0000
  C   C604      1.0  0.84468  0.43769  0.85083  1.0000
  C   C605      1.0  0.86945  0.44496  0.86363  1.0000
  C   C606      1.0  0.87762  0.42599  0.86726  1.0000
  C   C607      1.0  0.86116  0.39928  0.85858  1.0000
  C   C608      1.0  0.83627  0.39193  0.84604  1.0000
  C   C609      1.0  0.82821  0.41096  0.84212  1.0000
  H   H1073     1.0  0.88246  0.46530  0.87048  1.0000
  H   H1074     1.0  0.89696  0.43213  0.87680  1.0000
  H   H1075     1.0  0.82329  0.37162  0.83909  1.0000
  H   H1076     1.0  0.80900  0.40490  0.83221  1.0000
  C   C610      1.0  0.80874  0.32693  0.77386  1.0000
  C   C611      1.0  0.90416  0.63493  0.92345  1.0000
  C   C612      1.0  0.57591  0.58051  0.96664  1.0000
  H   H1077     1.0  0.75267  0.59395  0.76586  1.0000
  C   C613      1.0  0.71594  0.62018  0.85110  1.0000
  H   H1078     1.0  0.57288  0.57660  0.94218  1.0000
  H   H1079     1.0  0.56007  0.60698  0.96760  1.0000
  H   H1080     1.0  0.92438  0.41443  0.72336  1.0000
  H   H1081     1.0  0.92493  0.60368  0.84033  1.0000
  H   H1082     1.0  0.95088  0.37554  0.76878  1.0000
  H   H1083     1.0  0.89897  0.38021  0.95856  1.0000
  C   C614      1.0  0.73516  0.49358  0.94561  1.0000
  C   C615      1.0  0.93012  0.58307  0.96476  1.0000
  H   H1084     1.0  0.72315  0.42141  0.91844  1.0000
  C   C616      1.0  0.72828  0.40059  0.88089  1.0000
  H   H1085     1.0  0.73546  0.43205  0.82675  1.0000
  C   C617      1.0  0.64939  0.61109  0.73234  1.0000
  C   C618      1.0  0.64050  0.59929  0.76149  1.0000
  C   C619      1.0  0.64728  0.61495  0.78819  1.0000
  H   H1086     1.0  0.64357  0.59872  0.71190  1.0000
  H   H1087     1.0  0.62790  0.57811  0.76318  1.0000
  H   H1088     1.0  0.63125  0.52547  0.76085  1.0000
  H   H1089     1.0  0.47037  0.43915  0.85593  1.0000
  C   C620      1.0  0.89727  0.61551  0.76827  1.0000
  H   H1090     1.0  0.60554  0.60252  0.88078  1.0000
  H   H1091     1.0  0.74171  0.56265  0.78425  1.0000
  C   C621      1.0  0.83179  0.35414  0.76572  1.0000
  H   H1092     1.0  0.73551  0.48403  0.96747  1.0000
  C   C622      1.0  0.90230  0.45451  0.78308  1.0000
  S   S145      1.0  0.89945  0.32704  0.85914  1.0000
  H   H1093     1.0  0.88322  0.45320  0.77687  1.0000
  H   H1094     1.0  0.87639  0.62512  0.80195  1.0000
  H   H1095     1.0  0.85030  0.62716  0.64131  1.0000
  H   H1096     1.0  0.82410  0.45014  0.91134  1.0000
  H   H1097     1.0  0.73528  0.57806  0.83314  1.0000
  H   H1098     1.0  0.74103  0.39594  0.89544  1.0000
  H   H1099     1.0  0.47244  0.56938  0.98782  1.0000
  H   H1100     1.0  0.94315  0.60418  0.87307  1.0000
  C   C623      1.0  0.85859  0.35700  0.77586  1.0000
  C   C624      1.0  0.64084  0.61583  0.92828  1.0000
  H   H1101     1.0  0.76658  0.42595  0.93348  1.0000
  H   H1102     1.0  0.88580  0.62780  0.90964  1.0000
  H   H1103     1.0  0.89877  0.34949  0.95371  1.0000
  H   H1104     1.0  0.77360  0.48961  0.91381  1.0000
  H   H1105     1.0  0.66811  0.57136  0.76440  1.0000
  H   H1106     1.0  0.76964  0.48561  0.85973  1.0000
  C   C625      1.0  0.90837  0.35625  0.77648  1.0000
  C   C626      1.0  0.72821  0.42549  0.89360  1.0000
  C   C627      1.0  0.88726  0.63093  0.78061  1.0000
  H   H1107     1.0  0.50235  0.37524  0.85219  1.0000
  H   H1108     1.0  0.69930  0.61421  0.78221  1.0000
  H   H1109     1.0  0.80887  0.42768  0.94271  1.0000
  C   C628      1.0  0.77787  0.44962  0.89096  1.0000
  H   H1110     1.0  0.93615  0.34229  0.78296  1.0000
  H   H1111     1.0  0.68106  0.59189  0.82797  1.0000
  C   C629      1.0  0.49519  0.38908  0.85333  1.0000
  H   H1112     1.0  0.94600  0.33410  0.92587  1.0000
  H   H1113     1.0  0.47347  0.32939  0.77299  1.0000
  H   H1114     1.0  0.81125  0.61703  0.67444  1.0000
  H   H1115     1.0  0.55736  0.58266  0.89114  1.0000
  H   H1116     1.0  0.77718  0.43528  0.87361  1.0000
  C   C630      1.0  0.78079  0.59248  0.79691  1.0000
  H   H1117     1.0  0.75577  0.46204  0.93838  1.0000
  C   C631      1.0  0.85264  0.63242  0.66619  1.0000
  H   H1118     1.0  0.91940  0.61202  0.73067  1.0000
  H   H1119     1.0  0.79525  0.46857  0.88405  1.0000
  C   C632      1.0  0.56651  0.59546  0.87086  1.0000
  C   C633      1.0  0.73158  0.47567  0.91804  1.0000
  H   H1120     1.0  0.49950  0.49845  0.94679  1.0000
  H   H1121     1.0  0.94116  0.36867  0.80881  1.0000
  H   H1122     1.0  0.71250  0.45703  0.92076  1.0000
  H   H1123     1.0  0.69276  0.54785  0.80839  1.0000
  H   H1124     1.0  0.66123  0.52764  0.74668  1.0000
  C   C634      1.0  0.70040  0.59357  0.83344  1.0000
  H   H1125     1.0  0.70363  0.55967  0.77059  1.0000
  H   H1126     1.0  0.90524  0.43586  0.74194  1.0000
  H   H1127     1.0  0.65551  0.55767  0.80168  1.0000
  H   H1128     1.0  0.92960  0.40452  0.66950  1.0000
  H   H1129     1.0  0.71116  0.42617  0.88305  1.0000
  H   H1130     1.0  0.73455  0.46613  0.85811  1.0000
  H   H1131     1.0  0.62144  0.59768  0.92474  1.0000
  C   C635      1.0  0.93043  0.64323  0.87404  1.0000
  H   H1132     1.0  0.83125  0.35683  0.74053  1.0000
  H   H1133     1.0  0.52034  0.49640  0.97596  1.0000
  C   C636      1.0  0.71635  0.61066  0.78090  1.0000
  H   H1134     1.0  0.73584  0.40318  0.85713  1.0000
  C   C637      1.0  0.96403  0.60974  0.83064  1.0000
  C   C638      1.0  0.75241  0.58442  0.78794  1.0000
  H   H1135     1.0  0.64566  0.60590  0.97536  1.0000
  H   H1136     1.0  0.77415  0.48763  0.80325  1.0000
  C   C639      1.0  0.75586  0.46801  0.80190  1.0000
  C   C640      1.0  0.75494  0.47019  0.91564  1.0000
  H   H1137     1.0  0.68197  0.61697  0.87500  1.0000
  H   H1138     1.0  0.79285  0.45956  0.93841  1.0000
  H   H1139     1.0  0.55613  0.60660  0.86592  1.0000
  C   C641      1.0  0.60046  0.63363  0.90364  1.0000
  C   C642      1.0  0.75389  0.45127  0.82975  1.0000
  H   H1140     1.0  0.91584  0.60863  0.90398  1.0000
  H   H1141     1.0  0.93448  0.57150  0.81200  1.0000
  C   C643      1.0  0.58762  0.56882  0.98370  1.0000
  H   H1142     1.0  0.90008  0.40672  0.67355  1.0000
  C   C644      1.0  0.91147  0.62365  0.74048  1.0000
  H   H1143     1.0  0.75654  0.45791  0.78045  1.0000
  H   H1144     1.0  0.73846  0.47086  0.80065  1.0000
  C   C645      1.0  0.51139  0.50816  0.96778  1.0000
  H   H1145     1.0  0.77124  0.44838  0.82907  1.0000
  C   C646      1.0  0.65125  0.52939  0.76755  1.0000
  N   N36       1.0  0.71314  0.59049  0.80466  1.0000
  H   H1146     1.0  0.80798  0.32389  0.79916  1.0000
  H   H1147     1.0  0.73014  0.48585  0.89744  1.0000
  H   H1148     1.0  0.64897  0.51422  0.78450  1.0000
  H   H1149     1.0  0.73329  0.61405  0.70066  1.0000
  N   N37       1.0  0.95276  0.64304  0.85677  1.0000
  H   H1150     1.0  0.92250  0.38313  0.71958  1.0000
  C   C647      1.0  0.93589  0.36113  0.78479  1.0000
  C   C648      1.0  0.69499  0.56316  0.79165  1.0000
  H   H1151     1.0  0.89783  0.37474  0.66999  1.0000
  H   H1152     1.0  0.87898  0.40448  0.80056  1.0000
  H   H1153     1.0  0.56395  0.58261  0.85065  1.0000
  H   H1154     1.0  0.75383  0.51278  0.94347  1.0000
  C   C649      1.0  0.91184  0.39399  0.71478  1.0000
  H   H1155     1.0  0.78109  0.58276  0.81872  1.0000
  C   C650      1.0  0.90506  0.43260  0.76710  1.0000
  H   H1156     1.0  0.69606  0.57722  0.84974  1.0000
  C   C651      1.0  0.90213  0.36528  0.97057  1.0000
  H   H1157     1.0  0.71850  0.49762  0.94637  1.0000
  C   C652      1.0  0.95371  0.59829  0.94875  1.0000
  C   C653      1.0  0.66696  0.55704  0.78179  1.0000
  C   C654      1.0  0.94633  0.33110  0.95037  1.0000
  N   N38       1.0  0.75322  0.45183  0.88983  1.0000
  H   H1158     1.0  0.89413  0.34080  0.79215  1.0000
  C   C655      1.0  0.73874  0.59174  0.81363  1.0000
  C   C656      1.0  0.56863  0.59766  0.98113  1.0000
  H   H1159     1.0  0.69241  0.37246  0.90479  1.0000
  C   C657      1.0  0.90958  0.39500  0.67982  1.0000
  H   H1160     1.0  0.79294  0.61425  0.79988  1.0000
  C   C658      1.0  0.82993  0.63613  0.67744  1.0000
  C   C659      1.0  0.75282  0.46482  0.86002  1.0000
  H   H1161     1.0  0.75335  0.61148  0.82270  1.0000
  C   C660      1.0  0.66334  0.64255  0.78514  1.0000
  N   N39       1.0  0.88322  0.38125  0.76470  1.0000
  C   C661      1.0  0.90659  0.38175  0.78029  1.0000
  C   C662      1.0  0.88161  0.40510  0.77518  1.0000
  H   H1162     1.0  0.90332  0.45306  0.80848  1.0000
  C   C663      1.0  0.88412  0.37991  0.72997  1.0000
  H   H1163     1.0  0.60406  0.62560  0.85491  1.0000
  C   C664      1.0  0.70184  0.62007  0.88067  1.0000
  C   C665      1.0  0.92429  0.63026  0.90627  1.0000
  H   H1164     1.0  0.92428  0.43495  0.77440  1.0000
  H   H1165     1.0  0.75806  0.63631  0.76916  1.0000
  H   H1166     1.0  0.71509  0.60276  0.75714  1.0000
  H   H1167     1.0  0.68712  0.37954  0.86571  1.0000
  C   C666      1.0  0.59595  0.61439  0.87653  1.0000
  H   H1168     1.0  0.90623  0.38519  0.80555  1.0000
  H   H1169     1.0  0.65223  0.62011  0.90681  1.0000
  H   H1170     1.0  0.86403  0.40488  0.76508  1.0000
  H   H1171     1.0  0.82828  0.36888  0.77789  1.0000
  C   C667      1.0  0.78449  0.44214  0.92265  1.0000
  H   H1172     1.0  0.73602  0.62446  0.85773  1.0000
  H   H1173     1.0  0.87456  0.35897  0.72183  1.0000
  H   H1174     1.0  0.87212  0.38786  0.71953  1.0000
  H   H1175     1.0  0.62171  0.63060  0.95725  1.0000
  C   C668      1.0  0.70052  0.37643  0.88108  1.0000
  H   H1176     1.0  0.78979  0.58622  0.77858  1.0000
  H   H1177     1.0  0.69988  0.60422  0.89628  1.0000
  H   H1178     1.0  0.70127  0.35883  0.87267  1.0000
  H   H1179     1.0  0.79833  0.41644  0.90375  1.0000
  H   H1180     1.0  0.90350  0.34819  0.75268  1.0000
  H   H1181     1.0  0.92548  0.39862  0.77240  1.0000
  H   H1182     1.0  0.58814  0.62167  0.92311  1.0000
  C   C669      1.0  0.66519  0.63872  0.72923  1.0000
  H   H1183     1.0  0.83299  0.64061  0.70242  1.0000
  H   H1184     1.0  0.65712  0.59223  0.94607  1.0000
  C   C670      1.0  0.95341  0.58029  0.82505  1.0000
  H   H1185     1.0  0.72018  0.63518  0.69051  1.0000
  H   H1186     1.0  0.94393  0.38498  0.96344  1.0000
  C   C671      1.0  0.65593  0.60995  0.95286  1.0000
  H   H1187     1.0  0.94222  0.63835  0.92097  1.0000
  H   H1188     1.0  0.96073  0.54098  0.93450  1.0000
  H   H1189     1.0  0.72943  0.62006  0.66060  1.0000
  H   H1190     1.0  0.77710  0.63517  0.65132  1.0000
  H   H1191     1.0  0.71325  0.63937  0.89281  1.0000
  H   H1192     1.0  0.52749  0.52813  0.96131  1.0000
  C   C672      1.0  0.78334  0.64556  0.67399  1.0000
  H   H1193     1.0  0.91192  0.63303  0.85999  1.0000
  H   H1194     1.0  0.95332  0.59870  0.92396  1.0000
  H   H1195     1.0  0.89897  0.62392  0.94547  1.0000
  H   H1196     1.0  0.78181  0.63027  0.69030  1.0000
  H   H1197     1.0  0.94287  0.64149  0.80824  1.0000
  C   C673      1.0  0.73474  0.62904  0.68402  1.0000
  H   H1198     1.0  0.48513  0.52145  0.98283  1.0000
  H   H1199     1.0  0.67635  0.62686  0.95557  1.0000
  H   H1200     1.0  0.71721  0.63645  0.83686  1.0000
  C   C674      1.0  0.74235  0.63782  0.78180  1.0000
  C   C675      1.0  0.63671  0.63884  0.93873  1.0000
  H   H1201     1.0  0.74991  0.64484  0.80533  1.0000
  H   H1202     1.0  0.64587  0.64375  0.87421  1.0000
  C   C676      1.0  0.92309  0.31283  0.96514  1.0000
  H   H1203     1.0  0.88750  0.35622  0.98935  1.0000
  H   H1204     1.0  0.59136  0.64542  0.89577  1.0000
  H   H1205     1.0  0.75431  0.83438  0.44691  1.0000
  H   H1206     1.0  0.91846  0.74751  0.48370  1.0000
  H   H1207     1.0  0.94263  0.82496  0.30054  1.0000
  H   H1208     1.0  0.93191  0.83970  0.19359  1.0000
  H   H1209     1.0  0.57847  0.87966  0.99942  1.0000
  H   H1210     1.0  0.65099  0.86321  0.42354  1.0000
  Fe  Fe72      1.0  0.91979  0.73463  0.33349  1.0000
  S   S146      1.0  0.87573  0.71558  0.32251  1.0000
  S   S147      1.0  0.93665  0.71161  0.35648  1.0000
  Fe  Fe73      1.0  0.70836  0.72010  0.38453  1.0000
  S   S148      1.0  0.74120  0.76204  0.38705  1.0000
  S   S149      1.0  0.68793  0.69647  0.42755  1.0000
  Fe  Fe74      1.0  0.70508  0.72067  0.31294  1.0000
  S   S150      1.0  0.73873  0.76293  0.31122  1.0000
  S   S151      1.0  0.68515  0.69724  0.26823  1.0000
  Fe  Fe75      1.0  0.75870  0.75079  0.34726  1.0000
  S   S152      1.0  0.80334  0.76656  0.35167  1.0000
  Fe  Fe76      1.0  0.71866  0.77036  0.35117  1.0000
  S   S153      1.0  0.70353  0.79912  0.35767  1.0000
  S   S154      1.0  0.72658  0.70808  0.34654  1.0000
  S   S155      1.0  0.68437  0.72886  0.35101  1.0000
  Fe  Fe77      1.0  0.70195  0.95445  0.30506  1.0000
  H   H1211     1.0  0.89014  0.73103  0.21417  1.0000
  S   S156      1.0  0.67611  0.93700  0.26133  1.0000
  Fe  Fe78      1.0  0.74468  0.94632  0.33611  1.0000
  S   S157      1.0  0.76570  0.92263  0.33400  1.0000
  S   S158      1.0  0.70119  0.92839  0.34359  1.0000
  Fe  Fe79      1.0  0.54641  0.89653  0.15098  1.0000
  S   S159      1.0  0.56231  0.88173  0.11358  1.0000
  S   S160      1.0  0.57145  0.92149  0.19262  1.0000
  Fe  Fe80      1.0  0.48975  0.86884  0.12219  1.0000
  S   S161      1.0  0.50296  0.85137  0.08411  1.0000
  Fe  Fe81      1.0  0.52518  0.84214  0.11981  1.0000
  S   S162      1.0  0.53239  0.80683  0.12722  1.0000
  Fe  Fe82      1.0  0.53903  0.89205  0.08047  1.0000
  S   S163      1.0  0.55207  0.90556  0.03053  1.0000
  S   S164      1.0  0.50982  0.85684  0.15841  1.0000
  S   S165      1.0  0.52530  0.90979  0.11737  1.0000
  C   C677      1.0  0.96313  0.74298  0.46750  1.0000
  S   S166      1.0  0.56541  0.67046  0.10313  1.0000
  H   H1212     1.0  0.54461  0.84654  0.02544  1.0000
  Fe  Fe83      1.0  0.52299  0.66096  0.10405  1.0000
  S   S167      1.0  0.50629  0.68848  0.09231  1.0000
  H   H1213     1.0  0.64847  0.67704  0.37509  1.0000
  C   C678      1.0  0.56709  0.93680  0.01147  1.0000
  C   C679      1.0  0.52484  0.77391  0.11685  1.0000
  C   C680      1.0  0.50459  0.75788  0.09613  1.0000
  C   C681      1.0  0.49950  0.73208  0.08877  1.0000
  C   C682      1.0  0.51449  0.72173  0.10189  1.0000
  C   C683      1.0  0.53484  0.73780  0.12248  1.0000
  C   C684      1.0  0.53993  0.76361  0.12985  1.0000
  N   N40       1.0  0.57016  0.82958  0.02880  1.0000
  N   N41       1.0  0.74177  0.89913  0.45006  1.0000
  H   H1214     1.0  0.54653  0.73028  0.13297  1.0000
  H   H1215     1.0  0.55560  0.77564  0.14596  1.0000
  C   C685      1.0  0.64593  0.93150  0.24385  1.0000
  C   C686      1.0  0.63772  0.91738  0.21574  1.0000
  C   C687      1.0  0.61476  0.91355  0.20012  1.0000
  C   C688      1.0  0.59971  0.92406  0.21221  1.0000
  C   C689      1.0  0.60782  0.93796  0.24049  1.0000
  C   C690      1.0  0.63054  0.94144  0.25635  1.0000
  H   H1216     1.0  0.64936  0.90958  0.20571  1.0000
  H   H1217     1.0  0.60894  0.90287  0.17844  1.0000
  H   H1218     1.0  0.59637  0.94612  0.25020  1.0000
  H   H1219     1.0  0.71923  0.91999  0.48897  1.0000
  C   C691      1.0  0.72108  0.83313  0.34949  1.0000
  C   C692      1.0  0.70806  0.84767  0.35288  1.0000
  C   C693      1.0  0.72145  0.87501  0.34783  1.0000
  C   C694      1.0  0.74808  0.88812  0.33954  1.0000
  C   C695      1.0  0.76111  0.87358  0.33603  1.0000
  C   C696      1.0  0.74763  0.84611  0.34084  1.0000
  H   H1220     1.0  0.68753  0.83771  0.35965  1.0000
  H   H1221     1.0  0.71121  0.88592  0.35055  1.0000
  H   H1222     1.0  0.78172  0.88359  0.32956  1.0000
  H   H1223     1.0  0.75783  0.83504  0.33823  1.0000
  C   C697      1.0  0.65555  0.68886  0.24696  1.0000
  H   H1224     1.0  0.51931  0.80808  0.05883  1.0000
  H   H1225     1.0  0.94018  0.82201  0.24152  1.0000
  C   C698      1.0  0.60767  0.67172  0.21272  1.0000
  C   C699      1.0  0.61171  0.68412  0.24183  1.0000
  C   C700      1.0  0.63549  0.69286  0.25868  1.0000
  H   H1226     1.0  0.89531  0.77546  0.21770  1.0000
  C   C701      1.0  0.62666  0.66776  0.37472  1.0000
  H   H1227     1.0  0.59627  0.68703  0.25142  1.0000
  H   H1228     1.0  0.63810  0.70231  0.28093  1.0000
  C   C702      1.0  0.85521  0.72893  0.33266  1.0000
  C   C703      1.0  0.86466  0.75200  0.35042  1.0000
  C   C704      1.0  0.84819  0.76267  0.35675  1.0000
  C   C705      1.0  0.82207  0.75051  0.34551  1.0000
  C   C706      1.0  0.81243  0.72713  0.32826  1.0000
  C   C707      1.0  0.82894  0.71645  0.32186  1.0000
  H   H1229     1.0  0.88474  0.76177  0.35905  1.0000
  H   H1230     1.0  0.85583  0.78071  0.37018  1.0000
  H   H1231     1.0  0.79242  0.71757  0.31935  1.0000
  H   H1232     1.0  0.82135  0.69858  0.30814  1.0000
  H   H1233     1.0  0.92284  0.79622  0.32292  1.0000
  H   H1234     1.0  0.80873  0.77020  0.28350  1.0000
  C   C708      1.0  0.71986  0.89916  0.43153  1.0000
  C   C709      1.0  0.61487  0.65004  0.34565  1.0000
  C   C710      1.0  0.70359  0.70351  0.46437  1.0000
  C   C711      1.0  0.73101  0.71922  0.46778  1.0000
  H   H1235     1.0  0.55227  0.78695  0.03062  1.0000
  H   H1236     1.0  0.74316  0.72775  0.44767  1.0000
  H   H1237     1.0  0.90881  0.64608  0.35324  1.0000
  C   C712      1.0  0.60166  0.84820  0.07678  1.0000
  H   H1238     1.0  0.86611  0.75105  0.23740  1.0000
  C   C713      1.0  0.89778  0.74281  0.23574  1.0000
  C   C714      1.0  0.93217  0.83559  0.24347  1.0000
  C   C715      1.0  0.68751  0.75780  0.45369  1.0000
  H   H1239     1.0  0.56254  0.81328  0.07446  1.0000
  C   C716      1.0  0.93502  0.83277  0.34656  1.0000
  H   H1240     1.0  0.75119  0.83953  0.40647  1.0000
  H   H1241     1.0  0.61877  0.65604  0.39602  1.0000
  C   C717      1.0  0.89531  0.73298  0.42573  1.0000
  H   H1242     1.0  0.75457  0.88423  0.41180  1.0000
  H   H1243     1.0  0.91972  0.75329  0.23530  1.0000
  H   H1244     1.0  0.49178  0.80091  0.99609  1.0000
  H   H1245     1.0  0.70629  0.76468  0.44102  1.0000
  C   C718      1.0  0.76594  0.92639  0.44867  1.0000
  N   N42       1.0  0.65967  0.85559  0.26555  1.0000
  C   C719      1.0  0.68385  0.87630  0.24907  1.0000
  C   C720      1.0  0.63592  0.84633  0.24461  1.0000
  C   C721      1.0  0.65527  0.86878  0.29320  1.0000
  C   C722      1.0  0.66250  0.83262  0.27661  1.0000
  C   C723      1.0  0.67972  0.82475  0.25694  1.0000
  C   C724      1.0  0.70900  0.89184  0.26932  1.0000
  C   C725      1.0  0.62947  0.85191  0.31150  1.0000
  C   C726      1.0  0.63655  0.83373  0.21339  1.0000
  C   C727      1.0  0.61291  0.82858  0.19324  1.0000
  C   C728      1.0  0.67737  0.79894  0.26823  1.0000
  C   C729      1.0  0.73370  0.90718  0.24973  1.0000
  C   C730      1.0  0.62910  0.86636  0.34080  1.0000
  H   H1246     1.0  0.67970  0.89120  0.23855  1.0000
  H   H1247     1.0  0.68904  0.86762  0.22941  1.0000
  H   H1248     1.0  0.61774  0.83098  0.25604  1.0000
  H   H1249     1.0  0.63252  0.86316  0.23979  1.0000
  H   H1250     1.0  0.65530  0.88705  0.28616  1.0000
  H   H1251     1.0  0.67177  0.87516  0.31004  1.0000
  H   H1252     1.0  0.67145  0.83670  0.30013  1.0000
  H   H1253     1.0  0.64265  0.81474  0.27926  1.0000
  H   H1254     1.0  0.70088  0.84014  0.25874  1.0000
  H   H1255     1.0  0.67419  0.82221  0.23230  1.0000
  H   H1256     1.0  0.70716  0.90649  0.28392  1.0000
  H   H1257     1.0  0.71202  0.87849  0.28463  1.0000
  H   H1258     1.0  0.62746  0.83268  0.31811  1.0000
  H   H1259     1.0  0.61192  0.84824  0.29774  1.0000
  H   H1260     1.0  0.65460  0.84660  0.20011  1.0000
  H   H1261     1.0  0.63515  0.81433  0.21727  1.0000
  H   H1262     1.0  0.61337  0.81895  0.17129  1.0000
  H   H1263     1.0  0.59401  0.81525  0.20501  1.0000
  H   H1264     1.0  0.61351  0.84742  0.18775  1.0000
  H   H1265     1.0  0.68356  0.80085  0.29276  1.0000
  H   H1266     1.0  0.65674  0.78237  0.26577  1.0000
  H   H1267     1.0  0.69042  0.79412  0.25443  1.0000
  H   H1268     1.0  0.73724  0.89345  0.23541  1.0000
  H   H1269     1.0  0.73159  0.92131  0.23466  1.0000
  H   H1270     1.0  0.75113  0.91856  0.26501  1.0000
  H   H1271     1.0  0.63028  0.88542  0.33501  1.0000
  H   H1272     1.0  0.61047  0.85402  0.35351  1.0000
  H   H1273     1.0  0.64597  0.87035  0.35600  1.0000
  H   H1274     1.0  0.59394  0.82276  0.11651  1.0000
  H   H1275     1.0  0.49113  0.68589  0.16697  1.0000
  C   C731      1.0  0.62792  0.66810  0.20083  1.0000
  H   H1276     1.0  0.62525  0.65850  0.17868  1.0000
  C   C732      1.0  0.60194  0.84402  0.11145  1.0000
  H   H1277     1.0  0.61972  0.92102  0.00814  1.0000
  C   C733      1.0  0.69224  0.77251  0.48435  1.0000
  H   H1278     1.0  0.72127  0.91891  0.43265  1.0000
  H   H1279     1.0  0.49380  0.94112  0.00325  1.0000
  H   H1280     1.0  0.66517  0.65121  0.35278  1.0000
  C   C734      1.0  0.94023  0.85240  0.21442  1.0000
  C   C735      1.0  0.62028  0.90232  0.00638  1.0000
  H   H1281     1.0  0.94171  0.84931  0.26322  1.0000
  C   C736      1.0  0.56875  0.80406  0.01888  1.0000
  H   H1282     1.0  0.76749  0.88252  0.44833  1.0000
  H   H1283     1.0  0.88525  0.80226  0.32184  1.0000
  C   C737      1.0  0.73735  0.97431  0.45939  1.0000
  C   C738      1.0  0.57629  0.96078  0.02735  1.0000
  H   H1284     1.0  0.90130  0.69196  0.26644  1.0000
  Fe  Fe84      1.0  0.96773  0.72800  0.31900  1.0000
  H   H1285     1.0  0.62595  0.70171  0.35489  1.0000
  H   H1286     1.0  0.89719  0.75182  0.41757  1.0000
  H   H1287     1.0  0.92970  0.67316  0.30858  1.0000
  H   H1288     1.0  0.67354  0.89655  0.41166  1.0000
  H   H1289     1.0  0.78715  0.92464  0.40745  1.0000
  C   C739      1.0  0.91661  0.69369  0.22118  1.0000
  H   H1290     1.0  0.61989  0.66372  0.32582  1.0000
  H   H1291     1.0  0.93942  0.85323  0.34190  1.0000
  H   H1292     1.0  0.76123  0.94143  0.45754  1.0000
  H   H1293     1.0  0.89250  0.81139  0.22494  1.0000
  H   H1294     1.0  0.72224  0.89610  0.40669  1.0000
  C   C740      1.0  0.51881  0.80560  0.03344  1.0000
  H   H1295     1.0  0.87997  0.70647  0.46371  1.0000
  C   C741      1.0  0.54453  0.82800  0.01904  1.0000
  C   C742      1.0  0.79955  0.96506  0.41709  1.0000
  H   H1296     1.0  0.67830  0.73625  0.45773  1.0000
  H   H1297     1.0  0.68579  0.88542  0.46241  1.0000
  H   H1298     1.0  0.93327  0.86695  0.21537  1.0000
  H   H1299     1.0  0.62248  0.85533  0.12043  1.0000
  C   C743      1.0  0.89984  0.65397  0.25611  1.0000
  C   C744      1.0  0.70991  0.96303  0.45789  1.0000
  H   H1300     1.0  0.89063  0.72907  0.25552  1.0000
  H   H1301     1.0  0.65831  0.66390  0.31969  1.0000
  H   H1302     1.0  0.61494  0.84212  0.06606  1.0000
  C   C745      1.0  0.74043  0.83316  0.42862  1.0000
  H   H1303     1.0  0.91521  0.73496  0.42658  1.0000
  H   H1304     1.0  0.76257  0.93390  0.39965  1.0000
  Fe  Fe85      1.0  0.71320  0.96320  0.37547  1.0000
  C   C746      1.0  0.72827  0.85023  0.43704  1.0000
  H   H1305     1.0  0.58985  0.85097  0.12370  1.0000
  C   C747      1.0  0.88233  0.72591  0.45743  1.0000
  H   H1306     1.0  0.63624  0.95208  0.27804  1.0000
  S   S168      1.0  0.94339  0.77085  0.36258  1.0000
  H   H1307     1.0  0.88991  0.76490  0.28784  1.0000
  H   H1308     1.0  0.85193  0.76908  0.28589  1.0000
  C   C748      1.0  0.74937  0.87997  0.43655  1.0000
  C   C749      1.0  0.94612  0.64818  0.34890  1.0000
  H   H1309     1.0  0.62913  0.70254  0.39620  1.0000
  H   H1310     1.0  0.69807  0.79330  0.47927  1.0000
  C   C750      1.0  0.51220  0.96030  0.00718  1.0000
  H   H1311     1.0  0.85055  0.80692  0.30787  1.0000
  C   C751      1.0  0.94390  0.71618  0.46807  1.0000
  C   C752      1.0  0.90023  0.81359  0.30402  1.0000
  H   H1312     1.0  0.88302  0.71719  0.40878  1.0000
  C   C753      1.0  0.59222  0.85221  0.01162  1.0000
  H   H1313     1.0  0.68796  0.85898  0.44445  1.0000
  S   S169      1.0  0.57656  0.66007  0.19326  1.0000
  H   H1314     1.0  0.71659  0.87343  0.48627  1.0000
  H   H1315     1.0  0.85368  0.78048  0.24767  1.0000
  C   C754      1.0  0.90181  0.82058  0.24743  1.0000
  Fe  Fe86      1.0  0.96237  0.74921  0.38310  1.0000
  H   H1316     1.0  0.81052  0.80182  0.28467  1.0000
  C   C755      1.0  0.81937  0.79061  0.27432  1.0000
  H   H1317     1.0  0.93650  0.70528  0.44669  1.0000
  H   H1318     1.0  0.86240  0.72356  0.45498  1.0000
  C   C756      1.0  0.92616  0.81610  0.31708  1.0000
  H   H1319     1.0  0.81650  0.78977  0.24897  1.0000
  H   H1320     1.0  0.90216  0.83354  0.30413  1.0000
  C   C757      1.0  0.65148  0.67638  0.21793  1.0000
  C   C758      1.0  0.84878  0.80418  0.28247  1.0000
  H   H1321     1.0  0.91960  0.78711  0.26948  1.0000
  C   C759      1.0  0.86103  0.78725  0.27154  1.0000
  H   H1322     1.0  0.91948  0.82384  0.36445  1.0000
  C   C760      1.0  0.89794  0.77904  0.26840  1.0000
  H   H1323     1.0  0.80774  0.97125  0.39360  1.0000
  C   C761      1.0  0.88802  0.76259  0.23817  1.0000
  N   N43       1.0  0.89086  0.80042  0.27278  1.0000
  H   H1324     1.0  0.67508  0.86907  0.39423  1.0000
  H   H1325     1.0  0.66613  0.95757  0.16852  1.0000
  H   H1326     1.0  0.89641  0.83609  0.25123  1.0000
  C   C762      1.0  0.61934  0.68947  0.37597  1.0000
  H   H1327     1.0  0.85847  0.82396  0.27185  1.0000
  S   S170      1.0  0.94911  0.74852  0.29449  1.0000
  C   C763      1.0  0.69104  0.87900  0.44075  1.0000
  H   H1328     1.0  0.83615  0.65538  0.33205  1.0000
  H   H1329     1.0  0.93298  0.69398  0.26543  1.0000
  H   H1330     1.0  0.78191  0.92763  0.46390  1.0000
  C   C764      1.0  0.91313  0.68452  0.25459  1.0000
  C   C765      1.0  0.87727  0.65189  0.30437  1.0000
  S   S171      1.0  0.74533  0.97047  0.29580  1.0000
  H   H1331     1.0  0.61150  0.81768  0.01618  1.0000
  H   H1332     1.0  0.56306  0.84359  0.07215  1.0000
  H   H1333     1.0  0.67429  0.94818  0.48460  1.0000
  C   C766      1.0  0.67152  0.87689  0.41596  1.0000
  H   H1334     1.0  0.63582  0.90370  0.02230  1.0000
  H   H1335     1.0  0.70178  0.66430  0.30106  1.0000
  H   H1336     1.0  0.67389  0.76115  0.43902  1.0000
  H   H1337     1.0  0.72458  0.81224  0.42592  1.0000
  C   C767      1.0  0.59331  0.87921  0.01508  1.0000
  H   H1338     1.0  0.89025  0.67158  0.31528  1.0000
  C   C768      1.0  0.57311  0.83298  0.06336  1.0000
  H   H1339     1.0  0.71270  0.84609  0.41964  1.0000
  H   H1340     1.0  0.90428  0.76674  0.47171  1.0000
  S   S172      1.0  0.69291  0.95568  0.42206  1.0000
  C   C769      1.0  0.49454  0.80605  0.02100  1.0000
  H   H1341     1.0  0.89707  0.68689  0.21013  1.0000
  H   H1342     1.0  0.51567  0.78570  0.02801  1.0000
  H   H1343     1.0  0.61040  0.86972  0.07297  1.0000
  H   H1344     1.0  0.49252  0.76515  0.08615  1.0000
  H   H1345     1.0  0.47666  0.79139  0.03349  1.0000
  C   C770      1.0  0.77794  0.93600  0.41626  1.0000
  H   H1346     1.0  0.92817  0.71560  0.22052  1.0000
  H   H1347     1.0  0.66696  0.68026  0.48851  1.0000
  H   H1348     1.0  0.50793  0.97327  0.02200  1.0000
  H   H1349     1.0  0.92749  0.68592  0.20782  1.0000
  H   H1350     1.0  0.66669  0.67300  0.20858  1.0000
  H   H1351     1.0  0.57432  0.96075  0.05211  1.0000
  H   H1352     1.0  0.96211  0.86340  0.21254  1.0000
  H   H1353     1.0  0.57206  0.75821  0.02238  1.0000
  H   H1354     1.0  0.49659  0.82586  0.02420  1.0000
  H   H1355     1.0  0.61177  0.85507  0.01832  1.0000
  C   C771      1.0  0.59319  0.80128  0.02598  1.0000
  H   H1356     1.0  0.95329  0.83368  0.35551  1.0000
  H   H1357     1.0  0.58876  0.88252  0.03893  1.0000
  C   C772      1.0  0.89940  0.74741  0.48188  1.0000
  H   H1358     1.0  0.69486  0.97920  0.21726  1.0000
  H   H1359     1.0  0.59763  0.68069  0.37824  1.0000
  H   H1360     1.0  0.59554  0.80048  0.05124  1.0000
  H   H1361     1.0  0.91353  0.64898  0.24388  1.0000
  H   H1362     1.0  0.60735  0.77372  0.01836  1.0000
  H   H1363     1.0  0.48361  0.71993  0.07297  1.0000
  H   H1364     1.0  0.71904  0.84364  0.45987  1.0000
  H   H1365     1.0  0.95732  0.66995  0.35238  1.0000
  H   H1366     1.0  0.81582  0.96809  0.43288  1.0000
  C   C773      1.0  0.58979  0.77548  0.01254  1.0000
  C   C774      1.0  0.69554  0.95690  0.48551  1.0000
  C   C775      1.0  0.84615  0.64797  0.34752  1.0000
  H   H1367     1.0  0.56446  0.80071  0.99370  1.0000
  H   H1368     1.0  0.54232  0.82621  0.99349  1.0000
  C   C776      1.0  0.73485  0.89275  0.48359  1.0000
  H   H1369     1.0  0.93370  0.64867  0.28983  1.0000
  H   H1370     1.0  0.86212  0.66495  0.36046  1.0000
  C   C777      1.0  0.75019  0.97914  0.48812  1.0000
  H   H1371     1.0  0.64640  0.97095  0.15412  1.0000
  H   H1372     1.0  0.47223  0.69815  0.14712  1.0000
  H   H1373     1.0  0.47271  0.69769  0.18855  1.0000
  C   C778      1.0  0.47261  0.68686  0.16739  1.0000
  C   C779      1.0  0.66611  0.97619  0.16361  1.0000
  C   C780      1.0  0.91970  0.65151  0.30455  1.0000
  H   H1374     1.0  0.79134  0.97766  0.42470  1.0000
  H   H1375     1.0  0.86483  0.65529  0.28756  1.0000
  H   H1376     1.0  0.52645  0.95632  0.01954  1.0000
  H   H1377     1.0  0.74864  0.97912  0.43840  1.0000
  Fe  Fe87      1.0  0.92401  0.75722  0.63835  1.0000
  S   S173      1.0  0.90551  0.71330  0.63510  1.0000
  S   S174      1.0  0.89992  0.77600  0.62413  1.0000
  Fe  Fe88      1.0  0.93048  0.71631  0.67629  1.0000
  S   S175      1.0  0.91156  0.69243  0.72046  1.0000
  S   S176      1.0  0.94681  0.76042  0.68149  1.0000
  Fe  Fe89      1.0  0.75863  0.73845  0.67084  1.0000
  S   S177      1.0  0.73846  0.69872  0.64803  1.0000
  S   S178      1.0  0.79569  0.74812  0.69772  1.0000
  Fe  Fe90      1.0  0.71557  0.75080  0.65160  1.0000
  S   S179      1.0  0.69188  0.71055  0.62850  1.0000
  S   S180      1.0  0.69953  0.77923  0.64315  1.0000
  Fe  Fe91      1.0  0.70155  0.69377  0.67047  1.0000
  H   H1378     1.0  0.88394  0.66594  0.77543  1.0000
  Fe  Fe92      1.0  0.73063  0.71857  0.60848  1.0000
  S   S181      1.0  0.74373  0.71563  0.55953  1.0000
  S   S182      1.0  0.72212  0.73324  0.69494  1.0000
  S   S183      1.0  0.75389  0.75907  0.62998  1.0000
  Fe  Fe93      1.0  0.73740  0.93724  0.65672  1.0000
  S   S184      1.0  0.70712  0.94262  0.63002  1.0000
  S   S185      1.0  0.73889  0.90098  0.67459  1.0000
  H   H1379     1.0  0.93408  0.66358  0.87749  1.0000
  C   C781      1.0  0.95121  0.67955  0.82341  1.0000
  H   H1380     1.0  0.81232  0.67457  0.60625  1.0000
  H   H1381     1.0  0.63256  0.91673  0.80964  1.0000
  C   C782      1.0  0.87478  0.71094  0.55882  1.0000
  H   H1382     1.0  0.64215  0.93247  0.70036  1.0000
  S   S186      1.0  0.93252  0.70020  0.55983  1.0000
  H   H1383     1.0  0.56304  0.91913  0.96658  1.0000
  H   H1384     1.0  0.60704  0.70591  0.94882  1.0000
  H   H1385     1.0  0.89499  0.71896  0.56844  1.0000
  H   H1386     1.0  0.59818  0.69183  0.98672  1.0000
  C   C783      1.0  0.83182  0.76048  0.53593  1.0000
  H   H1387     1.0  0.90167  0.76186  0.55890  1.0000
  H   H1388     1.0  0.85068  0.73843  0.49375  1.0000
  C   C784      1.0  0.72749  0.71175  0.52353  1.0000
  C   C785      1.0  0.70000  0.69673  0.52027  1.0000
  H   H1389     1.0  0.70262  0.85974  0.73837  1.0000
  H   H1390     1.0  0.68792  0.68760  0.54027  1.0000
  H   H1391     1.0  0.80700  0.80204  0.54581  1.0000
  C   C786      1.0  0.71185  0.81354  0.65097  1.0000
  C   C787      1.0  0.73234  0.82798  0.67202  1.0000
  C   C788      1.0  0.74044  0.85471  0.67857  1.0000
  C   C789      1.0  0.72874  0.86768  0.66367  1.0000
  C   C790      1.0  0.70860  0.85341  0.64212  1.0000
  C   C791      1.0  0.70002  0.82647  0.63616  1.0000
  H   H1392     1.0  0.74157  0.81840  0.68378  1.0000
  H   H1393     1.0  0.75594  0.86542  0.69540  1.0000
  H   H1394     1.0  0.69918  0.86292  0.63066  1.0000
  H   H1395     1.0  0.68401  0.81550  0.62001  1.0000
  H   H1396     1.0  0.65029  0.88729  0.67623  1.0000
  C   C792      1.0  0.96334  0.74399  0.52383  1.0000
  H   H1397     1.0  0.62615  0.68740  0.91092  1.0000
  H   H1398     1.0  0.94488  0.80959  0.82574  1.0000
  H   H1399     1.0  0.68435  0.67559  0.75417  1.0000
  C   C793      1.0  0.82034  0.67874  0.70501  1.0000
  C   C794      1.0  0.61221  0.69629  0.96740  1.0000
  H   H1400     1.0  0.67501  0.81187  0.73382  1.0000
  C   C795      1.0  0.87139  0.76900  0.64505  1.0000
  C   C796      1.0  0.85093  0.77082  0.63046  1.0000
  C   C797      1.0  0.82751  0.76432  0.64630  1.0000
  C   C798      1.0  0.82487  0.75689  0.67718  1.0000
  C   C799      1.0  0.84580  0.75617  0.69211  1.0000
  C   C800      1.0  0.86891  0.76196  0.67603  1.0000
  H   H1401     1.0  0.85296  0.77688  0.60672  1.0000
  H   H1402     1.0  0.81160  0.76524  0.63471  1.0000
  H   H1403     1.0  0.84401  0.75098  0.71615  1.0000
  H   H1404     1.0  0.88493  0.76125  0.68765  1.0000
  C   C801      1.0  0.94439  0.71712  0.52453  1.0000
  C   C802      1.0  0.65303  0.90910  0.77293  1.0000
  H   H1405     1.0  0.67307  0.84848  0.76113  1.0000
  Fe  Fe94      1.0  0.94071  0.72218  0.60575  1.0000
  H   H1406     1.0  0.88911  0.70834  0.51490  1.0000
  H   H1407     1.0  0.71054  0.75095  0.50342  1.0000
  H   H1408     1.0  0.81856  0.97816  0.59095  1.0000
  H   H1409     1.0  0.72959  0.65289  0.74334  1.0000
  H   H1410     1.0  0.63313  0.88654  0.71072  1.0000
  H   H1411     1.0  0.64200  0.86987  0.75785  1.0000
  C   C803      1.0  0.73855  0.65924  0.76660  1.0000
  H   H1412     1.0  0.73294  0.75747  0.55217  1.0000
  H   H1413     1.0  0.69688  0.77400  0.57869  1.0000
  C   C804      1.0  0.86585  0.75151  0.51083  1.0000
  H   H1414     1.0  0.63248  0.71011  0.97603  1.0000
  N   N44       1.0  0.88737  0.74450  0.51347  1.0000
  H   H1415     1.0  0.83770  0.72822  0.54638  1.0000
  H   H1416     1.0  0.74096  0.78470  0.57621  1.0000
  H   H1417     1.0  0.77340  0.81362  0.53103  1.0000
  N   N45       1.0  0.71810  0.78238  0.53575  1.0000
  H   H1418     1.0  0.62031  0.88214  0.80202  1.0000
  S   S187      1.0  0.96444  0.72151  0.64661  1.0000
  C   C805      1.0  0.73114  0.91343  0.50216  1.0000
  H   H1419     1.0  0.92667  0.65262  0.70399  1.0000
  C   C806      1.0  0.73666  0.82695  0.56514  1.0000
  H   H1420     1.0  0.66916  0.88354  0.78347  1.0000
  H   H1421     1.0  0.92408  0.75647  0.53730  1.0000
  H   H1422     1.0  0.48585  0.96009  0.95602  1.0000
  H   H1423     1.0  0.75788  0.67772  0.76443  1.0000
  C   C807      1.0  0.67676  0.67957  0.89449  1.0000
  H   H1424     1.0  0.79292  0.71430  0.61527  1.0000
  H   H1425     1.0  0.64982  0.68952  0.93831  1.0000
  H   H1426     1.0  0.95744  0.81662  0.72114  1.0000
  H   H1427     1.0  0.96067  0.80195  0.55059  1.0000
  C   C808      1.0  0.89157  0.65411  0.76544  1.0000
  H   H1428     1.0  0.70788  0.93195  0.78769  1.0000
  H   H1429     1.0  0.83885  0.67238  0.55691  1.0000
  C   C809      1.0  0.71757  0.90258  0.53296  1.0000
  H   H1430     1.0  0.81349  0.66239  0.72188  1.0000
  H   H1431     1.0  0.73010  0.89795  0.54792  1.0000
  H   H1432     1.0  0.67838  0.77409  0.54680  1.0000
  H   H1433     1.0  0.75055  0.89062  0.49555  1.0000
  H   H1434     1.0  0.96531  0.84442  0.81857  1.0000
  H   H1435     1.0  0.58776  0.77509  0.98708  1.0000
  H   H1436     1.0  0.96480  0.79882  0.78211  1.0000
  C   C810      1.0  0.64972  0.89962  0.69551  1.0000
  H   H1437     1.0  0.85118  0.69140  0.75917  1.0000
  C   C811      1.0  0.73924  0.85420  0.56323  1.0000
  H   H1438     1.0  0.87894  0.72108  0.74470  1.0000
  H   H1439     1.0  0.84328  0.78191  0.53078  1.0000
  C   C812      1.0  0.62979  0.67594  0.92878  1.0000
  H   H1440     1.0  0.69231  0.91938  0.69518  1.0000
  H   H1441     1.0  0.87388  0.77175  0.50151  1.0000
  H   H1442     1.0  0.84885  0.67469  0.65504  1.0000
  H   H1443     1.0  0.52866  0.96030  0.96319  1.0000
  H   H1444     1.0  0.93764  0.80697  0.57344  1.0000
  H   H1445     1.0  0.76230  0.66789  0.66873  1.0000
  H   H1446     1.0  0.92007  0.68250  0.49681  1.0000
  S   S188      1.0  0.74525  0.96966  0.69129  1.0000
  C   C813      1.0  0.82845  0.65803  0.65896  1.0000
  C   C814      1.0  0.71824  0.93554  0.76536  1.0000
  H   H1447     1.0  0.61455  0.66152  0.97551  1.0000
  H   H1448     1.0  0.80443  0.70075  0.66452  1.0000
  Fe  Fe95      1.0  0.74162  0.97242  0.60163  1.0000
  C   C815      1.0  0.92412  0.79260  0.52664  1.0000
  H   H1449     1.0  0.93374  0.79576  0.50387  1.0000
  C   C816      1.0  0.96135  0.69416  0.79301  1.0000
  C   C817      1.0  0.85952  0.68135  0.56542  1.0000
  H   H1450     1.0  0.82111  0.64945  0.63567  1.0000
  C   C818      1.0  0.58178  0.96162  0.96301  1.0000
  S   S189      1.0  0.95792  0.76603  0.60698  1.0000
  H   H1451     1.0  0.95637  0.82994  0.54359  1.0000
  H   H1452     1.0  0.86932  0.67136  0.55423  1.0000
  H   H1453     1.0  0.64077  0.67080  0.87018  1.0000
  H   H1454     1.0  0.74724  0.86500  0.58537  1.0000
  H   H1455     1.0  0.53985  0.95774  0.86145  1.0000
  C   C819      1.0  0.68088  0.85155  0.73734  1.0000
  C   C820      1.0  0.95645  0.83283  0.66398  1.0000
  H   H1456     1.0  0.69162  0.73042  0.56281  1.0000
  C   C821      1.0  0.64359  0.92000  0.68188  1.0000
  C   C822      1.0  0.72612  0.81124  0.53445  1.0000
  H   H1457     1.0  0.58940  0.65733  0.94845  1.0000
  H   H1458     1.0  0.71470  0.69835  0.87139  1.0000
  C   C823      1.0  0.76674  0.79274  0.53641  1.0000
  H   H1459     1.0  0.71460  0.91772  0.54500  1.0000
  H   H1460     1.0  0.68403  0.67104  0.91207  1.0000
  C   C824      1.0  0.96655  0.81861  0.78283  1.0000
  H   H1461     1.0  0.65851  0.73280  0.59713  1.0000
  C   C825      1.0  0.66094  0.88835  0.76296  1.0000
  H   H1462     1.0  0.68019  0.69902  0.90290  1.0000
  C   C826      1.0  0.80174  0.68238  0.62002  1.0000
  C   C827      1.0  0.85034  0.74934  0.54048  1.0000
  H   H1463     1.0  0.50453  0.93972  0.85444  1.0000
  H   H1464     1.0  0.76414  0.73449  0.49928  1.0000
  H   H1465     1.0  0.85861  0.71343  0.69350  1.0000
  H   H1466     1.0  0.64431  0.70376  0.57283  1.0000
  H   H1467     1.0  0.82493  0.72168  0.60082  1.0000
  H   H1468     1.0  0.75288  0.86587  0.54446  1.0000
  C   C828      1.0  0.52400  0.97368  0.97656  1.0000
  H   H1469     1.0  0.86536  0.72034  0.57177  1.0000
  N   N46       1.0  0.81144  0.66811  0.67273  1.0000
  C   C829      1.0  0.90582  0.66225  0.73766  1.0000
  H   H1470     1.0  0.66861  0.65500  0.80542  1.0000
  C   C830      1.0  0.85054  0.69675  0.70967  1.0000
  H   H1471     1.0  0.70902  0.81333  0.52699  1.0000
  C   C831      1.0  0.81368  0.69031  0.65298  1.0000
  H   H1472     1.0  0.74138  0.82163  0.51652  1.0000
  C   C832      1.0  0.96420  0.82493  0.81650  1.0000
  H   H1473     1.0  0.83479  0.70580  0.65027  1.0000
  C   C833      1.0  0.67868  0.73750  0.55338  1.0000
  H   H1474     1.0  0.49857  0.95264  0.90866  1.0000
  H   H1475     1.0  0.65920  0.93289  0.66548  1.0000
  H   H1476     1.0  0.72536  0.66357  0.78082  1.0000
  C   C834      1.0  0.66909  0.82461  0.72128  1.0000
  C   C835      1.0  0.85724  0.70774  0.74251  1.0000
  H   H1477     1.0  0.67650  0.82686  0.69733  1.0000
  H   H1478     1.0  0.78948  0.80343  0.57924  1.0000
  H   H1479     1.0  0.63930  0.73097  0.56349  1.0000
  H   H1480     1.0  0.79523  0.69998  0.57950  1.0000
  C   C836      1.0  0.63844  0.90187  0.80361  1.0000
  C   C837      1.0  0.56999  0.93747  0.97920  1.0000
  H   H1481     1.0  0.75460  0.96712  0.78522  1.0000
  H   H1482     1.0  0.95918  0.83224  0.63873  1.0000
  H   H1483     1.0  0.78049  0.66723  0.62049  1.0000
  C   C838      1.0  0.93466  0.70331  0.49650  1.0000
  C   C839      1.0  0.69290  0.76812  0.55406  1.0000
  H   H1484     1.0  0.69172  0.66576  0.85698  1.0000
  C   C840      1.0  0.73901  0.77868  0.55152  1.0000
  C   C841      1.0  0.87640  0.71619  0.52360  1.0000
  C   C842      1.0  0.65367  0.72563  0.57291  1.0000
  H   H1485     1.0  0.72331  0.81645  0.58448  1.0000
  C   C843      1.0  0.80392  0.70610  0.60294  1.0000
  H   H1486     1.0  0.67022  0.92921  0.77540  1.0000
  H   H1487     1.0  0.92957  0.67194  0.82431  1.0000
  H   H1488     1.0  0.63963  0.91017  0.75560  1.0000
  H   H1489     1.0  0.65143  0.90181  0.82226  1.0000
  N   N47       1.0  0.67981  0.89557  0.73621  1.0000
  C   C844      1.0  0.67232  0.65435  0.75600  1.0000
  C   C845      1.0  0.70812  0.90924  0.74744  1.0000
  S   S190      1.0  0.75354  0.97833  0.55080  1.0000
  H   H1490     1.0  0.76633  0.78238  0.51469  1.0000
  H   H1491     1.0  0.78221  0.77188  0.56304  1.0000
  C   C846      1.0  0.94602  0.80878  0.55006  1.0000
  H   H1492     1.0  0.52623  0.96543  0.82855  1.0000
  C   C847      1.0  0.95650  0.65609  0.82570  1.0000
  H   H1493     1.0  0.71144  0.89637  0.76334  1.0000
  H   H1494     1.0  0.72159  0.91309  0.72768  1.0000
  H   H1495     1.0  0.68590  0.87547  0.69755  1.0000
  H   H1496     1.0  0.95388  0.85000  0.66943  1.0000
  C   C848      1.0  0.64707  0.66076  0.88713  1.0000
  H   H1497     1.0  0.69435  0.97404  0.74674  1.0000
  H   H1498     1.0  0.67263  0.72954  0.52966  1.0000
  H   H1499     1.0  0.65336  0.85889  0.71234  1.0000
  H   H1500     1.0  0.67977  0.93151  0.72361  1.0000
  H   H1501     1.0  0.91256  0.65627  0.92878  1.0000
  H   H1502     1.0  0.81097  0.69042  0.71257  1.0000
  H   H1503     1.0  0.64718  0.81464  0.72079  1.0000
  Fe  Fe96      1.0  0.71726  0.97700  0.66327  1.0000
  H   H1504     1.0  0.75645  0.82983  0.57087  1.0000
  H   H1505     1.0  0.75069  0.93103  0.50735  1.0000
  H   H1506     1.0  0.75152  0.93488  0.78741  1.0000
  C   C849      1.0  0.71425  0.77156  0.50336  1.0000
  S   S191      1.0  0.67486  0.65240  0.69144  1.0000
  H   H1507     1.0  0.71955  0.85224  0.55926  1.0000
  H   H1508     1.0  0.62446  0.90980  0.66927  1.0000
  H   H1509     1.0  0.69792  0.88465  0.52949  1.0000
  C   C850      1.0  0.78756  0.79247  0.55749  1.0000
  H   H1510     1.0  0.75938  0.95223  0.75122  1.0000
  C   C851      1.0  0.51605  0.97280  0.90654  1.0000
  C   C852      1.0  0.67449  0.87057  0.71941  1.0000
  H   H1511     1.0  0.71558  0.95003  0.75193  1.0000
  C   C853      1.0  0.61020  0.67063  0.95568  1.0000
  H   H1512     1.0  0.94955  0.81766  0.77029  1.0000
  H   H1513     1.0  0.93822  0.81435  0.67041  1.0000
  C   C854      1.0  0.67662  0.91287  0.71298  1.0000
  H   H1514     1.0  0.84726  0.71912  0.74826  1.0000
  C   C855      1.0  0.74772  0.94812  0.77271  1.0000
  H   H1515     1.0  0.68743  0.69348  0.84732  1.0000
  C   C856      1.0  0.73590  0.97298  0.51573  1.0000
  H   H1516     1.0  0.86103  0.68566  0.70560  1.0000
  C   C857      1.0  0.70846  0.96189  0.51435  1.0000
  C   C858      1.0  0.69361  0.68455  0.86572  1.0000
  H   H1517     1.0  0.85917  0.67816  0.59061  1.0000
  H   H1518     1.0  0.86368  0.76019  0.56002  1.0000
  H   H1519     1.0  0.87190  0.65081  0.67001  1.0000
  H   H1520     1.0  0.82039  0.75783  0.55734  1.0000
  H   H1521     1.0  0.85648  0.70337  0.51321  1.0000
  S   S192      1.0  0.77084  0.96494  0.62683  1.0000
  H   H1522     1.0  0.69717  0.95693  0.53541  1.0000
  H   H1523     1.0  0.91048  0.80064  0.52636  1.0000
  C   C859      1.0  0.74287  0.72300  0.49711  1.0000
  C   C860      1.0  0.52274  0.95935  0.85306  1.0000
  H   H1524     1.0  0.58382  0.96168  0.93827  1.0000
  N   N48       1.0  0.62863  0.65175  0.91435  1.0000
  H   H1525     1.0  0.53326  0.97070  0.91354  1.0000
  H   H1526     1.0  0.65502  0.65391  0.95070  1.0000
  C   C861      1.0  0.90915  0.76293  0.53522  1.0000
  H   H1527     1.0  0.81755  0.74990  0.51690  1.0000
  H   H1528     1.0  0.67607  0.97760  0.79707  1.0000
  H   H1529     1.0  0.95497  0.70906  0.79048  1.0000
  H   H1530     1.0  0.96064  0.69409  0.84233  1.0000
  H   H1531     1.0  0.95328  0.68018  0.77322  1.0000
  H   H1532     1.0  0.67316  0.76332  0.49670  1.0000
  H   H1533     1.0  0.76693  0.66157  0.70792  1.0000
  C   C862      1.0  0.91560  0.64671  0.72520  1.0000
  C   C863      1.0  0.76256  0.65312  0.68428  1.0000
  C   C864      1.0  0.68817  0.69248  0.49084  1.0000
  H   H1534     1.0  0.73270  0.78278  0.48987  1.0000
  H   H1535     1.0  0.59049  0.84757  0.98649  1.0000
  H   H1536     1.0  0.62529  0.90001  0.98234  1.0000
