data_image0
_chemical_formula_structural       CFeS2FeSFeSFeS3FeS2FeS2FeSFeHS2HCH2C2HCHCH3CHCNSH3C2H2C6H4C6H7CH9C2HC2H9C3H2CH5CH2C4H3CH2NHC2H3CH2CH3CH2C5H5CHC5H3NH7NC6H2C2HCH13CHCH12CH2C2HCHCHCHNH5C2H7CHCH2C3H4NCHCH3CHCH5CH5CH3SHC2H2CHCHCH2C3H2CHC3NH2C3HFeSFeS2FeSFeS3FeSCFeS2FeSFeS3FeSFeS2FeSFeS2CH2C6HCHCH2CH2CHC6HCH5C2HCH4C6H4C2HC3HCH2CH4C2HSNC12H20CH8CH8CH3CHCH2CH2CHNC12H28CNCHCH4CNC12H12C2H12NH3CH3CH2CH3CH4SCH2C2H3CH6CSHFeS2FeS2Fe2S4H2C2HFeSFeSFeSFeS2FeS2FeS2FeHFeS3CHCH2SHNCH2C4HCHCHCH2C6H4C2HC2H4NH2SH2CHC6H4C6H4CHC2HCNCH2C3H4C2HCHCHCH4C3HCH2CH2C2H2C3H2CH3NHCHCHCH3NH2CHCH2C3HCH4CH4C2H2CH4SCHCH3CH2CNCH4CH2CHCH3C3HCHCHCH4CHCSH3CH2C2H10CH5CH9CH6CH4SCH2CHC2HCHCH3NCH2C2NCH7C2H3CH2C3H6CH4C2HC2HC3H11CHFeS2FeSFeSFeS3FeSFeS4H5CHC2H2C4H2C7H8SH5C6H4NC12H21CH6NCH8CH2SHC3HC2H2CHCHCHC3HCH5C4FeH2SNH5FeH2C3HCH7CH2CH6CH9C2H2CHC2H9CHC2HCHCH2C3HCH4NCH6FeS2FeS2FeSFeS3FeSCSFeCFeS2CFeSHSFeSFeS2H3CH4CH2C6H4C6H4C6H5CHCH4CHC2H9CH2FeHCSHNCH4CSH2FeH2CNHCHC2H2NC6H3C3H12CH2SH8C2H2CH3CH7NC9H8CH7C2H4CH7C2NH4CH3C2HSHSCHCSCHCHC2H2CH3CH4CH7C2H4C2H2CHC2HC2H3CHCH2CHSH4CH2CH2SCH2CHCHFeSFeHSHFeSFeS2HS2FeSFeCSFeS2FeS2FeSFeS3C7H3C2H2C6H6C7H8N2C3H2CH10NHCNC5H4CH6CH8CH2C2H4CH4C4HC3HCH2C2HCHC4HC3H2C2H3CHCHCHC2HCH4C2HCHCH6CH4CH2CH8CHSH4CNHCH3C2H2C2H4CHSH2CHCH2CHCHFeHCH3SCH3CH6CH2CSHNC4H10FeH3CH21CHC3H2CH2CHCSHSH2CH3FeHFeS2Fe2S2CSFeSHFe2S2FeS2FeS2FeSFeS3HC6H9C7H5CHC7H4C2H3CH2CNC4HC3H17CH2CH6CH3CHC2NH4CH2C2HCS2HFeCH5CNC2H2CHC2H3SCHCH2CH6CHCHCH9C2H4NCH2C2HCH4CH2CHCH9CHCHSH3C2H3C2HNC3HC2HCH2SH2CH5CHC2HSH2CHC2H4CH5CH2SHCSH6CH3CH2CH4C3FeS2FeS2FeSFeS3FeS2FeHFeHS3H3FeH2FeS2FeHFeHS2HCH3CH6CH7CH2C6H4C6HCH2C6H5FeHCH3CH2CHC2HCH2CH5CHCHNHSCHCHC2H3C2H2CH2CHNH2CH3CH5C3HCSHNC6HC4H13CH2C3H6NC4H3CH9CH2CH2SHCH2C3HCHC2H2CH2C3HCHCH5C4HSNH4C2H3CHCH4SCHNH6CH5CHCH4CH7CH2CH3C2HFeS2FeSFeSFeS3HSHFeSHFeSHFeSFeS2CFeS2FeS2FeHFeHS2HC2SNH4C6H4CHC2H2CHCHC2HC3HCH3C7H4CH3CHC5H2CH2CHNC12H29CHCH3C3HCH2SCHCSH2SH4CHSHCH3CH3C2HCH2C2NH4CHCH2CH2CHCH2C2H2CH2CH5SH5CNC11H14CH2CHCH3CH5CHC2H5CH10CHCNH3CH3CH2CHC2H3CHCH2C3H8CSH2C2H3NC2FeSFeS2FeSFeS4FeCSFeS2FeH2CS2HFeC2H3CHC2H2C2HC6H4C2HC3H4CHCHCH2CH4SCH4C3H2C2HCH9CHCSCH9C2H5C3H3C3H2C2H5CHCHCH2CH4CH4CHCH2CH4C6HCH9NHCH2CH8C2H3NCH2CHCH2CH4C2HCH2C2H5CHCHNHC3H7C2H4CH4CH3NHCHC2HFeS2FeSFeSFeS3HFeS2FeSFeHFeCS2HCH4CH5CSHC2HCH3C3H2C6H4C6HCH4CH3SH2SC2H3CHC2HCHCHC2SH5C2HCHCHNC11H25CHCH7CH6CH3C2HC2H10C6HCHC2NC2HSHC4H2CSCHCH5CH5CH8SH3CH7C2H2CH4NH3NH2NCHCH2C3FeS2FeSHFeSFeS3H2CHFeCSFeSHFeHFeHS2FeS2FeSHFeCS2H3C6H3C2H3SCSCH3C2HSH2CHC6H4C2H4C9NHCHCH5CH6CHCH9SCH3C2H2C2H2CH7CHSH3CHCHSH3CHNC10H7CH16CH2CHCH3C2H11C2H7CH2C4HC2NH4CH3CHC2H2C2H5CFeHCH2CH4CH3C2SC3HCH2CH4CFeSCFeS2FeSFeS3CH2SCH2FeS2FeH2S2FeS2FeS2FeCFeCS3C7H4FeC2SHNCHCH4C2H2C3H4CH2FeCHC6H4CHCHC6H3CH3CH4CSCH2CHCH2SH6CH8CH3CHCHC2HCH2C2HCH6CH4NC10H11CH9CH4CH3CSH3CH5C2NHCH10C4HCHCH5NCHC3HCHCH3CH2CH5SH4SHC3H2CH2CH2CHCH2CH2C2H2CH5CH2CH4CH6FeS2FeSHFeSFeS3FeS2FeSFe2S2H4CH7CHCHCHC10H10C7H3C2H2CH2NCH3CH4NC2HCHC2H3SH4CSCH3C2SC3H2CHCH2C3H5CH6C2HC2H10C2H9C2H2CNH2NC12H17CH5CHC3HSH2CH7CH2C2H5CH2CH4CH2CH3CHCHNH9FeSFeS2FeSFeS3FeS2FeS2FeHFeHS2H2CHC2H5SHC3H4CH2C6H5CH2C7H3NHC7HC2H8NCHCH7CHCH7CH3C2H3C3HC2H3CH8CSCHC2H3C2HC2H2CH11CH3CHCHCH4CH3C3H5CNCH3CHCSH2CHCH2C3H2CHCNHCH2CH2CH3C2H5CH5C3HSH2C3H2CH2CH2C2H2C2H7NHCHCSCHCH11CHCNCHFeSFeS2FeSFeS3HCHNCSFeHSFeS2FeH2CS2FeS2FeHSFeCFeHS2HCHC6H4CH7CH4CHC3H5C6H4C3H2C6H3C3H3C4NC12H23CH6CHC2H2NSHCH10CHCHCH2C2NH10CH5CHCH4CH7CH6FeH2CH2SH2C2H3C2HC3H2C3H2C2H3CHSHC2HC2H3CH2CH2SCH4CH4CHCH2CHCH2CH3CFeS2FeS2FeSFeS3FeS2Fe2S2H2FeS2FeS2FeSFeHS2H4C2H2CH2CH4CH3C6H4C6H4SCHC7H3CHCNC2HCHCHC2HC2H2CHCHCH6CH5C2H5NC3H5CH3CH9CH2CH3C2H5CSH3C3H4FeC2HCH2CH2SH5CH2CNHCHCHCH2C2HCNHNH4CSHCHNC11H26CHC2H2CH2CHCH2CHCH4C3H3C4HCHCH2C2H3CH2CH8CH3CH2CH4CH3CHCHCH2FeHFeS2FeCFeS2CSFeSHFeSCSFeS2FeS2FeSFeS3HC2H2C6H8C4HCH4CH2SHC6H11NC12H22CH7CHSHC2H3CH2FeC3H4C2HCSH5CH5C2HNH2C2H4CHSNH2SC3SCHC2H4C4FeCH3NCSH3CH4CHCH4CH3C2H4CH3CHCH5C3HCH4CHCH2CH2CFeS2FeSHFeSFeS3HFeSFeS2FeS2FeS2FeSFeS3C2HCHC6H4C7H3SCSC6H4SCH4C2H4CHNC4HC2HCHC2H2CH14CHCFeHCH6C4H6CHCH2NHC3HCH2NCH8CH2C2H2CH2CH8CH4CHNH8CHCH2CH2CH3SNH5C3H5C3H4CH3C2HC4HSH3C3H4CH2CFeHNHC4H5C3H2CH4CH7C2HCH10CH4CH5CH2C2H3CHSHC2H3CH3CHCH4FeS2FeS2FeSFeS3Fe2S3FeSCHSHFeSFeCSH2NH3FeH2CHCHC6H4C6H4C2H2C2SH2C4H5CHCH3C2FeH3C2HC2H7C2SNH5CHCH3CHC3FeCH4CH2C4H4CHCHCH4SH6CHCNC9HCH16CHCHSHSH8CH2CH2SC2H7C2NC2HCHCHC4H4CH2CHC2H6CH6CHC2H7CHCHC2SH8CH2CHFeS2FeS2Fe2S3FeS2FeSFeCFeHS2CH8CH3C2H4CH3CHC6H4C6HSH8C2H5CHC2SNCH5CH6C2HCH2C3NCHC2H2CH2NH2C2HC2HNH3C2H2NH3C3H3C2H4C3HCH3C2H3CH2CHC2HC2HSH2CHCH2CH6CH2C2HC2HCNC2HCH3CH6CHCH4CH16C3HSCHCH3C2SH5CHC3SH3C2H4CH2CH4CHFeS2FeS2FeSFeCS2C2FeSFeSFeSFeS2FeS2FeS2FeCFeHS2CH3C2H2C4H3C6H3CHC3H5CHC8H4C4HCH4C3NC10H25SH5CH6CHSH4CH2CH2CHCHC2SCH8CSH5CH2C2H2C4HCHCNH4CH4CH5CNH4C2HCH3CH2NCH2CH3C2H2CH6CH2NH2CH3CHC2HSH5C3HC2HC2H2C4H7CH4CH4CH6NH2CH9C2NH2C3HCH3C2HCH2CH2CFeS2FeS2Fe2S3HFeS2FeS2FeSFeHS2FeSFeS2FeHFeHS2H3C2H3C2H3CH3C7H6C4NCH4C7H4C2HC3HCH2CH3C3NH2C3HCHNC3SH2CH4CH5CSH2CH3C3H4CH6CHSHNC3HCH3CH2CHCHCHCH4CHCH8C2H2CH5CNH4CH2C3H2CHC2H3SH2C3NHCH3C2H8C2HC2H2CH4C4HCH8CH5CHCH4CH2CHCHC2H4CH2CH9NHCH5CHNHC2H2CH5CSC2H5CHC2HC3HCHC3H2CHCH2C2H2SCH2FeS2FeSCFeSFeS3HFeS2FeHSFeHFeHS2HC2HCH2CHC2HCH3CHCHC6H4C6H4C3HCH2NC3H2C2H4CH6C3H8CH4CHCH11C2H3CH2CH2C2HNCH3CH4CH2CH2C2H2CHNHSHCH4C2H2C2H2CH3C6H3C2H3NCHCHSHCH3SHCH9CH5SHCH2C4H10CHC2H6SCH2CH3CH3C2H2CH2CHCHCH2CH3
_chemical_formula_sum              "C2304 Fe256 S512 H4096 N128"
_cell_length_a       62.5065
_cell_length_b       62.2868
_cell_length_c       84.0278
_cell_angle_alpha    84.2057
_cell_angle_beta     84.1967
_cell_angle_gamma    86.249

_space_group_name_H-M_alt    "P 1"
_space_group_IT_number       1

loop_
  _space_group_symop_operation_xyz
  'x, y, z'

loop_
  _atom_site_type_symbol
  _atom_site_label
  _atom_site_symmetry_multiplicity
  _atom_site_fract_x
  _atom_site_fract_y
  _atom_site_fract_z
  _atom_site_occupancy
  C   C1        1.0  0.03736  0.15397  0.98290  1.0000
  Fe  Fe1       1.0  0.05231  0.10048  0.07417  1.0000
  S   S1        1.0  0.07746  0.12388  0.06455  1.0000
  S   S2        1.0  0.05803  0.06626  0.08514  1.0000
  Fe  Fe2       1.0  0.01537  0.13072  0.06381  1.0000
  S   S3        1.0  0.03750  0.15667  0.05348  1.0000
  Fe  Fe3       1.0  0.05821  0.12976  0.04297  1.0000
  S   S4        1.0  0.07476  0.12732  0.01766  1.0000
  Fe  Fe4       1.0  0.05469  0.14887  0.07607  1.0000
  S   S5        1.0  0.06415  0.17814  0.08805  1.0000
  S   S6        1.0  0.03501  0.10451  0.05196  1.0000
  S   S7        1.0  0.03062  0.12486  0.08708  1.0000
  Fe  Fe5       1.0  0.11952  0.26034  0.18017  1.0000
  S   S8        1.0  0.10267  0.25583  0.20510  1.0000
  S   S9        1.0  0.13954  0.28982  0.17027  1.0000
  Fe  Fe6       1.0  0.10351  0.21669  0.17137  1.0000
  S   S10       1.0  0.08709  0.20924  0.19636  1.0000
  S   S11       1.0  0.10249  0.18952  0.15480  1.0000
  Fe  Fe7       1.0  0.07437  0.24387  0.19435  1.0000
  S   S12       1.0  0.03802  0.25381  0.19775  1.0000
  Fe  Fe8       1.0  0.11649  0.22143  0.20510  1.0000
  H   H1        1.0  0.30462  0.31746  0.19438  1.0000
  S   S13       1.0  0.09008  0.25110  0.16903  1.0000
  S   S14       1.0  0.13409  0.22624  0.18047  1.0000
  H   H2        1.0  0.11993  0.05129  0.04644  1.0000
  C   C2        1.0  0.05372  0.19661  0.02077  1.0000
  H   H3        1.0  0.09309  0.07557  0.06066  1.0000
  H   H4        1.0  0.09184  0.30202  0.18568  1.0000
  C   C3        1.0  0.08173  0.18835  0.99945  1.0000
  C   C4        1.0  0.00912  0.19214  0.13919  1.0000
  H   H5        1.0  0.11256  0.03216  0.09430  1.0000
  C   C5        1.0  0.04566  0.16386  0.18106  1.0000
  H   H6        1.0  0.03637  0.15313  0.00877  1.0000
  C   C6        1.0  0.09152  0.19810  0.02575  1.0000
  H   H7        1.0  0.14687  0.04678  0.12588  1.0000
  H   H8        1.0  0.20716  0.23330  0.20320  1.0000
  H   H9        1.0  0.18555  0.03904  0.13053  1.0000
  C   C7        1.0  0.01379  0.18140  0.12354  1.0000
  H   H10       1.0  0.01022  0.20497  0.03119  1.0000
  C   C8        1.0  0.01624  0.24635  0.21247  1.0000
  N   N1        1.0  0.07581  0.20223  0.01311  1.0000
  S   S15       1.0  0.12491  0.00534  0.04675  1.0000
  H   H11       1.0  0.08542  0.20644  0.03657  1.0000
  H   H12       1.0  0.16560  0.18963  0.17553  1.0000
  H   H13       1.0  0.02555  0.22766  0.17411  1.0000
  C   C9        1.0  0.15954  0.30636  0.17615  1.0000
  C   C10       1.0  0.16546  0.30524  0.19189  1.0000
  H   H14       1.0  0.08390  0.26945  0.00470  1.0000
  H   H15       1.0  0.15790  0.29397  0.20103  1.0000
  C   C11       1.0  0.07403  0.18082  0.10701  1.0000
  C   C12       1.0  0.07632  0.20169  0.11155  1.0000
  C   C13       1.0  0.08456  0.20471  0.12620  1.0000
  C   C14       1.0  0.09077  0.18687  0.13655  1.0000
  C   C15       1.0  0.08823  0.16601  0.13212  1.0000
  C   C16       1.0  0.07980  0.16298  0.11754  1.0000
  H   H16       1.0  0.07194  0.21565  0.10356  1.0000
  H   H17       1.0  0.08660  0.22086  0.12926  1.0000
  H   H18       1.0  0.09301  0.15204  0.13996  1.0000
  H   H19       1.0  0.07815  0.14684  0.11431  1.0000
  C   C17       1.0  0.10555  0.02203  0.05693  1.0000
  C   C18       1.0  0.08900  0.01329  0.06756  1.0000
  C   C19       1.0  0.07433  0.02701  0.07610  1.0000
  C   C20       1.0  0.07574  0.04950  0.07363  1.0000
  C   C21       1.0  0.09184  0.05824  0.06256  1.0000
  C   C22       1.0  0.10699  0.04450  0.05450  1.0000
  H   H20       1.0  0.11940  0.00292  0.12573  1.0000
  H   H21       1.0  0.06186  0.02020  0.08463  1.0000
  H   H22       1.0  0.17662  0.25524  0.19087  1.0000
  H   H23       1.0  0.18316  0.21894  0.18233  1.0000
  H   H24       1.0  0.25239  0.14982  0.22371  1.0000
  H   H25       1.0  0.22866  0.29340  0.19846  1.0000
  H   H26       1.0  0.02556  0.25946  0.14338  1.0000
  C   C23       1.0  0.26065  0.00543  0.22059  1.0000
  H   H27       1.0  0.01327  0.17924  0.02276  1.0000
  H   H28       1.0  0.29572  0.24774  0.21775  1.0000
  H   H29       1.0  0.05560  0.07633  0.02761  1.0000
  H   H30       1.0  0.17114  0.02624  0.10622  1.0000
  H   H31       1.0  0.11859  0.10892  0.00629  1.0000
  H   H32       1.0  0.05024  0.20328  0.03264  1.0000
  H   H33       1.0  0.06790  0.29288  0.15797  1.0000
  H   H34       1.0  0.20732  0.27738  0.17924  1.0000
  H   H35       1.0  0.11688  0.03695  0.99894  1.0000
  C   C24       1.0  0.13755  0.05427  0.09258  1.0000
  C   C25       1.0  0.07763  0.31166  0.21484  1.0000
  H   H36       1.0  0.21655  0.29643  0.16273  1.0000
  C   C26       1.0  0.15271  0.02985  0.12914  1.0000
  C   C27       1.0  0.06829  0.04394  0.02115  1.0000
  H   H37       1.0  0.03316  0.22141  0.00780  1.0000
  H   H38       1.0  0.07674  0.31514  0.14403  1.0000
  H   H39       1.0  0.03090  0.15843  0.18838  1.0000
  H   H40       1.0  0.24560  0.26474  0.18269  1.0000
  H   H41       1.0  0.04036  0.06477  0.01392  1.0000
  H   H42       1.0  0.13161  0.08866  0.08612  1.0000
  H   H43       1.0  0.07822  0.32220  0.22474  1.0000
  H   H44       1.0  0.09280  0.22968  0.00173  1.0000
  H   H45       1.0  0.14105  0.05161  0.07966  1.0000
  C   C28       1.0  0.19057  0.22782  0.20548  1.0000
  C   C29       1.0  0.04371  0.18834  0.17535  1.0000
  C   C30       1.0  0.24207  0.28103  0.17657  1.0000
  H   H46       1.0  0.01986  0.06442  0.04017  1.0000
  H   H47       1.0  0.10760  0.07370  0.08938  1.0000
  C   C31       1.0  0.06856  0.24226  0.01879  1.0000
  H   H48       1.0  0.04156  0.26051  0.16007  1.0000
  H   H49       1.0  0.99976  0.20205  0.01234  1.0000
  H   H50       1.0  0.07989  0.24163  0.02821  1.0000
  H   H51       1.0  0.07500  0.03831  0.03276  1.0000
  H   H52       1.0  0.09379  0.30311  0.21334  1.0000
  C   C32       1.0  0.03382  0.05259  0.03856  1.0000
  H   H53       1.0  0.17864  0.01411  0.14243  1.0000
  H   H54       1.0  0.02922  0.18666  0.11707  1.0000
  C   C33       1.0  0.27830  0.30807  0.18102  1.0000
  C   C34       1.0  0.00119  0.11979  0.01526  1.0000
  C   C35       1.0  0.26936  0.28166  0.20472  1.0000
  C   C36       1.0  0.06775  0.26527  0.01052  1.0000
  H   H55       1.0  0.06582  0.14096  0.19496  1.0000
  H   H56       1.0  0.04181  0.05033  0.04990  1.0000
  H   H57       1.0  0.12119  0.07950  0.10628  1.0000
  C   C37       1.0  0.07350  0.12557  0.98515  1.0000
  H   H58       1.0  0.02530  0.16710  0.15360  1.0000
  H   H59       1.0  0.12928  0.06120  0.01737  1.0000
  N   N2        1.0  0.08622  0.05113  0.00869  1.0000
  H   H60       1.0  0.00077  0.18615  0.11560  1.0000
  C   C38       1.0  0.12581  0.03481  0.10167  1.0000
  C   C39       1.0  0.17722  0.17550  0.17476  1.0000
  H   H61       1.0  0.12532  0.07230  0.99729  1.0000
  H   H62       1.0  0.11748  0.03964  0.11322  1.0000
  H   H63       1.0  0.48036  0.31736  0.00896  1.0000
  C   C40       1.0  0.04091  0.25369  0.14842  1.0000
  H   H64       1.0  0.27329  0.26854  0.19668  1.0000
  H   H65       1.0  0.05320  0.17882  0.02351  1.0000
  C   C41       1.0  0.16937  0.32166  0.16462  1.0000
  H   H66       1.0  0.00199  0.21466  0.19315  1.0000
  H   H67       1.0  0.27004  0.31679  0.17087  1.0000
  H   H68       1.0  0.08698  0.01263  0.99314  1.0000
  C   C42       1.0  0.17512  0.24775  0.20348  1.0000
  H   H69       1.0  0.16500  0.32291  0.15241  1.0000
  H   H70       1.0  0.00681  0.12386  0.02665  1.0000
  C   C43       1.0  0.06296  0.13326  0.99923  1.0000
  C   C44       1.0  0.47930  0.27624  0.20691  1.0000
  C   C45       1.0  0.07615  0.22564  0.00653  1.0000
  C   C46       1.0  0.10456  0.19064  0.99060  1.0000
  C   C47       1.0  0.04457  0.14711  0.99806  1.0000
  H   H71       1.0  0.12079  0.09815  0.02693  1.0000
  H   H72       1.0  0.10716  0.20529  0.02146  1.0000
  H   H73       1.0  0.47173  0.28612  0.19749  1.0000
  H   H74       1.0  0.06401  0.29795  0.18800  1.0000
  H   H75       1.0  0.06193  0.16723  0.20237  1.0000
  C   C48       1.0  0.04959  0.06104  0.02456  1.0000
  H   H76       1.0  0.17887  0.25986  0.21148  1.0000
  C   C49       1.0  0.09634  0.17406  0.03178  1.0000
  C   C50       1.0  0.03453  0.20364  0.01067  1.0000
  C   C51       1.0  0.11044  0.17206  0.04576  1.0000
  C   C52       1.0  0.25773  0.32082  0.20552  1.0000
  C   C53       1.0  0.01320  0.19704  0.01984  1.0000
  H   H77       1.0  0.10500  0.16511  0.02208  1.0000
  H   H78       1.0  0.08132  0.16595  0.03609  1.0000
  H   H79       1.0  0.25600  0.27568  0.21347  1.0000
  N   N3        1.0  0.02456  0.19578  0.16624  1.0000
  H   H80       1.0  0.03631  0.19599  0.99923  1.0000
  H   H81       1.0  0.12582  0.18000  0.04216  1.0000
  H   H82       1.0  0.10183  0.17947  0.05627  1.0000
  H   H83       1.0  0.11422  0.15471  0.04946  1.0000
  H   H84       1.0  0.05228  0.23919  0.02478  1.0000
  H   H85       1.0  0.03847  0.32247  0.19882  1.0000
  H   H86       1.0  0.00166  0.17230  0.17666  1.0000
  N   N4        1.0  0.20275  0.19186  0.19243  1.0000
  C   C54       1.0  0.21312  0.18611  0.20789  1.0000
  C   C55       1.0  0.18611  0.21050  0.19432  1.0000
  C   C56       1.0  0.19126  0.17238  0.18916  1.0000
  C   C57       1.0  0.21907  0.19697  0.17830  1.0000
  C   C58       1.0  0.23375  0.21563  0.17960  1.0000
  C   C59       1.0  0.22963  0.16640  0.20823  1.0000
  H   H87       1.0  0.16073  0.01837  0.08244  1.0000
  H   H88       1.0  0.35981  0.32096  0.22026  1.0000
  C   C60       1.0  0.02646  0.18486  0.15089  1.0000
  C   C61       1.0  0.25098  0.21757  0.16535  1.0000
  H   H89       1.0  0.07986  0.16329  0.18442  1.0000
  C   C62       1.0  0.06165  0.29386  0.22102  1.0000
  H   H90       1.0  0.15821  0.24338  0.20681  1.0000
  H   H91       1.0  0.16619  0.00171  0.11798  1.0000
  H   H92       1.0  0.07028  0.19182  0.99009  1.0000
  H   H93       1.0  0.06245  0.28142  0.21247  1.0000
  H   H94       1.0  0.18078  0.16672  0.20004  1.0000
  H   H95       1.0  0.20293  0.15857  0.18668  1.0000
  H   H96       1.0  0.22944  0.18230  0.17565  1.0000
  H   H97       1.0  0.21081  0.20157  0.16723  1.0000
  H   H98       1.0  0.24218  0.21318  0.19068  1.0000
  H   H99       1.0  0.22403  0.23118  0.17934  1.0000
  H   H100      1.0  0.22163  0.15119  0.20744  1.0000
  H   H101      1.0  0.24260  0.16838  0.19826  1.0000
  H   H102      1.0  0.18750  0.17774  0.16322  1.0000
  C   C63       1.0  0.31307  0.32505  0.16918  1.0000
  H   H103      1.0  0.13593  0.00807  0.07993  1.0000
  C   C64       1.0  0.00074  0.19701  0.19330  1.0000
  H   H104      1.0  0.05578  0.32765  0.16813  1.0000
  H   H105      1.0  0.15285  0.15330  0.18518  1.0000
  H   H106      1.0  0.18491  0.31815  0.20819  1.0000
  H   H107      1.0  0.26108  0.23129  0.16641  1.0000
  H   H108      1.0  0.26162  0.20257  0.16512  1.0000
  H   H109      1.0  0.24343  0.22061  0.15385  1.0000
  H   H110      1.0  0.00876  0.22668  0.15860  1.0000
  H   H111      1.0  0.06258  0.27687  0.01956  1.0000
  H   H112      1.0  0.22478  0.31536  0.21684  1.0000
  H   H113      1.0  0.17494  0.14099  0.17296  1.0000
  H   H114      1.0  0.09348  0.00467  0.10630  1.0000
  H   H115      1.0  0.01474  0.16350  0.12594  1.0000
  C   C65       1.0  0.16414  0.15575  0.17414  1.0000
  H   H116      1.0  0.06679  0.04358  0.99023  1.0000
  H   H117      1.0  0.27554  0.01146  0.21466  1.0000
  C   C66       1.0  0.07869  0.30656  0.15609  1.0000
  C   C67       1.0  0.11998  0.07373  0.01011  1.0000
  H   H118      1.0  0.09572  0.30024  0.15629  1.0000
  C   C68       1.0  0.28956  0.28274  0.21383  1.0000
  H   H119      1.0  0.11721  0.18861  0.99905  1.0000
  C   C69       1.0  0.10317  0.03274  0.00791  1.0000
  H   H120      1.0  0.05602  0.26699  0.00132  1.0000
  C   C70       1.0  0.12360  0.07526  0.09367  1.0000
  H   H121      1.0  0.17027  0.20437  0.19950  1.0000
  N   N5        1.0  0.26205  0.30221  0.19520  1.0000
  H   H122      1.0  0.14387  0.09681  0.01225  1.0000
  H   H123      1.0  0.00846  0.20986  0.13600  1.0000
  H   H124      1.0  0.04271  0.18679  0.14428  1.0000
  H   H125      1.0  0.13046  0.16944  0.21198  1.0000
  H   H126      1.0  0.10572  0.20675  0.98369  1.0000
  C   C71       1.0  0.12611  0.09576  0.01417  1.0000
  C   C72       1.0  0.02439  0.22006  0.16284  1.0000
  H   H127      1.0  0.01253  0.10715  0.01024  1.0000
  H   H128      1.0  0.28627  0.29319  0.17627  1.0000
  H   H129      1.0  0.32131  0.30905  0.16723  1.0000
  H   H130      1.0  0.02767  0.03697  0.03625  1.0000
  H   H131      1.0  0.15297  0.05663  0.09742  1.0000
  H   H132      1.0  0.04872  0.15417  0.17060  1.0000
  H   H133      1.0  0.15447  0.15829  0.16364  1.0000
  C   C73       1.0  0.22046  0.28066  0.16955  1.0000
  H   H134      1.0  0.20042  0.18274  0.21795  1.0000
  C   C74       1.0  0.04277  0.22901  0.15067  1.0000
  H   H135      1.0  0.09268  0.07109  0.02737  1.0000
  H   H136      1.0  0.27265  0.32517  0.21011  1.0000
  C   C75       1.0  0.24110  0.29845  0.18864  1.0000
  C   C76       1.0  0.24106  0.31735  0.22042  1.0000
  C   C77       1.0  0.09542  0.07087  0.01407  1.0000
  H   H137      1.0  0.08673  0.08585  0.00922  1.0000
  H   H138      1.0  0.05889  0.19184  0.16777  1.0000
  H   H139      1.0  0.06051  0.02990  0.01752  1.0000
  H   H140      1.0  0.11816  0.32579  0.20445  1.0000
  N   N6        1.0  0.13962  0.01426  0.10447  1.0000
  C   C78       1.0  0.18080  0.31913  0.19594  1.0000
  H   H141      1.0  0.06539  0.07123  0.99358  1.0000
  C   C79       1.0  0.10947  0.17355  0.97868  1.0000
  H   H142      1.0  0.11023  0.02978  0.01962  1.0000
  H   H143      1.0  0.08004  0.17108  0.00375  1.0000
  H   H144      1.0  0.04474  0.30043  0.22266  1.0000
  C   C80       1.0  0.07674  0.05673  0.99287  1.0000
  H   H145      1.0  0.25454  0.28413  0.16638  1.0000
  C   C81       1.0  0.07575  0.31087  0.18597  1.0000
  H   H146      1.0  0.28808  0.29628  0.22152  1.0000
  H   H147      1.0  0.05452  0.25969  0.13996  1.0000
  H   H148      1.0  0.02358  0.16535  0.98206  1.0000
  H   H149      1.0  0.08799  0.11518  0.98583  1.0000
  H   H150      1.0  0.05873  0.22412  0.15493  1.0000
  C   C82       1.0  0.15826  0.01758  0.11393  1.0000
  H   H151      1.0  0.30409  0.28437  0.20516  1.0000
  H   H152      1.0  0.18820  0.22098  0.21825  1.0000
  H   H153      1.0  0.04408  0.19774  0.18590  1.0000
  H   H154      1.0  0.04228  0.22317  0.13868  1.0000
  H   H155      1.0  0.22150  0.19987  0.21126  1.0000
  C   C83       1.0  0.06448  0.15861  0.19133  1.0000
  H   H156      1.0  0.23453  0.31385  0.18254  1.0000
  H   H157      1.0  0.06648  0.22873  0.99602  1.0000
  H   H158      1.0  0.22123  0.26784  0.16120  1.0000
  S   S16       1.0  0.43760  0.27169  0.22106  1.0000
  H   H159      1.0  0.10206  0.07607  0.97964  1.0000
  C   C84       1.0  0.17254  0.03069  0.13828  1.0000
  C   C85       1.0  0.29340  0.26201  0.22481  1.0000
  H   H160      1.0  0.14014  0.02188  0.13752  1.0000
  H   H161      1.0  0.11572  0.32785  0.18314  1.0000
  C   C86       1.0  0.07289  0.32212  0.16898  1.0000
  H   H162      1.0  0.16824  0.03973  0.14899  1.0000
  C   C87       1.0  0.15344  0.14613  0.22256  1.0000
  H   H163      1.0  0.14942  0.13320  0.21590  1.0000
  C   C88       1.0  0.14270  0.16663  0.22031  1.0000
  H   H164      1.0  0.12541  0.99978  0.99064  1.0000
  H   H165      1.0  0.01305  0.18876  0.20077  1.0000
  C   C89       1.0  0.46630  0.26676  0.22012  1.0000
  C   C90       1.0  0.00372  0.19000  0.17595  1.0000
  C   C91       1.0  0.14862  0.00706  0.08838  1.0000
  H   H166      1.0  0.08491  0.00354  0.01434  1.0000
  H   H167      1.0  0.00129  0.13462  0.00673  1.0000
  C   C92       1.0  0.09561  0.01075  0.00411  1.0000
  H   H168      1.0  0.10952  0.15706  0.98513  1.0000
  C   C93       1.0  0.29620  0.32311  0.18366  1.0000
  C   C94       1.0  0.09288  0.06198  0.97799  1.0000
  C   C95       1.0  0.24027  0.16366  0.22395  1.0000
  N   N7        1.0  0.07279  0.32527  0.19953  1.0000
  H   H169      1.0  0.45745  0.31368  0.22385  1.0000
  H   H170      1.0  0.24873  0.17830  0.22560  1.0000
  C   C96       1.0  0.34396  0.32903  0.22001  1.0000
  C   C97       1.0  0.12598  0.99738  0.11396  1.0000
  C   C98       1.0  0.99487  0.25226  0.20909  1.0000
  H   H171      1.0  0.08770  0.99596  0.06940  1.0000
  Fe  Fe9       1.0  0.11414  0.01800  0.41236  1.0000
  S   S17       1.0  0.14982  0.02097  0.40803  1.0000
  Fe  Fe10      1.0  0.10553  0.06643  0.40667  1.0000
  S   S18       1.0  0.14075  0.07325  0.40221  1.0000
  S   S19       1.0  0.07985  0.09352  0.40808  1.0000
  Fe  Fe11      1.0  0.14310  0.04510  0.38700  1.0000
  S   S20       1.0  0.15926  0.03962  0.36179  1.0000
  Fe  Fe12      1.0  0.14433  0.04858  0.42362  1.0000
  S   S21       1.0  0.16516  0.04822  0.44441  1.0000
  S   S22       1.0  0.10745  0.03985  0.39033  1.0000
  S   S23       1.0  0.10911  0.04410  0.42904  1.0000
  Fe  Fe13      1.0  0.40912  0.26536  0.24035  1.0000
  S   S24       1.0  0.40900  0.24095  0.26189  1.0000
  C   C99       1.0  0.06443  0.11777  0.44407  1.0000
  Fe  Fe14      1.0  0.36320  0.28259  0.25088  1.0000
  S   S25       1.0  0.36099  0.25974  0.27356  1.0000
  S   S26       1.0  0.33213  0.30336  0.24806  1.0000
  Fe  Fe15      1.0  0.39486  0.26830  0.27606  1.0000
  S   S27       1.0  0.41050  0.27091  0.29934  1.0000
  Fe  Fe16      1.0  0.37479  0.23423  0.25765  1.0000
  S   S28       1.0  0.36348  0.19898  0.26111  1.0000
  S   S29       1.0  0.39607  0.29303  0.25466  1.0000
  S   S30       1.0  0.37594  0.25683  0.23484  1.0000
  Fe  Fe17      1.0  0.24737  0.07119  0.25086  1.0000
  S   S31       1.0  0.21379  0.07530  0.26302  1.0000
  Fe  Fe18      1.0  0.25828  0.11873  0.25558  1.0000
  S   S32       1.0  0.22471  0.12513  0.26736  1.0000
  S   S33       1.0  0.27758  0.14992  0.25293  1.0000
  Fe  Fe19      1.0  0.22851  0.09245  0.28119  1.0000
  S   S34       1.0  0.21886  0.09432  0.30809  1.0000
  Fe  Fe20      1.0  0.21258  0.10767  0.24847  1.0000
  S   S35       1.0  0.26273  0.08649  0.27026  1.0000
  S   S36       1.0  0.24550  0.10315  0.23541  1.0000
  C   C100      1.0  0.09879  0.02151  0.34930  1.0000
  H   H172      1.0  0.05593  0.26934  0.24096  1.0000
  H   H173      1.0  0.45270  0.24430  0.29584  1.0000
  C   C101      1.0  0.47645  0.25384  0.23208  1.0000
  C   C102      1.0  0.42638  0.30767  0.33363  1.0000
  C   C103      1.0  0.41140  0.29291  0.31131  1.0000
  C   C104      1.0  0.42566  0.29109  0.32340  1.0000
  C   C105      1.0  0.16961  0.14237  0.23314  1.0000
  C   C106      1.0  0.01954  0.23527  0.22745  1.0000
  H   H174      1.0  0.00501  0.25691  0.32457  1.0000
  C   C107      1.0  0.39790  0.31164  0.30953  1.0000
  H   H175      1.0  0.43616  0.27668  0.32496  1.0000
  C   C108      1.0  0.46754  0.28407  0.28258  1.0000
  H   H176      1.0  0.08249  0.02687  0.35450  1.0000
  H   H177      1.0  0.00339  0.17455  0.43947  1.0000
  C   C109      1.0  0.04698  0.11878  0.47222  1.0000
  H   H178      1.0  0.11006  0.03419  0.35059  1.0000
  H   H179      1.0  0.47790  0.26142  0.26433  1.0000
  C   C110      1.0  0.10596  0.00005  0.35822  1.0000
  H   H180      1.0  0.46672  0.24587  0.24202  1.0000
  C   C111      1.0  0.33934  0.18585  0.25859  1.0000
  C   C112      1.0  0.32024  0.19721  0.25452  1.0000
  C   C113      1.0  0.30167  0.18598  0.25285  1.0000
  C   C114      1.0  0.30169  0.16320  0.25529  1.0000
  C   C115      1.0  0.32070  0.15188  0.25957  1.0000
  C   C116      1.0  0.33931  0.16310  0.26110  1.0000
  H   H181      1.0  0.31981  0.21466  0.25253  1.0000
  C   C117      1.0  0.10407  0.13908  0.25786  1.0000
  H   H182      1.0  0.32123  0.13443  0.26137  1.0000
  H   H183      1.0  0.35395  0.15401  0.26407  1.0000
  H   H184      1.0  0.43736  0.30594  0.34290  1.0000
  H   H185      1.0  0.36364  0.27006  0.32120  1.0000
  H   H186      1.0  0.01389  0.15115  0.47202  1.0000
  C   C118      1.0  0.01523  0.07011  0.44510  1.0000
  C   C119      1.0  0.47012  0.32386  0.29843  1.0000
  H   H187      1.0  0.09811  0.01972  0.33635  1.0000
  C   C120      1.0  0.45692  0.30583  0.25786  1.0000
  H   H188      1.0  0.44307  0.32236  0.28448  1.0000
  H   H189      1.0  0.16708  0.19220  0.24683  1.0000
  H   H190      1.0  0.22812  0.16032  0.23436  1.0000
  H   H191      1.0  0.00457  0.06842  0.45652  1.0000
  C   C121      1.0  0.17503  0.05568  0.34683  1.0000
  C   C122      1.0  0.18091  0.04776  0.33178  1.0000
  C   C123      1.0  0.19412  0.05939  0.31973  1.0000
  C   C124      1.0  0.20154  0.07922  0.32255  1.0000
  C   C125      1.0  0.19544  0.08731  0.33751  1.0000
  C   C126      1.0  0.18221  0.07567  0.34956  1.0000
  H   H192      1.0  0.17540  0.03241  0.32943  1.0000
  H   H193      1.0  0.19892  0.05277  0.30842  1.0000
  H   H194      1.0  0.20112  0.10260  0.33987  1.0000
  H   H195      1.0  0.17786  0.08199  0.36105  1.0000
  C   C127      1.0  0.05544  0.09016  0.40007  1.0000
  C   C128      1.0  0.03752  0.10417  0.40376  1.0000
  H   H196      1.0  0.11533  0.14693  0.24827  1.0000
  C   C129      1.0  0.03538  0.14441  0.45035  1.0000
  C   C130      1.0  0.03403  0.07183  0.38360  1.0000
  C   C131      1.0  0.05359  0.07390  0.39005  1.0000
  H   H197      1.0  0.03882  0.11699  0.41129  1.0000
  C   C132      1.0  0.08359  0.13094  0.44716  1.0000
  H   H198      1.0  0.03277  0.05945  0.37565  1.0000
  H   H199      1.0  0.06729  0.06317  0.38699  1.0000
  C   C133      1.0  0.15510  0.05581  0.46369  1.0000
  H   H200      1.0  0.42334  0.17214  0.28589  1.0000
  H   H201      1.0  0.00471  0.22257  0.25057  1.0000
  H   H202      1.0  0.07038  0.10057  0.44509  1.0000
  H   H203      1.0  0.00632  0.24954  0.30428  1.0000
  C   C134      1.0  0.01780  0.10170  0.39772  1.0000
  C   C135      1.0  0.06712  0.28247  0.23720  1.0000
  H   H204      1.0  0.12641  0.07317  0.45611  1.0000
  S   S37       1.0  0.26053  0.04058  0.23855  1.0000
  N   N8        1.0  0.37590  0.20472  0.31388  1.0000
  C   C136      1.0  0.38376  0.19049  0.32797  1.0000
  C   C137      1.0  0.37855  0.22798  0.31638  1.0000
  C   C138      1.0  0.35259  0.20046  0.31281  1.0000
  C   C139      1.0  0.38865  0.19978  0.29831  1.0000
  C   C140      1.0  0.41345  0.20132  0.29764  1.0000
  C   C141      1.0  0.38643  0.16595  0.32590  1.0000
  C   C142      1.0  0.34021  0.21654  0.30122  1.0000
  C   C143      1.0  0.36548  0.23636  0.33143  1.0000
  C   C144      1.0  0.36851  0.26037  0.33224  1.0000
  C   C145      1.0  0.42500  0.18986  0.28367  1.0000
  C   C146      1.0  0.39339  0.15309  0.34116  1.0000
  C   C147      1.0  0.31809  0.20869  0.29914  1.0000
  H   H205      1.0  0.37245  0.19229  0.33893  1.0000
  H   H206      1.0  0.39932  0.19581  0.33117  1.0000
  H   H207      1.0  0.39576  0.23057  0.31756  1.0000
  H   H208      1.0  0.37455  0.23882  0.30559  1.0000
  H   H209      1.0  0.34329  0.20012  0.32484  1.0000
  H   H210      1.0  0.35143  0.18411  0.30884  1.0000
  H   H211      1.0  0.38506  0.18361  0.29498  1.0000
  H   H212      1.0  0.38355  0.21123  0.28821  1.0000
  H   H213      1.0  0.42021  0.19393  0.30871  1.0000
  H   H214      1.0  0.41749  0.21857  0.29593  1.0000
  H   H215      1.0  0.37107  0.15974  0.32327  1.0000
  H   H216      1.0  0.39892  0.16257  0.31597  1.0000
  H   H217      1.0  0.34904  0.21846  0.28918  1.0000
  H   H218      1.0  0.33776  0.23273  0.30576  1.0000
  H   H219      1.0  0.34802  0.23433  0.33138  1.0000
  H   H220      1.0  0.37097  0.22759  0.34258  1.0000
  H   H221      1.0  0.03426  0.14739  0.43713  1.0000
  H   H222      1.0  0.35850  0.26622  0.34278  1.0000
  H   H223      1.0  0.38563  0.26302  0.33354  1.0000
  H   H224      1.0  0.46229  0.29261  0.25020  1.0000
  C   C148      1.0  0.17449  0.15904  0.24190  1.0000
  H   H225      1.0  0.22086  0.01737  0.24944  1.0000
  H   H226      1.0  0.39533  0.13562  0.33933  1.0000
  H   H227      1.0  0.10851  0.10728  0.43880  1.0000
  H   H228      1.0  0.10120  0.12836  0.42357  1.0000
  H   H229      1.0  0.30826  0.20649  0.31090  1.0000
  H   H230      1.0  0.30951  0.22081  0.29107  1.0000
  H   H231      1.0  0.31987  0.19322  0.29348  1.0000
  H   H232      1.0  0.13929  0.00566  0.35244  1.0000
  C   C149      1.0  0.13571  0.06813  0.46615  1.0000
  H   H233      1.0  0.01698  0.18593  0.45450  1.0000
  H   H234      1.0  0.38676  0.31330  0.30038  1.0000
  H   H235      1.0  0.38108  0.15523  0.35147  1.0000
  H   H236      1.0  0.10336  0.11159  0.27561  1.0000
  H   H237      1.0  0.06152  0.12149  0.43122  1.0000
  H   H238      1.0  0.00060  0.14020  0.45689  1.0000
  H   H239      1.0  0.08987  0.13450  0.25228  1.0000
  H   H240      1.0  0.03577  0.23065  0.23036  1.0000
  C   C150      1.0  0.02678  0.10665  0.45089  1.0000
  H   H241      1.0  0.17301  0.03452  0.28099  1.0000
  H   H242      1.0  0.08749  0.12782  0.45980  1.0000
  H   H243      1.0  0.08384  0.27515  0.23630  1.0000
  C   C151      1.0  0.46568  0.24316  0.28586  1.0000
  H   H244      1.0  0.41822  0.19569  0.27219  1.0000
  C   C152      1.0  0.01610  0.08569  0.38747  1.0000
  H   H245      1.0  0.11746  0.13416  0.43899  1.0000
  H   H246      1.0  0.04673  0.15611  0.45330  1.0000
  C   C153      1.0  0.00539  0.17392  0.45250  1.0000
  H   H247      1.0  0.04387  0.07478  0.45623  1.0000
  H   H248      1.0  0.11007  0.09949  0.33088  1.0000
  C   C154      1.0  0.01308  0.15118  0.45888  1.0000
  H   H249      1.0  0.00405  0.11249  0.40072  1.0000
  N   N9        1.0  0.27770  0.13610  0.31505  1.0000
  C   C155      1.0  0.27979  0.13743  0.33268  1.0000
  C   C156      1.0  0.29860  0.14139  0.30508  1.0000
  C   C157      1.0  0.26040  0.15293  0.31012  1.0000
  C   C158      1.0  0.27065  0.11433  0.31191  1.0000
  C   C159      1.0  0.28532  0.09436  0.31699  1.0000
  C   C160      1.0  0.25940  0.13251  0.34432  1.0000
  C   C161      1.0  0.25851  0.15757  0.29180  1.0000
  C   C162      1.0  0.31993  0.13395  0.31252  1.0000
  C   C163      1.0  0.33940  0.13683  0.30011  1.0000
  C   C164      1.0  0.27397  0.07342  0.31663  1.0000
  C   C165      1.0  0.26364  0.13411  0.36175  1.0000
  C   C166      1.0  0.24002  0.17412  0.28835  1.0000
  H   H250      1.0  0.28458  0.15387  0.33451  1.0000
  H   H251      1.0  0.29289  0.12622  0.33703  1.0000
  H   H252      1.0  0.29909  0.13495  0.29310  1.0000
  H   H253      1.0  0.29951  0.15923  0.30244  1.0000
  H   H254      1.0  0.26300  0.16868  0.31467  1.0000
  H   H255      1.0  0.24422  0.14811  0.31556  1.0000
  H   H256      1.0  0.25416  0.11185  0.31776  1.0000
  H   H257      1.0  0.26919  0.11367  0.29890  1.0000
  H   H258      1.0  0.28998  0.09455  0.32933  1.0000
  H   H259      1.0  0.30002  0.09365  0.30841  1.0000
  H   H260      1.0  0.24573  0.14415  0.34167  1.0000
  H   H261      1.0  0.25443  0.11589  0.34354  1.0000
  H   H262      1.0  0.25550  0.14268  0.28644  1.0000
  H   H263      1.0  0.27339  0.16431  0.28550  1.0000
  H   H264      1.0  0.32206  0.14391  0.32245  1.0000
  H   H265      1.0  0.32026  0.11682  0.31746  1.0000
  H   H266      1.0  0.35445  0.13195  0.30582  1.0000
  H   H267      1.0  0.33848  0.12657  0.29015  1.0000
  H   H268      1.0  0.34014  0.15398  0.29509  1.0000
  H   H269      1.0  0.28504  0.05930  0.31978  1.0000
  H   H270      1.0  0.25945  0.07287  0.32544  1.0000
  H   H271      1.0  0.26898  0.07205  0.30448  1.0000
  H   H272      1.0  0.24880  0.13058  0.36980  1.0000
  H   H273      1.0  0.27669  0.12217  0.36533  1.0000
  H   H274      1.0  0.26818  0.15064  0.36339  1.0000
  H   H275      1.0  0.24279  0.18979  0.29283  1.0000
  H   H276      1.0  0.23904  0.17682  0.27515  1.0000
  H   H277      1.0  0.22445  0.16817  0.29406  1.0000
  C   C167      1.0  0.16334  0.17937  0.23997  1.0000
  N   N10       1.0  0.47000  0.30519  0.27208  1.0000
  C   C168      1.0  0.03440  0.08342  0.44691  1.0000
  H   H278      1.0  0.44240  0.19301  0.28241  1.0000
  C   C169      1.0  0.46091  0.32325  0.28198  1.0000
  H   H279      1.0  0.07732  0.99948  0.39440  1.0000
  H   H280      1.0  0.06537  0.29403  0.24655  1.0000
  H   H281      1.0  0.28716  0.19504  0.24956  1.0000
  H   H282      1.0  0.18672  0.15622  0.25022  1.0000
  C   C170      1.0  0.46504  0.26352  0.27410  1.0000
  N   N11       1.0  0.14564  0.10715  0.28460  1.0000
  C   C171      1.0  0.16682  0.11494  0.28826  1.0000
  C   C172      1.0  0.14990  0.08711  0.27576  1.0000
  C   C173      1.0  0.13573  0.12455  0.27325  1.0000
  C   C174      1.0  0.13013  0.10296  0.29949  1.0000
  C   C175      1.0  0.14012  0.09546  0.31553  1.0000
  C   C176      1.0  0.16537  0.13763  0.29465  1.0000
  C   C177      1.0  0.11508  0.11892  0.26613  1.0000
  C   C178      1.0  0.16053  0.06711  0.28495  1.0000
  C   C179      1.0  0.16418  0.04821  0.27450  1.0000
  C   C180      1.0  0.12314  0.08690  0.32859  1.0000
  C   C181      1.0  0.18424  0.14087  0.30419  1.0000
  C   C182      1.0  0.00370  0.24334  0.31717  1.0000
  H   H283      1.0  0.17835  0.11579  0.27721  1.0000
  H   H284      1.0  0.17489  0.10323  0.29685  1.0000
  H   H285      1.0  0.13463  0.08149  0.27237  1.0000
  H   H286      1.0  0.16015  0.09090  0.26427  1.0000
  H   H287      1.0  0.14766  0.12920  0.26291  1.0000
  H   H288      1.0  0.13149  0.13953  0.27933  1.0000
  H   H289      1.0  0.11980  0.11777  0.30189  1.0000
  H   H290      1.0  0.11859  0.09083  0.29746  1.0000
  H   H291      1.0  0.14735  0.10918  0.32007  1.0000
  H   H292      1.0  0.15300  0.08260  0.31418  1.0000
  H   H293      1.0  0.16549  0.15031  0.28433  1.0000
  H   H294      1.0  0.15028  0.14032  0.30252  1.0000
  C   C183      1.0  0.10389  0.12477  0.43647  1.0000
  C   C184      1.0  0.39835  0.32804  0.31994  1.0000
  H   H295      1.0  0.17633  0.07075  0.28859  1.0000
  H   H296      1.0  0.14987  0.06144  0.29569  1.0000
  H   H297      1.0  0.01648  0.23069  0.32001  1.0000
  H   H298      1.0  0.17386  0.05292  0.26300  1.0000
  H   H299      1.0  0.43985  0.30267  0.26215  1.0000
  H   H300      1.0  0.45284  0.28516  0.29118  1.0000
  H   H301      1.0  0.00575  0.07796  0.43537  1.0000
  H   H302      1.0  0.11923  0.10744  0.25684  1.0000
  H   H303      1.0  0.18391  0.12942  0.31523  1.0000
  H   H304      1.0  0.19974  0.13828  0.29680  1.0000
  H   H305      1.0  0.18313  0.15760  0.30780  1.0000
  H   H306      1.0  0.46322  0.22889  0.27946  1.0000
  N   N12       1.0  0.04366  0.12137  0.45457  1.0000
  H   H307      1.0  0.48153  0.24077  0.29087  1.0000
  H   H308      1.0  0.48787  0.32473  0.29696  1.0000
  H   H309      1.0  0.44928  0.26456  0.26892  1.0000
  C   C185      1.0  0.24921  0.01701  0.23266  1.0000
  H   H310      1.0  0.11617  0.07234  0.32505  1.0000
  H   H311      1.0  0.01852  0.11383  0.44025  1.0000
  H   H312      1.0  0.13073  0.08226  0.33995  1.0000
  C   C186      1.0  0.22989  0.00889  0.24009  1.0000
  H   H313      1.0  0.14854  0.04264  0.27178  1.0000
  H   H314      1.0  0.48117  0.28080  0.29021  1.0000
  C   C187      1.0  0.49347  0.30891  0.26702  1.0000
  H   H315      1.0  0.46606  0.30929  0.30664  1.0000
  H   H316      1.0  0.04458  0.08394  0.43528  1.0000
  H   H317      1.0  0.08003  0.14852  0.44444  1.0000
  C   C188      1.0  0.41253  0.32620  0.33210  1.0000
  H   H318      1.0  0.09850  0.15087  0.26669  1.0000
  H   H319      1.0  0.40907  0.15837  0.34407  1.0000
  H   H320      1.0  0.05593  0.13248  0.47525  1.0000
  H   H321      1.0  0.02111  0.05376  0.44186  1.0000
  S   S38       1.0  0.18268  0.11643  0.23538  1.0000
  C   C189      1.0  0.32769  0.32338  0.23208  1.0000
  H   H322      1.0  0.01381  0.10520  0.46100  1.0000
  H   H323      1.0  0.14173  0.01177  0.46260  1.0000
  C   C190      1.0  0.00182  0.23068  0.23892  1.0000
  C   C191      1.0  0.45674  0.32733  0.24675  1.0000
  H   H324      1.0  0.16697  0.99845  0.44043  1.0000
  H   H325      1.0  0.17214  0.99777  0.34339  1.0000
  H   H326      1.0  0.18222  0.04027  0.47502  1.0000
  C   C192      1.0  0.44701  0.32489  0.23112  1.0000
  H   H327      1.0  0.10565  0.00278  0.37103  1.0000
  H   H328      1.0  0.07236  0.09202  0.47050  1.0000
  H   H329      1.0  0.09694  0.01975  0.46598  1.0000
  H   H330      1.0  0.43066  0.31861  0.23359  1.0000
  H   H331      1.0  0.30817  0.26319  0.23095  1.0000
  H   H332      1.0  0.27965  0.25969  0.23416  1.0000
  C   C193      1.0  0.14762  0.18331  0.22902  1.0000
  S   S39       1.0  0.13437  0.20919  0.22677  1.0000
  H   H333      1.0  0.24590  0.30300  0.22845  1.0000
  Fe  Fe21      1.0  0.13536  0.05961  0.53854  1.0000
  S   S40       1.0  0.11721  0.02961  0.54530  1.0000
  S   S41       1.0  0.13161  0.07736  0.51371  1.0000
  Fe  Fe22      1.0  0.14768  0.06120  0.57373  1.0000
  S   S42       1.0  0.12992  0.03141  0.58255  1.0000
  S   S43       1.0  0.16099  0.08285  0.59069  1.0000
  Fe  Fe23      1.0  0.14474  0.01846  0.55973  1.0000
  Fe  Fe24      1.0  0.10396  0.04555  0.56727  1.0000
  S   S44       1.0  0.06864  0.04372  0.57589  1.0000
  S   S45       1.0  0.16435  0.04742  0.55149  1.0000
  S   S46       1.0  0.12043  0.07630  0.55992  1.0000
  S   S47       1.0  0.00757  0.12483  0.55506  1.0000
  H   H334      1.0  0.24895  0.11064  0.55679  1.0000
  H   H335      1.0  0.21968  0.00835  0.64813  1.0000
  C   C194      1.0  0.19325  0.01718  0.67514  1.0000
  C   C195      1.0  0.47137  0.26432  0.56048  1.0000
  H   H336      1.0  0.16941  0.05094  0.50227  1.0000
  Fe  Fe25      1.0  0.38086  0.26406  0.69714  1.0000
  S   S48       1.0  0.36840  0.26371  0.67313  1.0000
  Fe  Fe26      1.0  0.42327  0.23880  0.68709  1.0000
  S   S49       1.0  0.41236  0.23527  0.66252  1.0000
  Fe  Fe27      1.0  0.40206  0.27060  0.66236  1.0000
  S   S50       1.0  0.41170  0.29840  0.64330  1.0000
  Fe  Fe28      1.0  0.37924  0.22821  0.67523  1.0000
  S   S51       1.0  0.35341  0.20634  0.66842  1.0000
  S   S52       1.0  0.41362  0.27407  0.68660  1.0000
  Fe  Fe29      1.0  0.23446  0.08895  0.66462  1.0000
  S   S53       1.0  0.20768  0.08579  0.68427  1.0000
  S   S54       1.0  0.23055  0.07142  0.64232  1.0000
  Fe  Fe30      1.0  0.26317  0.10984  0.68664  1.0000
  S   S55       1.0  0.23754  0.10616  0.70778  1.0000
  S   S56       1.0  0.29445  0.12515  0.69182  1.0000
  Fe  Fe31      1.0  0.23294  0.07264  0.70059  1.0000
  H   H337      1.0  0.31794  0.26030  0.65401  1.0000
  Fe  Fe32      1.0  0.21481  0.11902  0.68962  1.0000
  S   S57       1.0  0.18894  0.14636  0.69148  1.0000
  S   S58       1.0  0.26000  0.07528  0.68076  1.0000
  S   S59       1.0  0.24014  0.12344  0.66867  1.0000
  C   C196      1.0  0.26219  0.10376  0.52538  1.0000
  H   H338      1.0  0.23098  0.12355  0.54354  1.0000
  C   C197      1.0  0.28470  0.21534  0.71631  1.0000
  H   H339      1.0  0.21949  0.21207  0.72352  1.0000
  H   H340      1.0  0.47638  0.32502  0.60422  1.0000
  S   S60       1.0  0.22091  0.04192  0.71608  1.0000
  H   H341      1.0  0.25478  0.11815  0.51864  1.0000
  N   N13       1.0  0.30012  0.23148  0.70794  1.0000
  C   C198      1.0  0.15711  0.09754  0.71428  1.0000
  H   H342      1.0  0.18427  0.04572  0.68788  1.0000
  H   H343      1.0  0.23938  0.12738  0.57819  1.0000
  C   C199      1.0  0.41745  0.30001  0.62202  1.0000
  C   C200      1.0  0.41485  0.28279  0.61304  1.0000
  C   C201      1.0  0.41923  0.28515  0.59613  1.0000
  C   C202      1.0  0.42645  0.30463  0.58801  1.0000
  H   H344      1.0  0.23146  0.02345  0.57251  1.0000
  C   C203      1.0  0.34232  0.31294  0.70386  1.0000
  H   H345      1.0  0.40915  0.26777  0.61907  1.0000
  C   C204      1.0  0.19827  0.09416  0.55194  1.0000
  H   H346      1.0  0.32716  0.24882  0.68150  1.0000
  C   C205      1.0  0.42487  0.31942  0.61391  1.0000
  H   H347      1.0  0.39925  0.30430  0.49839  1.0000
  H   H348      1.0  0.46734  0.24240  0.54307  1.0000
  C   C206      1.0  0.33704  0.18386  0.67545  1.0000
  C   C207      1.0  0.31956  0.18002  0.66690  1.0000
  C   C208      1.0  0.30619  0.16253  0.67181  1.0000
  C   C209      1.0  0.31027  0.14818  0.68526  1.0000
  C   C210      1.0  0.32773  0.15205  0.69383  1.0000
  C   C211      1.0  0.34086  0.16978  0.68909  1.0000
  H   H349      1.0  0.31639  0.19059  0.65628  1.0000
  H   H350      1.0  0.29300  0.15989  0.66497  1.0000
  H   H351      1.0  0.33119  0.14115  0.70423  1.0000
  H   H352      1.0  0.35419  0.17227  0.69583  1.0000
  C   C212      1.0  0.25330  0.99889  0.64315  1.0000
  C   C213      1.0  0.45133  0.31339  0.67566  1.0000
  H   H353      1.0  0.18475  0.08836  0.56061  1.0000
  C   C214      1.0  0.17717  0.15555  0.70975  1.0000
  C   C215      1.0  0.16065  0.17197  0.70933  1.0000
  H   H354      1.0  0.22842  0.05614  0.55342  1.0000
  H   H355      1.0  0.20521  0.13250  0.56402  1.0000
  H   H356      1.0  0.15585  0.17916  0.69787  1.0000
  H   H357      1.0  0.05378  0.10488  0.50367  1.0000
  N   N14       1.0  0.21670  0.09934  0.56100  1.0000
  H   H358      1.0  0.10061  0.05584  0.69693  1.0000
  H   H359      1.0  0.13833  0.05797  0.71748  1.0000
  S   S61       1.0  0.36067  0.27565  0.71902  1.0000
  H   H360      1.0  0.29754  0.00480  0.67448  1.0000
  H   H361      1.0  0.02388  0.16316  0.58014  1.0000
  C   C216      1.0  0.12664  0.12246  0.72127  1.0000
  H   H362      1.0  0.48843  0.26062  0.53741  1.0000
  C   C217      1.0  0.17832  0.07812  0.60649  1.0000
  C   C218      1.0  0.19066  0.05875  0.60911  1.0000
  C   C219      1.0  0.20619  0.05684  0.62037  1.0000
  C   C220      1.0  0.20920  0.07398  0.62951  1.0000
  C   C221      1.0  0.19618  0.09301  0.62740  1.0000
  C   C222      1.0  0.18100  0.09509  0.61588  1.0000
  H   H363      1.0  0.18877  0.04552  0.60204  1.0000
  H   H364      1.0  0.21610  0.04206  0.62187  1.0000
  H   H365      1.0  0.19831  0.10640  0.63424  1.0000
  H   H366      1.0  0.17147  0.11011  0.61405  1.0000
  C   C223      1.0  0.05214  0.06689  0.57072  1.0000
  C   C224      1.0  0.06006  0.08394  0.56011  1.0000
  C   C225      1.0  0.04637  0.10186  0.55565  1.0000
  C   C226      1.0  0.02453  0.10254  0.56138  1.0000
  C   C227      1.0  0.01661  0.08548  0.57201  1.0000
  C   C228      1.0  0.03042  0.06785  0.57682  1.0000
  H   H367      1.0  0.07662  0.08322  0.55508  1.0000
  H   H368      1.0  0.05263  0.11496  0.54742  1.0000
  H   H369      1.0  0.47496  0.26086  0.48563  1.0000
  H   H370      1.0  0.02420  0.05475  0.58507  1.0000
  C   C229      1.0  0.14061  0.06810  0.49474  1.0000
  H   H371      1.0  0.24075  0.19451  0.70053  1.0000
  C   C230      1.0  0.34402  0.29977  0.71822  1.0000
  C   C231      1.0  0.22374  0.28148  0.70673  1.0000
  H   H372      1.0  0.22239  0.03069  0.67982  1.0000
  C   C232      1.0  0.47086  0.29129  0.50729  1.0000
  N   N15       1.0  0.18961  0.23180  0.72261  1.0000
  C   C233      1.0  0.30999  0.25010  0.67924  1.0000
  H   H373      1.0  0.18619  0.00149  0.67440  1.0000
  H   H374      1.0  0.41682  0.27183  0.58930  1.0000
  C   C234      1.0  0.21365  0.14085  0.59354  1.0000
  C   C235      1.0  0.42954  0.32165  0.59706  1.0000
  C   C236      1.0  0.17819  0.02960  0.68693  1.0000
  H   H375      1.0  0.24055  0.08118  0.57484  1.0000
  H   H376      1.0  0.45867  0.24029  0.66068  1.0000
  H   H377      1.0  0.47927  0.28683  0.61424  1.0000
  H   H378      1.0  0.47608  0.28109  0.56112  1.0000
  C   C237      1.0  0.28757  0.01385  0.68356  1.0000
  C   C238      1.0  0.22376  0.07979  0.57185  1.0000
  H   H379      1.0  0.27973  0.19299  0.69851  1.0000
  C   C239      1.0  0.15986  0.05558  0.49231  1.0000
  H   H380      1.0  0.25588  0.02880  0.68752  1.0000
  C   C240      1.0  0.20356  0.21182  0.71871  1.0000
  H   H381      1.0  0.39240  0.32007  0.51520  1.0000
  C   C241      1.0  0.03758  0.06485  0.52322  1.0000
  H   H382      1.0  0.16684  0.00902  0.52815  1.0000
  H   H383      1.0  0.07658  0.99785  0.55610  1.0000
  H   H384      1.0  0.31535  0.23169  0.65826  1.0000
  H   H385      1.0  0.19609  0.19701  0.72486  1.0000
  C   C242      1.0  0.46796  0.28282  0.65953  1.0000
  C   C243      1.0  0.24524  0.09246  0.53713  1.0000
  C   C244      1.0  0.23062  0.01472  0.72174  1.0000
  H   H386      1.0  0.11405  0.08456  0.48323  1.0000
  C   C245      1.0  0.18318  0.14626  0.72459  1.0000
  H   H387      1.0  0.20159  0.11921  0.53144  1.0000
  H   H388      1.0  0.10915  0.01406  0.50087  1.0000
  C   C246      1.0  0.47171  0.25943  0.54299  1.0000
  H   H389      1.0  0.14813  0.26188  0.68941  1.0000
  H   H390      1.0  0.26431  0.02075  0.71888  1.0000
  C   C247      1.0  0.46324  0.25207  0.51103  1.0000
  C   C248      1.0  0.47907  0.23594  0.70205  1.0000
  H   H391      1.0  0.00377  0.03898  0.52849  1.0000
  H   H392      1.0  0.05853  0.14291  0.58213  1.0000
  C   C249      1.0  0.02544  0.15117  0.59071  1.0000
  C   C250      1.0  0.47836  0.25583  0.64020  1.0000
  C   C251      1.0  0.25296  0.99735  0.67875  1.0000
  H   H393      1.0  0.12330  0.02850  0.48445  1.0000
  H   H394      1.0  0.18171  0.12629  0.54748  1.0000
  C   C252      1.0  0.17115  0.10524  0.53168  1.0000
  H   H395      1.0  0.17868  0.23798  0.69868  1.0000
  H   H396      1.0  0.46333  0.30197  0.62865  1.0000
  H   H397      1.0  0.20277  0.08058  0.54449  1.0000
  N   N16       1.0  0.23190  0.99952  0.67123  1.0000
  H   H398      1.0  0.48449  0.22633  0.65641  1.0000
  C   C253      1.0  0.29765  0.23250  0.69014  1.0000
  H   H399      1.0  0.45230  0.28170  0.65449  1.0000
  C   C254      1.0  0.22198  0.05710  0.56609  1.0000
  H   H400      1.0  0.30448  0.26587  0.70705  1.0000
  C   C255      1.0  0.42295  0.30156  0.51596  1.0000
  H   H401      1.0  0.99989  0.08583  0.57658  1.0000
  H   H402      1.0  0.03957  0.01317  0.56042  1.0000
  H   H403      1.0  0.33095  0.21470  0.70150  1.0000
  N   N17       1.0  0.45639  0.27442  0.51579  1.0000
  H   H404      1.0  0.39001  0.29124  0.51795  1.0000
  H   H405      1.0  0.17692  0.02053  0.69905  1.0000
  C   C256      1.0  0.43393  0.27988  0.51084  1.0000
  H   H406      1.0  0.23868  0.00679  0.62061  1.0000
  C   C257      1.0  0.99877  0.02272  0.55904  1.0000
  H   H407      1.0  0.10604  0.09283  0.70351  1.0000
  H   H408      1.0  0.30433  0.18728  0.70762  1.0000
  C   C258      1.0  0.00961  0.21413  0.72366  1.0000
  C   C259      1.0  0.11918  0.08809  0.71141  1.0000
  C   C260      1.0  0.12872  0.07452  0.48154  1.0000
  H   H409      1.0  0.13402  0.09189  0.67716  1.0000
  C   C261      1.0  0.01188  0.15903  0.60585  1.0000
  H   H410      1.0  0.07479  0.03459  0.49765  1.0000
  H   H411      1.0  0.43930  0.27027  0.53973  1.0000
  H   H412      1.0  0.36018  0.20097  0.71991  1.0000
  H   H413      1.0  0.42313  0.26671  0.51571  1.0000
  C   C262      1.0  0.47337  0.22646  0.48946  1.0000
  H   H414      1.0  0.00847  0.03246  0.56574  1.0000
  H   H415      1.0  0.16477  0.11880  0.52355  1.0000
  H   H416      1.0  0.45205  0.24015  0.51749  1.0000
  H   H417      1.0  0.05197  0.13534  0.60321  1.0000
  C   C263      1.0  0.12846  0.06513  0.70780  1.0000
  C   C264      1.0  0.47895  0.25738  0.70575  1.0000
  H   H418      1.0  0.25584  0.02706  0.62551  1.0000
  H   H419      1.0  0.04745  0.04164  0.54206  1.0000
  C   C265      1.0  0.20296  0.25123  0.72221  1.0000
  H   H420      1.0  0.13058  0.24363  0.70194  1.0000
  H   H421      1.0  0.30314  0.26654  0.68144  1.0000
  H   H422      1.0  0.30341  0.21686  0.68540  1.0000
  H   H423      1.0  0.16189  0.03192  0.68265  1.0000
  S   S62       1.0  0.43113  0.30702  0.56663  1.0000
  C   C266      1.0  0.23545  0.10754  0.54984  1.0000
  H   H424      1.0  0.27535  0.10885  0.53187  1.0000
  C   C267      1.0  0.46083  0.22003  0.64119  1.0000
  H   H425      1.0  0.45712  0.29149  0.53702  1.0000
  H   H426      1.0  0.44693  0.22815  0.63530  1.0000
  H   H427      1.0  0.06465  0.03866  0.47814  1.0000
  C   C268      1.0  0.45544  0.27477  0.53388  1.0000
  H   H428      1.0  0.27707  0.25873  0.70984  1.0000
  H   H429      1.0  0.01759  0.14934  0.61664  1.0000
  C   C269      1.0  0.21632  0.01415  0.68058  1.0000
  N   N18       1.0  0.48638  0.27359  0.64870  1.0000
  C   C270      1.0  0.13693  0.11705  0.69310  1.0000
  H   H430      1.0  0.29153  0.24982  0.65857  1.0000
  H   H431      1.0  0.46431  0.26207  0.63357  1.0000
  H   H432      1.0  0.19243  0.20179  0.69677  1.0000
  H   H433      1.0  0.16375  0.08421  0.70714  1.0000
  C   C271      1.0  0.27629  0.17555  0.72191  1.0000
  H   H434      1.0  0.13900  0.13435  0.72175  1.0000
  H   H435      1.0  0.07968  0.11148  0.49336  1.0000
  C   C272      1.0  0.46435  0.24914  0.49282  1.0000
  H   H436      1.0  0.09306  0.12478  0.71490  1.0000
  C   C273      1.0  0.03212  0.04831  0.53748  1.0000
  H   H437      1.0  0.08329  0.00262  0.48195  1.0000
  H   H438      1.0  0.12095  0.12366  0.68961  1.0000
  H   H439      1.0  0.22639  0.10825  0.59292  1.0000
  C   C274      1.0  0.20850  0.11709  0.57149  1.0000
  C   C275      1.0  0.15604  0.25531  0.71421  1.0000
  C   C276      1.0  0.21353  0.26009  0.70561  1.0000
  H   H440      1.0  0.16101  0.00366  0.48567  1.0000
  C   C277      1.0  0.04934  0.14809  0.59325  1.0000
  H   H441      1.0  0.23287  0.08739  0.52994  1.0000
  C   C278      1.0  0.22357  0.12237  0.58406  1.0000
  H   H442      1.0  0.22581  0.18463  0.68582  1.0000
  C   C279      1.0  0.15116  0.11744  0.66368  1.0000
  H   H443      1.0  0.22442  0.14393  0.60270  1.0000
  H   H444      1.0  0.02036  0.13570  0.58739  1.0000
  H   H445      1.0  0.23609  0.27939  0.71546  1.0000
  H   H446      1.0  0.05560  0.16345  0.59600  1.0000
  C   C280      1.0  0.26469  0.01853  0.67869  1.0000
  H   H447      1.0  0.16121  0.09400  0.68207  1.0000
  C   C281      1.0  0.39973  0.30435  0.51157  1.0000
  S   S63       1.0  0.45677  0.22518  0.69420  1.0000
  H   H448      1.0  0.26774  0.22154  0.71513  1.0000
  H   H449      1.0  0.43394  0.28109  0.49754  1.0000
  H   H450      1.0  0.21150  0.15589  0.58542  1.0000
  C   C282      1.0  0.03275  0.00218  0.55278  1.0000
  H   H451      1.0  0.05685  0.00796  0.53178  1.0000
  H   H452      1.0  0.13691  0.19113  0.72321  1.0000
  C   C283      1.0  0.30854  0.24776  0.66145  1.0000
  C   C284      1.0  0.32338  0.22525  0.71070  1.0000
  H   H453      1.0  0.21232  0.22148  0.69273  1.0000
  H   H454      1.0  0.10867  0.14750  0.70683  1.0000
  H   H455      1.0  0.04748  0.07721  0.52707  1.0000
  H   H456      1.0  0.26589  0.02792  0.66675  1.0000
  H   H457      1.0  0.28033  0.23498  0.68792  1.0000
  H   H458      1.0  0.47297  0.21401  0.63185  1.0000
  H   H459      1.0  0.45501  0.20597  0.64930  1.0000
  H   H460      1.0  0.33309  0.23986  0.70893  1.0000
  H   H461      1.0  0.14169  0.02037  0.50867  1.0000
  H   H462      1.0  0.46627  0.27282  0.67132  1.0000
  C   C285      1.0  0.47993  0.29889  0.62304  1.0000
  H   H463      1.0  0.15762  0.09949  0.54032  1.0000
  H   H464      1.0  0.19779  0.13661  0.59985  1.0000
  H   H465      1.0  0.46644  0.31773  0.65177  1.0000
  H   H466      1.0  0.23718  0.02686  0.65345  1.0000
  H   H467      1.0  0.11088  0.08609  0.72380  1.0000
  C   C286      1.0  0.20746  0.20714  0.70078  1.0000
  H   H468      1.0  0.14693  0.13129  0.69269  1.0000
  H   H469      1.0  0.01825  0.19892  0.72150  1.0000
  H   H470      1.0  0.19349  0.02656  0.66315  1.0000
  H   H471      1.0  0.46882  0.29355  0.49420  1.0000
  H   H472      1.0  0.25154  0.04207  0.57496  1.0000
  H   H473      1.0  0.21375  0.07916  0.58358  1.0000
  H   H474      1.0  0.29508  0.02934  0.68438  1.0000
  H   H475      1.0  0.19280  0.11297  0.57825  1.0000
  H   H476      1.0  0.28740  0.00428  0.69546  1.0000
  C   C287      1.0  0.16828  0.00076  0.51697  1.0000
  H   H477      1.0  0.04695  0.05695  0.51327  1.0000
  H   H478      1.0  0.23162  0.28737  0.69479  1.0000
  H   H479      1.0  0.26928  0.09246  0.51659  1.0000
  H   H480      1.0  0.22793  0.03969  0.58925  1.0000
  H   H481      1.0  0.04678  0.08438  0.48063  1.0000
  H   H482      1.0  0.25346  0.07798  0.54311  1.0000
  C   C288      1.0  0.01866  0.03042  0.53266  1.0000
  H   H483      1.0  0.15720  0.10710  0.65396  1.0000
  H   H484      1.0  0.16387  0.12863  0.66503  1.0000
  H   H485      1.0  0.16879  0.11036  0.71102  1.0000
  H   H486      1.0  0.02708  0.02349  0.52187  1.0000
  S   S64       1.0  0.39117  0.22865  0.69958  1.0000
  C   C289      1.0  0.18895  0.11289  0.54061  1.0000
  H   H487      1.0  0.35136  0.30843  0.69291  1.0000
  H   H488      1.0  0.17737  0.09194  0.52430  1.0000
  C   C290      1.0  0.14611  0.10325  0.67938  1.0000
  H   H489      1.0  0.20476  0.05317  0.56723  1.0000
  C   C291      1.0  0.09320  0.01690  0.47919  1.0000
  C   C292      1.0  0.22487  0.18907  0.69837  1.0000
  H   H490      1.0  0.22662  0.24856  0.70136  1.0000
  C   C293      1.0  0.13982  0.25834  0.70162  1.0000
  H   H491      1.0  0.46592  0.30729  0.51155  1.0000
  C   C294      1.0  0.25254  0.00869  0.72208  1.0000
  H   H492      1.0  0.02273  0.05715  0.54689  1.0000
  H   H493      1.0  0.42255  0.30251  0.52910  1.0000
  H   H494      1.0  0.13650  0.12698  0.66006  1.0000
  N   N19       1.0  0.13497  0.10575  0.70992  1.0000
  C   C295      1.0  0.47081  0.23554  0.65096  1.0000
  H   H495      1.0  0.21125  0.29396  0.71057  1.0000
  H   H496      1.0  0.49008  0.22368  0.49293  1.0000
  C   C296      1.0  0.23400  0.03957  0.57637  1.0000
  C   C297      1.0  0.46891  0.30688  0.66281  1.0000
  N   N20       1.0  0.01293  0.01278  0.54575  1.0000
  C   C298      1.0  0.48737  0.31982  0.61365  1.0000
  H   H497      1.0  0.13884  0.06529  0.69634  1.0000
  H   H498      1.0  0.21520  0.00845  0.69354  1.0000
  H   H499      1.0  0.01677  0.17571  0.60675  1.0000
  H   H500      1.0  0.12825  0.27214  0.70426  1.0000
  H   H501      1.0  0.45263  0.30291  0.68707  1.0000
  H   H502      1.0  0.07431  0.08379  0.49963  1.0000
  H   H503      1.0  0.18098  0.00849  0.50850  1.0000
  C   C299      1.0  0.25379  0.00940  0.62588  1.0000
  C   C300      1.0  0.17201  0.23570  0.71142  1.0000
  H   H504      1.0  0.20169  0.26318  0.69657  1.0000
  H   H505      1.0  0.46503  0.26818  0.70370  1.0000
  H   H506      1.0  0.16239  0.22112  0.71230  1.0000
  C   C301      1.0  0.11047  0.04993  0.70694  1.0000
  H   H507      1.0  0.38405  0.32440  0.56908  1.0000
  H   H508      1.0  0.16449  0.27052  0.71366  1.0000
  C   C302      1.0  0.06699  0.09955  0.49482  1.0000
  C   C303      1.0  0.05844  0.09731  0.47868  1.0000
  C   C304      1.0  0.10550  0.13556  0.71743  1.0000
  H   H509      1.0  0.27744  0.15986  0.71654  1.0000
  H   H510      1.0  0.02266  0.07313  0.51891  1.0000
  H   H511      1.0  0.11759  0.03356  0.70474  1.0000
  H   H512      1.0  0.09992  0.04865  0.71843  1.0000
  H   H513      1.0  0.03125  0.12004  0.47966  1.0000
  H   H514      1.0  0.99928  0.19152  0.58340  1.0000
  C   C305      1.0  0.23473  0.00926  0.65401  1.0000
  H   H515      1.0  0.22111  0.17440  0.70659  1.0000
  H   H516      1.0  0.43519  0.31228  0.67145  1.0000
  H   H517      1.0  0.43157  0.31544  0.50965  1.0000
  H   H518      1.0  0.47935  0.24673  0.51486  1.0000
  C   C306      1.0  0.29354  0.25361  0.71328  1.0000
  C   C307      1.0  0.28717  0.19261  0.71000  1.0000
  H   H519      1.0  0.45503  0.26242  0.56684  1.0000
  C   C308      1.0  0.14993  0.17881  0.72364  1.0000
  C   C309      1.0  0.14666  0.00291  0.50979  1.0000
  H   H520      1.0  0.00665  0.11401  0.60775  1.0000
  C   C310      1.0  0.11411  0.01375  0.48784  1.0000
  C   C311      1.0  0.07948  0.03662  0.48450  1.0000
  C   C312      1.0  0.16712  0.04962  0.47684  1.0000
  H   H521      1.0  0.48292  0.25297  0.56675  1.0000
  H   H522      1.0  0.46311  0.21401  0.49617  1.0000
  H   H523      1.0  0.99763  0.16844  0.63641  1.0000
  H   H524      1.0  0.25901  0.18028  0.72482  1.0000
  H   H525      1.0  0.44810  0.25121  0.48848  1.0000
  H   H526      1.0  0.48454  0.31032  0.66677  1.0000
  H   H527      1.0  0.08858  0.05147  0.48154  1.0000
  H   H528      1.0  0.26915  0.00109  0.64744  1.0000
  H   H529      1.0  0.26754  0.00213  0.61842  1.0000
  H   H530      1.0  0.49106  0.25022  0.63099  1.0000
  H   H531      1.0  0.19589  0.13362  0.72505  1.0000
  C   C313      1.0  0.00151  0.99586  0.53873  1.0000
  H   H532      1.0  0.47369  0.22467  0.47641  1.0000
  Fe  Fe33      1.0  0.06209  0.09962  0.91187  1.0000
  S   S65       1.0  0.06896  0.13488  0.90809  1.0000
  S   S66       1.0  0.08826  0.07310  0.91471  1.0000
  Fe  Fe34      1.0  0.01342  0.10864  0.91410  1.0000
  S   S67       1.0  0.01620  0.14457  0.91026  1.0000
  Fe  Fe35      1.0  0.04306  0.13789  0.89082  1.0000
  S   S68       1.0  0.04600  0.14811  0.86356  1.0000
  Fe  Fe36      1.0  0.04180  0.13870  0.92777  1.0000
  S   S69       1.0  0.03995  0.15761  0.94984  1.0000
  S   S70       1.0  0.03806  0.10206  0.89373  1.0000
  S   S71       1.0  0.03721  0.10335  0.93256  1.0000
  Fe  Fe37      1.0  0.11545  0.25485  0.75796  1.0000
  S   S72       1.0  0.13764  0.28306  0.74826  1.0000
  Fe  Fe38      1.0  0.09067  0.22718  0.78585  1.0000
  S   S73       1.0  0.08417  0.20200  0.77002  1.0000
  S   S74       1.0  0.08009  0.22539  0.81294  1.0000
  S   S75       1.0  0.12566  0.22862  0.77648  1.0000
  S   S76       1.0  0.08029  0.25528  0.76839  1.0000
  H   H533      1.0  0.04664  0.23178  0.79023  1.0000
  H   H534      1.0  0.05908  0.16279  0.77658  1.0000
  H   H535      1.0  0.00782  0.03577  0.95287  1.0000
  H   H536      1.0  0.31958  0.22132  0.73743  1.0000
  H   H537      1.0  0.47384  0.19044  0.76813  1.0000
  C   C314      1.0  0.02682  0.19550  0.78327  1.0000
  H   H538      1.0  0.28577  0.28107  0.74786  1.0000
  C   C315      1.0  0.18436  0.32757  0.74551  1.0000
  C   C316      1.0  0.47747  0.20373  0.77520  1.0000
  H   H539      1.0  0.02238  0.04759  0.88558  1.0000
  H   H540      1.0  0.00988  0.16781  0.77713  1.0000
  C   C317      1.0  0.45690  0.20988  0.78611  1.0000
  C   C318      1.0  0.17895  0.22765  0.73955  1.0000
  C   C319      1.0  0.15782  0.29977  0.75379  1.0000
  C   C320      1.0  0.16306  0.29988  0.76962  1.0000
  H   H541      1.0  0.46027  0.22200  0.79421  1.0000
  H   H542      1.0  0.15492  0.28944  0.77908  1.0000
  C   C321      1.0  0.18205  0.21735  0.76937  1.0000
  C   C322      1.0  0.05623  0.16966  0.84986  1.0000
  C   C323      1.0  0.05969  0.18990  0.85468  1.0000
  C   C324      1.0  0.06710  0.20663  0.84323  1.0000
  C   C325      1.0  0.07131  0.20340  0.82683  1.0000
  C   C326      1.0  0.06801  0.18309  0.82201  1.0000
  C   C327      1.0  0.06043  0.16641  0.83345  1.0000
  H   H543      1.0  0.05642  0.19277  0.86720  1.0000
  H   H544      1.0  0.06954  0.22226  0.84711  1.0000
  H   H545      1.0  0.07117  0.18030  0.80947  1.0000
  H   H546      1.0  0.05774  0.15087  0.82954  1.0000
  H   H547      1.0  0.48274  0.24589  0.78156  1.0000
  H   H548      1.0  0.43397  0.19488  0.80432  1.0000
  H   H549      1.0  0.02556  0.16213  0.79423  1.0000
  H   H550      1.0  0.45897  0.24407  0.76249  1.0000
  S   S77       1.0  0.10923  0.23119  0.74016  1.0000
  H   H551      1.0  0.22547  0.02934  0.75514  1.0000
  H   H552      1.0  0.04999  0.01788  0.96413  1.0000
  H   H553      1.0  0.07446  0.12629  0.95924  1.0000
  H   H554      1.0  0.12638  0.02849  0.93969  1.0000
  H   H555      1.0  0.16663  0.21537  0.74002  1.0000
  C   C328      1.0  0.08707  0.01409  0.88664  1.0000
  C   C329      1.0  0.10313  0.01549  0.89686  1.0000
  C   C330      1.0  0.10343  0.03376  0.90531  1.0000
  C   C331      1.0  0.08743  0.05048  0.90388  1.0000
  C   C332      1.0  0.07127  0.04894  0.89379  1.0000
  C   C333      1.0  0.07127  0.03095  0.88499  1.0000
  H   H556      1.0  0.99629  0.16728  0.80983  1.0000
  H   H557      1.0  0.11618  0.03497  0.91289  1.0000
  H   H558      1.0  0.05883  0.06161  0.89265  1.0000
  H   H559      1.0  0.05886  0.02991  0.87706  1.0000
  N   N21       1.0  0.10792  0.10282  0.86082  1.0000
  C   C334      1.0  0.09865  0.12461  0.86534  1.0000
  C   C335      1.0  0.08963  0.08828  0.86034  1.0000
  C   C336      1.0  0.12117  0.09307  0.87412  1.0000
  C   C337      1.0  0.12210  0.10424  0.84509  1.0000
  C   C338      1.0  0.11624  0.12271  0.83209  1.0000
  C   C339      1.0  0.11517  0.14011  0.86970  1.0000
  C   C340      1.0  0.13054  0.06954  0.87273  1.0000
  C   C341      1.0  0.07371  0.09497  0.84755  1.0000
  C   C342      1.0  0.05459  0.08048  0.84991  1.0000
  C   C343      1.0  0.12955  0.12009  0.81606  1.0000
  C   C344      1.0  0.10602  0.16350  0.86891  1.0000
  C   C345      1.0  0.14672  0.06300  0.88507  1.0000
  H   H560      1.0  0.08636  0.12258  0.87586  1.0000
  H   H561      1.0  0.08962  0.13315  0.85569  1.0000
  H   H562      1.0  0.09582  0.07170  0.85787  1.0000
  H   H563      1.0  0.08020  0.08663  0.87235  1.0000
  H   H564      1.0  0.11147  0.09335  0.88600  1.0000
  H   H565      1.0  0.13520  0.10292  0.87483  1.0000
  H   H566      1.0  0.13911  0.10649  0.84718  1.0000
  H   H567      1.0  0.12264  0.08862  0.83962  1.0000
  H   H568      1.0  0.11961  0.13864  0.83585  1.0000
  H   H569      1.0  0.09903  0.12342  0.82994  1.0000
  H   H570      1.0  0.11930  0.13544  0.88219  1.0000
  H   H571      1.0  0.13025  0.13941  0.86153  1.0000
  H   H572      1.0  0.13881  0.06762  0.86060  1.0000
  H   H573      1.0  0.11758  0.05797  0.87514  1.0000
  H   H574      1.0  0.06715  0.11183  0.84811  1.0000
  H   H575      1.0  0.08185  0.09308  0.83537  1.0000
  H   H576      1.0  0.04536  0.08221  0.86176  1.0000
  H   H577      1.0  0.04362  0.08529  0.84040  1.0000
  H   H578      1.0  0.06016  0.06326  0.84918  1.0000
  H   H579      1.0  0.12610  0.10480  0.81131  1.0000
  H   H580      1.0  0.07108  0.05481  0.96073  1.0000
  C   C346      1.0  0.01335  0.04685  0.89769  1.0000
  H   H581      1.0  0.10311  0.16947  0.85636  1.0000
  H   H582      1.0  0.09066  0.16481  0.87675  1.0000
  H   H583      1.0  0.11766  0.17394  0.87305  1.0000
  H   H584      1.0  0.16103  0.07291  0.88257  1.0000
  H   H585      1.0  0.13916  0.06508  0.89742  1.0000
  H   H586      1.0  0.15213  0.04571  0.88450  1.0000
  N   N22       1.0  0.48717  0.22205  0.76431  1.0000
  C   C347      1.0  0.44867  0.19009  0.79662  1.0000
  H   H587      1.0  0.01688  0.05966  0.94098  1.0000
  H   H588      1.0  0.20682  0.23147  0.75318  1.0000
  H   H589      1.0  0.01383  0.23666  0.77650  1.0000
  H   H590      1.0  0.20241  0.20384  0.75049  1.0000
  H   H591      1.0  0.01496  0.06226  0.90290  1.0000
  H   H592      1.0  0.03004  0.20341  0.77085  1.0000
  H   H593      1.0  0.14256  0.00352  0.94213  1.0000
  H   H594      1.0  0.21533  0.03486  0.77525  1.0000
  C   C348      1.0  0.31881  0.32496  0.73219  1.0000
  H   H595      1.0  0.02388  0.19664  0.81378  1.0000
  H   H596      1.0  0.17418  0.23311  0.77246  1.0000
  S   S78       1.0  0.04554  0.22220  0.73879  1.0000
  H   H597      1.0  0.45052  0.20711  0.75206  1.0000
  C   C349      1.0  0.47058  0.23457  0.75463  1.0000
  C   C350      1.0  0.04801  0.14649  0.96878  1.0000
  C   C351      1.0  0.02190  0.04583  0.94947  1.0000
  H   H598      1.0  0.03539  0.02816  0.93004  1.0000
  C   C352      1.0  0.21359  0.02459  0.76544  1.0000
  C   C353      1.0  0.04725  0.01228  0.95238  1.0000
  H   H599      1.0  0.01827  0.27060  0.80161  1.0000
  H   H600      1.0  0.01407  0.16704  0.83492  1.0000
  C   C354      1.0  0.04068  0.03271  0.94136  1.0000
  H   H601      1.0  0.35849  0.22641  0.72896  1.0000
  C   C355      1.0  0.19432  0.21981  0.75269  1.0000
  H   H602      1.0  0.01463  0.26030  0.74088  1.0000
  C   C356      1.0  0.21775  0.00069  0.77106  1.0000
  H   H603      1.0  0.11058  0.99638  0.92967  1.0000
  C   C357      1.0  0.99728  0.17384  0.83428  1.0000
  C   C358      1.0  0.35159  0.21034  0.72942  1.0000
  C   C359      1.0  0.45766  0.22110  0.74472  1.0000
  H   H604      1.0  0.03184  0.23316  0.80963  1.0000
  C   C360      1.0  0.01170  0.23114  0.78956  1.0000
  H   H605      1.0  0.02054  0.03354  0.90555  1.0000
  H   H606      1.0  0.00075  0.21416  0.81707  1.0000
  H   H607      1.0  0.47840  0.24686  0.74577  1.0000
  H   H608      1.0  0.04727  0.26776  0.79944  1.0000
  H   H609      1.0  0.44369  0.21665  0.77891  1.0000
  C   C361      1.0  0.43912  0.23487  0.73763  1.0000
  C   C362      1.0  0.08112  0.06802  0.96293  1.0000
  C   C363      1.0  0.03171  0.23848  0.79664  1.0000
  C   C364      1.0  0.03243  0.26309  0.79473  1.0000
  Fe  Fe39      1.0  0.11829  0.20537  0.75924  1.0000
  H   H610      1.0  0.12558  0.17582  0.97205  1.0000
  H   H611      1.0  0.18086  0.07213  0.74784  1.0000
  S   S79       1.0  0.14150  0.17592  0.75674  1.0000
  N   N23       1.0  0.00813  0.20721  0.79218  1.0000
  H   H612      1.0  0.04453  0.17080  0.75913  1.0000
  H   H613      1.0  0.12665  0.01336  0.95925  1.0000
  H   H614      1.0  0.44512  0.24948  0.73032  1.0000
  H   H615      1.0  0.17676  0.14540  0.75036  1.0000
  H   H616      1.0  0.15869  0.10411  0.73928  1.0000
  Fe  Fe40      1.0  0.07495  0.22968  0.75201  1.0000
  H   H617      1.0  0.19374  0.08518  0.72955  1.0000
  H   H618      1.0  0.26565  0.27849  0.73436  1.0000
  C   C365      1.0  0.15558  0.16914  0.73849  1.0000
  C   C366      1.0  0.08642  0.01130  0.94677  1.0000
  C   C367      1.0  0.02490  0.17107  0.78219  1.0000
  H   H619      1.0  0.04188  0.19690  0.78901  1.0000
  C   C368      1.0  0.06589  0.13188  0.97003  1.0000
  H   H620      1.0  0.05422  0.04347  0.93817  1.0000
  H   H621      1.0  0.23471  0.99855  0.77404  1.0000
  H   H622      1.0  0.17002  0.24254  0.74354  1.0000
  H   H623      1.0  0.19721  0.02754  0.76136  1.0000
  H   H624      1.0  0.12538  0.13379  0.80716  1.0000
  H   H625      1.0  0.02675  0.05235  0.96031  1.0000
  H   H626      1.0  0.16498  0.31395  0.72950  1.0000
  C   C369      1.0  0.17232  0.15295  0.73890  1.0000
  H   H627      1.0  0.44448  0.17763  0.78905  1.0000
  H   H628      1.0  0.99800  0.01794  0.88081  1.0000
  C   C370      1.0  0.04362  0.16184  0.77130  1.0000
  H   H629      1.0  0.31117  0.25653  0.73406  1.0000
  H   H630      1.0  0.10821  0.15949  0.73433  1.0000
  H   H631      1.0  0.14488  0.08018  0.73733  1.0000
  H   H632      1.0  0.16968  0.20523  0.76987  1.0000
  H   H633      1.0  0.04129  0.14459  0.77005  1.0000
  H   H634      1.0  0.42700  0.23993  0.74733  1.0000
  C   C371      1.0  0.28324  0.27827  0.73536  1.0000
  H   H635      1.0  0.06594  0.00985  0.92076  1.0000
  H   H636      1.0  0.46826  0.21493  0.73458  1.0000
  H   H637      1.0  0.07064  0.08300  0.96418  1.0000
  H   H638      1.0  0.19337  0.21175  0.77848  1.0000
  H   H639      1.0  0.20772  0.00183  0.79597  1.0000
  H   H640      1.0  0.32158  0.19649  0.72832  1.0000
  H   H641      1.0  0.33341  0.29572  0.74351  1.0000
  H   H642      1.0  0.03272  0.26937  0.78186  1.0000
  H   H643      1.0  0.28604  0.21318  0.72943  1.0000
  C   C372      1.0  0.17848  0.31392  0.77337  1.0000
  C   C373      1.0  0.29415  0.25653  0.73130  1.0000
  H   H644      1.0  0.14704  0.12010  0.81747  1.0000
  H   H645      1.0  0.03293  0.00234  0.95506  1.0000
  C   C374      1.0  0.32759  0.21298  0.72726  1.0000
  H   H646      1.0  0.08608  0.02629  0.93838  1.0000
  C   C375      1.0  0.33218  0.30583  0.73236  1.0000
  C   C376      1.0  0.21564  0.99868  0.72630  1.0000
  H   H647      1.0  0.18195  0.31396  0.78571  1.0000
  H   H648      1.0  0.09183  0.13728  0.74230  1.0000
  H   H649      1.0  0.35403  0.20144  0.74128  1.0000
  H   H650      1.0  0.46103  0.18302  0.80455  1.0000
  H   H651      1.0  0.08163  0.15818  0.72814  1.0000
  H   H652      1.0  0.18609  0.00100  0.78429  1.0000
  H   H653      1.0  0.28583  0.24382  0.73930  1.0000
  H   H654      1.0  0.08662  0.01692  0.95891  1.0000
  H   H655      1.0  0.48940  0.19623  0.78338  1.0000
  C   C377      1.0  0.18926  0.32804  0.76141  1.0000
  H   H656      1.0  0.09301  0.07102  0.95230  1.0000
  C   C378      1.0  0.16878  0.31368  0.74179  1.0000
  C   C379      1.0  0.00730  0.20048  0.81009  1.0000
  H   H657      1.0  0.09726  0.17490  0.96983  1.0000
  C   C380      1.0  0.12706  0.01204  0.94614  1.0000
  H   H658      1.0  0.43109  0.22533  0.72970  1.0000
  C   C381      1.0  0.00765  0.24859  0.73457  1.0000
  H   H659      1.0  0.11547  0.00260  0.89812  1.0000
  H   H660      1.0  0.21644  0.24755  0.72988  1.0000
  C   C382      1.0  0.17948  0.07621  0.73480  1.0000
  C   C383      1.0  0.15869  0.08986  0.73230  1.0000
  C   C384      1.0  0.01927  0.22904  0.73190  1.0000
  H   H661      1.0  0.12374  0.11475  0.73378  1.0000
  C   C385      1.0  0.09629  0.14835  0.73143  1.0000
  H   H662      1.0  0.19321  0.26475  0.72767  1.0000
  H   H663      1.0  0.10418  0.04791  0.97566  1.0000
  H   H664      1.0  0.28447  0.17324  0.73315  1.0000
  H   H665      1.0  0.04192  0.99855  0.90173  1.0000
  N   N24       1.0  0.06667  0.99886  0.94602  1.0000
  C   C386      1.0  0.10839  0.99916  0.94258  1.0000
  H   H666      1.0  0.99728  0.24055  0.79467  1.0000
  H   H667      1.0  0.17946  0.06090  0.72907  1.0000
  H   H668      1.0  0.14672  0.25270  0.72604  1.0000
  H   H669      1.0  0.29014  0.29172  0.72714  1.0000
  H   H670      1.0  0.99851  0.20259  0.76024  1.0000
  H   H671      1.0  0.19862  0.00304  0.72618  1.0000
  Fe  Fe41      1.0  0.36476  0.45034  0.01839  1.0000
  S   S80       1.0  0.38521  0.47422  0.02719  1.0000
  S   S81       1.0  0.37199  0.45573  0.99099  1.0000
  Fe  Fe42      1.0  0.35104  0.43261  0.05371  1.0000
  S   S82       1.0  0.37097  0.45551  0.06395  1.0000
  S   S83       1.0  0.33712  0.40748  0.07324  1.0000
  Fe  Fe43      1.0  0.35806  0.48028  0.04575  1.0000
  S   S84       1.0  0.34787  0.51433  0.05143  1.0000
  Fe  Fe44      1.0  0.39639  0.44739  0.04441  1.0000
  S   S85       1.0  0.43151  0.44607  0.04845  1.0000
  S   S86       1.0  0.33625  0.45825  0.03626  1.0000
  S   S87       1.0  0.37781  0.42279  0.03494  1.0000
  Fe  Fe45      1.0  0.41746  0.63222  0.03785  1.0000
  S   S88       1.0  0.44268  0.60564  0.04173  1.0000
  C   C387      1.0  0.43879  0.42753  0.99989  1.0000
  S   S89       1.0  0.44422  0.62056  0.07837  1.0000
  Fe  Fe46      1.0  0.45942  0.62976  0.05337  1.0000
  C   C388      1.0  0.38691  0.36973  0.09909  1.0000
  Fe  Fe47      1.0  0.42513  0.59870  0.06610  1.0000
  S   S90       1.0  0.42230  0.56354  0.07527  1.0000
  S   S91       1.0  0.39830  0.62357  0.06163  1.0000
  C   C389      1.0  0.18474  0.33552  0.16866  1.0000
  Fe  Fe48      1.0  0.28103  0.38762  0.18480  1.0000
  S   S92       1.0  0.26439  0.37466  0.16549  1.0000
  H   H672      1.0  0.35798  0.37994  0.12572  1.0000
  S   S93       1.0  0.22707  0.41392  0.17177  1.0000
  Fe  Fe49      1.0  0.23348  0.37910  0.18175  1.0000
  S   S94       1.0  0.20970  0.35188  0.19045  1.0000
  Fe  Fe50      1.0  0.25907  0.40983  0.15654  1.0000
  S   S95       1.0  0.26433  0.42530  0.13056  1.0000
  S   S96       1.0  0.27775  0.42238  0.17476  1.0000
  H   H673      1.0  0.45619  0.38619  0.99757  1.0000
  H   H674      1.0  0.44786  0.35895  0.07171  1.0000
  H   H675      1.0  0.04998  0.35748  0.17976  1.0000
  C   C390      1.0  0.43058  0.53024  0.02920  1.0000
  H   H676      1.0  0.40483  0.56745  0.02690  1.0000
  H   H677      1.0  0.29388  0.48481  0.98497  1.0000
  H   H678      1.0  0.43004  0.44168  0.99386  1.0000
  H   H679      1.0  0.26130  0.49199  0.15609  1.0000
  C   C391      1.0  0.43615  0.63323  0.99148  1.0000
  H   H680      1.0  0.26856  0.42500  0.22337  1.0000
  H   H681      1.0  0.44624  0.63444  0.00103  1.0000
  C   C392      1.0  0.31676  0.41247  0.08909  1.0000
  C   C393      1.0  0.30043  0.42870  0.08720  1.0000
  C   C394      1.0  0.28441  0.43208  0.09992  1.0000
  C   C395      1.0  0.28459  0.41951  0.11481  1.0000
  C   C396      1.0  0.30083  0.40311  0.11669  1.0000
  C   C397      1.0  0.31663  0.39944  0.10382  1.0000
  H   H682      1.0  0.29992  0.43835  0.07579  1.0000
  H   H683      1.0  0.27172  0.44452  0.09821  1.0000
  H   H684      1.0  0.30109  0.39315  0.12799  1.0000
  H   H685      1.0  0.32889  0.38654  0.10532  1.0000
  C   C398      1.0  0.44724  0.42204  0.04583  1.0000
  C   C399      1.0  0.43847  0.40363  0.04144  1.0000
  C   C400      1.0  0.45133  0.38435  0.04031  1.0000
  C   C401      1.0  0.47297  0.38351  0.04351  1.0000
  C   C402      1.0  0.48184  0.40212  0.04736  1.0000
  C   C403      1.0  0.46899  0.42128  0.04859  1.0000
  H   H686      1.0  0.42175  0.40416  0.03914  1.0000
  H   H687      1.0  0.44448  0.37003  0.03716  1.0000
  H   H688      1.0  0.36083  0.50418  0.99302  1.0000
  H   H689      1.0  0.47592  0.43549  0.05188  1.0000
  C   C404      1.0  0.36786  0.52776  0.05915  1.0000
  C   C405      1.0  0.36555  0.55021  0.05977  1.0000
  C   C406      1.0  0.38226  0.56145  0.06453  1.0000
  C   C407      1.0  0.40090  0.55010  0.06942  1.0000
  C   C408      1.0  0.40269  0.52753  0.06959  1.0000
  C   C409      1.0  0.38641  0.51642  0.06417  1.0000
  H   H690      1.0  0.35112  0.55903  0.05604  1.0000
  H   H691      1.0  0.38062  0.57883  0.06456  1.0000
  H   H692      1.0  0.41702  0.51867  0.07345  1.0000
  H   H693      1.0  0.38833  0.49911  0.06378  1.0000
  H   H694      1.0  0.34706  0.53019  0.98805  1.0000
  C   C410      1.0  0.30293  0.35013  0.21916  1.0000
  H   H695      1.0  0.38268  0.65769  0.15018  1.0000
  C   C411      1.0  0.37240  0.64589  0.15778  1.0000
  H   H696      1.0  0.44270  0.58824  0.98020  1.0000
  H   H697      1.0  0.47206  0.40129  0.00832  1.0000
  H   H698      1.0  0.34256  0.64977  0.14525  1.0000
  H   H699      1.0  0.30547  0.33170  0.15820  1.0000
  C   C412      1.0  0.01965  0.36159  0.19376  1.0000
  H   H700      1.0  0.25224  0.33561  0.19807  1.0000
  C   C413      1.0  0.46817  0.56479  0.10170  1.0000
  C   C414      1.0  0.42169  0.55436  0.99811  1.0000
  H   H701      1.0  0.14350  0.35085  0.18981  1.0000
  H   H702      1.0  0.46642  0.34075  0.09462  1.0000
  H   H703      1.0  0.05127  0.36964  0.19804  1.0000
  H   H704      1.0  0.29775  0.50453  0.07254  1.0000
  H   H705      1.0  0.49317  0.61551  0.07792  1.0000
  H   H706      1.0  0.29682  0.50103  0.10237  1.0000
  H   H707      1.0  0.38351  0.63166  0.16061  1.0000
  H   H708      1.0  0.48766  0.55262  0.05270  1.0000
  H   H709      1.0  0.44574  0.34082  0.22394  1.0000
  C   C415      1.0  0.41387  0.63234  0.99506  1.0000
  H   H710      1.0  0.01606  0.37780  0.18750  1.0000
  H   H711      1.0  0.47946  0.51986  0.06775  1.0000
  Fe  Fe51      1.0  0.41841  0.64636  0.07241  1.0000
  H   H712      1.0  0.35816  0.54948  0.09635  1.0000
  C   C416      1.0  0.28882  0.49291  0.13804  1.0000
  S   S97       1.0  0.49446  0.63236  0.04430  1.0000
  H   H713      1.0  0.27180  0.47942  0.19562  1.0000
  N   N25       1.0  0.36308  0.65542  0.17298  1.0000
  C   C417      1.0  0.12621  0.35614  0.19180  1.0000
  H   H714      1.0  0.08472  0.35480  0.18652  1.0000
  H   H715      1.0  0.39810  0.38006  0.12129  1.0000
  H   H716      1.0  0.35428  0.64285  0.19768  1.0000
  H   H717      1.0  0.38370  0.63004  0.98513  1.0000
  C   C418      1.0  0.32933  0.63383  0.18469  1.0000
  S   S98       1.0  0.23641  0.45081  0.20799  1.0000
  H   H718      1.0  0.39447  0.52344  0.99236  1.0000
  H   H719      1.0  0.35954  0.53938  0.11707  1.0000
  Fe  Fe52      1.0  0.24673  0.42434  0.19065  1.0000
  H   H720      1.0  0.37320  0.64862  0.12408  1.0000
  H   H721      1.0  0.45104  0.57088  0.10186  1.0000
  C   C419      1.0  0.31002  0.48945  0.97945  1.0000
  N   N26       1.0  0.40296  0.54512  0.00895  1.0000
  H   H722      1.0  0.18982  0.65006  0.21852  1.0000
  C   C420      1.0  0.35620  0.63788  0.14725  1.0000
  H   H723      1.0  0.35952  0.35111  0.12415  1.0000
  C   C421      1.0  0.35340  0.63831  0.18524  1.0000
  C   C422      1.0  0.39904  0.64771  0.18619  1.0000
  H   H724      1.0  0.47228  0.56711  0.07609  1.0000
  H   H725      1.0  0.33666  0.44819  0.19350  1.0000
  N   N27       1.0  0.32154  0.48644  0.11694  1.0000
  C   C423      1.0  0.34184  0.47201  0.11505  1.0000
  C   C424      1.0  0.25565  0.51694  0.22249  1.0000
  C   C425      1.0  0.30909  0.47872  0.13265  1.0000
  C   C426      1.0  0.30727  0.48587  0.10350  1.0000
  C   C427      1.0  0.31854  0.48224  0.08657  1.0000
  C   C428      1.0  0.33847  0.44742  0.11696  1.0000
  H   H726      1.0  0.23335  0.35152  0.22292  1.0000
  H   H727      1.0  0.30401  0.46048  0.21003  1.0000
  H   H728      1.0  0.42898  0.64635  0.19737  1.0000
  C   C429      1.0  0.30279  0.48705  0.07371  1.0000
  C   C430      1.0  0.35854  0.43446  0.11062  1.0000
  C   C431      1.0  0.11250  0.33641  0.19415  1.0000
  H   H729      1.0  0.35291  0.47497  0.12410  1.0000
  H   H730      1.0  0.35115  0.47585  0.10327  1.0000
  H   H731      1.0  0.43408  0.54125  0.99521  1.0000
  H   H732      1.0  0.48235  0.36063  0.08262  1.0000
  H   H733      1.0  0.31976  0.47706  0.14263  1.0000
  H   H734      1.0  0.30332  0.46228  0.13200  1.0000
  H   H735      1.0  0.29577  0.47279  0.10638  1.0000
  H   H736      1.0  0.42651  0.50074  0.04545  1.0000
  H   H737      1.0  0.32483  0.46521  0.08621  1.0000
  H   H738      1.0  0.38062  0.35417  0.09660  1.0000
  H   H739      1.0  0.33486  0.44169  0.12986  1.0000
  H   H740      1.0  0.32479  0.44379  0.11050  1.0000
  C   C432      1.0  0.32290  0.61422  0.19621  1.0000
  H   H741      1.0  0.33117  0.52375  0.09321  1.0000
  H   H742      1.0  0.42710  0.41487  0.00371  1.0000
  S   S99       1.0  0.28160  0.64712  0.22260  1.0000
  H   H743      1.0  0.39365  0.59257  0.00566  1.0000
  H   H744      1.0  0.31076  0.48284  0.06194  1.0000
  H   H745      1.0  0.28833  0.47744  0.07672  1.0000
  H   H746      1.0  0.27840  0.49691  0.12809  1.0000
  H   H747      1.0  0.37270  0.43810  0.11667  1.0000
  H   H748      1.0  0.35594  0.41694  0.11299  1.0000
  H   H749      1.0  0.36178  0.43824  0.09746  1.0000
  H   H750      1.0  0.36039  0.60935  0.01807  1.0000
  C   C433      1.0  0.36820  0.36478  0.12745  1.0000
  C   C434      1.0  0.36741  0.59419  0.02408  1.0000
  H   H751      1.0  0.38129  0.54938  0.98995  1.0000
  H   H752      1.0  0.38091  0.55352  0.02902  1.0000
  C   C435      1.0  0.27535  0.48129  0.15214  1.0000
  H   H753      1.0  0.35404  0.58438  0.02987  1.0000
  H   H754      1.0  0.19192  0.34715  0.15957  1.0000
  H   H755      1.0  0.28715  0.35831  0.21895  1.0000
  C   C436      1.0  0.32049  0.44369  0.19106  1.0000
  H   H756      1.0  0.42991  0.56584  0.00450  1.0000
  H   H757      1.0  0.36299  0.62266  0.18455  1.0000
  H   H758      1.0  0.44416  0.53755  0.02148  1.0000
  H   H759      1.0  0.31419  0.41110  0.21435  1.0000
  H   H760      1.0  0.38331  0.34597  0.04974  1.0000
  H   H761      1.0  0.46397  0.54133  0.08545  1.0000
  H   H762      1.0  0.31308  0.52020  0.11999  1.0000
  N   N28       1.0  0.40652  0.37510  0.08757  1.0000
  C   C437      1.0  0.42672  0.36407  0.09377  1.0000
  C   C438      1.0  0.40384  0.36616  0.07186  1.0000
  C   C439      1.0  0.40811  0.39928  0.08431  1.0000
  C   C440      1.0  0.41459  0.41130  0.09819  1.0000
  C   C441      1.0  0.44791  0.36748  0.08268  1.0000
  C   C442      1.0  0.38257  0.37318  0.06428  1.0000
  C   C443      1.0  0.41868  0.43491  0.09258  1.0000
  C   C444      1.0  0.46864  0.39838  0.99595  1.0000
  C   C445      1.0  0.38216  0.36391  0.04816  1.0000
  H   H763      1.0  0.42936  0.36916  0.10565  1.0000
  H   H764      1.0  0.37345  0.38210  0.09713  1.0000
  H   H765      1.0  0.40505  0.34813  0.07336  1.0000
  H   H766      1.0  0.41702  0.37106  0.06262  1.0000
  H   H767      1.0  0.41956  0.40327  0.07356  1.0000
  H   H768      1.0  0.39244  0.40717  0.08107  1.0000
  H   H769      1.0  0.42955  0.40404  0.10299  1.0000
  H   H770      1.0  0.40135  0.41129  0.10797  1.0000
  C   C446      1.0  0.40096  0.63073  0.98249  1.0000
  H   H771      1.0  0.45017  0.38486  0.07905  1.0000
  H   H772      1.0  0.38080  0.39097  0.06205  1.0000
  H   H773      1.0  0.36833  0.36753  0.07219  1.0000
  H   H774      1.0  0.43286  0.43594  0.08349  1.0000
  H   H775      1.0  0.40444  0.44321  0.08729  1.0000
  H   H776      1.0  0.42207  0.44348  0.10294  1.0000
  H   H777      1.0  0.48910  0.61283  0.98854  1.0000
  C   C447      1.0  0.04970  0.33437  0.20181  1.0000
  C   C448      1.0  0.35193  0.51840  0.99803  1.0000
  H   H778      1.0  0.38098  0.62137  0.13185  1.0000
  H   H779      1.0  0.39566  0.36978  0.03952  1.0000
  H   H780      1.0  0.08600  0.35308  0.20752  1.0000
  H   H781      1.0  0.36677  0.36929  0.04303  1.0000
  C   C449      1.0  0.26799  0.50666  0.21009  1.0000
  H   H782      1.0  0.37724  0.59853  0.03347  1.0000
  H   H783      1.0  0.37072  0.57781  0.00273  1.0000
  H   H784      1.0  0.40720  0.63915  0.17612  1.0000
  H   H785      1.0  0.46916  0.36685  0.10182  1.0000
  H   H786      1.0  0.31889  0.64787  0.18853  1.0000
  H   H787      1.0  0.31468  0.50333  0.98537  1.0000
  H   H788      1.0  0.04505  0.33687  0.21469  1.0000
  C   C450      1.0  0.39270  0.56141  0.01987  1.0000
  C   C451      1.0  0.04400  0.35661  0.19263  1.0000
  N   N29       1.0  0.48897  0.38989  0.98678  1.0000
  H   H789      1.0  0.34987  0.62244  0.15299  1.0000
  H   H790      1.0  0.21365  0.63508  0.21102  1.0000
  H   H791      1.0  0.44695  0.49818  0.02888  1.0000
  H   H792      1.0  0.35574  0.51019  0.09964  1.0000
  C   C452      1.0  0.30680  0.65766  0.22403  1.0000
  H   H793      1.0  0.33492  0.55299  0.11056  1.0000
  H   H794      1.0  0.37085  0.36183  0.14039  1.0000
  H   H795      1.0  0.46982  0.55278  0.11227  1.0000
  C   C453      1.0  0.36722  0.63347  0.13070  1.0000
  C   C454      1.0  0.47493  0.55446  0.08608  1.0000
  H   H796      1.0  0.33664  0.50963  0.12897  1.0000
  S   S100      1.0  0.40119  0.63643  0.01450  1.0000
  H   H797      1.0  0.47248  0.34891  0.98937  1.0000
  S   S101      1.0  0.31453  0.37587  0.19124  1.0000
  C   C455      1.0  0.34886  0.54182  0.10717  1.0000
  H   H798      1.0  0.31446  0.45552  0.18152  1.0000
  C   C456      1.0  0.30483  0.44389  0.20625  1.0000
  S   S102      1.0  0.25110  0.38986  0.20166  1.0000
  C   C457      1.0  0.46759  0.35833  0.09104  1.0000
  H   H799      1.0  0.36905  0.51677  0.01880  1.0000
  C   C458      1.0  0.43949  0.50919  0.03774  1.0000
  H   H800      1.0  0.32194  0.42740  0.18659  1.0000
  C   C459      1.0  0.31919  0.35575  0.20708  1.0000
  C   C460      1.0  0.41694  0.56598  0.98149  1.0000
  H   H801      1.0  0.33235  0.49245  0.08311  1.0000
  H   H802      1.0  0.33557  0.43011  0.98615  1.0000
  C   C461      1.0  0.38988  0.36665  0.11733  1.0000
  H   H803      1.0  0.35593  0.54257  0.01376  1.0000
  H   H804      1.0  0.42486  0.34630  0.09595  1.0000
  H   H805      1.0  0.28196  0.51434  0.20398  1.0000
  C   C462      1.0  0.38676  0.53682  0.99919  1.0000
  H   H806      1.0  0.47812  0.57870  0.10258  1.0000
  H   H807      1.0  0.30541  0.61203  0.19613  1.0000
  H   H808      1.0  0.33721  0.51272  0.00536  1.0000
  H   H809      1.0  0.47813  0.48261  0.05640  1.0000
  C   C463      1.0  0.33974  0.34526  0.20761  1.0000
  H   H810      1.0  0.32564  0.63093  0.17254  1.0000
  H   H811      1.0  0.32173  0.47551  0.98164  1.0000
  H   H812      1.0  0.35553  0.62710  0.12349  1.0000
  H   H813      1.0  0.42502  0.54128  0.03853  1.0000
  H   H814      1.0  0.39893  0.51958  0.02849  1.0000
  H   H815      1.0  0.12197  0.36699  0.18112  1.0000
  H   H816      1.0  0.29355  0.50817  0.14214  1.0000
  C   C464      1.0  0.32769  0.50923  0.11818  1.0000
  C   C465      1.0  0.45724  0.41915  0.98833  1.0000
  H   H817      1.0  0.45008  0.41556  0.97740  1.0000
  H   H818      1.0  0.41717  0.51243  0.01199  1.0000
  H   H819      1.0  0.28505  0.47697  0.16249  1.0000
  H   H820      1.0  0.39970  0.35145  0.12011  1.0000
  C   C466      1.0  0.41170  0.52598  0.01941  1.0000
  C   C467      1.0  0.24430  0.47640  0.21309  1.0000
  H   H821      1.0  0.12398  0.36524  0.20261  1.0000
  H   H822      1.0  0.28899  0.33960  0.18528  1.0000
  C   C468      1.0  0.08820  0.34330  0.19700  1.0000
  H   H823      1.0  0.26917  0.46635  0.14852  1.0000
  C   C469      1.0  0.36574  0.52887  0.00874  1.0000
  C   C470      1.0  0.26232  0.48670  0.20535  1.0000
  H   H824      1.0  0.28867  0.44060  0.20310  1.0000
  C   C471      1.0  0.34119  0.52022  0.10344  1.0000
  C   C472      1.0  0.31229  0.42689  0.21964  1.0000
  H   H825      1.0  0.32595  0.61663  0.20870  1.0000
  H   H826      1.0  0.33200  0.59933  0.19254  1.0000
  H   H827      1.0  0.45191  0.51280  0.04550  1.0000
  C   C473      1.0  0.38134  0.58173  0.01169  1.0000
  H   H828      1.0  0.01292  0.36158  0.20652  1.0000
  C   C474      1.0  0.23207  0.48658  0.22555  1.0000
  H   H829      1.0  0.08327  0.33599  0.16599  1.0000
  H   H830      1.0  0.46855  0.35530  0.00997  1.0000
  C   C475      1.0  0.19055  0.33451  0.18441  1.0000
  H   H831      1.0  0.44512  0.43274  0.01069  1.0000
  S   S103      1.0  0.48869  0.35909  0.04312  1.0000
  H   H832      1.0  0.01163  0.34944  0.18796  1.0000
  H   H833      1.0  0.35242  0.34956  0.19832  1.0000
  H   H834      1.0  0.39219  0.63559  0.19560  1.0000
  H   H835      1.0  0.32889  0.43049  0.22187  1.0000
  C   C476      1.0  0.48083  0.35130  0.00004  1.0000
  H   H836      1.0  0.40390  0.57880  0.98255  1.0000
  H   H837      1.0  0.32536  0.33623  0.17139  1.0000
  C   C477      1.0  0.20603  0.65157  0.21187  1.0000
  H   H838      1.0  0.43539  0.66105  0.11054  1.0000
  H   H839      1.0  0.46838  0.43237  0.98520  1.0000
  S   S104      1.0  0.43515  0.65722  0.04802  1.0000
  C   C478      1.0  0.41645  0.65864  0.19342  1.0000
  H   H840      1.0  0.20425  0.65916  0.19950  1.0000
  H   H841      1.0  0.47385  0.66115  0.00168  1.0000
  C   C479      1.0  0.49236  0.32978  0.00544  1.0000
  H   H842      1.0  0.35974  0.59857  0.34770  1.0000
  C   C480      1.0  0.36022  0.48900  0.35662  1.0000
  H   H843      1.0  0.40350  0.47790  0.43887  1.0000
  Fe  Fe53      1.0  0.25473  0.57201  0.24254  1.0000
  S   S105      1.0  0.23266  0.57710  0.26520  1.0000
  Fe  Fe54      1.0  0.26782  0.61956  0.23959  1.0000
  H   H844      1.0  0.31668  0.60888  0.36095  1.0000
  S   S106      1.0  0.24735  0.62737  0.26197  1.0000
  H   H845      1.0  0.46508  0.62451  0.43625  1.0000
  Fe  Fe55      1.0  0.25988  0.59483  0.27295  1.0000
  S   S107      1.0  0.26744  0.59602  0.29917  1.0000
  Fe  Fe56      1.0  0.22176  0.60967  0.25292  1.0000
  S   S108      1.0  0.18672  0.62374  0.25154  1.0000
  S   S109      1.0  0.28248  0.58847  0.25098  1.0000
  H   H846      1.0  0.45435  0.47532  0.42268  1.0000
  S   S110      1.0  0.46557  0.37168  0.35446  1.0000
  S   S111      1.0  0.46926  0.38184  0.39198  1.0000
  Fe  Fe57      1.0  0.45395  0.39756  0.37055  1.0000
  S   S112      1.0  0.45669  0.43320  0.36284  1.0000
  Fe  Fe58      1.0  0.47811  0.35459  0.37677  1.0000
  C   C481      1.0  0.39305  0.59397  0.43186  1.0000
  S   S113      1.0  0.42226  0.38310  0.37792  1.0000
  Fe  Fe59      1.0  0.34218  0.54633  0.37171  1.0000
  S   S114      1.0  0.37787  0.53735  0.36869  1.0000
  S   S115      1.0  0.32615  0.54089  0.34900  1.0000
  Fe  Fe60      1.0  0.34545  0.55783  0.40653  1.0000
  S   S116      1.0  0.38099  0.55072  0.40501  1.0000
  S   S117      1.0  0.33052  0.56953  0.43024  1.0000
  Fe  Fe61      1.0  0.38147  0.56760  0.38018  1.0000
  S   S118      1.0  0.40539  0.59176  0.36919  1.0000
  Fe  Fe62      1.0  0.37398  0.52120  0.39373  1.0000
  S   S119      1.0  0.38871  0.48938  0.40411  1.0000
  S   S120      1.0  0.34624  0.57749  0.38227  1.0000
  S   S121      1.0  0.33803  0.52735  0.39625  1.0000
  C   C482      1.0  0.21039  0.55991  0.30774  1.0000
  C   C483      1.0  0.46747  0.58397  0.39413  1.0000
  C   C484      1.0  0.45235  0.56812  0.39688  1.0000
  C   C485      1.0  0.43339  0.57054  0.38921  1.0000
  C   C486      1.0  0.42935  0.58886  0.37871  1.0000
  C   C487      1.0  0.44457  0.60473  0.37578  1.0000
  C   C488      1.0  0.46365  0.60232  0.38353  1.0000
  H   H847      1.0  0.45532  0.55389  0.40500  1.0000
  H   H848      1.0  0.42215  0.55795  0.39118  1.0000
  H   H849      1.0  0.44155  0.61894  0.36763  1.0000
  C   C489      1.0  0.31012  0.46093  0.24337  1.0000
  C   C490      1.0  0.34203  0.56054  0.44842  1.0000
  H   H850      1.0  0.37831  0.40075  0.38817  1.0000
  H   H851      1.0  0.36457  0.53709  0.43802  1.0000
  C   C491      1.0  0.43913  0.44963  0.37469  1.0000
  C   C492      1.0  0.43218  0.44237  0.39053  1.0000
  C   C493      1.0  0.41733  0.45521  0.39962  1.0000
  C   C494      1.0  0.40904  0.47510  0.39284  1.0000
  C   C495      1.0  0.41638  0.48265  0.37713  1.0000
  C   C496      1.0  0.43152  0.46994  0.36809  1.0000
  H   H852      1.0  0.43797  0.42670  0.39569  1.0000
  H   H853      1.0  0.41177  0.44944  0.41181  1.0000
  H   H854      1.0  0.41008  0.49802  0.37185  1.0000
  H   H855      1.0  0.43686  0.47555  0.35580  1.0000
  H   H856      1.0  0.29459  0.32985  0.24101  1.0000
  H   H857      1.0  0.48075  0.48203  0.36934  1.0000
  C   C497      1.0  0.41125  0.63831  0.33034  1.0000
  C   C498      1.0  0.28410  0.58047  0.31268  1.0000
  C   C499      1.0  0.28488  0.58707  0.32816  1.0000
  C   C500      1.0  0.29772  0.57535  0.33936  1.0000
  C   C501      1.0  0.30999  0.55675  0.33526  1.0000
  C   C502      1.0  0.30915  0.55011  0.31979  1.0000
  C   C503      1.0  0.29642  0.56191  0.30855  1.0000
  H   H858      1.0  0.27540  0.60133  0.33156  1.0000
  H   H859      1.0  0.29781  0.58047  0.35126  1.0000
  H   H860      1.0  0.31837  0.53566  0.31648  1.0000
  H   H861      1.0  0.29599  0.55654  0.29674  1.0000
  H   H862      1.0  0.31882  0.45357  0.25364  1.0000
  H   H863      1.0  0.26900  0.39943  0.25683  1.0000
  H   H864      1.0  0.45231  0.52952  0.38124  1.0000
  H   H865      1.0  0.34342  0.38304  0.25779  1.0000
  N   N30       1.0  0.48409  0.51475  0.37496  1.0000
  N   N31       1.0  0.40566  0.59447  0.44625  1.0000
  C   C504      1.0  0.43612  0.54207  0.35190  1.0000
  C   C505      1.0  0.32616  0.62338  0.35753  1.0000
  C   C506      1.0  0.47258  0.41676  0.42727  1.0000
  H   H866      1.0  0.38635  0.53916  0.31074  1.0000
  H   H867      1.0  0.25448  0.42480  0.25190  1.0000
  C   C507      1.0  0.35884  0.54460  0.44881  1.0000
  H   H868      1.0  0.21806  0.47895  0.23165  1.0000
  H   H869      1.0  0.37948  0.63394  0.34156  1.0000
  H   H870      1.0  0.34609  0.38859  0.37108  1.0000
  H   H871      1.0  0.44852  0.53906  0.44782  1.0000
  H   H872      1.0  0.31106  0.37740  0.38441  1.0000
  H   H873      1.0  0.38755  0.34226  0.31861  1.0000
  H   H874      1.0  0.38010  0.58234  0.43478  1.0000
  H   H875      1.0  0.40500  0.55120  0.43439  1.0000
  H   H876      1.0  0.46739  0.62183  0.41503  1.0000
  H   H877      1.0  0.22786  0.51415  0.23970  1.0000
  N   N32       1.0  0.29773  0.42503  0.23514  1.0000
  H   H878      1.0  0.39694  0.41355  0.41579  1.0000
  C   C508      1.0  0.41479  0.57201  0.45157  1.0000
  N   N33       1.0  0.18920  0.59744  0.30821  1.0000
  C   C509      1.0  0.17403  0.58888  0.32219  1.0000
  C   C510      1.0  0.46680  0.48688  0.41795  1.0000
  C   C511      1.0  0.19322  0.62050  0.31072  1.0000
  C   C512      1.0  0.18021  0.59728  0.29215  1.0000
  C   C513      1.0  0.16509  0.57899  0.29037  1.0000
  H   H879      1.0  0.44739  0.64071  0.42336  1.0000
  H   H880      1.0  0.21835  0.58739  0.31946  1.0000
  H   H881      1.0  0.42952  0.57299  0.45784  1.0000
  H   H882      1.0  0.22187  0.59037  0.29813  1.0000
  C   C514      1.0  0.16058  0.57846  0.27288  1.0000
  H   H883      1.0  0.34507  0.63845  0.33739  1.0000
  H   H884      1.0  0.12138  0.60109  0.33877  1.0000
  H   H885      1.0  0.18226  0.58719  0.33346  1.0000
  H   H886      1.0  0.16959  0.57231  0.32072  1.0000
  H   H887      1.0  0.37595  0.59167  0.46169  1.0000
  H   H888      1.0  0.46986  0.53577  0.34566  1.0000
  C   C515      1.0  0.23276  0.54902  0.30969  1.0000
  H   H889      1.0  0.14225  0.58415  0.34783  1.0000
  H   H890      1.0  0.17081  0.61271  0.28900  1.0000
  H   H891      1.0  0.19359  0.59678  0.28237  1.0000
  H   H892      1.0  0.14936  0.58167  0.29745  1.0000
  H   H893      1.0  0.17185  0.56284  0.29459  1.0000
  H   H894      1.0  0.46351  0.55552  0.35980  1.0000
  H   H895      1.0  0.19804  0.62140  0.32305  1.0000
  H   H896      1.0  0.20760  0.62977  0.28613  1.0000
  C   C516      1.0  0.37706  0.41871  0.38773  1.0000
  H   H897      1.0  0.47929  0.34021  0.45688  1.0000
  H   H898      1.0  0.20605  0.55642  0.29583  1.0000
  C   C517      1.0  0.45926  0.53959  0.35647  1.0000
  C   C518      1.0  0.43215  0.53545  0.44516  1.0000
  H   H899      1.0  0.47321  0.33290  0.24347  1.0000
  H   H900      1.0  0.17579  0.57530  0.26519  1.0000
  H   H901      1.0  0.14964  0.56540  0.27194  1.0000
  H   H902      1.0  0.15276  0.59409  0.26829  1.0000
  C   C519      1.0  0.43137  0.36341  0.47106  1.0000
  H   H903      1.0  0.22688  0.62438  0.30083  1.0000
  H   H904      1.0  0.13120  0.57653  0.33020  1.0000
  H   H905      1.0  0.44290  0.34415  0.30790  1.0000
  H   H906      1.0  0.42485  0.54603  0.36240  1.0000
  C   C520      1.0  0.21080  0.65562  0.30076  1.0000
  C   C521      1.0  0.27761  0.41451  0.23216  1.0000
  C   C522      1.0  0.23758  0.50666  0.23016  1.0000
  C   C523      1.0  0.33536  0.60968  0.30193  1.0000
  H   H907      1.0  0.36086  0.53606  0.32278  1.0000
  C   C524      1.0  0.35566  0.46508  0.35800  1.0000
  C   C525      1.0  0.46342  0.34823  0.45678  1.0000
  C   C526      1.0  0.30966  0.41165  0.24776  1.0000
  H   H908      1.0  0.31868  0.37631  0.26996  1.0000
  C   C527      1.0  0.32377  0.62784  0.29193  1.0000
  H   H909      1.0  0.45866  0.39900  0.44953  1.0000
  H   H910      1.0  0.33080  0.35849  0.25555  1.0000
  C   C528      1.0  0.42335  0.61014  0.44297  1.0000
  C   C529      1.0  0.45194  0.35319  0.47136  1.0000
  H   H911      1.0  0.46866  0.47650  0.39435  1.0000
  C   C530      1.0  0.43971  0.60680  0.42821  1.0000
  H   H912      1.0  0.37075  0.56334  0.34041  1.0000
  C   C531      1.0  0.15290  0.60296  0.32543  1.0000
  C   C532      1.0  0.36780  0.42515  0.40453  1.0000
  C   C533      1.0  0.34187  0.42286  0.37595  1.0000
  C   C534      1.0  0.37783  0.54029  0.32291  1.0000
  H   H913      1.0  0.31524  0.63799  0.35900  1.0000
  C   C535      1.0  0.45437  0.35318  0.44205  1.0000
  C   C536      1.0  0.42221  0.36815  0.45634  1.0000
  C   C537      1.0  0.42014  0.55603  0.43853  1.0000
  H   H914      1.0  0.30953  0.62153  0.28740  1.0000
  H   H915      1.0  0.43165  0.60721  0.41701  1.0000
  C   C538      1.0  0.32093  0.64839  0.23501  1.0000
  C   C539      1.0  0.35017  0.60273  0.33720  1.0000
  H   H916      1.0  0.34326  0.39266  0.39212  1.0000
  H   H917      1.0  0.35038  0.42245  0.40696  1.0000
  H   H918      1.0  0.35239  0.49768  0.34634  1.0000
  C   C540      1.0  0.21057  0.63155  0.29871  1.0000
  H   H919      1.0  0.47958  0.50163  0.34303  1.0000
  C   C541      1.0  0.33455  0.56979  0.46271  1.0000
  H   H920      1.0  0.39610  0.56596  0.32823  1.0000
  C   C542      1.0  0.43560  0.42377  0.44203  1.0000
  H   H921      1.0  0.33963  0.59629  0.29418  1.0000
  C   C543      1.0  0.33767  0.39859  0.38026  1.0000
  C   C544      1.0  0.38217  0.61577  0.42539  1.0000
  H   H922      1.0  0.37782  0.49115  0.35455  1.0000
  C   C545      1.0  0.37237  0.61355  0.40973  1.0000
  H   H923      1.0  0.28049  0.45638  0.23263  1.0000
  H   H924      1.0  0.45246  0.50811  0.36893  1.0000
  H   H925      1.0  0.46850  0.43288  0.42101  1.0000
  H   H926      1.0  0.28176  0.39932  0.22633  1.0000
  C   C546      1.0  0.30172  0.48366  0.24712  1.0000
  C   C547      1.0  0.33597  0.62369  0.34011  1.0000
  H   H927      1.0  0.40330  0.58783  0.42155  1.0000
  C   C548      1.0  0.37927  0.41188  0.41780  1.0000
  H   H928      1.0  0.30727  0.39975  0.36940  1.0000
  C   C549      1.0  0.40103  0.47739  0.46489  1.0000
  H   H929      1.0  0.46361  0.33929  0.27521  1.0000
  H   H930      1.0  0.37702  0.58019  0.30451  1.0000
  H   H931      1.0  0.14672  0.64278  0.24067  1.0000
  H   H932      1.0  0.32394  0.60356  0.31206  1.0000
  H   H933      1.0  0.38367  0.61871  0.45692  1.0000
  H   H934      1.0  0.32545  0.41852  0.24866  1.0000
  C   C550      1.0  0.34103  0.65720  0.23549  1.0000
  H   H935      1.0  0.40612  0.37567  0.45624  1.0000
  H   H936      1.0  0.24455  0.55506  0.29973  1.0000
  H   H937      1.0  0.36012  0.60119  0.41164  1.0000
  H   H938      1.0  0.39803  0.60835  0.31313  1.0000
  C   C551      1.0  0.13595  0.59032  0.33623  1.0000
  H   H939      1.0  0.33401  0.42801  0.36476  1.0000
  H   H940      1.0  0.32246  0.62528  0.33238  1.0000
  C   C552      1.0  0.45580  0.62459  0.42564  1.0000
  H   H941      1.0  0.44682  0.34012  0.25283  1.0000
  H   H942      1.0  0.47534  0.61462  0.38136  1.0000
  H   H943      1.0  0.42842  0.41407  0.43375  1.0000
  H   H944      1.0  0.29949  0.37895  0.24523  1.0000
  H   H945      1.0  0.30082  0.41243  0.25989  1.0000
  H   H946      1.0  0.19915  0.55224  0.31736  1.0000
  H   H947      1.0  0.40986  0.49243  0.46393  1.0000
  H   H948      1.0  0.37339  0.41758  0.42965  1.0000
  C   C553      1.0  0.38685  0.60988  0.32422  1.0000
  H   H949      1.0  0.36886  0.62114  0.43413  1.0000
  S   S122      1.0  0.26395  0.54214  0.22805  1.0000
  H   H950      1.0  0.23371  0.40746  0.23362  1.0000
  H   H951      1.0  0.42602  0.42191  0.45391  1.0000
  H   H952      1.0  0.36838  0.61856  0.29745  1.0000
  H   H953      1.0  0.35172  0.57396  0.31521  1.0000
  C   C554      1.0  0.17248  0.64927  0.25442  1.0000
  N   N34       1.0  0.36484  0.60289  0.32170  1.0000
  H   H954      1.0  0.37903  0.49092  0.44738  1.0000
  C   C555      1.0  0.37880  0.56302  0.32809  1.0000
  H   H955      1.0  0.43145  0.52694  0.34755  1.0000
  H   H956      1.0  0.43460  0.44108  0.43730  1.0000
  H   H957      1.0  0.35274  0.63412  0.31111  1.0000
  C   C556      1.0  0.35604  0.61727  0.30801  1.0000
  C   C557      1.0  0.36768  0.58021  0.31654  1.0000
  H   H958      1.0  0.24827  0.38183  0.23849  1.0000
  H   H959      1.0  0.46624  0.35873  0.29977  1.0000
  C   C558      1.0  0.29131  0.44693  0.24088  1.0000
  C   C559      1.0  0.32767  0.37573  0.25790  1.0000
  H   H960      1.0  0.35363  0.49632  0.36774  1.0000
  H   H961      1.0  0.41645  0.62709  0.44173  1.0000
  H   H962      1.0  0.38566  0.52834  0.33152  1.0000
  H   H963      1.0  0.37017  0.44245  0.40553  1.0000
  C   C560      1.0  0.36826  0.53826  0.46318  1.0000
  H   H964      1.0  0.39397  0.59915  0.33395  1.0000
  S   S123      1.0  0.42109  0.36852  0.42364  1.0000
  H   H965      1.0  0.43368  0.52353  0.43609  1.0000
  H   H966      1.0  0.43463  0.55545  0.34222  1.0000
  C   C561      1.0  0.24247  0.39757  0.24293  1.0000
  H   H967      1.0  0.48033  0.52289  0.39958  1.0000
  C   C562      1.0  0.31457  0.38748  0.24493  1.0000
  H   H968      1.0  0.46621  0.34287  0.31896  1.0000
  H   H969      1.0  0.32147  0.58206  0.46258  1.0000
  C   C563      1.0  0.45900  0.41585  0.44384  1.0000
  H   H970      1.0  0.37606  0.39449  0.41811  1.0000
  C   C564      1.0  0.31364  0.39484  0.38119  1.0000
  H   H971      1.0  0.36167  0.45874  0.34643  1.0000
  Fe  Fe63      1.0  0.43835  0.36555  0.39863  1.0000
  H   H972      1.0  0.41298  0.46349  0.46609  1.0000
  C   C565      1.0  0.39082  0.47693  0.44915  1.0000
  H   H973      1.0  0.38254  0.46170  0.44910  1.0000
  H   H974      1.0  0.29008  0.48298  0.25804  1.0000
  H   H975      1.0  0.33879  0.58958  0.33809  1.0000
  S   S124      1.0  0.24169  0.60310  0.22987  1.0000
  C   C566      1.0  0.26135  0.40959  0.24713  1.0000
  H   H976      1.0  0.33791  0.46396  0.35971  1.0000
  H   H977      1.0  0.14596  0.60913  0.31409  1.0000
  H   H978      1.0  0.39391  0.62855  0.42285  1.0000
  C   C567      1.0  0.43358  0.36292  0.44178  1.0000
  H   H979      1.0  0.44912  0.59120  0.43011  1.0000
  H   H980      1.0  0.46555  0.42597  0.45213  1.0000
  H   H981      1.0  0.46629  0.40468  0.42026  1.0000
  H   H982      1.0  0.30452  0.40415  0.39053  1.0000
  H   H983      1.0  0.22209  0.65600  0.23254  1.0000
  H   H984      1.0  0.46359  0.50184  0.42414  1.0000
  C   C568      1.0  0.38792  0.63292  0.32936  1.0000
  H   H985      1.0  0.31644  0.63437  0.24304  1.0000
  H   H986      1.0  0.33274  0.43223  0.38529  1.0000
  C   C569      1.0  0.46155  0.52220  0.37091  1.0000
  S   S125      1.0  0.41185  0.34729  0.34512  1.0000
  H   H987      1.0  0.35198  0.64990  0.24392  1.0000
  N   N35       1.0  0.36519  0.42834  0.37369  1.0000
  C   C570      1.0  0.36625  0.45256  0.37238  1.0000
  C   C571      1.0  0.37572  0.41904  0.35869  1.0000
  C   C572      1.0  0.39820  0.42725  0.35224  1.0000
  C   C573      1.0  0.40835  0.41489  0.33830  1.0000
  H   H988      1.0  0.35808  0.45925  0.38335  1.0000
  H   H989      1.0  0.38322  0.45705  0.37193  1.0000
  H   H990      1.0  0.36519  0.42202  0.34868  1.0000
  H   H991      1.0  0.37779  0.40110  0.36080  1.0000
  H   H992      1.0  0.39398  0.42350  0.38615  1.0000
  H   H993      1.0  0.40941  0.42520  0.36170  1.0000
  H   H994      1.0  0.39708  0.44464  0.34781  1.0000
  H   H995      1.0  0.39810  0.41706  0.32814  1.0000
  H   H996      1.0  0.42444  0.42103  0.33406  1.0000
  H   H997      1.0  0.41058  0.39737  0.34221  1.0000
  Fe  Fe64      1.0  0.43468  0.35568  0.36319  1.0000
  H   H998      1.0  0.36440  0.62922  0.40542  1.0000
  H   H999      1.0  0.31534  0.49327  0.24924  1.0000
  H   H1000     1.0  0.32400  0.38582  0.23316  1.0000
  C   C574      1.0  0.21057  0.58463  0.30851  1.0000
  H   H1001     1.0  0.23845  0.55218  0.32131  1.0000
  H   H1002     1.0  0.33903  0.62341  0.36573  1.0000
  H   H1003     1.0  0.38507  0.60888  0.40027  1.0000
  H   H1004     1.0  0.23218  0.53128  0.30942  1.0000
  H   H1005     1.0  0.42318  0.52823  0.45629  1.0000
  H   H1006     1.0  0.44942  0.49860  0.39790  1.0000
  H   H1007     1.0  0.41160  0.65475  0.33430  1.0000
  H   H1008     1.0  0.43303  0.60935  0.45344  1.0000
  H   H1009     1.0  0.15624  0.61714  0.33166  1.0000
  H   H1010     1.0  0.43014  0.56323  0.42801  1.0000
  H   H1011     1.0  0.17816  0.63097  0.30983  1.0000
  H   H1012     1.0  0.28150  0.44520  0.25269  1.0000
  H   H1013     1.0  0.29365  0.49209  0.23687  1.0000
  H   H1014     1.0  0.38080  0.64538  0.32078  1.0000
  H   H1015     1.0  0.31804  0.64121  0.29937  1.0000
  H   H1016     1.0  0.32188  0.46264  0.23259  1.0000
  H   H1017     1.0  0.33462  0.63417  0.28145  1.0000
  H   H1018     1.0  0.25480  0.33964  0.23456  1.0000
  H   H1019     1.0  0.46325  0.34898  0.43096  1.0000
  H   H1020     1.0  0.23103  0.39444  0.25379  1.0000
  H   H1021     1.0  0.38152  0.52626  0.46313  1.0000
  C   C575      1.0  0.39016  0.60189  0.45987  1.0000
  H   H1022     1.0  0.40324  0.56351  0.46066  1.0000
  C   C576      1.0  0.48321  0.50826  0.39284  1.0000
  C   C577      1.0  0.46077  0.34362  0.30671  1.0000
  C   C578      1.0  0.46597  0.49201  0.39985  1.0000
  H   H1023     1.0  0.21436  0.65803  0.31313  1.0000
  H   H1024     1.0  0.48342  0.43118  0.39546  1.0000
  C   C579      1.0  0.30720  0.33405  0.23163  1.0000
  H   H1025     1.0  0.41897  0.62662  0.33922  1.0000
  H   H1026     1.0  0.42065  0.63793  0.31841  1.0000
  C   C580      1.0  0.49217  0.49514  0.36649  1.0000
  H   H1027     1.0  0.19492  0.66087  0.26879  1.0000
  C   C581      1.0  0.15272  0.65423  0.24776  1.0000
  S   S126      1.0  0.49071  0.57994  0.40434  1.0000
  H   H1028     1.0  0.48288  0.47955  0.42058  1.0000
  S   S127      1.0  0.44801  0.33663  0.38476  1.0000
  H   H1029     1.0  0.49277  0.38978  0.44859  1.0000
  H   H1030     1.0  0.22718  0.33390  0.24088  1.0000
  C   C582      1.0  0.23908  0.33683  0.23026  1.0000
  H   H1031     1.0  0.49393  0.37852  0.42988  1.0000
  H   H1032     1.0  0.49282  0.54695  0.37808  1.0000
  H   H1033     1.0  0.41132  0.61454  0.47575  1.0000
  Fe  Fe65      1.0  0.24384  0.62241  0.67746  1.0000
  H   H1034     1.0  0.41887  0.44749  0.49457  1.0000
  Fe  Fe66      1.0  0.28163  0.59310  0.66370  1.0000
  S   S128      1.0  0.28763  0.57791  0.68846  1.0000
  S   S129      1.0  0.30795  0.58223  0.64443  1.0000
  Fe  Fe67      1.0  0.44156  0.33733  0.55086  1.0000
  Fe  Fe68      1.0  0.28299  0.61120  0.69667  1.0000
  S   S130      1.0  0.24563  0.58915  0.66808  1.0000
  S   S131      1.0  0.27963  0.62681  0.67169  1.0000
  C   C583      1.0  0.13668  0.64866  0.66484  1.0000
  S   S132      1.0  0.44837  0.36849  0.55995  1.0000
  Fe  Fe69      1.0  0.45333  0.35502  0.51489  1.0000
  S   S133      1.0  0.46051  0.38753  0.52177  1.0000
  H   H1035     1.0  0.40691  0.49551  0.52160  1.0000
  Fe  Fe70      1.0  0.47731  0.36908  0.54177  1.0000
  Fe  Fe71      1.0  0.43085  0.38388  0.53917  1.0000
  S   S134      1.0  0.40247  0.40792  0.54153  1.0000
  S   S135      1.0  0.42233  0.35255  0.53094  1.0000
  Fe  Fe72      1.0  0.35042  0.55351  0.55555  1.0000
  S   S136      1.0  0.38224  0.55499  0.56538  1.0000
  S   S137      1.0  0.31875  0.55823  0.57140  1.0000
  Fe  Fe73      1.0  0.37128  0.54780  0.52095  1.0000
  S   S138      1.0  0.40446  0.54953  0.52876  1.0000
  S   S139      1.0  0.37406  0.53883  0.49496  1.0000
  Fe  Fe74      1.0  0.39334  0.52775  0.55042  1.0000
  S   S140      1.0  0.41791  0.50173  0.55855  1.0000
  Fe  Fe75      1.0  0.39062  0.57647  0.54290  1.0000
  S   S141      1.0  0.40778  0.60696  0.54378  1.0000
  S   S142      1.0  0.36081  0.52415  0.54210  1.0000
  S   S143      1.0  0.35816  0.57689  0.53355  1.0000
  H   H1036     1.0  0.35942  0.34019  0.57364  1.0000
  C   C584      1.0  0.43345  0.60180  0.55066  1.0000
  C   C585      1.0  0.44096  0.58062  0.55503  1.0000
  C   C586      1.0  0.46153  0.57657  0.56032  1.0000
  C   C587      1.0  0.47490  0.59360  0.56097  1.0000
  C   C588      1.0  0.46732  0.61485  0.55685  1.0000
  C   C589      1.0  0.44656  0.61894  0.55174  1.0000
  H   H1037     1.0  0.43090  0.56731  0.55437  1.0000
  H   H1038     1.0  0.46719  0.56015  0.56374  1.0000
  H   H1039     1.0  0.46185  0.55424  0.52809  1.0000
  H   H1040     1.0  0.28153  0.44789  0.70471  1.0000
  H   H1041     1.0  0.35238  0.62388  0.55630  1.0000
  H   H1042     1.0  0.45262  0.49060  0.50470  1.0000
  H   H1043     1.0  0.19795  0.60119  0.70525  1.0000
  H   H1044     1.0  0.13558  0.61807  0.67984  1.0000
  H   H1045     1.0  0.48703  0.33288  0.62177  1.0000
  C   C590      1.0  0.44737  0.40783  0.58978  1.0000
  C   C591      1.0  0.40697  0.43349  0.54704  1.0000
  C   C592      1.0  0.42758  0.43906  0.54952  1.0000
  C   C593      1.0  0.43073  0.45991  0.55350  1.0000
  C   C594      1.0  0.41335  0.47529  0.55475  1.0000
  C   C595      1.0  0.39270  0.46951  0.55255  1.0000
  C   C596      1.0  0.38951  0.44860  0.54878  1.0000
  H   H1046     1.0  0.44111  0.42742  0.54817  1.0000
  H   H1047     1.0  0.44674  0.46431  0.55519  1.0000
  H   H1048     1.0  0.37919  0.48117  0.55374  1.0000
  H   H1049     1.0  0.37351  0.44424  0.54699  1.0000
  H   H1050     1.0  0.42232  0.36712  0.48219  1.0000
  C   C597      1.0  0.14815  0.62873  0.67372  1.0000
  H   H1051     1.0  0.44076  0.63538  0.54845  1.0000
  C   C598      1.0  0.30942  0.52418  0.71761  1.0000
  C   C599      1.0  0.31017  0.57544  0.62415  1.0000
  C   C600      1.0  0.29278  0.57761  0.61473  1.0000
  C   C601      1.0  0.29566  0.57228  0.59865  1.0000
  C   C602      1.0  0.31593  0.56486  0.59172  1.0000
  C   C603      1.0  0.33329  0.56269  0.60116  1.0000
  C   C604      1.0  0.33040  0.56791  0.61723  1.0000
  H   H1052     1.0  0.27713  0.58338  0.61982  1.0000
  H   H1053     1.0  0.28208  0.57394  0.59151  1.0000
  H   H1054     1.0  0.34888  0.55668  0.59614  1.0000
  H   H1055     1.0  0.34395  0.56601  0.62440  1.0000
  C   C605      1.0  0.24713  0.50647  0.70003  1.0000
  C   C606      1.0  0.24679  0.48365  0.70207  1.0000
  H   H1056     1.0  0.25056  0.51472  0.68817  1.0000
  H   H1057     1.0  0.24967  0.47463  0.69167  1.0000
  H   H1058     1.0  0.33042  0.45155  0.70509  1.0000
  C   C607      1.0  0.41019  0.48698  0.49670  1.0000
  H   H1059     1.0  0.48059  0.59839  0.52522  1.0000
  H   H1060     1.0  0.29805  0.42587  0.71206  1.0000
  C   C608      1.0  0.42363  0.40741  0.59625  1.0000
  N   N36       1.0  0.38774  0.39045  0.59231  1.0000
  C   C609      1.0  0.37874  0.37698  0.58084  1.0000
  C   C610      1.0  0.37752  0.41324  0.59094  1.0000
  C   C611      1.0  0.41156  0.39187  0.58735  1.0000
  C   C612      1.0  0.38523  0.38022  0.60942  1.0000
  H   H1061     1.0  0.29572  0.52784  0.69457  1.0000
  C   C613      1.0  0.38836  0.35344  0.58036  1.0000
  C   C614      1.0  0.35373  0.41620  0.58696  1.0000
  C   C615      1.0  0.34500  0.43955  0.58815  1.0000
  H   H1062     1.0  0.38232  0.63377  0.56497  1.0000
  H   H1063     1.0  0.46989  0.49832  0.58715  1.0000
  H   H1064     1.0  0.38102  0.38501  0.56839  1.0000
  H   H1065     1.0  0.36108  0.37594  0.58343  1.0000
  H   H1066     1.0  0.37891  0.42114  0.60208  1.0000
  H   H1067     1.0  0.38641  0.42343  0.58105  1.0000
  H   H1068     1.0  0.41421  0.39709  0.57426  1.0000
  H   H1069     1.0  0.41290  0.57573  0.58426  1.0000
  H   H1070     1.0  0.37226  0.34611  0.63197  1.0000
  H   H1071     1.0  0.35201  0.38945  0.61803  1.0000
  H   H1072     1.0  0.34961  0.64929  0.60334  1.0000
  H   H1073     1.0  0.42302  0.40214  0.60928  1.0000
  H   H1074     1.0  0.35260  0.41249  0.57441  1.0000
  H   H1075     1.0  0.34310  0.40552  0.59506  1.0000
  H   H1076     1.0  0.35488  0.45083  0.57979  1.0000
  H   H1077     1.0  0.32818  0.44138  0.58481  1.0000
  H   H1078     1.0  0.34504  0.44404  0.60060  1.0000
  C   C616      1.0  0.48978  0.60798  0.51528  1.0000
  H   H1079     1.0  0.37596  0.63993  0.60736  1.0000
  H   H1080     1.0  0.47114  0.63699  0.52173  1.0000
  C   C617      1.0  0.38182  0.60647  0.48967  1.0000
  H   H1081     1.0  0.43689  0.51585  0.50707  1.0000
  H   H1082     1.0  0.48476  0.57079  0.50538  1.0000
  H   H1083     1.0  0.47389  0.53433  0.54199  1.0000
  H   H1084     1.0  0.45563  0.41907  0.59626  1.0000
  H   H1085     1.0  0.35848  0.44661  0.51419  1.0000
  H   H1086     1.0  0.39598  0.36527  0.61076  1.0000
  C   C618      1.0  0.31684  0.41235  0.68633  1.0000
  H   H1087     1.0  0.16705  0.57766  0.68764  1.0000
  H   H1088     1.0  0.19412  0.59578  0.66864  1.0000
  H   H1089     1.0  0.29957  0.51015  0.72178  1.0000
  C   C619      1.0  0.39109  0.43150  0.49006  1.0000
  H   H1090     1.0  0.39713  0.60925  0.60788  1.0000
  C   C620      1.0  0.37674  0.34113  0.56928  1.0000
  C   C621      1.0  0.18190  0.60654  0.67496  1.0000
  N   N37       1.0  0.16516  0.61575  0.66396  1.0000
  H   H1091     1.0  0.32082  0.49355  0.66871  1.0000
  H   H1092     1.0  0.14690  0.58710  0.66769  1.0000
  H   H1093     1.0  0.34844  0.59710  0.56579  1.0000
  H   H1094     1.0  0.38021  0.59863  0.57644  1.0000
  C   C622      1.0  0.31181  0.52583  0.69926  1.0000
  H   H1095     1.0  0.33886  0.41698  0.70418  1.0000
  H   H1096     1.0  0.30583  0.65862  0.69579  1.0000
  C   C623      1.0  0.40998  0.58142  0.59643  1.0000
  C   C624      1.0  0.24682  0.40595  0.68647  1.0000
  H   H1097     1.0  0.46737  0.51789  0.56993  1.0000
  C   C625      1.0  0.24197  0.47245  0.71734  1.0000
  S   S144      1.0  0.24736  0.60858  0.70290  1.0000
  S   S145      1.0  0.47177  0.33673  0.53407  1.0000
  H   H1098     1.0  0.40554  0.35321  0.57558  1.0000
  Fe  Fe76      1.0  0.25199  0.57560  0.69342  1.0000
  C   C626      1.0  0.35072  0.61917  0.61817  1.0000
  H   H1099     1.0  0.39996  0.56983  0.60435  1.0000
  H   H1100     1.0  0.28238  0.54702  0.71913  1.0000
  H   H1101     1.0  0.33375  0.60958  0.59087  1.0000
  H   H1102     1.0  0.19088  0.61983  0.67858  1.0000
  H   H1103     1.0  0.33184  0.48930  0.51844  1.0000
  C   C627      1.0  0.43961  0.49886  0.51223  1.0000
  N   N38       1.0  0.39237  0.47194  0.49579  1.0000
  C   C628      1.0  0.24158  0.51859  0.71314  1.0000
  C   C629      1.0  0.36057  0.63449  0.60397  1.0000
  H   H1104     1.0  0.45551  0.39148  0.59156  1.0000
  H   H1105     1.0  0.39502  0.40450  0.50835  1.0000
  C   C630      1.0  0.35437  0.46370  0.50995  1.0000
  H   H1106     1.0  0.39076  0.39109  0.61769  1.0000
  C   C631      1.0  0.36091  0.54751  0.47745  1.0000
  C   C632      1.0  0.17634  0.63024  0.65060  1.0000
  H   H1107     1.0  0.18547  0.57623  0.71216  1.0000
  H   H1108     1.0  0.34726  0.46446  0.49834  1.0000
  H   H1109     1.0  0.20492  0.57728  0.69482  1.0000
  S   S146      1.0  0.46371  0.34545  0.48958  1.0000
  C   C633      1.0  0.19545  0.61968  0.64032  1.0000
  H   H1110     1.0  0.32272  0.46234  0.52321  1.0000
  C   C634      1.0  0.36224  0.37447  0.61640  1.0000
  H   H1111     1.0  0.33807  0.64477  0.63302  1.0000
  H   H1112     1.0  0.12444  0.61122  0.65073  1.0000
  C   C635      1.0  0.20431  0.63579  0.62670  1.0000
  H   H1113     1.0  0.12004  0.58721  0.62997  1.0000
  H   H1114     1.0  0.18260  0.64408  0.65569  1.0000
  H   H1115     1.0  0.16493  0.63778  0.64213  1.0000
  H   H1116     1.0  0.34308  0.47154  0.53426  1.0000
  H   H1117     1.0  0.41665  0.42425  0.59469  1.0000
  H   H1118     1.0  0.48141  0.60735  0.50440  1.0000
  C   C636      1.0  0.31727  0.33823  0.71785  1.0000
  H   H1119     1.0  0.39307  0.39684  0.48851  1.0000
  C   C637      1.0  0.34211  0.62205  0.58253  1.0000
  H   H1120     1.0  0.14597  0.61337  0.63461  1.0000
  C   C638      1.0  0.36265  0.36169  0.63292  1.0000
  H   H1121     1.0  0.20898  0.61447  0.64766  1.0000
  H   H1122     1.0  0.19041  0.60555  0.63487  1.0000
  H   H1123     1.0  0.33135  0.63696  0.58328  1.0000
  H   H1124     1.0  0.37019  0.59349  0.49139  1.0000
  H   H1125     1.0  0.14607  0.57386  0.63260  1.0000
  H   H1126     1.0  0.47746  0.62808  0.55757  1.0000
  H   H1127     1.0  0.27869  0.39192  0.68802  1.0000
  H   H1128     1.0  0.44901  0.41354  0.57678  1.0000
  H   H1129     1.0  0.40481  0.50397  0.49294  1.0000
  C   C639      1.0  0.47437  0.50167  0.57405  1.0000
  C   C640      1.0  0.35334  0.39308  0.68943  1.0000
  H   H1130     1.0  0.36962  0.39460  0.69326  1.0000
  H   H1131     1.0  0.37832  0.34914  0.55682  1.0000
  H   H1132     1.0  0.37309  0.62227  0.48675  1.0000
  H   H1133     1.0  0.41767  0.40731  0.49320  1.0000
  N   N39       1.0  0.36388  0.62549  0.58783  1.0000
  C   C641      1.0  0.13207  0.58263  0.63876  1.0000
  H   H1134     1.0  0.21818  0.62799  0.61969  1.0000
  H   H1135     1.0  0.23677  0.42062  0.68952  1.0000
  C   C642      1.0  0.19159  0.58656  0.70131  1.0000
  C   C643      1.0  0.48828  0.63152  0.51911  1.0000
  H   H1136     1.0  0.39087  0.64566  0.58118  1.0000
  C   C644      1.0  0.31702  0.64185  0.71730  1.0000
  H   H1137     1.0  0.32014  0.51085  0.69509  1.0000
  H   H1138     1.0  0.31827  0.40599  0.67431  1.0000
  H   H1139     1.0  0.42205  0.47020  0.51879  1.0000
  H   H1140     1.0  0.32794  0.34227  0.69257  1.0000
  C   C645      1.0  0.17344  0.59285  0.69055  1.0000
  H   H1141     1.0  0.36940  0.49446  0.50717  1.0000
  H   H1142     1.0  0.42429  0.48303  0.48811  1.0000
  C   C646      1.0  0.11760  0.65770  0.67548  1.0000
  H   H1143     1.0  0.42012  0.37574  0.58925  1.0000
  C   C647      1.0  0.39888  0.60405  0.59556  1.0000
  H   H1144     1.0  0.30842  0.60641  0.56927  1.0000
  H   H1145     1.0  0.33795  0.57046  0.48810  1.0000
  H   H1146     1.0  0.36481  0.63371  0.63698  1.0000
  H   H1147     1.0  0.19178  0.64125  0.61848  1.0000
  H   H1148     1.0  0.15534  0.63555  0.68360  1.0000
  H   H1149     1.0  0.16054  0.60179  0.69768  1.0000
  H   H1150     1.0  0.23954  0.39170  0.69347  1.0000
  H   H1151     1.0  0.33429  0.61509  0.61608  1.0000
  H   H1152     1.0  0.34576  0.37949  0.69712  1.0000
  C   C648      1.0  0.41882  0.48695  0.51338  1.0000
  H   H1153     1.0  0.34151  0.61849  0.64378  1.0000
  C   C649      1.0  0.37675  0.60414  0.58868  1.0000
  H   H1154     1.0  0.30998  0.39936  0.69498  1.0000
  S   S147      1.0  0.30131  0.36279  0.71699  1.0000
  H   H1155     1.0  0.42579  0.58178  0.60133  1.0000
  H   H1156     1.0  0.38054  0.47415  0.52075  1.0000
  H   H1157     1.0  0.24667  0.40413  0.67347  1.0000
  C   C650      1.0  0.39982  0.40870  0.49539  1.0000
  C   C651      1.0  0.34873  0.62980  0.63390  1.0000
  H   H1158     1.0  0.40027  0.44348  0.51167  1.0000
  H   H1159     1.0  0.31972  0.60835  0.54865  1.0000
  H   H1160     1.0  0.36080  0.60396  0.61997  1.0000
  C   C652      1.0  0.37463  0.47697  0.50868  1.0000
  C   C653      1.0  0.34223  0.61422  0.56557  1.0000
  H   H1161     1.0  0.44484  0.49906  0.52446  1.0000
  N   N40       1.0  0.30205  0.43253  0.68625  1.0000
  C   C654      1.0  0.31142  0.44956  0.67393  1.0000
  C   C655      1.0  0.28086  0.42684  0.68093  1.0000
  C   C656      1.0  0.29795  0.44005  0.70290  1.0000
  H   H1162     1.0  0.31673  0.48375  0.64972  1.0000
  C   C657      1.0  0.29626  0.46986  0.67027  1.0000
  C   C658      1.0  0.33976  0.41418  0.69129  1.0000
  H   H1163     1.0  0.36722  0.59132  0.59567  1.0000
  C   C659      1.0  0.30861  0.48852  0.66132  1.0000
  H   H1164     1.0  0.31610  0.44257  0.66229  1.0000
  H   H1165     1.0  0.32662  0.45505  0.67748  1.0000
  S   S148      1.0  0.22147  0.65160  0.66900  1.0000
  H   H1166     1.0  0.28294  0.42331  0.66810  1.0000
  H   H1167     1.0  0.26888  0.44085  0.68160  1.0000
  C   C660      1.0  0.37614  0.64131  0.57611  1.0000
  H   H1168     1.0  0.39489  0.43404  0.47685  1.0000
  H   H1169     1.0  0.13063  0.64485  0.65358  1.0000
  H   H1170     1.0  0.28388  0.46598  0.66254  1.0000
  H   H1171     1.0  0.12455  0.57168  0.64874  1.0000
  H   H1172     1.0  0.34834  0.42728  0.68390  1.0000
  C   C661      1.0  0.13912  0.60295  0.64511  1.0000
  H   H1173     1.0  0.46718  0.48948  0.56776  1.0000
  C   C662      1.0  0.47556  0.54212  0.52949  1.0000
  C   C663      1.0  0.31947  0.61554  0.56024  1.0000
  H   H1174     1.0  0.29723  0.50263  0.65875  1.0000
  S   S149      1.0  0.30423  0.61750  0.71608  1.0000
  H   H1175     1.0  0.48794  0.58627  0.48137  1.0000
  H   H1176     1.0  0.36968  0.37113  0.64144  1.0000
  C   C664      1.0  0.33699  0.47228  0.52223  1.0000
  H   H1177     1.0  0.47472  0.52951  0.52116  1.0000
  C   C665      1.0  0.40132  0.44881  0.49855  1.0000
  C   C666      1.0  0.26985  0.40738  0.69074  1.0000
  H   H1178     1.0  0.35511  0.38925  0.67672  1.0000
  H   H1179     1.0  0.37335  0.43198  0.49251  1.0000
  H   H1180     1.0  0.28772  0.47553  0.68141  1.0000
  H   H1181     1.0  0.40977  0.61493  0.58776  1.0000
  C   C667      1.0  0.15555  0.59709  0.65766  1.0000
  H   H1182     1.0  0.16849  0.58596  0.65249  1.0000
  H   H1183     1.0  0.32151  0.53971  0.69427  1.0000
  H   H1184     1.0  0.10484  0.64589  0.67794  1.0000
  H   H1185     1.0  0.26931  0.40872  0.70383  1.0000
  H   H1186     1.0  0.38690  0.34444  0.59247  1.0000
  C   C668      1.0  0.38380  0.47715  0.47958  1.0000
  H   H1187     1.0  0.31321  0.63263  0.55857  1.0000
  H   H1188     1.0  0.14809  0.66175  0.66175  1.0000
  S   S150      1.0  0.23878  0.54754  0.71110  1.0000
  H   H1189     1.0  0.19268  0.64879  0.69931  1.0000
  C   C669      1.0  0.31323  0.45658  0.70761  1.0000
  S   S151      1.0  0.23956  0.44378  0.71882  1.0000
  H   H1190     1.0  0.38903  0.60698  0.50118  1.0000
  H   H1191     1.0  0.35472  0.36435  0.60865  1.0000
  H   H1192     1.0  0.21003  0.65005  0.63166  1.0000
  H   H1193     1.0  0.32571  0.52081  0.72170  1.0000
  H   H1194     1.0  0.31043  0.47255  0.70084  1.0000
  H   H1195     1.0  0.42715  0.33277  0.62074  1.0000
  C   C670      1.0  0.34389  0.56327  0.47720  1.0000
  H   H1196     1.0  0.40773  0.58606  0.48008  1.0000
  H   H1197     1.0  0.37141  0.46595  0.47774  1.0000
  H   H1198     1.0  0.12284  0.66159  0.68706  1.0000
  C   C671      1.0  0.31527  0.65956  0.70578  1.0000
  H   H1199     1.0  0.45297  0.33039  0.67804  1.0000
  H   H1200     1.0  0.34951  0.66000  0.56476  1.0000
  C   C672      1.0  0.32906  0.33211  0.70371  1.0000
  H   H1201     1.0  0.37507  0.49336  0.47902  1.0000
  H   H1202     1.0  0.43550  0.33656  0.59107  1.0000
  H   H1203     1.0  0.30717  0.55931  0.71799  1.0000
  H   H1204     1.0  0.34599  0.35802  0.63785  1.0000
  C   C673      1.0  0.29841  0.54518  0.72389  1.0000
  C   C674      1.0  0.30908  0.45988  0.72547  1.0000
  C   C675      1.0  0.39954  0.60183  0.47635  1.0000
  Fe  Fe77      1.0  0.35028  0.43762  0.90205  1.0000
  S   S152      1.0  0.37112  0.46578  0.89551  1.0000
  S   S153      1.0  0.33910  0.42505  0.92781  1.0000
  Fe  Fe78      1.0  0.34421  0.43187  0.86622  1.0000
  S   S154      1.0  0.36430  0.46011  0.85740  1.0000
  S   S155      1.0  0.33192  0.40788  0.85044  1.0000
  Fe  Fe79      1.0  0.38665  0.44663  0.87575  1.0000
  S   S156      1.0  0.42247  0.44692  0.86861  1.0000
  Fe  Fe80      1.0  0.34717  0.47680  0.87790  1.0000
  S   S157      1.0  0.33307  0.51106  0.87543  1.0000
  S   S158      1.0  0.36784  0.41735  0.88359  1.0000
  S   S159      1.0  0.32503  0.44973  0.88545  1.0000
  Fe  Fe81      1.0  0.40015  0.60151  0.90401  1.0000
  S   S160      1.0  0.40039  0.63671  0.90843  1.0000
  S   S161      1.0  0.36942  0.58410  0.91035  1.0000
  Fe  Fe82      1.0  0.44770  0.59831  0.89307  1.0000
  H   H1205     1.0  0.35368  0.55359  0.76195  1.0000
  Fe  Fe83      1.0  0.43091  0.62645  0.92003  1.0000
  H   H1206     1.0  0.28785  0.52693  0.77446  1.0000
  S   S162      1.0  0.42919  0.59121  0.91711  1.0000
  S   S163      1.0  0.41837  0.60545  0.87954  1.0000
  S   S164      1.0  0.44416  0.63601  0.94264  1.0000
  H   H1207     1.0  0.41000  0.58350  0.84842  1.0000
  H   H1208     1.0  0.42548  0.65038  0.81659  1.0000
  H   H1209     1.0  0.39275  0.60805  0.84803  1.0000
  Fe  Fe84      1.0  0.23377  0.37073  0.75677  1.0000
  H   H1210     1.0  0.49302  0.62488  0.94543  1.0000
  H   H1211     1.0  0.30986  0.32953  0.74315  1.0000
  Fe  Fe85      1.0  0.26853  0.39812  0.76805  1.0000
  S   S165      1.0  0.28052  0.40885  0.74256  1.0000
  S   S166      1.0  0.28310  0.41724  0.78612  1.0000
  Fe  Fe86      1.0  0.24607  0.41499  0.73767  1.0000
  H   H1212     1.0  0.24577  0.35867  0.82822  1.0000
  Fe  Fe87      1.0  0.27750  0.37479  0.73697  1.0000
  H   H1213     1.0  0.43839  0.63352  0.80227  1.0000
  S   S167      1.0  0.23354  0.40538  0.76347  1.0000
  S   S168      1.0  0.26831  0.36307  0.76290  1.0000
  H   H1214     1.0  0.32945  0.57574  0.94519  1.0000
  C   C676      1.0  0.36864  0.35533  0.81713  1.0000
  H   H1215     1.0  0.31633  0.57607  0.92696  1.0000
  H   H1216     1.0  0.32313  0.41873  0.96121  1.0000
  H   H1217     1.0  0.31909  0.46944  0.93405  1.0000
  C   C677      1.0  0.37421  0.45123  0.95871  1.0000
  H   H1218     1.0  0.36622  0.33932  0.82396  1.0000
  H   H1219     1.0  0.35151  0.35680  0.88818  1.0000
  H   H1220     1.0  0.29433  0.45750  0.91622  1.0000
  H   H1221     1.0  0.34082  0.50892  0.96054  1.0000
  H   H1222     1.0  0.47363  0.33519  0.84613  1.0000
  H   H1223     1.0  0.28672  0.56958  0.75879  1.0000
  C   C678      1.0  0.26367  0.57411  0.74078  1.0000
  H   H1224     1.0  0.20087  0.40579  0.82347  1.0000
  H   H1225     1.0  0.36941  0.65677  0.82628  1.0000
  H   H1226     1.0  0.25471  0.50976  0.78615  1.0000
  H   H1227     1.0  0.32314  0.52442  0.74842  1.0000
  H   H1228     1.0  0.40997  0.50385  0.92829  1.0000
  H   H1229     1.0  0.29936  0.50905  0.93269  1.0000
  H   H1230     1.0  0.35442  0.50764  0.91393  1.0000
  C   C679      1.0  0.25526  0.59578  0.74670  1.0000
  H   H1231     1.0  0.26415  0.54341  0.76974  1.0000
  H   H1232     1.0  0.47200  0.49323  0.87149  1.0000
  C   C680      1.0  0.31918  0.41088  0.83216  1.0000
  C   C681      1.0  0.31389  0.39223  0.82551  1.0000
  C   C682      1.0  0.30334  0.39372  0.81128  1.0000
  C   C683      1.0  0.29788  0.41397  0.80347  1.0000
  C   C684      1.0  0.30328  0.43260  0.81008  1.0000
  C   C685      1.0  0.31387  0.43111  0.82428  1.0000
  H   H1233     1.0  0.31784  0.37648  0.83150  1.0000
  H   H1234     1.0  0.29927  0.37922  0.80645  1.0000
  H   H1235     1.0  0.29907  0.44837  0.80423  1.0000
  H   H1236     1.0  0.31774  0.44562  0.82920  1.0000
  C   C686      1.0  0.43807  0.42319  0.87365  1.0000
  C   C687      1.0  0.45960  0.42120  0.86718  1.0000
  C   C688      1.0  0.47222  0.40211  0.87067  1.0000
  C   C689      1.0  0.46315  0.38483  0.88037  1.0000
  C   C690      1.0  0.44171  0.38694  0.88698  1.0000
  C   C691      1.0  0.42927  0.40619  0.88380  1.0000
  H   H1237     1.0  0.46644  0.43431  0.85927  1.0000
  C   C692      1.0  0.33744  0.42780  0.96047  1.0000
  H   H1238     1.0  0.43468  0.37360  0.89454  1.0000
  H   H1239     1.0  0.41283  0.40775  0.88909  1.0000
  C   C693      1.0  0.34518  0.53210  0.88318  1.0000
  C   C694      1.0  0.33227  0.55059  0.88653  1.0000
  C   C695      1.0  0.34042  0.56704  0.89394  1.0000
  C   C696      1.0  0.36172  0.56545  0.89784  1.0000
  C   C697      1.0  0.37510  0.54738  0.89389  1.0000
  C   C698      1.0  0.36681  0.53066  0.88654  1.0000
  H   H1240     1.0  0.31564  0.55190  0.88385  1.0000
  H   H1241     1.0  0.32997  0.58084  0.89704  1.0000
  H   H1242     1.0  0.39148  0.54588  0.89712  1.0000
  H   H1243     1.0  0.37691  0.51648  0.88384  1.0000
  H   H1244     1.0  0.37630  0.44838  0.93310  1.0000
  Fe  Fe88      1.0  0.42066  0.64001  0.88451  1.0000
  H   H1245     1.0  0.23169  0.51649  0.73855  1.0000
  C   C699      1.0  0.43699  0.57630  0.97287  1.0000
  H   H1246     1.0  0.17628  0.40026  0.85608  1.0000
  H   H1247     1.0  0.41215  0.55416  0.97363  1.0000
  H   H1248     1.0  0.23059  0.42702  0.79454  1.0000
  C   C700      1.0  0.44584  0.50541  0.88717  1.0000
  H   H1249     1.0  0.44564  0.66160  0.77940  1.0000
  H   H1250     1.0  0.27824  0.41535  0.86830  1.0000
  C   C701      1.0  0.39515  0.49836  0.92407  1.0000
  H   H1251     1.0  0.47069  0.66023  0.80075  1.0000
  C   C702      1.0  0.33563  0.55600  0.74087  1.0000
  C   C703      1.0  0.22705  0.43636  0.80514  1.0000
  H   H1252     1.0  0.39783  0.34591  0.83819  1.0000
  C   C704      1.0  0.46711  0.61226  0.81855  1.0000
  H   H1253     1.0  0.33692  0.54144  0.92283  1.0000
  H   H1254     1.0  0.42220  0.43596  0.92387  1.0000
  C   C705      1.0  0.33208  0.49952  0.95291  1.0000
  H   H1255     1.0  0.22392  0.46598  0.78935  1.0000
  H   H1256     1.0  0.45421  0.52044  0.88787  1.0000
  H   H1257     1.0  0.41873  0.52437  0.87774  1.0000
  H   H1258     1.0  0.48871  0.40044  0.86542  1.0000
  H   H1259     1.0  0.22936  0.47009  0.80948  1.0000
  C   C706      1.0  0.32939  0.64335  0.73021  1.0000
  H   H1260     1.0  0.31593  0.51415  0.91463  1.0000
  C   C707      1.0  0.43221  0.63286  0.96275  1.0000
  H   H1261     1.0  0.25196  0.56195  0.74569  1.0000
  N   N41       1.0  0.45203  0.62979  0.82521  1.0000
  H   H1262     1.0  0.47369  0.66080  0.86262  1.0000
  S   S169      1.0  0.47462  0.57473  0.88469  1.0000
  C   C708      1.0  0.43450  0.61885  0.83626  1.0000
  H   H1263     1.0  0.24263  0.38365  0.84784  1.0000
  C   C709      1.0  0.46406  0.47025  0.91073  1.0000
  H   H1264     1.0  0.29801  0.51009  0.95999  1.0000
  C   C710      1.0  0.41790  0.60723  0.82804  1.0000
  C   C711      1.0  0.23314  0.45949  0.79959  1.0000
  H   H1265     1.0  0.46825  0.37835  0.97071  1.0000
  H   H1266     1.0  0.35305  0.36163  0.81270  1.0000
  H   H1267     1.0  0.23331  0.35659  0.79393  1.0000
  C   C712      1.0  0.40170  0.59609  0.84053  1.0000
  C   C713      1.0  0.44609  0.45474  0.90904  1.0000
  H   H1268     1.0  0.43826  0.51458  0.86251  1.0000
  H   H1269     1.0  0.36342  0.37295  0.83787  1.0000
  C   C714      1.0  0.27384  0.52835  0.76724  1.0000
  H   H1270     1.0  0.42524  0.63076  0.84368  1.0000
  H   H1271     1.0  0.44160  0.60646  0.84501  1.0000
  C   C715      1.0  0.44157  0.64361  0.81191  1.0000
  H   H1272     1.0  0.38850  0.46032  0.95794  1.0000
  N   N42       1.0  0.29589  0.54570  0.74188  1.0000
  H   H1273     1.0  0.28991  0.48478  0.90719  1.0000
  H   H1274     1.0  0.46122  0.62489  0.85882  1.0000
  C   C716      1.0  0.48745  0.61963  0.80789  1.0000
  H   H1275     1.0  0.42595  0.59469  0.82070  1.0000
  H   H1276     1.0  0.40852  0.61885  0.82016  1.0000
  H   H1277     1.0  0.45856  0.60259  0.81103  1.0000
  C   C717      1.0  0.23665  0.50739  0.72838  1.0000
  H   H1278     1.0  0.28460  0.39176  0.85768  1.0000
  H   H1279     1.0  0.25508  0.39089  0.80684  1.0000
  H   H1280     1.0  0.26607  0.60876  0.74160  1.0000
  H   H1281     1.0  0.35550  0.48429  0.92771  1.0000
  H   H1282     1.0  0.41992  0.49628  0.87410  1.0000
  C   C718      1.0  0.31730  0.54165  0.74881  1.0000
  C   C719      1.0  0.48526  0.64788  0.85822  1.0000
  C   C720      1.0  0.47362  0.63207  0.84981  1.0000
  H   H1283     1.0  0.39988  0.63007  0.95686  1.0000
  C   C721      1.0  0.28125  0.52820  0.74907  1.0000
  S   S170      1.0  0.24339  0.38109  0.73071  1.0000
  H   H1284     1.0  0.45263  0.44057  0.90274  1.0000
  N   N43       1.0  0.40635  0.37566  0.84659  1.0000
  C   C722      1.0  0.39917  0.39936  0.84505  1.0000
  C   C723      1.0  0.39899  0.36586  0.86327  1.0000
  C   C724      1.0  0.43073  0.37429  0.84485  1.0000
  C   C725      1.0  0.39842  0.36339  0.83388  1.0000
  C   C726      1.0  0.37614  0.37113  0.82791  1.0000
  C   C727      1.0  0.40891  0.41260  0.82965  1.0000
  H   H1285     1.0  0.26394  0.57589  0.72752  1.0000
  C   C728      1.0  0.37443  0.36469  0.86758  1.0000
  C   C729      1.0  0.36924  0.35727  0.88539  1.0000
  C   C730      1.0  0.31530  0.50449  0.92660  1.0000
  C   C731      1.0  0.39701  0.43461  0.82680  1.0000
  H   H1286     1.0  0.40361  0.40728  0.85548  1.0000
  H   H1287     1.0  0.38137  0.40171  0.84570  1.0000
  H   H1288     1.0  0.40542  0.34885  0.86525  1.0000
  H   H1289     1.0  0.40553  0.37474  0.87239  1.0000
  H   H1290     1.0  0.43699  0.38524  0.85279  1.0000
  H   H1291     1.0  0.43696  0.38012  0.83240  1.0000
  H   H1292     1.0  0.41003  0.36395  0.82289  1.0000
  H   H1293     1.0  0.30050  0.57918  0.94581  1.0000
  H   H1294     1.0  0.37704  0.38708  0.82076  1.0000
  H   H1295     1.0  0.38612  0.64870  0.85201  1.0000
  H   H1296     1.0  0.42596  0.41565  0.83088  1.0000
  H   H1297     1.0  0.40858  0.40383  0.81884  1.0000
  H   H1298     1.0  0.48217  0.64703  0.92097  1.0000
  C   C732      1.0  0.47996  0.39512  0.94079  1.0000
  H   H1299     1.0  0.36579  0.38053  0.86513  1.0000
  H   H1300     1.0  0.20949  0.43673  0.80881  1.0000
  C   C733      1.0  0.33360  0.53431  0.93547  1.0000
  C   C734      1.0  0.41008  0.63079  0.96644  1.0000
  C   C735      1.0  0.46321  0.64381  0.83508  1.0000
  H   H1301     1.0  0.33119  0.57340  0.74179  1.0000
  H   H1302     1.0  0.47401  0.36386  0.84721  1.0000
  H   H1303     1.0  0.26893  0.49372  0.77135  1.0000
  H   H1304     1.0  0.39964  0.44479  0.83645  1.0000
  H   H1305     1.0  0.40344  0.44292  0.81515  1.0000
  H   H1306     1.0  0.37948  0.43287  0.82646  1.0000
  N   N44       1.0  0.23497  0.40409  0.82639  1.0000
  C   C736      1.0  0.24009  0.42659  0.81915  1.0000
  C   C737      1.0  0.25014  0.39621  0.83902  1.0000
  C   C738      1.0  0.30922  0.49571  0.96146  1.0000
  C   C739      1.0  0.39172  0.66174  0.84342  1.0000
  H   H1307     1.0  0.31546  0.54429  0.76179  1.0000
  H   H1308     1.0  0.46258  0.39181  0.94248  1.0000
  H   H1309     1.0  0.31129  0.54217  0.95613  1.0000
  C   C740      1.0  0.25875  0.41340  0.84857  1.0000
  H   H1310     1.0  0.20869  0.38651  0.83899  1.0000
  H   H1311     1.0  0.37666  0.34084  0.88836  1.0000
  H   H1312     1.0  0.30209  0.48227  0.95649  1.0000
  H   H1313     1.0  0.48027  0.44754  0.88483  1.0000
  H   H1314     1.0  0.25737  0.42675  0.81460  1.0000
  H   H1315     1.0  0.23809  0.43831  0.82833  1.0000
  H   H1316     1.0  0.17480  0.42802  0.86062  1.0000
  H   H1317     1.0  0.26501  0.38800  0.83340  1.0000
  H   H1318     1.0  0.49332  0.61316  0.89292  1.0000
  C   C741      1.0  0.37531  0.50928  0.93272  1.0000
  H   H1319     1.0  0.23899  0.60010  0.74272  1.0000
  H   H1320     1.0  0.34685  0.53897  0.94207  1.0000
  C   C742      1.0  0.36727  0.44468  0.94459  1.0000
  H   H1321     1.0  0.46765  0.35357  0.82894  1.0000
  H   H1322     1.0  0.45354  0.47356  0.87873  1.0000
  S   S171      1.0  0.45141  0.63296  0.89655  1.0000
  H   H1323     1.0  0.29696  0.58053  0.73956  1.0000
  C   C743      1.0  0.23594  0.36477  0.81828  1.0000
  H   H1324     1.0  0.27007  0.42358  0.84053  1.0000
  H   H1325     1.0  0.24570  0.42420  0.85374  1.0000
  C   C744      1.0  0.27118  0.40274  0.86231  1.0000
  C   C745      1.0  0.35632  0.55062  0.74906  1.0000
  C   C746      1.0  0.17994  0.41700  0.85116  1.0000
  H   H1326     1.0  0.47492  0.46152  0.91924  1.0000
  C   C747      1.0  0.36286  0.44607  0.97382  1.0000
  H   H1327     1.0  0.23312  0.47632  0.74231  1.0000
  C   C748      1.0  0.34871  0.43312  0.94537  1.0000
  C   C749      1.0  0.23737  0.48454  0.73056  1.0000
  H   H1328     1.0  0.39557  0.50267  0.91089  1.0000
  H   H1329     1.0  0.26665  0.52875  0.74248  1.0000
  C   C750      1.0  0.23862  0.38919  0.81311  1.0000
  H   H1330     1.0  0.32773  0.47702  0.91338  1.0000
  H   H1331     1.0  0.37686  0.52695  0.92993  1.0000
  C   C751      1.0  0.25982  0.50936  0.77313  1.0000
  C   C752      1.0  0.29363  0.47484  0.91842  1.0000
  C   C753      1.0  0.31531  0.48040  0.92335  1.0000
  H   H1332     1.0  0.29847  0.54252  0.93767  1.0000
  C   C754      1.0  0.24284  0.35127  0.80424  1.0000
  H   H1333     1.0  0.39503  0.48055  0.92657  1.0000
  C   C755      1.0  0.46238  0.48679  0.88259  1.0000
  H   H1334     1.0  0.24516  0.51035  0.76658  1.0000
  H   H1335     1.0  0.37565  0.50508  0.94586  1.0000
  H   H1336     1.0  0.25409  0.59485  0.76002  1.0000
  H   H1337     1.0  0.19228  0.33824  0.73611  1.0000
  H   H1338     1.0  0.34066  0.48327  0.95347  1.0000
  C   C756      1.0  0.21179  0.40304  0.83326  1.0000
  C   C757      1.0  0.48475  0.38428  0.97029  1.0000
  C   C758      1.0  0.46573  0.35110  0.84227  1.0000
  C   C759      1.0  0.28663  0.56776  0.74575  1.0000
  H   H1339     1.0  0.43643  0.50141  0.89886  1.0000
  S   S172      1.0  0.47758  0.35985  0.88327  1.0000
  N   N45       1.0  0.33338  0.51004  0.93583  1.0000
  H   H1340     1.0  0.25061  0.45977  0.79546  1.0000
  H   H1341     1.0  0.36913  0.56109  0.74316  1.0000
  H   H1342     1.0  0.22725  0.39361  0.80380  1.0000
  H   H1343     1.0  0.28059  0.47758  0.92811  1.0000
  C   C760      1.0  0.31503  0.57080  0.94004  1.0000
  C   C761      1.0  0.35424  0.50224  0.92695  1.0000
  H   H1344     1.0  0.36802  0.35270  0.86064  1.0000
  H   H1345     1.0  0.47231  0.60045  0.82846  1.0000
  H   H1346     1.0  0.28927  0.51197  0.74751  1.0000
  C   C762      1.0  0.31317  0.54632  0.94293  1.0000
  H   H1347     1.0  0.38986  0.58818  0.83437  1.0000
  C   C763      1.0  0.42976  0.51040  0.87457  1.0000
  H   H1348     1.0  0.48043  0.50940  0.90340  1.0000
  H   H1349     1.0  0.24006  0.33397  0.80795  1.0000
  H   H1350     1.0  0.17052  0.42185  0.84072  1.0000
  H   H1351     1.0  0.26034  0.39341  0.87136  1.0000
  S   S173      1.0  0.20820  0.34597  0.76717  1.0000
  C   C764      1.0  0.34448  0.43419  0.97464  1.0000
  H   H1352     1.0  0.46232  0.63556  0.97262  1.0000
  N   N46       1.0  0.47694  0.47804  0.89529  1.0000
  H   H1353     1.0  0.38058  0.35343  0.80657  1.0000
  H   H1354     1.0  0.29196  0.46527  0.72850  1.0000
  H   H1355     1.0  0.43317  0.46315  0.90221  1.0000
  H   H1356     1.0  0.20671  0.43560  0.84181  1.0000
  H   H1357     1.0  0.42892  0.45973  0.93247  1.0000
  H   H1358     1.0  0.21248  0.41399  0.85715  1.0000
  C   C765      1.0  0.20405  0.41852  0.84621  1.0000
  H   H1359     1.0  0.37522  0.36866  0.89306  1.0000
  H   H1360     1.0  0.45011  0.56378  0.97055  1.0000
  H   H1361     1.0  0.26023  0.35277  0.80032  1.0000
  H   H1362     1.0  0.44108  0.34730  0.86175  1.0000
  H   H1363     1.0  0.36193  0.53347  0.74805  1.0000
  C   C766      1.0  0.43560  0.44620  0.92549  1.0000
  H   H1364     1.0  0.44749  0.43618  0.93240  1.0000
  C   C767      1.0  0.44188  0.35158  0.84854  1.0000
  H   H1365     1.0  0.48559  0.61911  0.84617  1.0000
  H   H1366     1.0  0.33942  0.55352  0.72798  1.0000
  H   H1367     1.0  0.48282  0.62751  0.79620  1.0000
  H   H1368     1.0  0.21881  0.36176  0.82218  1.0000
  C   C768      1.0  0.49061  0.45909  0.88924  1.0000
  H   H1369     1.0  0.47791  0.41746  0.95881  1.0000
  H   H1370     1.0  0.48948  0.38031  0.93734  1.0000
  H   H1371     1.0  0.33083  0.62975  0.73918  1.0000
  H   H1372     1.0  0.31282  0.44460  0.73294  1.0000
  H   H1373     1.0  0.45658  0.48413  0.91706  1.0000
  H   H1374     1.0  0.43310  0.58480  0.96115  1.0000
  H   H1375     1.0  0.43413  0.33902  0.84301  1.0000
  C   C769      1.0  0.49069  0.49584  0.89852  1.0000
  H   H1376     1.0  0.49257  0.63917  0.86870  1.0000
  H   H1377     1.0  0.31952  0.47237  0.72844  1.0000
  C   C770      1.0  0.48727  0.40235  0.95614  1.0000
  H   H1378     1.0  0.48245  0.40804  0.93077  1.0000
  H   H1379     1.0  0.45157  0.65663  0.83955  1.0000
  H   H1380     1.0  0.47601  0.65278  0.82768  1.0000
  C   C771      1.0  0.44520  0.63386  0.97537  1.0000
  C   C772      1.0  0.34003  0.66228  0.73155  1.0000
  H   H1381     1.0  0.27399  0.87779  0.13200  1.0000
  Fe  Fe89      1.0  0.09125  0.93365  0.06262  1.0000
  S   S174      1.0  0.11615  0.90785  0.05585  1.0000
  S   S175      1.0  0.05804  0.92597  0.07401  1.0000
  Fe  Fe90      1.0  0.12102  0.96938  0.05096  1.0000
  S   S176      1.0  0.14824  0.94621  0.04295  1.0000
  Fe  Fe91      1.0  0.12253  0.92941  0.03276  1.0000
  S   S177      1.0  0.12142  0.91445  0.00910  1.0000
  Fe  Fe92      1.0  0.13941  0.92702  0.06684  1.0000
  S   S178      1.0  0.16462  0.91026  0.08286  1.0000
  S   S179      1.0  0.09609  0.95407  0.03916  1.0000
  S   S180      1.0  0.11376  0.95135  0.07524  1.0000
  H   H1382     1.0  0.20349  0.69434  0.21080  1.0000
  S   S181      1.0  0.38462  0.74865  0.21664  1.0000
  H   H1383     1.0  0.36845  0.66786  0.98927  1.0000
  Fe  Fe93      1.0  0.41799  0.74852  0.20338  1.0000
  S   S182      1.0  0.40527  0.76220  0.17978  1.0000
  H   H1384     1.0  0.48467  0.69700  0.16858  1.0000
  Fe  Fe94      1.0  0.38277  0.71521  0.20919  1.0000
  S   S183      1.0  0.36831  0.72620  0.18625  1.0000
  H   H1385     1.0  0.28996  0.92314  0.18894  1.0000
  Fe  Fe95      1.0  0.40248  0.72729  0.17489  1.0000
  S   S184      1.0  0.41905  0.70793  0.15462  1.0000
  Fe  Fe96      1.0  0.37156  0.76023  0.19289  1.0000
  S   S185      1.0  0.33973  0.78191  0.19470  1.0000
  S   S186      1.0  0.41678  0.71434  0.19775  1.0000
  C   C773      1.0  0.00283  0.95768  0.05516  1.0000
  Fe  Fe97      1.0  0.25303  0.88709  0.18598  1.0000
  S   S187      1.0  0.24001  0.89028  0.21159  1.0000
  S   S188      1.0  0.28783  0.87358  0.17951  1.0000
  Fe  Fe98      1.0  0.21096  0.90765  0.17290  1.0000
  S   S189      1.0  0.19557  0.91118  0.19809  1.0000
  S   S190      1.0  0.18887  0.92224  0.15374  1.0000
  Fe  Fe99      1.0  0.22698  0.92389  0.20325  1.0000
  H   H1386     1.0  0.12417  0.99234  0.01211  1.0000
  Fe  Fe100     1.0  0.20975  0.87775  0.20431  1.0000
  H   H1387     1.0  0.01206  0.95469  0.06588  1.0000
  S   S191      1.0  0.24186  0.92167  0.17777  1.0000
  S   S192      1.0  0.22322  0.87312  0.17898  1.0000
  H   H1388     1.0  0.44600  0.76249  0.11890  1.0000
  C   C774      1.0  0.01529  0.97463  0.04354  1.0000
  C   C775      1.0  0.04072  0.89587  0.03697  1.0000
  S   S193      1.0  0.22405  0.95283  0.21904  1.0000
  N   N47       1.0  0.48074  0.74174  0.16637  1.0000
  H   H1389     1.0  0.23602  0.66552  0.21362  1.0000
  H   H1390     1.0  0.24704  0.86857  0.13589  1.0000
  H   H1391     1.0  0.31901  0.77678  0.14259  1.0000
  H   H1392     1.0  0.00770  0.97831  0.03213  1.0000
  C   C776      1.0  0.32617  0.80800  0.19082  1.0000
  C   C777      1.0  0.30536  0.81204  0.19850  1.0000
  C   C778      1.0  0.29358  0.83201  0.19541  1.0000
  C   C779      1.0  0.30224  0.84823  0.18434  1.0000
  C   C780      1.0  0.32310  0.84428  0.17674  1.0000
  C   C781      1.0  0.33499  0.82441  0.17997  1.0000
  H   H1393     1.0  0.29833  0.79963  0.20700  1.0000
  H   H1394     1.0  0.27776  0.83482  0.20161  1.0000
  H   H1395     1.0  0.33015  0.85667  0.16823  1.0000
  H   H1396     1.0  0.35091  0.82171  0.17392  1.0000
  C   C782      1.0  0.47088  0.67555  0.00853  1.0000
  H   H1397     1.0  0.43670  0.67318  0.01227  1.0000
  C   C783      1.0  0.15843  0.84404  0.20679  1.0000
  C   C784      1.0  0.13674  0.94553  0.98517  1.0000
  H   H1398     1.0  0.16217  0.85824  0.19873  1.0000
  H   H1399     1.0  0.26042  0.87768  0.15191  1.0000
  C   C785      1.0  0.43484  0.75990  0.00059  1.0000
  H   H1400     1.0  0.99687  0.88608  0.06344  1.0000
  C   C786      1.0  0.39172  0.69626  0.11405  1.0000
  H   H1401     1.0  0.33701  0.69899  0.20645  1.0000
  C   C787      1.0  0.41332  0.69757  0.13651  1.0000
  C   C788      1.0  0.39534  0.70487  0.12843  1.0000
  H   H1402     1.0  0.37778  0.70211  0.10790  1.0000
  C   C789      1.0  0.47986  0.76454  0.17116  1.0000
  C   C790      1.0  0.25292  0.98632  0.21594  1.0000
  C   C791      1.0  0.42771  0.68172  0.12988  1.0000
  H   H1403     1.0  0.38439  0.71740  0.13308  1.0000
  C   C792      1.0  0.11470  0.99446  0.00150  1.0000
  H   H1404     1.0  0.13598  0.98236  0.11706  1.0000
  H   H1405     1.0  0.45451  0.73118  0.99663  1.0000
  H   H1406     1.0  0.28962  0.97254  0.18125  1.0000
  C   C793      1.0  0.31287  0.67575  0.21361  1.0000
  C   C794      1.0  0.17155  0.91440  0.10239  1.0000
  C   C795      1.0  0.18891  0.90192  0.10872  1.0000
  C   C796      1.0  0.19478  0.90431  0.12423  1.0000
  C   C797      1.0  0.18321  0.91917  0.13372  1.0000
  C   C798      1.0  0.16587  0.93167  0.12739  1.0000
  C   C799      1.0  0.16005  0.92929  0.11188  1.0000
  H   H1407     1.0  0.19794  0.89035  0.10150  1.0000
  H   H1408     1.0  0.20820  0.89464  0.12884  1.0000
  H   H1409     1.0  0.15675  0.94315  0.13462  1.0000
  H   H1410     1.0  0.14651  0.93876  0.10734  1.0000
  C   C800      1.0  0.12657  0.92606  0.98896  1.0000
  H   H1411     1.0  0.24699  0.79055  0.10908  1.0000
  H   H1412     1.0  0.44177  0.67601  0.13592  1.0000
  H   H1413     1.0  0.14186  0.95385  0.99470  1.0000
  C   C801      1.0  0.40517  0.69012  0.99234  1.0000
  H   H1414     1.0  0.34186  0.72264  0.14542  1.0000
  C   C802      1.0  0.05241  0.90730  0.04646  1.0000
  C   C803      1.0  0.04405  0.91108  0.06207  1.0000
  C   C804      1.0  0.02404  0.90326  0.06817  1.0000
  C   C805      1.0  0.01221  0.89212  0.05861  1.0000
  C   C806      1.0  0.03865  0.85693  0.99402  1.0000
  H   H1415     1.0  0.06795  0.91306  0.04169  1.0000
  H   H1416     1.0  0.01789  0.90547  0.08040  1.0000
  C   C807      1.0  0.36545  0.68295  0.99534  1.0000
  H   H1417     1.0  0.01713  0.81658  0.99099  1.0000
  H   H1418     1.0  0.24735  0.76961  0.12550  1.0000
  C   C808      1.0  0.42414  0.67318  0.11546  1.0000
  H   H1419     1.0  0.36822  0.69958  0.15962  1.0000
  N   N48       1.0  0.13074  0.86965  0.14734  1.0000
  C   C809      1.0  0.12234  0.88663  0.13503  1.0000
  C   C810      1.0  0.12638  0.87798  0.16371  1.0000
  C   C811      1.0  0.15450  0.86529  0.14302  1.0000
  C   C812      1.0  0.11967  0.84877  0.14769  1.0000
  C   C813      1.0  0.09470  0.85078  0.14925  1.0000
  C   C814      1.0  0.12381  0.88032  0.11751  1.0000
  C   C815      1.0  0.16619  0.84908  0.15499  1.0000
  C   C816      1.0  0.14037  0.89646  0.16696  1.0000
  C   C817      1.0  0.13360  0.90442  0.18344  1.0000
  C   C818      1.0  0.08533  0.82853  0.15064  1.0000
  C   C819      1.0  0.11171  0.89721  0.10673  1.0000
  C   C820      1.0  0.19055  0.84838  0.15063  1.0000
  H   H1420     1.0  0.13137  0.90152  0.13444  1.0000
  H   H1421     1.0  0.10533  0.89186  0.13869  1.0000
  H   H1422     1.0  0.10928  0.88408  0.16569  1.0000
  H   H1423     1.0  0.12833  0.86468  0.17341  1.0000
  H   H1424     1.0  0.16286  0.88066  0.14141  1.0000
  H   H1425     1.0  0.15743  0.85864  0.13115  1.0000
  H   H1426     1.0  0.12522  0.84028  0.13684  1.0000
  H   H1427     1.0  0.12438  0.83735  0.15799  1.0000
  H   H1428     1.0  0.08863  0.86027  0.13856  1.0000
  H   H1429     1.0  0.08834  0.85876  0.16010  1.0000
  H   H1430     1.0  0.14087  0.87929  0.11233  1.0000
  H   H1431     1.0  0.11684  0.86459  0.11680  1.0000
  H   H1432     1.0  0.16077  0.83253  0.15464  1.0000
  H   H1433     1.0  0.16310  0.85341  0.16751  1.0000
  H   H1434     1.0  0.15757  0.89081  0.16691  1.0000
  H   H1435     1.0  0.13901  0.91048  0.15782  1.0000
  H   H1436     1.0  0.14420  0.91732  0.18549  1.0000
  H   H1437     1.0  0.11669  0.91121  0.18409  1.0000
  H   H1438     1.0  0.13521  0.89102  0.19311  1.0000
  H   H1439     1.0  0.06746  0.83041  0.15158  1.0000
  H   H1440     1.0  0.09087  0.81997  0.13986  1.0000
  H   H1441     1.0  0.09020  0.81858  0.16156  1.0000
  H   H1442     1.0  0.11800  0.91343  0.10687  1.0000
  H   H1443     1.0  0.11395  0.89284  0.09415  1.0000
  H   H1444     1.0  0.09420  0.89793  0.11068  1.0000
  H   H1445     1.0  0.19851  0.83658  0.15927  1.0000
  H   H1446     1.0  0.19466  0.84343  0.13831  1.0000
  H   H1447     1.0  0.19680  0.86454  0.15128  1.0000
  H   H1448     1.0  0.24064  0.70222  0.20517  1.0000
  C   C821      1.0  0.13444  0.81488  0.21625  1.0000
  H   H1449     1.0  0.33180  0.66801  0.16582  1.0000
  C   C822      1.0  0.00401  0.75687  0.21424  1.0000
  H   H1450     1.0  0.44571  0.67666  0.98332  1.0000
  H   H1451     1.0  0.03570  0.87273  0.99911  1.0000
  H   H1452     1.0  0.03891  0.95122  0.03323  1.0000
  C   C823      1.0  0.22001  0.66488  0.22060  1.0000
  C   C824      1.0  0.15949  0.98392  0.08877  1.0000
  C   C825      1.0  0.47214  0.75332  0.22144  1.0000
  H   H1453     1.0  0.30977  0.95307  0.17335  1.0000
  C   C826      1.0  0.38133  0.66450  0.18027  1.0000
  H   H1454     1.0  0.36593  0.67889  0.00850  1.0000
  H   H1455     1.0  0.45660  0.70157  0.17467  1.0000
  S   S194      1.0  0.11037  0.80206  0.21468  1.0000
  C   C827      1.0  0.06303  0.85310  0.99077  1.0000
  H   H1456     1.0  0.15997  0.98188  0.06299  1.0000
  C   C828      1.0  0.43990  0.73950  0.99189  1.0000
  S   S195      1.0  0.00627  0.87395  0.03088  1.0000
  H   H1457     1.0  0.31550  0.90512  0.20492  1.0000
  H   H1458     1.0  0.26169  0.97815  0.20638  1.0000
  S   S196      1.0  0.19538  0.85030  0.22118  1.0000
  H   H1459     1.0  0.45711  0.77310  0.14411  1.0000
  H   H1460     1.0  0.49127  0.68760  0.19772  1.0000
  H   H1461     1.0  0.00442  0.94216  0.04943  1.0000
  H   H1462     1.0  0.35781  0.68534  0.14477  1.0000
  C   C829      1.0  0.34666  0.67380  0.16968  1.0000
  H   H1463     1.0  0.47291  0.67036  0.02136  1.0000
  S   S197      1.0  0.40062  0.67038  0.08910  1.0000
  H   H1464     1.0  0.44372  0.74462  0.97894  1.0000
  C   C830      1.0  0.46249  0.74033  0.15605  1.0000
  H   H1465     1.0  0.46285  0.72396  0.15179  1.0000
  H   H1466     1.0  0.01880  0.76485  0.21051  1.0000
  H   H1467     1.0  0.04739  0.89282  0.02497  1.0000
  C   C831      1.0  0.02355  0.70941  0.19359  1.0000
  H   H1468     1.0  0.43148  0.75563  0.01373  1.0000
  H   H1469     1.0  0.11287  0.89997  0.97917  1.0000
  H   H1470     1.0  0.48142  0.77643  0.16040  1.0000
  C   C832      1.0  0.02057  0.88829  0.04301  1.0000
  C   C833      1.0  0.33273  0.68479  0.21430  1.0000
  H   H1471     1.0  0.45000  0.73428  0.12576  1.0000
  C   C834      1.0  0.47504  0.68725  0.19348  1.0000
  H   H1472     1.0  0.03292  0.84411  0.00330  1.0000
  H   H1473     1.0  0.46187  0.73220  0.18868  1.0000
  C   C835      1.0  0.40611  0.68043  0.10739  1.0000
  C   C836      1.0  0.27667  0.72618  0.20685  1.0000
  N   N49       1.0  0.42338  0.70430  0.98604  1.0000
  H   H1474     1.0  0.40789  0.67413  0.98759  1.0000
  H   H1475     1.0  0.46259  0.69170  0.20316  1.0000
  H   H1476     1.0  0.17794  0.96251  0.07303  1.0000
  H   H1477     1.0  0.23566  0.81077  0.20831  1.0000
  C   C837      1.0  0.31443  0.86464  0.22179  1.0000
  H   H1478     1.0  0.04711  0.97866  0.03093  1.0000
  C   C838      1.0  0.33604  0.70966  0.15458  1.0000
  H   H1479     1.0  0.28297  0.74256  0.20414  1.0000
  H   H1480     1.0  0.33143  0.71684  0.16610  1.0000
  C   C839      1.0  0.38224  0.69920  0.98884  1.0000
  H   H1481     1.0  0.05582  0.94995  0.98403  1.0000
  H   H1482     1.0  0.44889  0.77022  0.99857  1.0000
  C   C840      1.0  0.17214  0.83672  0.21861  1.0000
  H   H1483     1.0  0.28231  0.95309  0.16856  1.0000
  C   C841      1.0  0.17123  0.97952  0.07249  1.0000
  H   H1484     1.0  0.10830  0.95696  0.11409  1.0000
  H   H1485     1.0  0.18468  0.99042  0.06925  1.0000
  C   C842      1.0  0.30106  0.94309  0.20667  1.0000
  C   C843      1.0  0.46213  0.75659  0.14078  1.0000
  H   H1486     1.0  0.48962  0.72619  0.18929  1.0000
  H   H1487     1.0  0.27505  0.83816  0.13357  1.0000
  C   C844      1.0  0.28730  0.93968  0.19283  1.0000
  H   H1488     1.0  0.01602  0.98989  0.04916  1.0000
  H   H1489     1.0  0.30213  0.68276  0.20495  1.0000
  C   C845      1.0  0.35390  0.69189  0.15658  1.0000
  H   H1490     1.0  0.22516  0.78985  0.12483  1.0000
  H   H1491     1.0  0.34909  0.68991  0.99309  1.0000
  H   H1492     1.0  0.28812  0.84712  0.14946  1.0000
  H   H1493     1.0  0.20637  0.73069  0.21561  1.0000
  H   H1494     1.0  0.40939  0.66679  0.20406  1.0000
  S   S198      1.0  0.44732  0.76233  0.21303  1.0000
  H   H1495     1.0  0.14712  0.97183  0.09173  1.0000
  H   H1496     1.0  0.31826  0.94319  0.20161  1.0000
  H   H1497     1.0  0.34137  0.68138  0.18098  1.0000
  H   H1498     1.0  0.32716  0.78662  0.16046  1.0000
  H   H1499     1.0  0.32248  0.75848  0.16033  1.0000
  C   C846      1.0  0.47654  0.72640  0.18130  1.0000
  N   N50       1.0  0.26172  0.80870  0.16038  1.0000
  C   C847      1.0  0.28566  0.80325  0.15783  1.0000
  C   C848      1.0  0.25726  0.83296  0.15790  1.0000
  C   C849      1.0  0.25427  0.80122  0.17762  1.0000
  C   C850      1.0  0.24916  0.79723  0.14970  1.0000
  C   C851      1.0  0.25504  0.80142  0.13137  1.0000
  C   C852      1.0  0.29325  0.77931  0.16201  1.0000
  C   C853      1.0  0.23044  0.80739  0.18342  1.0000
  C   C854      1.0  0.27217  0.84587  0.14492  1.0000
  C   C855      1.0  0.26274  0.86884  0.14098  1.0000
  C   C856      1.0  0.24284  0.78693  0.12221  1.0000
  C   C857      1.0  0.31690  0.77511  0.15594  1.0000
  H   H1500     1.0  0.29430  0.81304  0.16524  1.0000
  H   H1501     1.0  0.29216  0.80798  0.14530  1.0000
  H   H1502     1.0  0.24028  0.83682  0.15520  1.0000
  H   H1503     1.0  0.25888  0.84044  0.16921  1.0000
  H   H1504     1.0  0.26461  0.80762  0.18585  1.0000
  H   H1505     1.0  0.25617  0.78331  0.17982  1.0000
  H   H1506     1.0  0.25025  0.77948  0.15304  1.0000
  H   H1507     1.0  0.23171  0.80203  0.15166  1.0000
  H   H1508     1.0  0.27244  0.79813  0.12798  1.0000
  H   H1509     1.0  0.25025  0.81837  0.12722  1.0000
  H   H1510     1.0  0.29185  0.77535  0.17527  1.0000
  H   H1511     1.0  0.28371  0.76808  0.15659  1.0000
  H   H1512     1.0  0.21928  0.79864  0.17727  1.0000
  H   H1513     1.0  0.22652  0.82496  0.18115  1.0000
  C   C858      1.0  0.99723  0.88264  0.98485  1.0000
  H   H1514     1.0  0.42938  0.75102  0.13602  1.0000
  H   H1515     1.0  0.20854  0.80541  0.20521  1.0000
  C   C859      1.0  0.22579  0.80140  0.20148  1.0000
  H   H1516     1.0  0.32165  0.70307  0.15050  1.0000
  C   C860      1.0  0.42062  0.72465  0.99454  1.0000
  H   H1517     1.0  0.08217  0.96732  0.10873  1.0000
  H   H1518     1.0  0.47819  0.75695  0.13384  1.0000
  H   H1519     1.0  0.12894  0.83895  0.19665  1.0000
  C   C861      1.0  0.29266  0.95562  0.17814  1.0000
  H   H1520     1.0  0.00055  0.70632  0.16935  1.0000
  H   H1521     1.0  0.41692  0.72074  0.00773  1.0000
  H   H1522     1.0  0.07700  0.95671  0.99539  1.0000
  H   H1523     1.0  0.22923  0.78384  0.20458  1.0000
  H   H1524     1.0  0.37794  0.71425  0.99474  1.0000
  C   C862      1.0  0.34698  0.67546  0.22515  1.0000
  H   H1525     1.0  0.40636  0.73471  0.99064  1.0000
  C   C863      1.0  0.44589  0.75067  0.12972  1.0000
  C   C864      1.0  0.13966  0.83312  0.20563  1.0000
  H   H1526     1.0  0.48303  0.68752  0.00406  1.0000
  H   H1527     1.0  0.42426  0.67065  0.18436  1.0000
  H   H1528     1.0  0.26994  0.94250  0.19670  1.0000
  H   H1529     1.0  0.40473  0.68664  0.00563  1.0000
  H   H1530     1.0  0.42070  0.76936  0.99596  1.0000
  C   C865      1.0  0.47963  0.73158  0.22300  1.0000
  H   H1531     1.0  0.27683  0.71863  0.19541  1.0000
  H   H1532     1.0  0.47256  0.67052  0.19085  1.0000
  H   H1533     1.0  0.46384  0.76845  0.17769  1.0000
  H   H1534     1.0  0.45829  0.70112  0.98319  1.0000
  H   H1535     1.0  0.99590  0.93573  0.08553  1.0000
  H   H1536     1.0  0.03441  0.70421  0.18322  1.0000
  H   H1537     1.0  0.47974  0.78564  0.22506  1.0000
  H   H1538     1.0  0.07066  0.85341  0.00213  1.0000
  H   H1539     1.0  0.46981  0.71941  0.21971  1.0000
  H   H1540     1.0  0.09124  0.97344  0.12740  1.0000
  C   C866      1.0  0.24336  0.70564  0.21756  1.0000
  H   H1541     1.0  0.03163  0.70494  0.20475  1.0000
  C   C867      1.0  0.09644  0.97102  0.11464  1.0000
  N   N51       1.0  0.29867  0.92693  0.22133  1.0000
  H   H1542     1.0  0.49368  0.80508  0.17628  1.0000
  H   H1543     1.0  0.08373  0.94428  0.97701  1.0000
  H   H1544     1.0  0.44666  0.74246  0.16328  1.0000
  C   C868      1.0  0.25390  0.72785  0.21531  1.0000
  H   H1545     1.0  0.06131  0.98934  0.98016  1.0000
  H   H1546     1.0  0.44585  0.69950  0.01422  1.0000
  H   H1547     1.0  0.47747  0.79427  0.19398  1.0000
  C   C869      1.0  0.44441  0.69201  0.98907  1.0000
  H   H1548     1.0  0.10873  0.97852  0.99986  1.0000
  H   H1549     1.0  0.38985  0.67636  0.17151  1.0000
  C   C870      1.0  0.47304  0.70271  0.17832  1.0000
  H   H1550     1.0  0.02084  0.72725  0.19212  1.0000
  C   C871      1.0  0.44808  0.68549  0.00695  1.0000
  C   C872      1.0  0.49336  0.79279  0.18683  1.0000
  H   H1551     1.0  0.17138  0.98121  0.09780  1.0000
  H   H1552     1.0  0.25572  0.69296  0.22150  1.0000
  H   H1553     1.0  0.00597  0.68075  0.19554  1.0000
  C   C873      1.0  0.10620  0.99136  0.10593  1.0000
  H   H1554     1.0  0.00219  0.88426  0.99698  1.0000
  C   C874      1.0  0.00220  0.69842  0.19483  1.0000
  H   H1555     1.0  0.29648  0.95975  0.20988  1.0000
  H   H1556     1.0  0.37491  0.67360  0.19067  1.0000
  C   C875      1.0  0.99949  0.81997  0.99113  1.0000
  C   C876      1.0  0.03850  0.96637  0.03922  1.0000
  C   C877      1.0  0.20913  0.68776  0.22259  1.0000
  H   H1557     1.0  0.06710  0.83711  0.98614  1.0000
  H   H1558     1.0  0.28904  0.89808  0.21198  1.0000
  H   H1559     1.0  0.00635  0.89477  0.97669  1.0000
  H   H1560     1.0  0.06980  0.86599  0.98193  1.0000
  H   H1561     1.0  0.11050  0.98837  0.09325  1.0000
  H   H1562     1.0  0.29784  0.85988  0.22075  1.0000
  H   H1563     1.0  0.26444  0.92472  0.22048  1.0000
  H   H1564     1.0  0.32392  0.86450  0.20988  1.0000
  C   C878      1.0  0.07229  0.95596  0.98307  1.0000
  S   S199      1.0  0.37245  0.68591  0.22585  1.0000
  H   H1565     1.0  0.04715  0.96321  0.05021  1.0000
  H   H1566     1.0  0.24414  0.73966  0.20780  1.0000
  C   C879      1.0  0.23391  0.97788  0.22364  1.0000
  C   C880      1.0  0.30373  0.90452  0.21585  1.0000
  H   H1567     1.0  0.28755  0.71646  0.21481  1.0000
  H   H1568     1.0  0.17351  0.75390  0.22500  1.0000
  H   H1569     1.0  0.99668  0.84777  0.00513  1.0000
  N   N52       1.0  0.00313  0.86013  0.98012  1.0000
  C   C881      1.0  0.12060  0.91511  0.97637  1.0000
  C   C882      1.0  0.02737  0.85689  0.97836  1.0000
  Fe  Fe101     1.0  0.02418  0.86445  0.39660  1.0000
  S   S200      1.0  0.05013  0.83843  0.40103  1.0000
  Fe  Fe102     1.0  0.05589  0.89764  0.38322  1.0000
  S   S201      1.0  0.08437  0.87428  0.38641  1.0000
  S   S202      1.0  0.05734  0.93299  0.37439  1.0000
  Fe  Fe103     1.0  0.06497  0.85040  0.37623  1.0000
  S   S203      1.0  0.08029  0.82628  0.35866  1.0000
  Fe  Fe104     1.0  0.06697  0.86449  0.41069  1.0000
  S   S204      1.0  0.08487  0.86277  0.43315  1.0000
  S   S205      1.0  0.03767  0.87470  0.37137  1.0000
  S   S206      1.0  0.03993  0.88951  0.40790  1.0000
  S   S207      1.0  0.02396  0.73860  0.24153  1.0000
  Fe  Fe105     1.0  0.10349  0.73647  0.25664  1.0000
  C   C883      1.0  0.18795  0.72602  0.23882  1.0000
  S   S208      1.0  0.13284  0.71366  0.26361  1.0000
  Fe  Fe106     1.0  0.07707  0.77637  0.27014  1.0000
  S   S209      1.0  0.06299  0.78536  0.24649  1.0000
  S   S210      1.0  0.06615  0.80173  0.28807  1.0000
  Fe  Fe107     1.0  0.05761  0.75018  0.24576  1.0000
  H   H1570     1.0  0.02096  0.96287  0.40131  1.0000
  H   H1571     1.0  0.05336  0.78679  0.36452  1.0000
  C   C884      1.0  0.31148  0.95472  0.23898  1.0000
  S   S211      1.0  0.07029  0.74113  0.27022  1.0000
  S   S212      1.0  0.11069  0.77134  0.25823  1.0000
  H   H1572     1.0  0.48824  0.69633  0.25771  1.0000
  Fe  Fe108     1.0  0.09635  0.77820  0.23483  1.0000
  C   C885      1.0  0.02191  0.79283  0.37754  1.0000
  C   C886      1.0  0.07843  0.98199  0.39586  1.0000
  H   H1573     1.0  0.49192  0.70751  0.31272  1.0000
  H   H1574     1.0  0.04615  0.95887  0.42197  1.0000
  H   H1575     1.0  0.30481  0.88612  0.23989  1.0000
  C   C887      1.0  0.12523  0.86013  0.29657  1.0000
  H   H1576     1.0  0.04121  0.85343  0.44679  1.0000
  C   C888      1.0  0.09568  0.91827  0.45404  1.0000
  C   C889      1.0  0.08420  0.86388  0.46588  1.0000
  H   H1577     1.0  0.31422  0.96777  0.22912  1.0000
  H   H1578     1.0  0.09428  0.81903  0.25415  1.0000
  C   C890      1.0  0.47731  0.70575  0.26600  1.0000
  C   C891      1.0  0.14769  0.68873  0.25963  1.0000
  H   H1579     1.0  0.46896  0.70719  0.29162  1.0000
  C   C892      1.0  0.07587  0.81967  0.33906  1.0000
  C   C893      1.0  0.06304  0.83290  0.32891  1.0000
  C   C894      1.0  0.06026  0.82706  0.31345  1.0000
  C   C895      1.0  0.07032  0.80798  0.30781  1.0000
  C   C896      1.0  0.08328  0.79483  0.31789  1.0000
  C   C897      1.0  0.08605  0.80067  0.33336  1.0000
  H   H1580     1.0  0.05576  0.84791  0.33281  1.0000
  H   H1581     1.0  0.05035  0.83750  0.30574  1.0000
  H   H1582     1.0  0.09109  0.78008  0.31383  1.0000
  H   H1583     1.0  0.09612  0.79033  0.34102  1.0000
  C   C898      1.0  0.06934  0.94756  0.38764  1.0000
  C   C899      1.0  0.06834  0.97022  0.38559  1.0000
  H   H1584     1.0  0.34430  0.95518  0.24564  1.0000
  C   C900      1.0  0.08958  0.97111  0.40816  1.0000
  C   C901      1.0  0.09048  0.94849  0.41022  1.0000
  C   C902      1.0  0.08033  0.93672  0.40004  1.0000
  H   H1585     1.0  0.05969  0.97866  0.37610  1.0000
  H   H1586     1.0  0.17313  0.69488  0.27379  1.0000
  H   H1587     1.0  0.09918  0.93999  0.41966  1.0000
  H   H1588     1.0  0.08122  0.91925  0.40172  1.0000
  C   C903      1.0  0.07218  0.86079  0.45309  1.0000
  H   H1589     1.0  0.33129  0.93055  0.22652  1.0000
  C   C904      1.0  0.05043  0.85649  0.45646  1.0000
  H   H1590     1.0  0.13481  0.87418  0.29187  1.0000
  C   C905      1.0  0.13119  0.93043  0.35849  1.0000
  H   H1591     1.0  0.18718  0.76059  0.24173  1.0000
  H   H1592     1.0  0.15375  0.81420  0.28992  1.0000
  C   C906      1.0  0.13903  0.78387  0.29193  1.0000
  H   H1593     1.0  0.10113  0.86687  0.46343  1.0000
  H   H1594     1.0  0.47968  0.72320  0.26271  1.0000
  H   H1595     1.0  0.09173  0.84315  0.22875  1.0000
  H   H1596     1.0  0.00475  0.91554  0.43243  1.0000
  S   S213      1.0  0.10185  0.98525  0.42152  1.0000
  C   C907      1.0  0.01692  0.81587  0.36930  1.0000
  H   H1597     1.0  0.10973  0.95466  0.36969  1.0000
  H   H1598     1.0  0.02950  0.81937  0.35924  1.0000
  H   H1599     1.0  0.48191  0.67054  0.31162  1.0000
  H   H1600     1.0  0.03363  0.93411  0.42080  1.0000
  C   C908      1.0  0.05804  0.93433  0.44948  1.0000
  C   C909      1.0  0.10967  0.86704  0.31059  1.0000
  C   C910      1.0  0.22755  0.69556  0.24544  1.0000
  H   H1601     1.0  0.47853  0.68130  0.28583  1.0000
  H   H1602     1.0  0.06304  0.92910  0.43729  1.0000
  C   C911      1.0  0.00461  0.85328  0.34421  1.0000
  C   C912      1.0  0.48159  0.69879  0.28374  1.0000
  H   H1603     1.0  0.21013  0.98590  0.33956  1.0000
  C   C913      1.0  0.32747  0.95721  0.25119  1.0000
  H   H1604     1.0  0.25500  0.73459  0.22687  1.0000
  H   H1605     1.0  0.01869  0.78736  0.31579  1.0000
  H   H1606     1.0  0.27101  0.94636  0.23056  1.0000
  H   H1607     1.0  0.17655  0.71505  0.23504  1.0000
  H   H1608     1.0  0.06611  0.90439  0.46426  1.0000
  H   H1609     1.0  0.11042  0.81110  0.27630  1.0000
  H   H1610     1.0  0.00151  0.84585  0.33328  1.0000
  H   H1611     1.0  0.44253  0.71143  0.27075  1.0000
  H   H1612     1.0  0.11994  0.89796  0.35996  1.0000
  C   C914      1.0  0.31462  0.93206  0.23258  1.0000
  H   H1613     1.0  0.10437  0.86771  0.27783  1.0000
  C   C915      1.0  0.00232  0.74353  0.22873  1.0000
  S   S214      1.0  0.09048  0.74334  0.23232  1.0000
  C   C916      1.0  0.45421  0.70180  0.26307  1.0000
  H   H1614     1.0  0.21244  0.69204  0.25311  1.0000
  H   H1615     1.0  0.09392  0.98815  0.35699  1.0000
  H   H1616     1.0  0.01082  0.98197  0.37716  1.0000
  H   H1617     1.0  0.17507  0.89593  0.25330  1.0000
  H   H1618     1.0  0.45167  0.70686  0.25030  1.0000
  H   H1619     1.0  0.14262  0.92558  0.36760  1.0000
  H   H1620     1.0  0.01179  0.97995  0.41703  1.0000
  H   H1621     1.0  0.16704  0.97752  0.46710  1.0000
  H   H1622     1.0  0.00544  0.94988  0.44438  1.0000
  C   C917      1.0  0.15226  0.95570  0.38656  1.0000
  C   C918      1.0  0.15909  0.96562  0.34991  1.0000
  H   H1623     1.0  0.01445  0.78029  0.37179  1.0000
  H   H1624     1.0  0.14087  0.94261  0.38956  1.0000
  H   H1625     1.0  0.03955  0.90294  0.44188  1.0000
  H   H1626     1.0  0.11341  0.86349  0.25133  1.0000
  H   H1627     1.0  0.32505  0.97362  0.25541  1.0000
  C   C919      1.0  0.24729  0.92079  0.25193  1.0000
  C   C920      1.0  0.13730  0.80858  0.28994  1.0000
  C   C921      1.0  0.14839  0.80736  0.22784  1.0000
  H   H1628     1.0  0.23698  0.67976  0.24535  1.0000
  H   H1629     1.0  0.16624  0.94972  0.35444  1.0000
  H   H1630     1.0  0.25735  0.71077  0.24821  1.0000
  C   C922      1.0  0.17706  0.98183  0.34938  1.0000
  C   C923      1.0  0.11316  0.91470  0.36120  1.0000
  C   C924      1.0  0.02779  0.91046  0.45086  1.0000
  H   H1631     1.0  0.07841  0.86410  0.24029  1.0000
  H   H1632     1.0  0.02899  0.89946  0.46208  1.0000
  C   C925      1.0  0.20977  0.72533  0.22821  1.0000
  C   C926      1.0  0.27575  0.92917  0.22880  1.0000
  H   H1633     1.0  0.01001  0.88425  0.33052  1.0000
  H   H1634     1.0  0.10233  0.93438  0.45058  1.0000
  H   H1635     1.0  0.31447  0.92016  0.24333  1.0000
  H   H1636     1.0  0.23546  0.91703  0.24372  1.0000
  H   H1637     1.0  0.05414  0.79874  0.38321  1.0000
  C   C927      1.0  0.31379  0.88701  0.22783  1.0000
  H   H1638     1.0  0.02188  0.85096  0.34609  1.0000
  C   C928      1.0  0.15914  0.98278  0.44281  1.0000
  H   H1639     1.0  0.12546  0.67731  0.24490  1.0000
  C   C929      1.0  0.09278  0.83680  0.25467  1.0000
  H   H1640     1.0  0.10112  0.91877  0.35234  1.0000
  H   H1641     1.0  0.23316  0.72675  0.25429  1.0000
  C   C930      1.0  0.17982  0.66431  0.26362  1.0000
  H   H1642     1.0  0.12565  0.97839  0.38358  1.0000
  H   H1643     1.0  0.00163  0.88619  0.35148  1.0000
  H   H1644     1.0  0.19435  0.68492  0.23089  1.0000
  H   H1645     1.0  0.12119  0.99450  0.45967  1.0000
  C   C931      1.0  0.08161  0.84639  0.24000  1.0000
  H   H1646     1.0  0.20405  0.95822  0.34572  1.0000
  H   H1647     1.0  0.28119  0.91793  0.25396  1.0000
  H   H1648     1.0  0.25230  0.71152  0.27748  1.0000
  H   H1649     1.0  0.16547  0.94827  0.40952  1.0000
  C   C932      1.0  0.00446  0.97271  0.36823  1.0000
  H   H1650     1.0  0.10099  0.85296  0.31653  1.0000
  C   C933      1.0  0.27026  0.91529  0.24484  1.0000
  H   H1651     1.0  0.14371  0.96862  0.40961  1.0000
  H   H1652     1.0  0.22610  0.70075  0.27831  1.0000
  C   C934      1.0  0.15826  0.96244  0.40244  1.0000
  H   H1653     1.0  0.16727  0.94927  0.38014  1.0000
  H   H1654     1.0  0.10496  0.91529  0.37351  1.0000
  H   H1655     1.0  0.27112  0.89794  0.24277  1.0000
  H   H1656     1.0  0.11878  0.87333  0.31965  1.0000
  C   C935      1.0  0.04074  0.85565  0.47240  1.0000
  C   C936      1.0  0.17364  0.87956  0.25978  1.0000
  C   C937      1.0  0.14134  0.97487  0.37662  1.0000
  C   C938      1.0  0.16741  0.68368  0.26636  1.0000
  C   C939      1.0  0.12208  0.95416  0.35919  1.0000
  C   C940      1.0  0.04604  0.78699  0.37712  1.0000
  H   H1657     1.0  0.11287  0.95747  0.34842  1.0000
  C   C941      1.0  0.02321  0.95053  0.44275  1.0000
  H   H1658     1.0  0.14620  0.77814  0.30327  1.0000
  H   H1659     1.0  0.13647  0.84728  0.30146  1.0000
  H   H1660     1.0  0.02635  0.96673  0.44631  1.0000
  H   H1661     1.0  0.17777  0.81235  0.23806  1.0000
  H   H1662     1.0  0.49146  0.73638  0.28598  1.0000
  H   H1663     1.0  0.13545  0.80874  0.26425  1.0000
  H   H1664     1.0  0.99540  0.95160  0.47031  1.0000
  H   H1665     1.0  0.12282  0.77731  0.29253  1.0000
  H   H1666     1.0  0.45105  0.68439  0.26561  1.0000
  N   N53       1.0  0.12610  0.84122  0.27006  1.0000
  H   H1667     1.0  0.14872  0.87245  0.24574  1.0000
  C   C942      1.0  0.16712  0.81825  0.22901  1.0000
  H   H1668     1.0  0.24509  0.93820  0.25393  1.0000
  H   H1669     1.0  0.19035  0.72155  0.25165  1.0000
  C   C943      1.0  0.12692  0.81708  0.27440  1.0000
  H   H1670     1.0  0.15849  0.83763  0.25846  1.0000
  H   H1671     1.0  0.15743  0.84656  0.27769  1.0000
  H   H1672     1.0  0.12703  0.81382  0.30058  1.0000
  H   H1673     1.0  0.15042  0.98960  0.37694  1.0000
  H   H1674     1.0  0.14476  0.79314  0.23590  1.0000
  H   H1675     1.0  0.14556  0.96193  0.46249  1.0000
  H   H1676     1.0  0.06274  0.95139  0.44895  1.0000
  H   H1677     1.0  0.02400  0.85197  0.47490  1.0000
  C   C944      1.0  0.15229  0.97814  0.46072  1.0000
  C   C945      1.0  0.19771  0.97384  0.33991  1.0000
  H   H1678     1.0  0.14940  0.77746  0.28174  1.0000
  H   H1679     1.0  0.00552  0.95517  0.37234  1.0000
  H   H1680     1.0  0.32211  0.85248  0.23035  1.0000
  N   N54       1.0  0.13808  0.97133  0.35953  1.0000
  C   C946      1.0  0.14888  0.84838  0.26667  1.0000
  H   H1681     1.0  0.03558  0.95282  0.47288  1.0000
  H   H1682     1.0  0.24391  0.91105  0.26362  1.0000
  C   C947      1.0  0.24235  0.70110  0.27159  1.0000
  H   H1683     1.0  0.13976  0.92840  0.34644  1.0000
  C   C948      1.0  0.01447  0.96292  0.41410  1.0000
  H   H1684     1.0  0.32495  0.94512  0.26178  1.0000
  H   H1685     1.0  0.18109  0.98407  0.36164  1.0000
  C   C949      1.0  0.22248  0.98942  0.23573  1.0000
  H   H1686     1.0  0.12576  0.83922  0.24446  1.0000
  H   H1687     1.0  0.02183  0.78855  0.34448  1.0000
  H   H1688     1.0  0.17660  0.88039  0.27251  1.0000
  H   H1689     1.0  0.13907  0.88326  0.26437  1.0000
  C   C950      1.0  0.07229  0.92067  0.46122  1.0000
  C   C951      1.0  0.00406  0.79144  0.32384  1.0000
  H   H1690     1.0  0.18613  0.86847  0.25410  1.0000
  C   C952      1.0  0.15116  0.87182  0.25871  1.0000
  H   H1691     1.0  0.29506  0.95737  0.24506  1.0000
  H   H1692     1.0  0.08223  0.84045  0.26561  1.0000
  C   C953      1.0  0.14056  0.67387  0.25016  1.0000
  C   C954      1.0  0.11292  0.85279  0.28306  1.0000
  H   H1693     1.0  0.17015  0.97516  0.40025  1.0000
  H   H1694     1.0  0.17081  0.96981  0.43870  1.0000
  H   H1695     1.0  0.09780  0.87990  0.30640  1.0000
  H   H1696     1.0  0.16141  0.74875  0.24526  1.0000
  H   H1697     1.0  0.04883  0.77068  0.38346  1.0000
  C   C955      1.0  0.11537  0.84576  0.25462  1.0000
  H   H1698     1.0  0.09975  0.84254  0.28884  1.0000
  C   C956      1.0  0.03073  0.95070  0.42455  1.0000
  H   H1699     1.0  0.15607  0.96379  0.33728  1.0000
  N   N55       1.0  0.03395  0.93295  0.45340  1.0000
  H   H1700     1.0  0.01952  0.82750  0.37807  1.0000
  C   C957      1.0  0.17696  0.74874  0.23757  1.0000
  C   C958      1.0  0.02869  0.93739  0.47076  1.0000
  C   C959      1.0  0.24068  0.71016  0.25414  1.0000
  H   H1701     1.0  0.01145  0.87595  0.43741  1.0000
  H   H1702     1.0  0.09681  0.90904  0.44330  1.0000
  H   H1703     1.0  0.10556  0.90922  0.46303  1.0000
  H   H1704     1.0  0.01524  0.79197  0.39036  1.0000
  H   H1705     1.0  0.22354  0.66291  0.29213  1.0000
  H   H1706     1.0  0.19470  0.97180  0.32735  1.0000
  H   H1707     1.0  0.33065  0.89068  0.22916  1.0000
  C   C960      1.0  0.12887  0.99224  0.35150  1.0000
  C   C961      1.0  0.00518  0.90842  0.44504  1.0000
  H   H1708     1.0  0.20772  0.98326  0.24180  1.0000
  H   H1709     1.0  0.21902  0.73823  0.23194  1.0000
  H   H1710     1.0  0.06602  0.83881  0.23997  1.0000
  H   H1711     1.0  0.25011  0.68450  0.27215  1.0000
  C   C962      1.0  0.99960  0.88482  0.44546  1.0000
  H   H1712     1.0  0.99894  0.95490  0.41574  1.0000
  H   H1713     1.0  0.19506  0.66404  0.29835  1.0000
  H   H1714     1.0  0.02010  0.81499  0.33435  1.0000
  H   H1715     1.0  0.99937  0.87669  0.45784  1.0000
  C   C963      1.0  0.01069  0.80078  0.33862  1.0000
  H   H1716     1.0  0.14494  0.98340  0.43580  1.0000
  H   H1717     1.0  0.12846  0.99100  0.33839  1.0000
  H   H1718     1.0  0.01479  0.97534  0.35672  1.0000
  N   N56       1.0  0.22269  0.70388  0.22865  1.0000
  H   H1719     1.0  0.07222  0.92856  0.47252  1.0000
  C   C964      1.0  0.99926  0.87755  0.34092  1.0000
  H   H1720     1.0  0.99573  0.89547  0.38111  1.0000
  C   C965      1.0  0.48523  0.76877  0.22610  1.0000
  C   C966      1.0  0.13526  0.99563  0.46662  1.0000
  H   H1721     1.0  0.99532  0.77648  0.32741  1.0000
  Fe  Fe109     1.0  0.08581  0.89642  0.53998  1.0000
  S   S215      1.0  0.08045  0.86076  0.54082  1.0000
  S   S216      1.0  0.12003  0.90623  0.53486  1.0000
  Fe  Fe110     1.0  0.03850  0.90893  0.54644  1.0000
  S   S217      1.0  0.02998  0.87448  0.54798  1.0000
  Fe  Fe111     1.0  0.05792  0.86662  0.56287  1.0000
  S   S218      1.0  0.04996  0.84694  0.58714  1.0000
  Fe  Fe112     1.0  0.05310  0.87209  0.52584  1.0000
  S   S219      1.0  0.03942  0.85886  0.50489  1.0000
  S   S220      1.0  0.06499  0.90168  0.56270  1.0000
  S   S221      1.0  0.06009  0.90716  0.52359  1.0000
  H   H1722     1.0  0.49041  0.70512  0.69624  1.0000
  Fe  Fe113     1.0  0.10353  0.77798  0.66207  1.0000
  S   S222      1.0  0.08436  0.79484  0.68173  1.0000
  S   S223      1.0  0.11067  0.79343  0.63618  1.0000
  Fe  Fe114     1.0  0.11598  0.73827  0.68520  1.0000
  S   S224      1.0  0.13531  0.70652  0.69283  1.0000
  Fe  Fe115     1.0  0.07033  0.76250  0.68972  1.0000
  H   H1723     1.0  0.44734  0.68739  0.69714  1.0000
  Fe  Fe116     1.0  0.11145  0.78358  0.69683  1.0000
  C   C967      1.0  0.48915  0.69682  0.68522  1.0000
  S   S225      1.0  0.08862  0.74584  0.66921  1.0000
  S   S226      1.0  0.13198  0.76916  0.67672  1.0000
  H   H1724     1.0  0.33646  0.80247  0.70309  1.0000
  C   C968      1.0  0.37714  0.78455  0.70569  1.0000
  H   H1725     1.0  0.28248  0.78806  0.72381  1.0000
  H   H1726     1.0  0.29513  0.75067  0.67420  1.0000
  H   H1727     1.0  0.17785  0.75556  0.69088  1.0000
  H   H1728     1.0  0.49051  0.66607  0.63697  1.0000
  C   C969      1.0  0.16811  0.67479  0.69638  1.0000
  H   H1729     1.0  0.00641  0.86595  0.57906  1.0000
  H   H1730     1.0  0.22251  0.74578  0.68956  1.0000
  H   H1731     1.0  0.35463  0.76898  0.69381  1.0000
  H   H1732     1.0  0.04618  0.98153  0.53390  1.0000
  H   H1733     1.0  0.06661  0.97097  0.55746  1.0000
  C   C970      1.0  0.07438  0.86363  0.48177  1.0000
  S   S227      1.0  0.12287  0.80029  0.71712  1.0000
  H   H1734     1.0  0.10261  0.93505  0.50519  1.0000
  C   C971      1.0  0.32593  0.67848  0.70711  1.0000
  C   C972      1.0  0.44902  0.70422  0.69156  1.0000
  H   H1735     1.0  0.48687  0.67954  0.68940  1.0000
  C   C973      1.0  0.28307  0.76239  0.67965  1.0000
  H   H1736     1.0  0.14663  0.74877  0.70946  1.0000
  H   H1737     1.0  0.00261  0.82847  0.72016  1.0000
  H   H1738     1.0  0.19530  0.94386  0.67972  1.0000
  C   C974      1.0  0.03606  0.82269  0.71034  1.0000
  C   C975      1.0  0.37804  0.67757  0.55952  1.0000
  C   C976      1.0  0.16031  0.69266  0.68648  1.0000
  H   H1739     1.0  0.38370  0.66954  0.54850  1.0000
  H   H1740     1.0  0.28571  0.74816  0.70361  1.0000
  C   C977      1.0  0.06706  0.83171  0.60045  1.0000
  C   C978      1.0  0.08853  0.82568  0.59569  1.0000
  C   C979      1.0  0.10147  0.81378  0.60673  1.0000
  C   C980      1.0  0.09323  0.80781  0.62268  1.0000
  C   C981      1.0  0.07173  0.81380  0.62743  1.0000
  C   C982      1.0  0.05876  0.82562  0.61637  1.0000
  H   H1741     1.0  0.09509  0.82990  0.58344  1.0000
  H   H1742     1.0  0.11798  0.80903  0.60285  1.0000
  H   H1743     1.0  0.06511  0.80932  0.63962  1.0000
  H   H1744     1.0  0.04221  0.83017  0.62021  1.0000
  C   C983      1.0  0.13018  0.92868  0.54211  1.0000
  C   C984      1.0  0.15254  0.92979  0.54110  1.0000
  C   C985      1.0  0.16171  0.94727  0.54649  1.0000
  C   C986      1.0  0.14866  0.96426  0.55249  1.0000
  C   C987      1.0  0.12617  0.96341  0.55344  1.0000
  C   C988      1.0  0.11690  0.94537  0.54849  1.0000
  H   H1745     1.0  0.16288  0.91694  0.53621  1.0000
  C   C989      1.0  0.14419  0.81794  0.71593  1.0000
  H   H1746     1.0  0.22253  0.93308  0.68227  1.0000
  H   H1747     1.0  0.09962  0.94438  0.54948  1.0000
  H   H1748     1.0  0.08652  0.94712  0.52128  1.0000
  H   H1749     1.0  0.07933  0.95291  0.50100  1.0000
  C   C990      1.0  0.17210  0.69825  0.67174  1.0000
  H   H1750     1.0  0.08375  0.86632  0.49145  1.0000
  H   H1751     1.0  0.43376  0.70991  0.68638  1.0000
  H   H1752     1.0  0.19458  0.72979  0.70784  1.0000
  S   S228      1.0  0.09620  0.75250  0.70608  1.0000
  H   H1753     1.0  0.46828  0.72232  0.67320  1.0000
  H   H1754     1.0  0.20347  0.93600  0.69955  1.0000
  S   S229      1.0  0.01259  0.93561  0.54998  1.0000
  C   C991      1.0  0.33656  0.78804  0.71203  1.0000
  C   C992      1.0  0.21589  0.96624  0.68844  1.0000
  H   H1755     1.0  0.00454  0.83037  0.54694  1.0000
  H   H1756     1.0  0.19733  0.79848  0.66001  1.0000
  H   H1757     1.0  0.14956  0.95998  0.60351  1.0000
  C   C993      1.0  0.30981  0.77244  0.69803  1.0000
  H   H1758     1.0  0.12843  0.95910  0.48681  1.0000
  C   C994      1.0  0.14873  0.99379  0.49312  1.0000
  C   C995      1.0  0.09629  0.85528  0.71412  1.0000
  H   H1759     1.0  0.99950  0.90191  0.53264  1.0000
  C   C996      1.0  0.33843  0.67991  0.71994  1.0000
  H   H1760     1.0  0.26422  0.98512  0.67307  1.0000
  C   C997      1.0  0.05128  0.99451  0.54056  1.0000
  H   H1761     1.0  0.27590  0.84632  0.71059  1.0000
  C   C998      1.0  0.49203  0.75615  0.70969  1.0000
  C   C999      1.0  0.01251  0.75665  0.71078  1.0000
  S   S230      1.0  0.19864  0.86471  0.71417  1.0000
  H   H1762     1.0  0.17019  0.79613  0.66911  1.0000
  H   H1763     1.0  0.36878  0.69283  0.55593  1.0000
  H   H1764     1.0  0.25042  0.99097  0.69159  1.0000
  H   H1765     1.0  0.27420  0.77570  0.70201  1.0000
  H   H1766     1.0  0.19473  0.80142  0.68931  1.0000
  C   C1000     1.0  0.19100  0.68585  0.66686  1.0000
  C   C1001     1.0  0.20048  0.78129  0.71871  1.0000
  H   H1767     1.0  0.25400  0.72309  0.69725  1.0000
  C   C1002     1.0  0.47401  0.74720  0.71900  1.0000
  H   H1768     1.0  0.23637  0.96605  0.66623  1.0000
  C   C1003     1.0  0.11713  0.97332  0.48886  1.0000
  H   H1769     1.0  0.15919  0.67023  0.70780  1.0000
  N   N57       1.0  0.12356  0.89217  0.59567  1.0000
  C   C1004     1.0  0.12095  0.87982  0.58149  1.0000
  C   C1005     1.0  0.10170  0.89844  0.60402  1.0000
  C   C1006     1.0  0.13412  0.91285  0.58922  1.0000
  C   C1007     1.0  0.13781  0.87985  0.60739  1.0000
  C   C1008     1.0  0.13279  0.85606  0.61285  1.0000
  C   C1009     1.0  0.14204  0.87315  0.57134  1.0000
  C   C1010     1.0  0.13753  0.92838  0.60201  1.0000
  C   C1011     1.0  0.08370  0.88228  0.60475  1.0000
  C   C1012     1.0  0.06339  0.88982  0.61484  1.0000
  C   C1013     1.0  0.15003  0.84491  0.62298  1.0000
  C   C1014     1.0  0.13809  0.85634  0.56007  1.0000
  H   H1770     1.0  0.11049  0.88957  0.57313  1.0000
  H   H1771     1.0  0.11235  0.86488  0.58534  1.0000
  H   H1772     1.0  0.10326  0.90197  0.61657  1.0000
  H   H1773     1.0  0.09484  0.91373  0.59791  1.0000
  H   H1774     1.0  0.12458  0.92196  0.57993  1.0000
  H   H1775     1.0  0.15034  0.90939  0.58294  1.0000
  H   H1776     1.0  0.15499  0.87999  0.60237  1.0000
  H   H1777     1.0  0.13721  0.88811  0.61857  1.0000
  H   H1778     1.0  0.13228  0.84651  0.60249  1.0000
  H   H1779     1.0  0.11736  0.85526  0.62052  1.0000
  H   H1780     1.0  0.14840  0.88743  0.56377  1.0000
  H   H1781     1.0  0.15463  0.86606  0.57898  1.0000
  H   H1782     1.0  0.14953  0.92101  0.61011  1.0000
  H   H1783     1.0  0.12232  0.93229  0.60940  1.0000
  H   H1784     1.0  0.07910  0.88087  0.59252  1.0000
  H   H1785     1.0  0.08879  0.86603  0.60992  1.0000
  H   H1786     1.0  0.05720  0.90593  0.60979  1.0000
  H   H1787     1.0  0.05072  0.87814  0.61474  1.0000
  H   H1788     1.0  0.06678  0.89063  0.62749  1.0000
  H   H1789     1.0  0.16599  0.84441  0.61585  1.0000
  H   H1790     1.0  0.15104  0.85341  0.63386  1.0000
  H   H1791     1.0  0.14577  0.82801  0.62692  1.0000
  H   H1792     1.0  0.15315  0.85267  0.55240  1.0000
  H   H1793     1.0  0.13294  0.84113  0.56705  1.0000
  H   H1794     1.0  0.12550  0.86255  0.55210  1.0000
  C   C1015     1.0  0.99612  0.88563  0.59804  1.0000
  H   H1795     1.0  0.45827  0.75548  0.71877  1.0000
  C   C1016     1.0  0.18661  0.78809  0.66839  1.0000
  H   H1796     1.0  0.46408  0.69499  0.66907  1.0000
  H   H1797     1.0  0.19959  0.69009  0.65525  1.0000
  H   H1798     1.0  0.17905  0.94773  0.54586  1.0000
  H   H1799     1.0  0.26159  0.82259  0.71776  1.0000
  H   H1800     1.0  0.11071  0.67283  0.66933  1.0000
  H   H1801     1.0  0.10303  0.85164  0.72590  1.0000
  H   H1802     1.0  0.11604  0.97633  0.55839  1.0000
  C   C1017     1.0  0.05255  0.85953  0.48510  1.0000
  H   H1803     1.0  0.37982  0.78854  0.71791  1.0000
  H   H1804     1.0  0.23462  0.75665  0.70556  1.0000
  H   H1805     1.0  0.37683  0.79964  0.69744  1.0000
  H   H1806     1.0  0.29294  0.81416  0.69841  1.0000
  H   H1807     1.0  0.01538  0.91120  0.60356  1.0000
  H   H1808     1.0  0.06742  0.85311  0.70308  1.0000
  C   C1018     1.0  0.23861  0.72232  0.70510  1.0000
  H   H1809     1.0  0.03589  0.84029  0.70659  1.0000
  H   H1810     1.0  0.17917  0.84653  0.68949  1.0000
  H   H1811     1.0  0.16105  0.94687  0.58621  1.0000
  C   C1019     1.0  0.01677  0.74358  0.72480  1.0000
  C   C1020     1.0  0.17129  0.84023  0.70091  1.0000
  H   H1812     1.0  0.04427  0.81454  0.69997  1.0000
  C   C1021     1.0  0.19865  0.66782  0.67666  1.0000
  C   C1022     1.0  0.29869  0.79450  0.72119  1.0000
  H   H1813     1.0  0.21018  0.97739  0.66380  1.0000
  H   H1814     1.0  0.34017  0.79394  0.72352  1.0000
  H   H1815     1.0  0.02683  0.89685  0.58687  1.0000
  H   H1816     1.0  0.14968  0.82138  0.69014  1.0000
  H   H1817     1.0  0.39223  0.68164  0.56536  1.0000
  H   H1818     1.0  0.16507  0.77918  0.69856  1.0000
  H   H1819     1.0  0.99753  0.92291  0.47646  1.0000
  H   H1820     1.0  0.48458  0.70292  0.64674  1.0000
  H   H1821     1.0  0.18958  0.79622  0.71853  1.0000
  H   H1822     1.0  0.22891  0.96477  0.69659  1.0000
  C   C1023     1.0  0.19505  0.78513  0.68496  1.0000
  C   C1024     1.0  0.00169  0.94293  0.49485  1.0000
  C   C1025     1.0  0.01158  0.90359  0.59287  1.0000
  C   C1026     1.0  0.46778  0.70527  0.67836  1.0000
  C   C1027     1.0  0.29594  0.81647  0.71088  1.0000
  C   C1028     1.0  0.15390  0.74263  0.72066  1.0000
  H   H1823     1.0  0.99737  0.98234  0.54802  1.0000
  C   C1029     1.0  0.28708  0.76447  0.69707  1.0000
  H   H1824     1.0  0.13373  0.95868  0.58698  1.0000
  C   C1030     1.0  0.16982  0.75867  0.72520  1.0000
  C   C1031     1.0  0.20311  0.74243  0.71274  1.0000
  N   N58       1.0  0.31492  0.77807  0.71423  1.0000
  C   C1032     1.0  0.18095  0.77000  0.69697  1.0000
  C   C1033     1.0  0.17774  0.84655  0.71523  1.0000
  H   H1825     1.0  0.05633  0.78524  0.71719  1.0000
  S   S231      1.0  0.03324  0.76482  0.69540  1.0000
  H   H1826     1.0  0.20191  0.97552  0.69412  1.0000
  C   C1034     1.0  0.01204  0.81746  0.71214  1.0000
  C   C1035     1.0  0.15462  0.82596  0.70124  1.0000
  C   C1036     1.0  0.00258  0.82078  0.69593  1.0000
  C   C1037     1.0  0.14601  0.94972  0.59414  1.0000
  H   H1827     1.0  0.32126  0.75930  0.69379  1.0000
  H   H1828     1.0  0.22990  0.70852  0.70201  1.0000
  C   C1038     1.0  0.20888  0.94343  0.68734  1.0000
  S   S232      1.0  0.16138  0.98534  0.55960  1.0000
  C   C1039     1.0  0.09306  0.94991  0.50851  1.0000
  H   H1829     1.0  0.12026  0.96526  0.51448  1.0000
  C   C1040     1.0  0.35610  0.77320  0.70615  1.0000
  H   H1830     1.0  0.26678  0.75647  0.67923  1.0000
  H   H1831     1.0  0.31243  0.78638  0.68880  1.0000
  H   H1832     1.0  0.00659  0.83810  0.60194  1.0000
  H   H1833     1.0  0.08402  0.98077  0.54017  1.0000
  H   H1834     1.0  0.09708  0.98327  0.51047  1.0000
  C   C1041     1.0  0.10724  0.96924  0.50645  1.0000
  H   H1835     1.0  0.16637  0.71180  0.66390  1.0000
  H   H1836     1.0  0.99757  0.99292  0.57578  1.0000
  H   H1837     1.0  0.03636  0.92450  0.47887  1.0000
  H   H1838     1.0  0.00408  0.87391  0.60673  1.0000
  H   H1839     1.0  0.48988  0.77130  0.70238  1.0000
  C   C1042     1.0  0.22361  0.97722  0.67157  1.0000
  H   H1840     1.0  0.28396  0.77832  0.67243  1.0000
  H   H1841     1.0  0.18616  0.77226  0.66344  1.0000
  H   H1842     1.0  0.10628  0.84628  0.70501  1.0000
  H   H1843     1.0  0.10433  0.97221  0.48073  1.0000
  H   H1844     1.0  0.21204  0.77905  0.68344  1.0000
  H   H1845     1.0  0.32462  0.69201  0.69807  1.0000
  H   H1846     1.0  0.01235  0.98808  0.52942  1.0000
  H   H1847     1.0  0.39086  0.77371  0.70137  1.0000
  S   S233      1.0  0.35175  0.70402  0.72085  1.0000
  H   H1848     1.0  0.45153  0.71476  0.70106  1.0000
  H   H1849     1.0  0.24244  0.71932  0.71779  1.0000
  H   H1850     1.0  0.00816  0.95867  0.49648  1.0000
  C   C1043     1.0  0.22507  0.74353  0.70250  1.0000
  H   H1851     1.0  0.07937  0.81553  0.71100  1.0000
  H   H1852     1.0  0.15628  0.97709  0.49465  1.0000
  H   H1853     1.0  0.17318  0.98347  0.51993  1.0000
  H   H1854     1.0  0.25138  0.98136  0.64291  1.0000
  H   H1855     1.0  0.31052  0.82583  0.71058  1.0000
  H   H1856     1.0  0.01103  0.80966  0.68750  1.0000
  H   H1857     1.0  0.09726  0.87284  0.71044  1.0000
  C   C1044     1.0  0.27699  0.83046  0.71788  1.0000
  C   C1045     1.0  0.07076  0.98546  0.54916  1.0000
  H   H1858     1.0  0.00969  0.80056  0.71705  1.0000
  H   H1859     1.0  0.16198  0.72655  0.71892  1.0000
  C   C1046     1.0  0.07286  0.84909  0.71525  1.0000
  H   H1860     1.0  0.02845  0.98770  0.56107  1.0000
  H   H1861     1.0  0.00421  0.91624  0.58449  1.0000
  H   H1862     1.0  0.00504  0.81284  0.62675  1.0000
  H   H1863     1.0  0.32362  0.74393  0.71932  1.0000
  N   N59       1.0  0.04832  0.81709  0.72495  1.0000
  H   H1864     1.0  0.00399  0.83773  0.69056  1.0000
  H   H1865     1.0  0.35749  0.75799  0.71414  1.0000
  H   H1866     1.0  0.01005  0.92988  0.50234  1.0000
  N   N60       1.0  0.18910  0.76310  0.71319  1.0000
  H   H1867     1.0  0.21468  0.78566  0.71030  1.0000
  H   H1868     1.0  0.35806  0.67170  0.58166  1.0000
  N   N61       1.0  0.12855  0.99400  0.48449  1.0000
  C   C1047     1.0  0.07088  0.82466  0.72070  1.0000
  H   H1869     1.0  0.06323  0.85926  0.72377  1.0000
  C   C1048     1.0  0.00458  0.93855  0.47714  1.0000
  H   H1870     1.0  0.20606  0.73562  0.72514  1.0000
  H   H1871     1.0  0.13471  0.99468  0.51851  1.0000
  C   C1049     1.0  0.36368  0.66287  0.57106  1.0000
  C   C1050     1.0  0.18716  0.66256  0.69159  1.0000
  C   C1051     1.0  0.31672  0.75790  0.72584  1.0000
  Fe  Fe117     1.0  0.10308  0.91467  0.89673  1.0000
  S   S234      1.0  0.13772  0.91098  0.90226  1.0000
  S   S235      1.0  0.08249  0.88573  0.90072  1.0000
  Fe  Fe118     1.0  0.10583  0.96217  0.88574  1.0000
  S   S236      1.0  0.14058  0.96216  0.89007  1.0000
  H   H1872     1.0  0.28177  0.75171  0.72921  1.0000
  Fe  Fe119     1.0  0.14441  0.93087  0.87845  1.0000
  S   S237      1.0  0.17387  0.92287  0.86104  1.0000
  Fe  Fe120     1.0  0.13072  0.94239  0.91341  1.0000
  S   S238      1.0  0.14170  0.95354  0.93619  1.0000
  S   S239      1.0  0.11016  0.93249  0.87239  1.0000
  S   S240      1.0  0.09558  0.94449  0.90961  1.0000
  H   H1873     1.0  0.17080  0.87610  0.88149  1.0000
  H   H1874     1.0  0.04741  0.85754  0.90430  1.0000
  C   C1052     1.0  0.07537  0.91591  0.84256  1.0000
  H   H1875     1.0  0.05915  0.92299  0.88585  1.0000
  Fe  Fe121     1.0  0.37730  0.75283  0.75571  1.0000
  C   C1053     1.0  0.03796  0.82835  0.73914  1.0000
  S   S241      1.0  0.36288  0.78791  0.75398  1.0000
  Fe  Fe122     1.0  0.38431  0.70890  0.77532  1.0000
  S   S242      1.0  0.39867  0.69296  0.75342  1.0000
  H   H1876     1.0  0.16497  0.99027  0.83099  1.0000
  Fe  Fe123     1.0  0.41803  0.72275  0.74749  1.0000
  H   H1877     1.0  0.38094  0.70268  0.97577  1.0000
  Fe  Fe124     1.0  0.37245  0.71137  0.74032  1.0000
  H   H1878     1.0  0.30322  0.79811  0.73307  1.0000
  S   S243      1.0  0.40450  0.73792  0.77007  1.0000
  S   S244      1.0  0.35642  0.72496  0.76251  1.0000
  Fe  Fe125     1.0  0.20567  0.88934  0.77054  1.0000
  S   S245      1.0  0.20311  0.90775  0.74616  1.0000
  S   S246      1.0  0.17733  0.89650  0.78917  1.0000
  Fe  Fe126     1.0  0.24733  0.86303  0.75874  1.0000
  S   S247      1.0  0.26709  0.83140  0.76616  1.0000
  H   H1879     1.0  0.06679  0.91707  0.85471  1.0000
  Fe  Fe127     1.0  0.21207  0.87587  0.73605  1.0000
  C   C1054     1.0  0.04300  0.98200  0.90798  1.0000
  S   S248      1.0  0.24103  0.89411  0.77094  1.0000
  S   S249      1.0  0.21177  0.85716  0.76024  1.0000
  H   H1880     1.0  0.02194  0.92781  0.87761  1.0000
  H   H1881     1.0  0.06429  0.75011  0.73723  1.0000
  H   H1882     1.0  0.45136  0.68827  0.78370  1.0000
  C   C1055     1.0  0.33603  0.79950  0.75732  1.0000
  C   C1056     1.0  0.31886  0.78746  0.76451  1.0000
  C   C1057     1.0  0.29803  0.79755  0.76724  1.0000
  C   C1058     1.0  0.29386  0.81969  0.76248  1.0000
  C   C1059     1.0  0.31095  0.83160  0.75501  1.0000
  C   C1060     1.0  0.33186  0.82161  0.75259  1.0000
  H   H1883     1.0  0.30813  0.84861  0.75129  1.0000
  H   H1884     1.0  0.34495  0.83114  0.74701  1.0000
  H   H1885     1.0  0.14935  0.96858  0.96617  1.0000
  C   C1061     1.0  0.42229  0.69943  0.93990  1.0000
  C   C1062     1.0  0.09472  0.84699  0.85433  1.0000
  H   H1886     1.0  0.14745  0.86496  0.89294  1.0000
  H   H1887     1.0  0.11530  0.86365  0.82730  1.0000
  H   H1888     1.0  0.36572  0.71810  0.86670  1.0000
  S   S250      1.0  0.45439  0.71533  0.74069  1.0000
  C   C1063     1.0  0.08489  0.89293  0.84086  1.0000
  S   S251      1.0  0.37620  0.68865  0.79940  1.0000
  C   C1064     1.0  0.06150  0.76048  0.74733  1.0000
  H   H1889     1.0  0.13052  0.82719  0.83664  1.0000
  H   H1890     1.0  0.17575  0.95396  0.74897  1.0000
  H   H1891     1.0  0.06787  0.86395  0.86817  1.0000
  C   C1065     1.0  0.12451  0.85900  0.86744  1.0000
  C   C1066     1.0  0.40562  0.69579  0.82102  1.0000
  H   H1892     1.0  0.34958  0.66316  0.74148  1.0000
  S   S252      1.0  0.08621  0.99135  0.87604  1.0000
  H   H1893     1.0  0.41108  0.70895  0.81250  1.0000
  H   H1894     1.0  0.07128  0.88213  0.84227  1.0000
  C   C1067     1.0  0.00853  0.83122  0.76215  1.0000
  H   H1895     1.0  0.29206  0.76163  0.74599  1.0000
  C   C1068     1.0  0.17454  0.91573  0.84101  1.0000
  C   C1069     1.0  0.15593  0.91641  0.83299  1.0000
  C   C1070     1.0  0.15715  0.91051  0.81714  1.0000
  C   C1071     1.0  0.17698  0.90405  0.80904  1.0000
  C   C1072     1.0  0.19568  0.90380  0.81692  1.0000
  C   C1073     1.0  0.19442  0.90957  0.83283  1.0000
  H   H1896     1.0  0.14064  0.92166  0.83897  1.0000
  H   H1897     1.0  0.14263  0.91099  0.81109  1.0000
  H   H1898     1.0  0.21105  0.89888  0.81085  1.0000
  H   H1899     1.0  0.20894  0.90912  0.83888  1.0000
  C   C1074     1.0  0.13520  0.94275  0.95639  1.0000
  C   C1075     1.0  0.12470  0.92348  0.96018  1.0000
  H   H1900     1.0  0.13010  0.84164  0.86889  1.0000
  H   H1901     1.0  0.99580  0.88141  0.92486  1.0000
  H   H1902     1.0  0.12021  0.91475  0.95064  1.0000
  H   H1903     1.0  0.42224  0.68539  0.93271  1.0000
  C   C1076     1.0  0.01351  0.89542  0.88634  1.0000
  C   C1077     1.0  0.02073  0.87564  0.89393  1.0000
  C   C1078     1.0  0.04183  0.87292  0.89854  1.0000
  C   C1079     1.0  0.05579  0.88994  0.89558  1.0000
  C   C1080     1.0  0.04850  0.90979  0.88816  1.0000
  C   C1081     1.0  0.02744  0.91248  0.88350  1.0000
  C   C1082     1.0  0.40820  0.67414  0.84699  1.0000
  C   C1083     1.0  0.13549  0.73920  0.73392  1.0000
  C   C1084     1.0  0.15429  0.84297  0.82001  1.0000
  N   N62       1.0  0.11145  0.86361  0.85320  1.0000
  H   H1904     1.0  0.32878  0.72222  0.83436  1.0000
  C   C1085     1.0  0.30619  0.71949  0.78966  1.0000
  H   H1905     1.0  0.15507  0.87259  0.85614  1.0000
  C   C1086     1.0  0.41495  0.69126  0.83571  1.0000
  H   H1906     1.0  0.17221  0.84311  0.74102  1.0000
  H   H1907     1.0  0.20442  0.95926  0.76651  1.0000
  H   H1908     1.0  0.09300  0.88867  0.86562  1.0000
  H   H1909     1.0  0.18080  0.97650  0.84613  1.0000
  H   H1910     1.0  0.01840  0.87453  0.94743  1.0000
  C   C1087     1.0  0.02036  0.81629  0.75038  1.0000
  H   H1911     1.0  0.16493  0.85676  0.81912  1.0000
  H   H1912     1.0  0.14268  0.81809  0.74167  1.0000
  H   H1913     1.0  0.11428  0.86170  0.87877  1.0000
  H   H1914     1.0  0.31340  0.71257  0.81402  1.0000
  H   H1915     1.0  0.27917  0.83347  0.73039  1.0000
  H   H1916     1.0  0.21191  0.81168  0.73782  1.0000
  C   C1088     1.0  0.38224  0.66641  0.82881  1.0000
  H   H1917     1.0  0.29886  0.73821  0.80971  1.0000
  C   C1089     1.0  0.16423  0.95221  0.75992  1.0000
  H   H1918     1.0  0.06364  0.92034  0.83353  1.0000
  H   H1919     1.0  0.12604  0.75466  0.73567  1.0000
  H   H1920     1.0  0.31868  0.70754  0.78503  1.0000
  H   H1921     1.0  0.01013  0.86240  0.89615  1.0000
  H   H1922     1.0  0.17050  0.97679  0.80379  1.0000
  H   H1923     1.0  0.23252  0.93782  0.77607  1.0000
  H   H1924     1.0  0.05711  0.97283  0.90238  1.0000
  H   H1925     1.0  0.10978  0.98331  0.94970  1.0000
  H   H1926     1.0  0.03454  0.86987  0.96980  1.0000
  S   S253      1.0  0.39272  0.73995  0.73288  1.0000
  C   C1090     1.0  0.17463  0.97519  0.83434  1.0000
  H   H1927     1.0  0.15825  0.96348  0.78320  1.0000
  H   H1928     1.0  0.17505  0.75191  0.73704  1.0000
  H   H1929     1.0  0.13568  0.87648  0.83510  1.0000
  C   C1091     1.0  0.19350  0.97173  0.82162  1.0000
  C   C1092     1.0  0.07692  0.84803  0.86859  1.0000
  H   H1930     1.0  0.21868  0.76228  0.73705  1.0000
  H   H1931     1.0  0.14418  0.84512  0.80976  1.0000
  C   C1093     1.0  0.06513  0.99458  0.92884  1.0000
  C   C1094     1.0  0.17063  0.96553  0.77282  1.0000
  H   H1932     1.0  0.27632  0.98278  0.72732  1.0000
  H   H1933     1.0  0.99503  0.97721  0.88832  1.0000
  C   C1095     1.0  0.38918  0.68335  0.81746  1.0000
  H   H1934     1.0  0.02773  0.80235  0.75758  1.0000
  H   H1935     1.0  0.20292  0.98635  0.82022  1.0000
  H   H1936     1.0  0.08394  0.84512  0.88028  1.0000
  H   H1937     1.0  0.16388  0.93483  0.76450  1.0000
  H   H1938     1.0  0.03307  0.73748  0.72636  1.0000
  H   H1939     1.0  0.19446  0.77647  0.74508  1.0000
  H   H1940     1.0  0.08670  0.84802  0.84301  1.0000
  C   C1096     1.0  0.14024  0.84158  0.83604  1.0000
  H   H1941     1.0  0.99837  0.85291  0.93114  1.0000
  S   S254      1.0  0.25405  0.94405  0.73774  1.0000
  H   H1942     1.0  0.04600  0.96579  0.93138  1.0000
  H   H1943     1.0  0.26857  0.95779  0.79097  1.0000
  H   H1944     1.0  0.03421  0.78608  0.73180  1.0000
  C   C1097     1.0  0.19339  0.95801  0.77773  1.0000
  H   H1945     1.0  0.03087  0.84453  0.73487  1.0000
  C   C1098     1.0  0.47644  0.72766  0.72864  1.0000
  H   H1946     1.0  0.04475  0.75896  0.75299  1.0000
  S   S255      1.0  0.24770  0.88073  0.73395  1.0000
  H   H1947     1.0  0.10254  0.83042  0.85552  1.0000
  H   H1948     1.0  0.00330  0.72746  0.74724  1.0000
  H   H1949     1.0  0.40749  0.70988  0.93806  1.0000
  C   C1099     1.0  0.25931  0.98708  0.72694  1.0000
  H   H1950     1.0  0.07284  0.75462  0.75639  1.0000
  N   N63       1.0  0.34090  0.74780  0.81691  1.0000
  C   C1100     1.0  0.33380  0.73850  0.80252  1.0000
  C   C1101     1.0  0.36221  0.75815  0.81249  1.0000
  C   C1102     1.0  0.34436  0.72912  0.82955  1.0000
  C   C1103     1.0  0.32408  0.76354  0.82402  1.0000
  C   C1104     1.0  0.31617  0.78284  0.81256  1.0000
  C   C1105     1.0  0.31222  0.72709  0.80528  1.0000
  C   C1106     1.0  0.35551  0.73423  0.84435  1.0000
  C   C1107     1.0  0.36580  0.77073  0.79561  1.0000
  C   C1108     1.0  0.38617  0.78339  0.79408  1.0000
  C   C1109     1.0  0.29583  0.79436  0.82004  1.0000
  H   H1951     1.0  0.28408  0.72337  0.75188  1.0000
  H   H1952     1.0  0.14182  0.73262  0.74542  1.0000
  H   H1953     1.0  0.34649  0.72664  0.79796  1.0000
  H   H1954     1.0  0.33223  0.75103  0.79232  1.0000
  H   H1955     1.0  0.36504  0.76919  0.82160  1.0000
  H   H1956     1.0  0.37573  0.74549  0.81270  1.0000
  H   H1957     1.0  0.35427  0.71569  0.82410  1.0000
  C   C1110     1.0  0.14105  0.95378  0.96898  1.0000
  H   H1958     1.0  0.30979  0.75487  0.82964  1.0000
  H   H1959     1.0  0.33021  0.77086  0.83408  1.0000
  H   H1960     1.0  0.31226  0.77782  0.80097  1.0000
  H   H1961     1.0  0.32863  0.79496  0.81029  1.0000
  H   H1962     1.0  0.17020  0.98271  0.76783  1.0000
  H   H1963     1.0  0.27161  0.93829  0.77632  1.0000
  H   H1964     1.0  0.34636  0.74722  0.85066  1.0000
  H   H1965     1.0  0.37215  0.73928  0.84074  1.0000
  H   H1966     1.0  0.36781  0.75919  0.78629  1.0000
  H   H1967     1.0  0.35224  0.78220  0.79268  1.0000
  H   H1968     1.0  0.38891  0.79143  0.78169  1.0000
  H   H1969     1.0  0.38446  0.79606  0.80260  1.0000
  H   H1970     1.0  0.40045  0.77241  0.79648  1.0000
  H   H1971     1.0  0.29090  0.80840  0.81170  1.0000
  H   H1972     1.0  0.28238  0.78329  0.82217  1.0000
  H   H1973     1.0  0.29882  0.80037  0.83158  1.0000
  C   C1111     1.0  0.16742  0.83835  0.72992  1.0000
  H   H1974     1.0  0.30446  0.73341  0.78044  1.0000
  H   H1975     1.0  0.16477  0.84855  0.87978  1.0000
  C   C1112     1.0  0.23897  0.95173  0.78087  1.0000
  H   H1976     1.0  0.24159  0.96428  0.77074  1.0000
  C   C1113     1.0  0.99482  0.85684  0.96433  1.0000
  H   H1977     1.0  0.28498  0.78810  0.77297  1.0000
  H   H1978     1.0  0.12458  0.72743  0.73047  1.0000
  H   H1979     1.0  0.36645  0.70081  0.85075  1.0000
  C   C1114     1.0  0.20835  0.77740  0.73574  1.0000
  C   C1115     1.0  0.24437  0.97101  0.73140  1.0000
  H   H1980     1.0  0.05033  0.83178  0.74708  1.0000
  H   H1981     1.0  0.11376  0.89814  0.85137  1.0000
  H   H1982     1.0  0.31274  0.72592  0.75114  1.0000
  H   H1983     1.0  0.04806  0.83211  0.87856  1.0000
  H   H1984     1.0  0.30139  0.71616  0.73450  1.0000
  H   H1985     1.0  0.16037  0.77406  0.72743  1.0000
  H   H1986     1.0  0.22621  0.79343  0.75161  1.0000
  H   H1987     1.0  0.05244  0.83358  0.85699  1.0000
  H   H1988     1.0  0.07935  0.98441  0.92440  1.0000
  H   H1989     1.0  0.42761  0.70103  0.83833  1.0000
  H   H1990     1.0  0.00105  0.84095  0.96029  1.0000
  C   C1116     1.0  0.42292  0.69130  0.95763  1.0000
  C   C1117     1.0  0.29589  0.75085  0.73619  1.0000
  H   H1991     1.0  0.43757  0.68039  0.95856  1.0000
  H   H1992     1.0  0.02832  0.97370  0.90629  1.0000
  H   H1993     1.0  0.99639  0.82219  0.77028  1.0000
  H   H1994     1.0  0.23640  0.79694  0.73076  1.0000
  H   H1995     1.0  0.06854  0.81446  0.86922  1.0000
  H   H1996     1.0  0.03250  0.84161  0.97287  1.0000
  H   H1997     1.0  0.32164  0.77042  0.76800  1.0000
  C   C1118     1.0  0.10115  0.88615  0.85349  1.0000
  H   H1998     1.0  0.08247  0.78446  0.73600  1.0000
  H   H1999     1.0  0.15127  0.83906  0.84568  1.0000
  C   C1119     1.0  0.12542  0.86238  0.83754  1.0000
  C   C1120     1.0  0.15756  0.86508  0.88127  1.0000
  C   C1121     1.0  0.35719  0.71429  0.85645  1.0000
  C   C1122     1.0  0.15068  0.82418  0.73025  1.0000
  H   H2000     1.0  0.40861  0.68165  0.96114  1.0000
  C   C1123     1.0  0.29874  0.72767  0.74390  1.0000
  C   C1124     1.0  0.26093  0.94422  0.78655  1.0000
  N   N64       1.0  0.20147  0.96959  0.79071  1.0000
  H   H2001     1.0  0.14792  0.95784  0.75660  1.0000
  H   H2002     1.0  0.20398  0.95795  0.82639  1.0000
  H   H2003     1.0  0.18055  0.94967  0.80745  1.0000
  H   H2004     1.0  0.43784  0.71923  0.96349  1.0000
  C   C1125     1.0  0.06779  0.97744  0.95616  1.0000
  H   H2005     1.0  0.34093  0.70900  0.86115  1.0000
  H   H2006     1.0  0.16464  0.82788  0.81906  1.0000
  H   H2007     1.0  0.07978  0.96584  0.95038  1.0000
  C   C1126     1.0  0.99977  0.73790  0.73663  1.0000
  H   H2008     1.0  0.29062  0.71158  0.79191  1.0000
  C   C1127     1.0  0.04493  0.98275  0.92588  1.0000
  C   C1128     1.0  0.18557  0.96664  0.80550  1.0000
  H   H2009     1.0  0.22083  0.94464  0.80335  1.0000
  H   H2010     1.0  0.13870  0.89005  0.86877  1.0000
  C   C1129     1.0  0.06546  0.78398  0.74127  1.0000
  C   C1130     1.0  0.20246  0.99360  0.78603  1.0000
  H   H2011     1.0  0.09290  0.89263  0.82848  1.0000
  H   H2012     1.0  0.43671  0.70861  0.93546  1.0000
  H   H2013     1.0  0.08824  0.92764  0.84056  1.0000
  H   H2014     1.0  0.45182  0.67654  0.81242  1.0000
  H   H2015     1.0  0.32841  0.75986  0.73474  1.0000
  C   C1131     1.0  0.22313  0.95949  0.79488  1.0000
  Fe  Fe128     1.0  0.23854  0.91151  0.74598  1.0000
  H   H2016     1.0  0.02984  0.99078  0.93102  1.0000
  C   C1132     1.0  0.14418  0.87299  0.86737  1.0000
  H   H2017     1.0  0.99999  0.84503  0.75554  1.0000
  H   H2018     1.0  0.23156  0.97072  0.80131  1.0000
  C   C1133     1.0  0.06056  0.83094  0.86825  1.0000
  H   H2019     1.0  0.19325  0.94035  0.78162  1.0000
  H   H2020     1.0  0.25926  0.93076  0.79626  1.0000
  H   H2021     1.0  0.05218  0.96961  0.95686  1.0000
  H   H2022     1.0  0.06361  0.79375  0.75170  1.0000
  C   C1134     1.0  0.05019  0.79280  0.72835  1.0000
  H   H2023     1.0  0.16401  0.96139  0.83574  1.0000
  H   H2024     1.0  0.08056  0.82111  0.73116  1.0000
  H   H2025     1.0  0.40943  0.72193  0.96560  1.0000
  C   C1135     1.0  0.00069  0.87401  0.95010  1.0000
  C   C1136     1.0  0.22150  0.79602  0.73913  1.0000
  S   S256      1.0  0.42094  0.66899  0.86519  1.0000
  C   C1137     1.0  0.45334  0.66378  0.80396  1.0000
  C   C1138     1.0  0.42328  0.71038  0.96818  1.0000
  C   C1139     1.0  0.07304  0.97831  0.97373  1.0000
  H   H2026     1.0  0.02002  0.83749  0.76958  1.0000
  C   C1140     1.0  0.44342  0.67326  0.78868  1.0000
  H   H2027     1.0  0.21575  0.99142  0.76085  1.0000
  H   H2028     1.0  0.00261  0.68277  0.79444  1.0000
  C   C1141     1.0  0.22243  0.97698  0.73086  1.0000
  H   H2029     1.0  0.42593  0.67738  0.79127  1.0000
  H   H2030     1.0  0.08944  0.98390  0.97407  1.0000
  H   H2031     1.0  0.00819  0.80988  0.74373  1.0000
  H   H2032     1.0  0.21071  0.96490  0.73414  1.0000
  C   C1142     1.0  0.77492  0.22453  0.22047  1.0000
  Fe  Fe129     1.0  0.86402  0.01918  0.04854  1.0000
  S   S257      1.0  0.84233  0.04666  0.03895  1.0000
  C   C1143     1.0  0.92078  0.02404  0.98815  1.0000
  Fe  Fe130     1.0  0.89756  0.04903  0.05583  1.0000
  S   S258      1.0  0.87864  0.07856  0.04656  1.0000
  S   S259      1.0  0.93067  0.04849  0.06450  1.0000
  Fe  Fe131     1.0  0.85010  0.06278  0.06058  1.0000
  S   S260      1.0  0.82590  0.08377  0.07553  1.0000
  Fe  Fe132     1.0  0.87278  0.05956  0.02601  1.0000
  S   S261      1.0  0.88215  0.07079  0.99961  1.0000
  S   S262      1.0  0.86960  0.03405  0.07095  1.0000
  S   S263      1.0  0.89385  0.03118  0.03456  1.0000
  C   C1144     1.0  0.84624  0.16505  0.20828  1.0000
  H   H2033     1.0  0.61908  0.07783  0.16285  1.0000
  H   H2034     1.0  0.68757  0.11579  0.14289  1.0000
  S   S264      1.0  0.64080  0.21587  0.19625  1.0000
  C   C1145     1.0  0.61452  0.08847  0.17264  1.0000
  H   H2035     1.0  0.93383  0.11173  0.98185  1.0000
  H   H2036     1.0  0.89351  0.08004  0.12388  1.0000
  Fe  Fe133     1.0  0.58761  0.26927  0.16274  1.0000
  S   S265      1.0  0.57467  0.29239  0.18087  1.0000
  S   S266      1.0  0.57319  0.27323  0.13842  1.0000
  Fe  Fe134     1.0  0.61521  0.24153  0.18689  1.0000
  H   H2037     1.0  0.93491  0.11888  0.02375  1.0000
  H   H2038     1.0  0.94675  0.99955  0.06712  1.0000
  S   S267      1.0  0.58137  0.23919  0.17986  1.0000
  S   S268      1.0  0.62212  0.26974  0.16839  1.0000
  Fe  Fe135     1.0  0.78086  0.09599  0.17004  1.0000
  S   S269      1.0  0.78666  0.08557  0.19596  1.0000
  S   S270      1.0  0.80615  0.08045  0.15216  1.0000
  Fe  Fe136     1.0  0.73926  0.12265  0.17997  1.0000
  S   S271      1.0  0.74216  0.11312  0.20608  1.0000
  S   S272      1.0  0.71162  0.14473  0.16984  1.0000
  Fe  Fe137     1.0  0.77720  0.11996  0.20072  1.0000
  C   C1146     1.0  0.66868  0.27357  0.20472  1.0000
  Fe  Fe138     1.0  0.75151  0.07907  0.19981  1.0000
  C   C1147     1.0  0.96949  0.10736  0.00267  1.0000
  S   S273      1.0  0.77411  0.13116  0.17462  1.0000
  S   S274      1.0  0.74587  0.08791  0.17377  1.0000
  S   S275      1.0  0.60292  0.26299  0.20639  1.0000
  C   C1148     1.0  0.68469  0.06670  0.19571  1.0000
  C   C1149     1.0  0.64135  0.27654  0.05400  1.0000
  C   C1150     1.0  0.66063  0.19648  0.18849  1.0000
  C   C1151     1.0  0.69077  0.16983  0.19344  1.0000
  C   C1152     1.0  0.69240  0.16476  0.17747  1.0000
  C   C1153     1.0  0.67805  0.17573  0.16710  1.0000
  C   C1154     1.0  0.66238  0.19152  0.17251  1.0000
  H   H2039     1.0  0.67908  0.17205  0.15473  1.0000
  H   H2040     1.0  0.65155  0.19972  0.16432  1.0000
  H   H2041     1.0  0.96532  0.04720  0.03591  1.0000
  H   H2042     1.0  0.66658  0.03832  0.19343  1.0000
  Fe  Fe139     1.0  0.60876  0.29075  0.18780  1.0000
  C   C1155     1.0  0.68248  0.04473  0.18892  1.0000
  C   C1156     1.0  0.89447  0.13363  0.01833  1.0000
  S   S276      1.0  0.73828  0.05168  0.21814  1.0000
  H   H2043     1.0  0.96561  0.20027  0.19511  1.0000
  N   N65       1.0  0.67132  0.08608  0.18897  1.0000
  C   C1157     1.0  0.85024  0.05327  0.98496  1.0000
  H   H2044     1.0  0.65226  0.32132  0.04916  1.0000
  C   C1158     1.0  0.67496  0.18547  0.19889  1.0000
  H   H2045     1.0  0.91542  0.03562  0.97822  1.0000
  H   H2046     1.0  0.84110  0.11947  0.15680  1.0000
  H   H2047     1.0  0.69614  0.11872  0.20017  1.0000
  H   H2048     1.0  0.71754  0.22988  0.22335  1.0000
  C   C1159     1.0  0.94015  0.09617  0.98792  1.0000
  C   C1160     1.0  0.56288  0.31584  0.09931  1.0000
  H   H2049     1.0  0.79245  0.03126  0.20704  1.0000
  H   H2050     1.0  0.66526  0.25597  0.18404  1.0000
  C   C1161     1.0  0.59814  0.29902  0.11575  1.0000
  C   C1162     1.0  0.57758  0.29238  0.12137  1.0000
  C   C1163     1.0  0.56006  0.30049  0.11282  1.0000
  H   H2051     1.0  0.96838  0.02714  0.02171  1.0000
  H   H2052     1.0  0.65782  0.11648  0.19727  1.0000
  H   H2053     1.0  0.61185  0.29213  0.12173  1.0000
  H   H2054     1.0  0.54413  0.29508  0.11684  1.0000
  C   C1164     1.0  0.63389  0.31575  0.22241  1.0000
  H   H2055     1.0  0.70165  0.16167  0.20159  1.0000
  H   H2056     1.0  0.65241  0.06731  0.17565  1.0000
  Fe  Fe140     1.0  0.56962  0.26259  0.19810  1.0000
  C   C1165     1.0  0.66244  0.26308  0.05100  1.0000
  H   H2057     1.0  0.75462  0.01929  0.19576  1.0000
  C   C1166     1.0  0.81963  0.08180  0.09682  1.0000
  C   C1167     1.0  0.82968  0.06605  0.10708  1.0000
  C   C1168     1.0  0.82501  0.06571  0.12391  1.0000
  C   C1169     1.0  0.81007  0.08090  0.13077  1.0000
  C   C1170     1.0  0.79977  0.09647  0.12050  1.0000
  C   C1171     1.0  0.80460  0.09694  0.10366  1.0000
  H   H2058     1.0  0.84116  0.05421  0.10205  1.0000
  H   H2059     1.0  0.83305  0.05357  0.13170  1.0000
  H   H2060     1.0  0.78833  0.10834  0.12554  1.0000
  H   H2061     1.0  0.79668  0.10919  0.09587  1.0000
  C   C1172     1.0  0.61324  0.30775  0.00779  1.0000
  H   H2062     1.0  0.58390  0.31059  0.99555  1.0000
  C   C1173     1.0  0.95936  0.05948  0.01144  1.0000
  H   H2063     1.0  0.84173  0.05079  0.99682  1.0000
  C   C1174     1.0  0.91136  0.00209  0.98769  1.0000
  C   C1175     1.0  0.96629  0.11097  0.06160  1.0000
  C   C1176     1.0  0.94487  0.11180  0.05785  1.0000
  C   C1177     1.0  0.93374  0.09275  0.05868  1.0000
  C   C1178     1.0  0.94401  0.07277  0.06327  1.0000
  C   C1179     1.0  0.96546  0.07197  0.06693  1.0000
  H   H2064     1.0  0.56792  0.25687  0.07307  1.0000
  H   H2065     1.0  0.93682  0.12724  0.05444  1.0000
  H   H2066     1.0  0.91724  0.09359  0.05589  1.0000
  C   C1180     1.0  0.81236  0.15149  0.22091  1.0000
  H   H2067     1.0  0.90987  0.07206  0.09453  1.0000
  H   H2068     1.0  0.96644  0.02039  0.08422  1.0000
  H   H2069     1.0  0.83459  0.10264  0.21981  1.0000
  C   C1181     1.0  0.68010  0.25437  0.21441  1.0000
  H   H2070     1.0  0.81492  0.01659  0.99931  1.0000
  H   H2071     1.0  0.75200  0.20451  0.21196  1.0000
  H   H2072     1.0  0.84697  0.00493  0.98175  1.0000
  H   H2073     1.0  0.76400  0.30518  0.21524  1.0000
  C   C1182     1.0  0.97657  0.09099  0.06610  1.0000
  S   S277      1.0  0.97979  0.13507  0.06071  1.0000
  C   C1183     1.0  0.87006  0.06288  0.98302  1.0000
  H   H2074     1.0  0.79305  0.00981  0.22325  1.0000
  H   H2075     1.0  0.67520  0.27337  0.04479  1.0000
  C   C1184     1.0  0.57649  0.27205  0.07242  1.0000
  H   H2076     1.0  0.87822  0.23675  0.20281  1.0000
  C   C1185     1.0  0.80231  0.02292  0.21636  1.0000
  H   H2077     1.0  0.59714  0.26380  0.05152  1.0000
  H   H2078     1.0  0.69704  0.25310  0.20895  1.0000
  S   S278      1.0  0.87444  0.18686  0.22301  1.0000
  H   H2079     1.0  0.89747  0.14886  0.01057  1.0000
  H   H2080     1.0  0.71407  0.10698  0.14865  1.0000
  H   H2081     1.0  0.62854  0.27215  0.03191  1.0000
  H   H2082     1.0  0.51169  0.28051  0.19549  1.0000
  H   H2083     1.0  0.93551  0.13326  0.00427  1.0000
  H   H2084     1.0  0.77718  0.19040  0.21621  1.0000
  C   C1186     1.0  0.97864  0.19159  0.20169  1.0000
  H   H2085     1.0  0.66788  0.25588  0.06266  1.0000
  H   H2086     1.0  0.97662  0.17392  0.20256  1.0000
  H   H2087     1.0  0.91560  0.03076  0.99977  1.0000
  H   H2088     1.0  0.54356  0.30845  0.15215  1.0000
  H   H2089     1.0  0.97708  0.19678  0.21406  1.0000
  H   H2090     1.0  0.68372  0.04614  0.17565  1.0000
  H   H2091     1.0  0.91085  0.04392  0.11780  1.0000
  H   H2092     1.0  0.66017  0.24974  0.04360  1.0000
  C   C1187     1.0  0.76615  0.29173  0.22478  1.0000
  H   H2093     1.0  0.80334  0.23388  0.20576  1.0000
  H   H2094     1.0  0.97640  0.06351  0.00867  1.0000
  H   H2095     1.0  0.80807  0.21154  0.21991  1.0000
  C   C1188     1.0  0.86430  0.24836  0.20530  1.0000
  H   H2096     1.0  0.95369  0.05266  0.00102  1.0000
  C   C1189     1.0  0.63278  0.28625  0.03790  1.0000
  H   H2097     1.0  0.69978  0.10168  0.17823  1.0000
  C   C1190     1.0  0.89454  0.06651  0.10083  1.0000
  C   C1191     1.0  0.66642  0.10131  0.20196  1.0000
  H   H2098     1.0  0.81713  0.01554  0.21020  1.0000
  C   C1192     1.0  0.95722  0.00629  0.08944  1.0000
  H   H2099     1.0  0.66911  0.13710  0.21883  1.0000
  H   H2100     1.0  0.58626  0.31225  0.05469  1.0000
  C   C1193     1.0  0.58341  0.32282  0.09394  1.0000
  C   C1194     1.0  0.76970  0.20597  0.21114  1.0000
  H   H2101     1.0  0.88368  0.03730  0.11505  1.0000
  C   C1195     1.0  0.60102  0.31412  0.10212  1.0000
  H   H2102     1.0  0.60355  0.10193  0.16806  1.0000
  H   H2103     1.0  0.85733  0.09341  0.13894  1.0000
  H   H2104     1.0  0.86833  0.07545  0.11729  1.0000
  H   H2105     1.0  0.92646  0.08530  0.98932  1.0000
  H   H2106     1.0  0.69753  0.01222  0.18979  1.0000
  H   H2107     1.0  0.81058  0.00358  0.01940  1.0000
  C   C1196     1.0  0.51222  0.26039  0.21781  1.0000
  H   H2108     1.0  0.67294  0.23931  0.21182  1.0000
  H   H2109     1.0  0.85788  0.16680  0.19786  1.0000
  H   H2110     1.0  0.88331  0.06516  0.09160  1.0000
  H   H2111     1.0  0.76600  0.23938  0.21567  1.0000
  N   N66       1.0  0.88135  0.10583  0.10723  1.0000
  C   C1197     1.0  0.87678  0.10830  0.08980  1.0000
  C   C1198     1.0  0.88423  0.08211  0.11314  1.0000
  C   C1199     1.0  0.86195  0.11557  0.11680  1.0000
  C   C1200     1.0  0.90070  0.11784  0.10989  1.0000
  C   C1201     1.0  0.92229  0.11110  0.10055  1.0000
  C   C1202     1.0  0.87229  0.13170  0.08222  1.0000
  C   C1203     1.0  0.86077  0.11059  0.13538  1.0000
  C   C1204     1.0  0.93976  0.12652  0.10231  1.0000
  C   C1205     1.0  0.86883  0.13185  0.06447  1.0000
  C   C1206     1.0  0.84272  0.12446  0.14368  1.0000
  H   H2112     1.0  0.86256  0.09901  0.08839  1.0000
  H   H2113     1.0  0.89013  0.10107  0.08201  1.0000
  H   H2114     1.0  0.84679  0.11000  0.11301  1.0000
  H   H2115     1.0  0.86098  0.13348  0.11431  1.0000
  H   H2116     1.0  0.89755  0.13555  0.10722  1.0000
  H   H2117     1.0  0.90374  0.11574  0.12276  1.0000
  H   H2118     1.0  0.92069  0.11123  0.08758  1.0000
  H   H2119     1.0  0.92808  0.09475  0.10537  1.0000
  H   H2120     1.0  0.85748  0.13927  0.08823  1.0000
  H   H2121     1.0  0.88605  0.14180  0.08298  1.0000
  H   H2122     1.0  0.87596  0.11376  0.14022  1.0000
  C   C1207     1.0  0.60017  0.30223  0.99447  1.0000
  H   H2123     1.0  0.93544  0.14302  0.09683  1.0000
  H   H2124     1.0  0.94217  0.12717  0.11517  1.0000
  H   H2125     1.0  0.95524  0.12078  0.09598  1.0000
  H   H2126     1.0  0.88340  0.12485  0.05774  1.0000
  H   H2127     1.0  0.85480  0.12235  0.06304  1.0000
  H   H2128     1.0  0.86562  0.14871  0.05924  1.0000
  H   H2129     1.0  0.84630  0.14181  0.14178  1.0000
  H   H2130     1.0  0.82709  0.12235  0.13897  1.0000
  H   H2131     1.0  0.68053  0.06343  0.20892  1.0000
  C   C1208     1.0  0.67198  0.27114  0.18672  1.0000
  H   H2132     1.0  0.94081  0.01235  0.09385  1.0000
  H   H2133     1.0  0.98130  0.09573  0.99699  1.0000
  H   H2134     1.0  0.59534  0.28564  0.02448  1.0000
  H   H2135     1.0  0.71606  0.03324  0.18949  1.0000
  C   C1209     1.0  0.67911  0.12265  0.22311  1.0000
  H   H2136     1.0  0.62919  0.29887  0.00645  1.0000
  H   H2137     1.0  0.90535  0.03292  0.09968  1.0000
  H   H2138     1.0  0.56466  0.28514  0.07611  1.0000
  C   C1210     1.0  0.75029  0.01090  0.20743  1.0000
  S   S279      1.0  0.78895  0.13680  0.22094  1.0000
  H   H2139     1.0  0.86999  0.26195  0.21106  1.0000
  H   H2140     1.0  0.82374  0.26219  0.20972  1.0000
  H   H2141     1.0  0.77571  0.20889  0.19825  1.0000
  C   C1211     1.0  0.82743  0.15402  0.20747  1.0000
  H   H2142     1.0  0.57312  0.27991  0.04738  1.0000
  H   H2143     1.0  0.78495  0.27077  0.20914  1.0000
  H   H2144     1.0  0.96849  0.12472  0.02449  1.0000
  H   H2145     1.0  0.58906  0.26969  0.08098  1.0000
  H   H2146     1.0  0.58657  0.31324  0.02564  1.0000
  C   C1212     1.0  0.65004  0.07926  0.18468  1.0000
  C   C1213     1.0  0.89885  0.04379  0.10893  1.0000
  N   N67       1.0  0.61402  0.30283  0.03893  1.0000
  H   H2147     1.0  0.87702  0.13076  0.01904  1.0000
  C   C1214     1.0  0.84686  0.23684  0.21640  1.0000
  H   H2148     1.0  0.63875  0.24316  0.22411  1.0000
  H   H2149     1.0  0.94181  0.03710  0.02891  1.0000
  H   H2150     1.0  0.64653  0.29323  0.03002  1.0000
  H   H2151     1.0  0.60571  0.07912  0.18293  1.0000
  H   H2152     1.0  0.67381  0.18906  0.21128  1.0000
  H   H2153     1.0  0.96771  0.07367  0.98051  1.0000
  H   H2154     1.0  0.61567  0.30999  0.14522  1.0000
  H   H2155     1.0  0.70211  0.07014  0.19436  1.0000
  H   H2156     1.0  0.96089  0.25201  0.21759  1.0000
  H   H2157     1.0  0.68937  0.27098  0.18238  1.0000
  C   C1215     1.0  0.68378  0.09804  0.17488  1.0000
  C   C1216     1.0  0.68844  0.08637  0.15940  1.0000
  C   C1217     1.0  0.63450  0.09763  0.17790  1.0000
  C   C1218     1.0  0.69858  0.10142  0.14558  1.0000
  H   H2158     1.0  0.67572  0.11419  0.17176  1.0000
  C   C1219     1.0  0.58650  0.27770  0.05526  1.0000
  H   H2159     1.0  0.67360  0.08075  0.15539  1.0000
  C   C1220     1.0  0.64669  0.31786  0.13364  1.0000
  H   H2160     1.0  0.62881  0.10876  0.18714  1.0000
  H   H2161     1.0  0.64241  0.10709  0.16728  1.0000
  H   H2162     1.0  0.70188  0.09272  0.13461  1.0000
  H   H2163     1.0  0.61703  0.31912  0.09791  1.0000
  H   H2164     1.0  0.89876  0.13540  0.03061  1.0000
  N   N68       1.0  0.94689  0.09962  0.00426  1.0000
  C   C1221     1.0  0.85025  0.17356  0.22251  1.0000
  H   H2165     1.0  0.65437  0.30280  0.13930  1.0000
  C   C1222     1.0  0.93208  0.11734  0.01108  1.0000
  C   C1223     1.0  0.94457  0.07940  0.01567  1.0000
  C   C1224     1.0  0.95862  0.04167  0.02536  1.0000
  H   H2166     1.0  0.65108  0.27439  0.20823  1.0000
  C   C1225     1.0  0.90753  0.11461  0.01130  1.0000
  H   H2167     1.0  0.70017  0.07245  0.16141  1.0000
  C   C1226     1.0  0.69985  0.02796  0.19433  1.0000
  H   H2168     1.0  0.66358  0.28501  0.18009  1.0000
  H   H2169     1.0  0.93864  0.02224  0.98675  1.0000
  H   H2170     1.0  0.60717  0.29889  0.06493  1.0000
  C   C1227     1.0  0.59880  0.29877  0.05392  1.0000
  H   H2171     1.0  0.84911  0.00693  0.01162  1.0000
  H   H2172     1.0  0.97353  0.05662  0.07050  1.0000
  C   C1228     1.0  0.88649  0.00396  0.99008  1.0000
  H   H2173     1.0  0.69639  0.09482  0.21416  1.0000
  H   H2174     1.0  0.94696  0.08281  0.02807  1.0000
  H   H2175     1.0  0.92784  0.07399  0.01654  1.0000
  H   H2176     1.0  0.90268  0.11376  0.99905  1.0000
  H   H2177     1.0  0.82470  0.14729  0.19652  1.0000
  S   S280      1.0  0.62764  0.32035  0.18998  1.0000
  H   H2178     1.0  0.67505  0.28923  0.20654  1.0000
  H   H2179     1.0  0.90282  0.09977  0.01882  1.0000
  H   H2180     1.0  0.98481  0.99717  0.06221  1.0000
  H   H2181     1.0  0.97034  0.12247  0.99432  1.0000
  S   S281      1.0  0.54098  0.25652  0.21745  1.0000
  H   H2182     1.0  0.62961  0.26572  0.06093  1.0000
  C   C1229     1.0  0.50204  0.27307  0.20573  1.0000
  C   C1230     1.0  0.79947  0.22782  0.21860  1.0000
  C   C1231     1.0  0.82762  0.25268  0.22109  1.0000
  H   H2183     1.0  0.88240  0.00856  0.00252  1.0000
  H   H2184     1.0  0.81770  0.05137  0.21990  1.0000
  C   C1232     1.0  0.74264  0.02277  0.22033  1.0000
  H   H2185     1.0  0.97908  0.09706  0.02702  1.0000
  H   H2186     1.0  0.59850  0.28452  0.99506  1.0000
  C   C1233     1.0  0.78672  0.27810  0.22040  1.0000
  H   H2187     1.0  0.80010  0.28927  0.21803  1.0000
  H   H2188     1.0  0.85808  0.25464  0.19370  1.0000
  C   C1234     1.0  0.60123  0.30207  0.02465  1.0000
  H   H2189     1.0  0.64428  0.28904  0.06184  1.0000
  C   C1235     1.0  0.97841  0.11189  0.01852  1.0000
  H   H2190     1.0  0.84177  0.22343  0.21016  1.0000
  H   H2191     1.0  0.64324  0.31497  0.12135  1.0000
  C   C1236     1.0  0.97711  0.24716  0.22040  1.0000
  H   H2192     1.0  0.62916  0.32459  0.06363  1.0000
  H   H2193     1.0  0.88079  0.01818  0.98224  1.0000
  C   C1237     1.0  0.68617  0.10872  0.20934  1.0000
  C   C1238     1.0  0.62168  0.32545  0.03830  1.0000
  H   H2194     1.0  0.63062  0.32645  0.15585  1.0000
  H   H2195     1.0  0.64130  0.07071  0.19547  1.0000
  C   C1239     1.0  0.64034  0.32540  0.20708  1.0000
  H   H2196     1.0  0.50381  0.32417  0.99552  1.0000
  H   H2197     1.0  0.96517  0.99806  0.09982  1.0000
  H   H2198     1.0  0.60839  0.30776  0.98255  1.0000
  H   H2199     1.0  0.62095  0.30479  0.22398  1.0000
  H   H2200     1.0  0.58207  0.31999  0.14940  1.0000
  C   C1240     1.0  0.62596  0.32398  0.14385  1.0000
  H   H2201     1.0  0.54917  0.32223  0.09308  1.0000
  H   H2202     1.0  0.65545  0.09379  0.21198  1.0000
  C   C1241     1.0  0.81719  0.00109  0.00689  1.0000
  H   H2203     1.0  0.69907  0.02556  0.20766  1.0000
  H   H2204     1.0  0.98977  0.19758  0.16980  1.0000
  H   H2205     1.0  0.53588  0.32730  0.13557  1.0000
  H   H2206     1.0  0.61563  0.32536  0.00573  1.0000
  C   C1242     1.0  0.53800  0.32542  0.14861  1.0000
  H   H2207     1.0  0.52212  0.32872  0.15537  1.0000
  H   H2208     1.0  0.99297  0.18750  0.14467  1.0000
  H   H2209     1.0  0.99301  0.09020  0.06919  1.0000
  H   H2210     1.0  0.99198  0.26089  0.19761  1.0000
  H   H2211     1.0  0.75193  0.28172  0.22588  1.0000
  H   H2212     1.0  0.91737  0.99612  0.97600  1.0000
  Fe  Fe141     1.0  0.92028  0.08680  0.41044  1.0000
  S   S282      1.0  0.91207  0.12069  0.41712  1.0000
  S   S283      1.0  0.90200  0.05764  0.42088  1.0000
  Fe  Fe142     1.0  0.96317  0.09881  0.39275  1.0000
  S   S284      1.0  0.95868  0.13350  0.39802  1.0000
  H   H2213     1.0  0.76438  0.10579  0.24525  1.0000
  Fe  Fe143     1.0  0.94637  0.12038  0.42321  1.0000
  S   S285      1.0  0.96107  0.12722  0.44598  1.0000
  Fe  Fe144     1.0  0.92489  0.13094  0.39131  1.0000
  S   S286      1.0  0.90763  0.15771  0.37560  1.0000
  S   S287      1.0  0.95361  0.08596  0.41803  1.0000
  S   S288      1.0  0.93033  0.09689  0.38450  1.0000
  Fe  Fe145     1.0  0.89508  0.19785  0.27962  1.0000
  S   S289      1.0  0.91404  0.19220  0.25599  1.0000
  S   S290      1.0  0.90210  0.17045  0.29936  1.0000
  Fe  Fe146     1.0  0.87382  0.24076  0.26462  1.0000
  S   S291      1.0  0.84520  0.26454  0.27203  1.0000
  Fe  Fe147     1.0  0.88411  0.20327  0.24415  1.0000
  Fe  Fe148     1.0  0.92203  0.22706  0.25407  1.0000
  S   S292      1.0  0.86435  0.20600  0.26771  1.0000
  S   S293      1.0  0.90356  0.23257  0.27815  1.0000
  H   H2214     1.0  0.83358  0.26433  0.22863  1.0000
  H   H2215     1.0  0.73097  0.02016  0.24546  1.0000
  H   H2216     1.0  0.53568  0.29198  0.23968  1.0000
  H   H2217     1.0  0.80745  0.06735  0.38558  1.0000
  C   C1243     1.0  0.80312  0.02071  0.28460  1.0000
  H   H2218     1.0  0.94491  0.20140  0.28264  1.0000
  H   H2219     1.0  0.97431  0.04458  0.40337  1.0000
  H   H2220     1.0  0.91984  0.21832  0.33433  1.0000
  H   H2221     1.0  0.81895  0.01395  0.27952  1.0000
  H   H2222     1.0  0.72209  0.24022  0.24191  1.0000
  H   H2223     1.0  0.61855  0.24911  0.25847  1.0000
  H   H2224     1.0  0.94765  0.02047  0.37176  1.0000
  C   C1244     1.0  0.80834  0.03901  0.22753  1.0000
  H   H2225     1.0  0.76713  0.29888  0.23627  1.0000
  C   C1245     1.0  0.76910  0.07214  0.25579  1.0000
  H   H2226     1.0  0.95476  0.20579  0.34009  1.0000
  C   C1246     1.0  0.52760  0.30253  0.24866  1.0000
  H   H2227     1.0  0.89971  0.07650  0.45616  1.0000
  C   C1247     1.0  0.80470  0.20865  0.27168  1.0000
  C   C1248     1.0  0.81620  0.16031  0.23506  1.0000
  C   C1249     1.0  0.80866  0.29233  0.27437  1.0000
  C   C1250     1.0  0.82737  0.28632  0.26460  1.0000
  C   C1251     1.0  0.90707  0.16144  0.35430  1.0000
  C   C1252     1.0  0.89551  0.17961  0.34738  1.0000
  C   C1253     1.0  0.89409  0.18289  0.33061  1.0000
  C   C1254     1.0  0.90401  0.16785  0.32053  1.0000
  C   C1255     1.0  0.91557  0.14968  0.32746  1.0000
  C   C1256     1.0  0.91736  0.14665  0.34417  1.0000
  H   H2228     1.0  0.88748  0.19120  0.35507  1.0000
  H   H2229     1.0  0.88498  0.19684  0.32554  1.0000
  H   H2230     1.0  0.92332  0.13791  0.31981  1.0000
  H   H2231     1.0  0.92654  0.13276  0.34925  1.0000
  H   H2232     1.0  0.79079  0.20492  0.25000  1.0000
  H   H2233     1.0  0.97614  0.16184  0.27773  1.0000
  H   H2234     1.0  0.90140  0.25415  0.32910  1.0000
  H   H2235     1.0  0.61258  0.26654  0.24072  1.0000
  H   H2236     1.0  0.91655  0.13935  0.45797  1.0000
  H   H2237     1.0  0.65676  0.26034  0.25294  1.0000
  C   C1257     1.0  0.65694  0.26013  0.23971  1.0000
  C   C1258     1.0  0.86795  0.01669  0.38996  1.0000
  C   C1259     1.0  0.87605  0.03645  0.38331  1.0000
  C   C1260     1.0  0.88733  0.04875  0.39248  1.0000
  C   C1261     1.0  0.88994  0.04167  0.40852  1.0000
  C   C1262     1.0  0.88214  0.02175  0.41509  1.0000
  C   C1263     1.0  0.87136  0.00919  0.40580  1.0000
  H   H2238     1.0  0.87368  0.04211  0.37100  1.0000
  H   H2239     1.0  0.89367  0.06385  0.38733  1.0000
  H   H2240     1.0  0.88409  0.01620  0.42751  1.0000
  C   C1264     1.0  0.91566  0.08008  0.45971  1.0000
  C   C1265     1.0  0.81440  0.22976  0.24477  1.0000
  H   H2241     1.0  0.81111  0.22134  0.27801  1.0000
  H   H2242     1.0  0.92069  0.09535  0.45277  1.0000
  C   C1266     1.0  0.98043  0.23656  0.23554  1.0000
  H   H2243     1.0  0.72514  0.07771  0.24995  1.0000
  H   H2244     1.0  0.80574  0.03223  0.29340  1.0000
  N   N69       1.0  0.95875  0.20331  0.31428  1.0000
  C   C1267     1.0  0.98141  0.23426  0.32092  1.0000
  H   H2245     1.0  0.95808  0.05140  0.38684  1.0000
  H   H2246     1.0  0.72564  0.10612  0.24345  1.0000
  H   H2247     1.0  0.94565  0.04144  0.40634  1.0000
  C   C1268     1.0  0.96049  0.18510  0.30351  1.0000
  H   H2248     1.0  0.97942  0.22361  0.29784  1.0000
  H   H2249     1.0  0.77007  0.07886  0.26749  1.0000
  H   H2250     1.0  0.53924  0.31845  0.39937  1.0000
  H   H2251     1.0  0.98949  0.17828  0.45889  1.0000
  N   N70       1.0  0.79119  0.06410  0.24897  1.0000
  C   C1269     1.0  0.69514  0.27718  0.25299  1.0000
  C   C1270     1.0  0.68811  0.23426  0.23987  1.0000
  H   H2252     1.0  0.78843  0.01984  0.26269  1.0000
  C   C1271     1.0  0.90920  0.24548  0.31893  1.0000
  H   H2253     1.0  0.95624  0.16144  0.35735  1.0000
  C   C1272     1.0  0.92593  0.13569  0.46813  1.0000
  C   C1273     1.0  0.92729  0.22986  0.32475  1.0000
  H   H2254     1.0  0.92990  0.01740  0.38941  1.0000
  H   H2255     1.0  0.97576  0.17515  0.30473  1.0000
  H   H2256     1.0  0.97144  0.18338  0.36195  1.0000
  S   S294      1.0  0.85322  0.00198  0.37837  1.0000
  H   H2257     1.0  0.80435  0.06277  0.27179  1.0000
  H   H2258     1.0  0.57632  0.31168  0.34978  1.0000
  H   H2259     1.0  0.50708  0.27791  0.25915  1.0000
  H   H2260     1.0  0.97956  0.01578  0.38567  1.0000
  C   C1274     1.0  0.97878  0.21582  0.31038  1.0000
  S   S295      1.0  0.99185  0.08310  0.37913  1.0000
  C   C1275     1.0  0.79416  0.30951  0.26922  1.0000
  H   H2261     1.0  0.91563  0.25761  0.30933  1.0000
  H   H2262     1.0  0.94146  0.18456  0.33378  1.0000
  H   H2263     1.0  0.85399  0.16225  0.32020  1.0000
  C   C1276     1.0  0.80211  0.05166  0.26254  1.0000
  C   C1277     1.0  0.83124  0.29783  0.24947  1.0000
  S   S296      1.0  0.95887  0.23155  0.25106  1.0000
  C   C1278     1.0  0.79037  0.03193  0.27121  1.0000
  C   C1279     1.0  0.96020  0.03999  0.39768  1.0000
  C   C1280     1.0  0.69308  0.27393  0.23513  1.0000
  H   H2264     1.0  0.72884  0.28513  0.25100  1.0000
  H   H2265     1.0  0.81857  0.04553  0.25839  1.0000
  C   C1281     1.0  0.83509  0.17118  0.23590  1.0000
  H   H2266     1.0  0.83365  0.08004  0.25419  1.0000
  C   C1282     1.0  0.78796  0.04993  0.23595  1.0000
  H   H2267     1.0  0.75838  0.08617  0.23246  1.0000
  H   H2268     1.0  0.77424  0.03694  0.27685  1.0000
  C   C1283     1.0  0.96118  0.17197  0.27580  1.0000
  C   C1284     1.0  0.81673  0.31500  0.24432  1.0000
  C   C1285     1.0  0.50502  0.29496  0.25411  1.0000
  H   H2269     1.0  0.82231  0.24046  0.25200  1.0000
  H   H2270     1.0  0.86425  0.13667  0.41776  1.0000
  H   H2271     1.0  0.82014  0.32385  0.23268  1.0000
  H   H2272     1.0  0.49556  0.32618  0.26262  1.0000
  H   H2273     1.0  0.70946  0.27215  0.22869  1.0000
  C   C1286     1.0  0.61810  0.24993  0.24525  1.0000
  H   H2274     1.0  0.82666  0.21665  0.24189  1.0000
  H   H2275     1.0  0.89675  0.23651  0.31427  1.0000
  H   H2276     1.0  0.79398  0.00726  0.29110  1.0000
  H   H2277     1.0  0.78004  0.31391  0.27701  1.0000
  H   H2278     1.0  0.94728  0.17395  0.30721  1.0000
  H   H2279     1.0  0.78260  0.22978  0.25903  1.0000
  C   C1287     1.0  0.94774  0.12905  0.46559  1.0000
  C   C1288     1.0  0.79813  0.32115  0.25416  1.0000
  H   H2280     1.0  0.94696  0.16219  0.27950  1.0000
  C   C1289     1.0  0.73338  0.09272  0.25098  1.0000
  C   C1290     1.0  0.71269  0.29266  0.25446  1.0000
  H   H2281     1.0  0.86757  0.15610  0.40043  1.0000
  H   H2282     1.0  0.84752  0.13480  0.31895  1.0000
  H   H2283     1.0  0.67974  0.28440  0.25845  1.0000
  H   H2284     1.0  0.97958  0.22875  0.33391  1.0000
  H   H2285     1.0  0.80470  0.15836  0.24555  1.0000
  H   H2286     1.0  0.79766  0.26917  0.24379  1.0000
  H   H2287     1.0  0.83555  0.06639  0.23632  1.0000
  H   H2288     1.0  0.68412  0.23287  0.25314  1.0000
  H   H2289     1.0  0.81758  0.19590  0.26942  1.0000
  H   H2290     1.0  0.65073  0.27652  0.23533  1.0000
  C   C1291     1.0  0.73708  0.01130  0.23538  1.0000
  C   C1292     1.0  0.75725  0.08996  0.24507  1.0000
  H   H2291     1.0  0.79925  0.09741  0.24954  1.0000
  H   H2292     1.0  0.92768  0.06695  0.45641  1.0000
  H   H2293     1.0  0.60626  0.23854  0.24260  1.0000
  H   H2294     1.0  0.83811  0.17738  0.24697  1.0000
  H   H2295     1.0  0.93845  0.23920  0.33032  1.0000
  H   H2296     1.0  0.71022  0.30802  0.24673  1.0000
  H   H2297     1.0  0.67988  0.22083  0.23566  1.0000
  H   H2298     1.0  0.82827  0.15320  0.32908  1.0000
  H   H2299     1.0  0.80541  0.28374  0.28613  1.0000
  C   C1293     1.0  0.97167  0.16954  0.35455  1.0000
  C   C1294     1.0  0.71866  0.20600  0.24359  1.0000
  H   H2300     1.0  0.66977  0.11319  0.23305  1.0000
  H   H2301     1.0  0.84106  0.14709  0.40777  1.0000
  C   C1295     1.0  0.82873  0.08104  0.24178  1.0000
  N   N71       1.0  0.67957  0.25570  0.23229  1.0000
  H   H2302     1.0  0.50677  0.24087  0.24037  1.0000
  H   H2303     1.0  0.84567  0.29385  0.24187  1.0000
  N   N72       1.0  0.85413  0.11285  0.36719  1.0000
  C   C1296     1.0  0.84408  0.12248  0.35227  1.0000
  C   C1297     1.0  0.84106  0.09469  0.37581  1.0000
  C   C1298     1.0  0.85369  0.13047  0.37836  1.0000
  C   C1299     1.0  0.87731  0.10509  0.36349  1.0000
  C   C1300     1.0  0.88189  0.08954  0.35016  1.0000
  C   C1301     1.0  0.85555  0.14168  0.34253  1.0000
  C   C1302     1.0  0.86186  0.12351  0.39508  1.0000
  C   C1303     1.0  0.82871  0.08127  0.36547  1.0000
  C   C1304     1.0  0.81887  0.06191  0.37558  1.0000
  C   C1305     1.0  0.90589  0.08306  0.34751  1.0000
  C   C1306     1.0  0.84562  0.14830  0.32675  1.0000
  C   C1307     1.0  0.85842  0.14203  0.40587  1.0000
  H   H2304     1.0  0.82708  0.12820  0.35555  1.0000
  H   H2305     1.0  0.84320  0.11011  0.34379  1.0000
  H   H2306     1.0  0.85139  0.08319  0.38318  1.0000
  H   H2307     1.0  0.82829  0.10116  0.38461  1.0000
  H   H2308     1.0  0.83703  0.13790  0.38033  1.0000
  H   H2309     1.0  0.86389  0.14381  0.37295  1.0000
  H   H2310     1.0  0.88766  0.11902  0.36029  1.0000
  H   H2311     1.0  0.88371  0.09666  0.37443  1.0000
  H   H2312     1.0  0.87683  0.09713  0.33852  1.0000
  H   H2313     1.0  0.87353  0.07446  0.35363  1.0000
  H   H2314     1.0  0.85413  0.15611  0.34939  1.0000
  H   H2315     1.0  0.87282  0.13734  0.33946  1.0000
  H   H2316     1.0  0.87937  0.11900  0.39373  1.0000
  H   H2317     1.0  0.85344  0.10954  0.40144  1.0000
  H   H2318     1.0  0.81526  0.09145  0.36043  1.0000
  H   H2319     1.0  0.83913  0.07507  0.35534  1.0000
  H   H2320     1.0  0.83163  0.05082  0.38067  1.0000
  C   C1308     1.0  0.95659  0.19330  0.33147  1.0000
  H   H2321     1.0  0.80999  0.05272  0.36796  1.0000
  H   H2322     1.0  0.91168  0.07439  0.35861  1.0000
  H   H2323     1.0  0.90869  0.07208  0.33779  1.0000
  H   H2324     1.0  0.91538  0.09751  0.34389  1.0000
  H   H2325     1.0  0.92611  0.20755  0.30732  1.0000
  C   C1309     1.0  0.95995  0.19183  0.28523  1.0000
  H   H2326     1.0  0.73136  0.09665  0.26366  1.0000
  C   C1310     1.0  0.93877  0.21747  0.31082  1.0000
  C   C1311     1.0  0.79639  0.21842  0.25588  1.0000
  C   C1312     1.0  0.80377  0.08352  0.24225  1.0000
  H   H2327     1.0  0.94239  0.22941  0.30023  1.0000
  S   S297      1.0  0.89305  0.23817  0.24050  1.0000
  H   H2328     1.0  0.63867  0.31325  0.24763  1.0000
  H   H2329     1.0  0.69911  0.26181  0.26018  1.0000
  C   C1313     1.0  0.97515  0.17716  0.33663  1.0000
  H   H2330     1.0  0.75820  0.05850  0.25841  1.0000
  H   H2331     1.0  0.79134  0.20121  0.27962  1.0000
  H   H2332     1.0  0.71045  0.19392  0.23785  1.0000
  H   H2333     1.0  0.53753  0.30157  0.25898  1.0000
  H   H2334     1.0  0.96127  0.17727  0.26276  1.0000
  H   H2335     1.0  0.52675  0.31938  0.24290  1.0000
  H   H2336     1.0  0.64502  0.22722  0.24222  1.0000
  C   C1314     1.0  0.96391  0.01686  0.39315  1.0000
  H   H2337     1.0  0.71218  0.29660  0.26710  1.0000
  H   H2338     1.0  0.79941  0.08922  0.22992  1.0000
  C   C1315     1.0  0.64031  0.24374  0.23706  1.0000
  C   C1316     1.0  0.56720  0.32415  0.35671  1.0000
  H   H2339     1.0  0.85699  0.09825  0.23192  1.0000
  H   H2340     1.0  0.77626  0.25428  0.23972  1.0000
  H   H2341     1.0  0.68615  0.28968  0.22992  1.0000
  H   H2342     1.0  0.77658  0.03721  0.24053  1.0000
  H   H2343     1.0  0.50308  0.30599  0.27754  1.0000
  C   C1317     1.0  0.49919  0.25086  0.23100  1.0000
  H   H2344     1.0  0.96948  0.24779  0.31827  1.0000
  H   H2345     1.0  0.71408  0.20421  0.25676  1.0000
  C   C1318     1.0  0.94548  0.01077  0.38365  1.0000
  H   H2346     1.0  0.55976  0.31604  0.36812  1.0000
  H   H2347     1.0  0.81858  0.03003  0.23626  1.0000
  H   H2348     1.0  0.85432  0.22985  0.22729  1.0000
  H   H2349     1.0  0.83413  0.11547  0.23824  1.0000
  C   C1319     1.0  0.71263  0.22891  0.23645  1.0000
  H   H2350     1.0  0.73628  0.20249  0.24149  1.0000
  H   H2351     1.0  0.90870  0.01056  0.36883  1.0000
  C   C1320     1.0  0.79173  0.26058  0.23421  1.0000
  H   H2352     1.0  0.96551  0.00623  0.40436  1.0000
  H   H2353     1.0  0.97593  0.16251  0.33005  1.0000
  H   H2354     1.0  0.69356  0.12827  0.22780  1.0000
  C   C1321     1.0  0.64394  0.32061  0.23579  1.0000
  H   H2355     1.0  0.91434  0.00580  0.33960  1.0000
  C   C1322     1.0  0.83918  0.10054  0.23234  1.0000
  H   H2356     1.0  0.99088  0.18473  0.33445  1.0000
  N   N73       1.0  0.80777  0.24250  0.22961  1.0000
  H   H2357     1.0  0.97382  0.20153  0.28041  1.0000
  H   H2358     1.0  0.76863  0.22090  0.23314  1.0000
  H   H2359     1.0  0.99343  0.20467  0.31064  1.0000
  H   H2360     1.0  0.98495  0.15775  0.35794  1.0000
  H   H2361     1.0  0.49629  0.29584  0.24321  1.0000
  H   H2362     1.0  0.98079  0.99826  0.36245  1.0000
  H   H2363     1.0  0.77988  0.05942  0.22619  1.0000
  H   H2364     1.0  0.88720  0.00054  0.34781  1.0000
  H   H2365     1.0  0.90206  0.15039  0.70115  1.0000
  Fe  Fe149     1.0  0.97225  0.11864  0.55674  1.0000
  S   S298      1.0  0.94649  0.14557  0.55695  1.0000
  Fe  Fe150     1.0  0.94006  0.08364  0.55884  1.0000
  S   S299      1.0  0.91170  0.10761  0.56032  1.0000
  S   S300      1.0  0.94265  0.04805  0.55556  1.0000
  Fe  Fe151     1.0  0.93107  0.12647  0.53998  1.0000
  S   S301      1.0  0.91562  0.13738  0.51680  1.0000
  Fe  Fe152     1.0  0.92968  0.12461  0.57726  1.0000
  S   S302      1.0  0.91985  0.13257  0.60341  1.0000
  S   S303      1.0  0.95849  0.10184  0.53819  1.0000
  S   S304      1.0  0.95624  0.09832  0.57731  1.0000
  Fe  Fe153     1.0  0.90207  0.22043  0.67187  1.0000
  S   S305      1.0  0.91761  0.20142  0.69238  1.0000
  S   S306      1.0  0.90814  0.21449  0.64502  1.0000
  Fe  Fe154     1.0  0.87597  0.25221  0.69395  1.0000
  S   S307      1.0  0.88999  0.23458  0.71573  1.0000
  S   S308      1.0  0.85253  0.28157  0.70020  1.0000
  Fe  Fe155     1.0  0.92263  0.23347  0.70153  1.0000
  H   H2366     1.0  0.85150  0.12620  0.61485  1.0000
  Fe  Fe156     1.0  0.88413  0.20394  0.70531  1.0000
  H   H2367     1.0  0.71173  0.31000  0.72160  1.0000
  S   S309      1.0  0.90902  0.25278  0.68007  1.0000
  S   S310      1.0  0.86820  0.22118  0.68445  1.0000
  H   H2368     1.0  0.75160  0.20287  0.68103  1.0000
  H   H2369     1.0  0.61573  0.32690  0.70880  1.0000
  C   C1323     1.0  0.89765  0.31175  0.69018  1.0000
  H   H2370     1.0  0.50466  0.28391  0.67813  1.0000
  C   C1324     1.0  0.83200  0.17181  0.71054  1.0000
  C   C1325     1.0  0.81277  0.16140  0.71002  1.0000
  H   H2371     1.0  0.96788  0.00612  0.59479  1.0000
  H   H2372     1.0  0.83542  0.18622  0.70263  1.0000
  H   H2373     1.0  0.80154  0.16775  0.70154  1.0000
  H   H2374     1.0  0.79627  0.10633  0.68381  1.0000
  H   H2375     1.0  0.98470  0.20698  0.63734  1.0000
  S   S311      1.0  0.78447  0.12931  0.71855  1.0000
  H   H2376     1.0  0.67294  0.30914  0.69846  1.0000
  C   C1326     1.0  0.82504  0.30286  0.67828  1.0000
  C   C1327     1.0  0.83250  0.30169  0.69354  1.0000
  C   C1328     1.0  0.95464  0.30645  0.70505  1.0000
  H   H2377     1.0  0.83152  0.29135  0.66998  1.0000
  H   H2378     1.0  0.74077  0.16699  0.69483  1.0000
  H   H2379     1.0  0.86629  0.19284  0.65802  1.0000
  H   H2380     1.0  0.54241  0.27807  0.68253  1.0000
  C   C1329     1.0  0.98057  0.17306  0.63450  1.0000
  H   H2381     1.0  0.86923  0.16168  0.68678  1.0000
  H   H2382     1.0  0.98325  0.19203  0.61161  1.0000
  C   C1330     1.0  0.91839  0.15588  0.61441  1.0000
  C   C1331     1.0  0.91467  0.17690  0.60726  1.0000
  C   C1332     1.0  0.91179  0.19455  0.61680  1.0000
  C   C1333     1.0  0.91275  0.19157  0.63357  1.0000
  C   C1334     1.0  0.91751  0.17066  0.64058  1.0000
  C   C1335     1.0  0.92003  0.15297  0.63111  1.0000
  H   H2383     1.0  0.91334  0.17952  0.59447  1.0000
  H   H2384     1.0  0.90841  0.21063  0.61114  1.0000
  H   H2385     1.0  0.91919  0.16812  0.65331  1.0000
  H   H2386     1.0  0.92311  0.13684  0.63680  1.0000
  H   H2387     1.0  0.77377  0.18297  0.68246  1.0000
  C   C1336     1.0  0.92834  0.13378  0.49723  1.0000
  H   H2388     1.0  0.96465  0.18530  0.56109  1.0000
  H   H2389     1.0  0.98694  0.15109  0.58160  1.0000
  C   C1337     1.0  0.66909  0.31768  0.70906  1.0000
  C   C1338     1.0  0.92183  0.01094  0.55622  1.0000
  C   C1339     1.0  0.91978  0.03277  0.55914  1.0000
  C   C1340     1.0  0.89972  0.04188  0.56467  1.0000
  C   C1341     1.0  0.88180  0.02905  0.56739  1.0000
  C   C1342     1.0  0.95007  0.12685  0.49469  1.0000
  C   C1343     1.0  0.97722  0.17598  0.61634  1.0000
  H   H2390     1.0  0.89805  0.05871  0.56698  1.0000
  H   H2391     1.0  0.86628  0.03604  0.57175  1.0000
  H   H2392     1.0  0.88168  0.31890  0.69476  1.0000
  N   N74       1.0  0.90671  0.06155  0.50576  1.0000
  H   H2393     1.0  0.74384  0.28388  0.68498  1.0000
  C   C1344     1.0  0.90174  0.03923  0.51342  1.0000
  C   C1345     1.0  0.88982  0.07831  0.51132  1.0000
  C   C1346     1.0  0.92812  0.06715  0.51062  1.0000
  C   C1347     1.0  0.94822  0.05390  0.50372  1.0000
  C   C1348     1.0  0.51568  0.27900  0.66776  1.0000
  C   C1349     1.0  0.88429  0.07787  0.52978  1.0000
  C   C1350     1.0  0.87956  0.03127  0.51046  1.0000
  H   H2394     1.0  0.93050  0.08682  0.48040  1.0000
  C   C1351     1.0  0.96885  0.06182  0.50888  1.0000
  C   C1352     1.0  0.86833  0.09652  0.53404  1.0000
  H   H2395     1.0  0.89005  0.28421  0.71851  1.0000
  H   H2396     1.0  0.50290  0.32140  0.50291  1.0000
  H   H2397     1.0  0.91399  0.02703  0.50885  1.0000
  H   H2398     1.0  0.90303  0.03802  0.52661  1.0000
  H   H2399     1.0  0.87456  0.07708  0.50578  1.0000
  H   H2400     1.0  0.89505  0.09487  0.50707  1.0000
  H   H2401     1.0  0.93076  0.08465  0.50743  1.0000
  H   H2402     1.0  0.92818  0.06485  0.52391  1.0000
  N   N75       1.0  0.85761  0.14773  0.66685  1.0000
  C   C1353     1.0  0.91441  0.08255  0.47771  1.0000
  H   H2403     1.0  0.87789  0.29450  0.66655  1.0000
  C   C1354     1.0  0.90714  0.06158  0.48776  1.0000
  H   H2404     1.0  0.89890  0.07935  0.53594  1.0000
  H   H2405     1.0  0.87684  0.06263  0.53477  1.0000
  H   H2406     1.0  0.86611  0.04271  0.51423  1.0000
  H   H2407     1.0  0.87898  0.02920  0.49755  1.0000
  H   H2408     1.0  0.96201  0.16064  0.59054  1.0000
  H   H2409     1.0  0.50176  0.27187  0.50586  1.0000
  H   H2410     1.0  0.98080  0.30687  0.68573  1.0000
  C   C1355     1.0  0.89213  0.13526  0.68098  1.0000
  H   H2411     1.0  0.98584  0.20380  0.55786  1.0000
  C   C1356     1.0  0.75719  0.27721  0.71457  1.0000
  H   H2412     1.0  0.86459  0.09571  0.54728  1.0000
  H   H2413     1.0  0.87536  0.11230  0.52989  1.0000
  H   H2414     1.0  0.85311  0.09554  0.52844  1.0000
  H   H2415     1.0  0.52904  0.21881  0.71374  1.0000
  H   H2416     1.0  0.68720  0.19129  0.71626  1.0000
  H   H2417     1.0  0.85476  0.11401  0.67565  1.0000
  H   H2418     1.0  0.84651  0.13225  0.69032  1.0000
  C   C1357     1.0  0.97993  0.13716  0.61399  1.0000
  H   H2419     1.0  0.96061  0.09839  0.61298  1.0000
  H   H2420     1.0  0.72051  0.12449  0.70242  1.0000
  H   H2421     1.0  0.71907  0.30015  0.68740  1.0000
  C   C1358     1.0  0.72158  0.29452  0.72150  1.0000
  C   C1359     1.0  0.90943  0.14335  0.69013  1.0000
  H   H2422     1.0  0.74835  0.26593  0.70851  1.0000
  H   H2423     1.0  0.78315  0.24493  0.69988  1.0000
  H   H2424     1.0  0.92051  0.31907  0.72453  1.0000
  C   C1360     1.0  0.87581  0.15396  0.67575  1.0000
  C   C1361     1.0  0.98672  0.00666  0.57161  1.0000
  C   C1362     1.0  0.49547  0.29015  0.63584  1.0000
  H   H2425     1.0  0.89598  0.29403  0.69216  1.0000
  C   C1363     1.0  0.98326  0.18611  0.58151  1.0000
  C   C1364     1.0  0.74289  0.31310  0.66937  1.0000
  H   H2426     1.0  0.49801  0.25117  0.66781  1.0000
  H   H2427     1.0  0.98863  0.29668  0.70528  1.0000
  H   H2428     1.0  0.54820  0.26399  0.66471  1.0000
  C   C1365     1.0  0.78041  0.27824  0.70613  1.0000
  H   H2429     1.0  0.98304  0.05249  0.50352  1.0000
  H   H2430     1.0  0.79008  0.28850  0.71234  1.0000
  H   H2431     1.0  0.87392  0.01085  0.53287  1.0000
  H   H2432     1.0  0.91848  0.27831  0.71866  1.0000
  H   H2433     1.0  0.49792  0.28928  0.52209  1.0000
  H   H2434     1.0  0.91875  0.15571  0.68245  1.0000
  H   H2435     1.0  0.69302  0.12601  0.69743  1.0000
  H   H2436     1.0  0.66744  0.22661  0.71753  1.0000
  C   C1366     1.0  0.74801  0.17860  0.70162  1.0000
  S   S312      1.0  0.87183  0.17514  0.72174  1.0000
  C   C1367     1.0  0.70077  0.15219  0.71066  1.0000
  H   H2437     1.0  0.96619  0.03175  0.58286  1.0000
  C   C1368     1.0  0.85130  0.13436  0.63943  1.0000
  C   C1369     1.0  0.93585  0.30553  0.69443  1.0000
  H   H2438     1.0  0.82795  0.16384  0.65907  1.0000
  H   H2439     1.0  0.71424  0.28518  0.71305  1.0000
  H   H2440     1.0  0.88547  0.16631  0.66837  1.0000
  C   C1370     1.0  0.98894  0.21866  0.71808  1.0000
  C   C1371     1.0  0.90392  0.99819  0.55876  1.0000
  H   H2441     1.0  0.78037  0.28489  0.69338  1.0000
  C   C1372     1.0  0.74511  0.31166  0.69943  1.0000
  C   C1373     1.0  0.73689  0.30060  0.68565  1.0000
  H   H2442     1.0  0.97323  0.00012  0.56628  1.0000
  H   H2443     1.0  0.50566  0.30488  0.48622  1.0000
  C   C1374     1.0  0.84267  0.16759  0.66432  1.0000
  H   H2444     1.0  0.89957  0.14362  0.48565  1.0000
  H   H2445     1.0  0.83016  0.21145  0.66374  1.0000
  H   H2446     1.0  0.82137  0.20128  0.64614  1.0000
  H   H2447     1.0  0.99023  0.02345  0.59268  1.0000
  H   H2448     1.0  0.83679  0.17350  0.67614  1.0000
  H   H2449     1.0  0.84291  0.21956  0.64405  1.0000
  H   H2450     1.0  0.95949  0.17748  0.61545  1.0000
  H   H2451     1.0  0.98715  0.11813  0.59313  1.0000
  H   H2452     1.0  0.88399  0.12238  0.68900  1.0000
  H   H2453     1.0  0.87598  0.11787  0.62395  1.0000
  H   H2454     1.0  0.85714  0.18223  0.64095  1.0000
  C   C1375     1.0  0.97721  0.01774  0.58637  1.0000
  H   H2455     1.0  0.84375  0.11905  0.64407  1.0000
  H   H2456     1.0  0.83860  0.14737  0.63759  1.0000
  H   H2457     1.0  0.52104  0.29358  0.66016  1.0000
  C   C1376     1.0  0.88129  0.31183  0.66374  1.0000
  H   H2458     1.0  0.81134  0.00708  0.61407  1.0000
  C   C1377     1.0  0.80924  0.31904  0.67365  1.0000
  H   H2459     1.0  0.75781  0.00485  0.65572  1.0000
  C   C1378     1.0  0.51490  0.25099  0.71562  1.0000
  H   H2460     1.0  0.95116  0.29694  0.71683  1.0000
  H   H2461     1.0  0.96204  0.13737  0.61459  1.0000
  H   H2462     1.0  0.95959  0.12365  0.50479  1.0000
  H   H2463     1.0  0.77059  0.31710  0.72119  1.0000
  C   C1379     1.0  0.91636  0.13815  0.48386  1.0000
  H   H2464     1.0  0.51025  0.28318  0.62922  1.0000
  H   H2465     1.0  0.71903  0.19887  0.70201  1.0000
  H   H2466     1.0  0.53153  0.25221  0.68177  1.0000
  C   C1380     1.0  0.88390  0.00720  0.56444  1.0000
  C   C1381     1.0  0.86724  0.13991  0.65113  1.0000
  C   C1382     1.0  0.86303  0.13090  0.62293  1.0000
  H   H2467     1.0  0.87770  0.12498  0.65322  1.0000
  H   H2468     1.0  0.81216  0.14131  0.68071  1.0000
  H   H2469     1.0  0.82194  0.09258  0.67852  1.0000
  H   H2470     1.0  0.94189  0.31135  0.68193  1.0000
  H   H2471     1.0  0.97566  0.19099  0.65558  1.0000
  C   C1383     1.0  0.84612  0.12996  0.67733  1.0000
  N   N76       1.0  0.91521  0.31808  0.69953  1.0000
  C   C1384     1.0  0.76179  0.19313  0.68950  1.0000
  H   H2472     1.0  0.49787  0.20567  0.70206  1.0000
  H   H2473     1.0  0.94974  0.05538  0.49040  1.0000
  H   H2474     1.0  0.88884  0.99732  0.51681  1.0000
  C   C1385     1.0  0.97412  0.19385  0.64247  1.0000
  H   H2475     1.0  0.94743  0.03656  0.50816  1.0000
  C   C1386     1.0  0.90858  0.31320  0.71723  1.0000
  S   S313      1.0  0.95113  0.24524  0.71375  1.0000
  H   H2476     1.0  0.75888  0.16912  0.70959  1.0000
  H   H2477     1.0  0.98199  0.20698  0.71174  1.0000
  C   C1387     1.0  0.65354  0.30981  0.72112  1.0000
  H   H2478     1.0  0.98106  0.09385  0.62692  1.0000
  C   C1388     1.0  0.81395  0.10670  0.68424  1.0000
  H   H2479     1.0  0.87811  0.15197  0.64465  1.0000
  H   H2480     1.0  0.87030  0.14602  0.61736  1.0000
  C   C1389     1.0  0.73010  0.19204  0.71107  1.0000
  C   C1390     1.0  0.53566  0.26757  0.67456  1.0000
  C   C1391     1.0  0.87551  0.00935  0.51977  1.0000
  H   H2481     1.0  0.93300  0.28816  0.69387  1.0000
  H   H2482     1.0  0.92074  0.12966  0.69378  1.0000
  C   C1392     1.0  0.70354  0.12865  0.70686  1.0000
  H   H2483     1.0  0.81727  0.10540  0.69706  1.0000
  C   C1393     1.0  0.83554  0.20590  0.65175  1.0000
  N   N77       1.0  0.74464  0.29865  0.71560  1.0000
  H   H2484     1.0  0.81860  0.12816  0.66273  1.0000
  C   C1394     1.0  0.82193  0.12779  0.67542  1.0000
  H   H2485     1.0  0.82919  0.31636  0.71589  1.0000
  H   H2486     1.0  0.78856  0.99762  0.60553  1.0000
  C   C1395     1.0  0.49668  0.26479  0.71250  1.0000
  H   H2487     1.0  0.98654  0.03462  0.55409  1.0000
  H   H2488     1.0  0.70419  0.16275  0.69936  1.0000
  C   C1396     1.0  0.95971  0.12464  0.47898  1.0000
  H   H2489     1.0  0.51673  0.25518  0.65045  1.0000
  H   H2490     1.0  0.90060  0.12801  0.67041  1.0000
  H   H2491     1.0  0.97395  0.28011  0.69434  1.0000
  C   C1397     1.0  0.75936  0.00381  0.72344  1.0000
  C   C1398     1.0  0.85216  0.18687  0.65325  1.0000
  H   H2492     1.0  0.76164  0.31680  0.69552  1.0000
  H   H2493     1.0  0.96873  0.05957  0.52218  1.0000
  H   H2494     1.0  0.79327  0.24865  0.71885  1.0000
  H   H2495     1.0  0.97045  0.07921  0.50472  1.0000
  H   H2496     1.0  0.52543  0.30206  0.50063  1.0000
  C   C1399     1.0  0.50426  0.26367  0.65839  1.0000
  H   H2497     1.0  0.93731  0.00377  0.55213  1.0000
  H   H2498     1.0  0.68357  0.15525  0.71510  1.0000
  H   H2499     1.0  0.80845  0.25714  0.70019  1.0000
  H   H2500     1.0  0.97023  0.16037  0.64079  1.0000
  H   H2501     1.0  0.49616  0.28131  0.71550  1.0000
  C   C1400     1.0  0.90101  0.31708  0.67169  1.0000
  C   C1401     1.0  0.98146  0.18756  0.56344  1.0000
  C   C1402     1.0  0.71546  0.15681  0.72361  1.0000
  H   H2502     1.0  0.69881  0.11774  0.71777  1.0000
  S   S314      1.0  0.64071  0.28613  0.71850  1.0000
  H   H2503     1.0  0.76066  0.31233  0.66650  1.0000
  H   H2504     1.0  0.99249  0.17523  0.55770  1.0000
  C   C1403     1.0  0.51518  0.22967  0.71160  1.0000
  C   C1404     1.0  0.97574  0.29695  0.69706  1.0000
  C   C1405     1.0  0.82368  0.31698  0.70405  1.0000
  H   H2505     1.0  0.91738  0.04763  0.48345  1.0000
  H   H2506     1.0  0.98567  0.01358  0.51883  1.0000
  C   C1406     1.0  0.98925  0.11675  0.60611  1.0000
  H   H2507     1.0  0.77064  0.20407  0.69582  1.0000
  H   H2508     1.0  0.50394  0.31733  0.60773  1.0000
  C   C1407     1.0  0.90492  0.28915  0.72297  1.0000
  H   H2509     1.0  0.73554  0.30594  0.65979  1.0000
  H   H2510     1.0  0.73752  0.20631  0.71477  1.0000
  C   C1408     1.0  0.50801  0.30510  0.49913  1.0000
  C   C1409     1.0  0.80805  0.14279  0.72039  1.0000
  H   H2511     1.0  0.80381  0.31972  0.66177  1.0000
  H   H2512     1.0  0.97038  0.01492  0.53799  1.0000
  C   C1410     1.0  0.97824  0.09663  0.61402  1.0000
  C   C1411     1.0  0.98102  0.00423  0.53050  1.0000
  H   H2513     1.0  0.98409  0.13420  0.62658  1.0000
  H   H2514     1.0  0.97656  0.11955  0.47720  1.0000
  H   H2515     1.0  0.95711  0.19914  0.64075  1.0000
  H   H2516     1.0  0.69131  0.31972  0.65715  1.0000
  H   H2517     1.0  0.89078  0.05920  0.48435  1.0000
  H   H2518     1.0  0.98491  0.08227  0.60795  1.0000
  H   H2519     1.0  0.90267  0.09622  0.48020  1.0000
  N   N78       1.0  0.98764  0.15859  0.60628  1.0000
  H   H2520     1.0  0.97086  0.19777  0.58665  1.0000
  C   C1412     1.0  0.97739  0.23829  0.72063  1.0000
  H   H2521     1.0  0.91503  0.30729  0.66654  1.0000
  C   C1413     1.0  0.84684  0.16347  0.72127  1.0000
  S   S315      1.0  0.53636  0.26112  0.72492  1.0000
  C   C1414     1.0  0.97965  0.16298  0.58982  1.0000
  H   H2522     1.0  0.73135  0.14822  0.72105  1.0000
  C   C1415     1.0  0.79190  0.25580  0.70632  1.0000
  H   H2523     1.0  0.89312  0.32213  0.72071  1.0000
  H   H2524     1.0  0.95731  0.32325  0.70726  1.0000
  H   H2525     1.0  0.50099  0.30417  0.64111  1.0000
  H   H2526     1.0  0.86695  0.32195  0.66798  1.0000
  H   H2527     1.0  0.86028  0.00329  0.51664  1.0000
  H   H2528     1.0  0.73518  0.32705  0.70023  1.0000
  H   H2529     1.0  0.88425  0.31519  0.65050  1.0000
  H   H2530     1.0  0.59447  0.31911  0.69808  1.0000
  H   H2531     1.0  0.74389  0.00032  0.68460  1.0000
  H   H2532     1.0  0.72244  0.00590  0.67172  1.0000
  H   H2533     1.0  0.77189  0.01437  0.72492  1.0000
  C   C1416     1.0  0.49744  0.22226  0.70491  1.0000
  H   H2534     1.0  0.70535  0.22473  0.72451  1.0000
  C   C1417     1.0  0.49516  0.28781  0.50943  1.0000
  N   N79       1.0  0.71771  0.18041  0.72545  1.0000
  C   C1418     1.0  0.72182  0.99628  0.72538  1.0000
  H   H2535     1.0  0.72660  0.28848  0.74737  1.0000
  Fe  Fe157     1.0  0.87660  0.01761  0.88759  1.0000
  S   S316      1.0  0.84165  0.02128  0.89683  1.0000
  Fe  Fe158     1.0  0.88284  0.06562  0.88586  1.0000
  S   S317      1.0  0.84851  0.07333  0.89518  1.0000
  S   S318      1.0  0.90798  0.08947  0.87658  1.0000
  Fe  Fe159     1.0  0.85290  0.04426  0.91307  1.0000
  S   S319      1.0  0.84029  0.04091  0.93966  1.0000
  Fe  Fe160     1.0  0.83993  0.05009  0.87809  1.0000
  S   S320      1.0  0.81148  0.06112  0.86325  1.0000
  S   S321      1.0  0.88781  0.03849  0.90495  1.0000
  S   S322      1.0  0.87411  0.04444  0.86776  1.0000
  H   H2536     1.0  0.98270  0.18679  0.78805  1.0000
  C   C1419     1.0  0.61233  0.26878  0.92391  1.0000
  H   H2537     1.0  0.53057  0.32892  0.96821  1.0000
  N   N80       1.0  0.75757  0.00115  0.78152  1.0000
  C   C1420     1.0  0.90218  0.28541  0.74129  1.0000
  S   S323      1.0  0.60137  0.24151  0.72712  1.0000
  Fe  Fe161     1.0  0.60609  0.22518  0.75188  1.0000
  H   H2538     1.0  0.92317  0.03061  0.87546  1.0000
  S   S324      1.0  0.62010  0.18986  0.75175  1.0000
  Fe  Fe162     1.0  0.58625  0.26532  0.76815  1.0000
  S   S325      1.0  0.58179  0.28383  0.74409  1.0000
  S   S326      1.0  0.56903  0.28325  0.78899  1.0000
  Fe  Fe163     1.0  0.56839  0.25373  0.73698  1.0000
  H   H2539     1.0  0.93129  0.01733  0.89938  1.0000
  H   H2540     1.0  0.50157  0.26500  0.75627  1.0000
  C   C1421     1.0  0.58455  0.27089  0.90537  1.0000
  S   S327      1.0  0.57192  0.23550  0.76131  1.0000
  S   S328      1.0  0.62068  0.25368  0.76053  1.0000
  Fe  Fe164     1.0  0.77065  0.07915  0.77158  1.0000
  S   S329      1.0  0.77908  0.07055  0.74601  1.0000
  S   S330      1.0  0.79508  0.06381  0.78884  1.0000
  Fe  Fe165     1.0  0.72976  0.10715  0.76221  1.0000
  H   H2541     1.0  0.62992  0.30356  0.78487  1.0000
  S   S331      1.0  0.70617  0.13465  0.77106  1.0000
  Fe  Fe166     1.0  0.74396  0.06456  0.74609  1.0000
  C   C1422     1.0  0.76944  0.00822  0.76550  1.0000
  Fe  Fe167     1.0  0.77010  0.10554  0.73858  1.0000
  H   H2542     1.0  0.63963  0.14904  0.74291  1.0000
  S   S332      1.0  0.73560  0.07203  0.77199  1.0000
  S   S333      1.0  0.76441  0.11449  0.76386  1.0000
  H   H2543     1.0  0.65762  0.27015  0.92310  1.0000
  C   C1423     1.0  0.94782  0.08017  0.96112  1.0000
  H   H2544     1.0  0.68504  0.18145  0.73685  1.0000
  C   C1424     1.0  0.64449  0.17516  0.75693  1.0000
  C   C1425     1.0  0.65815  0.18257  0.76717  1.0000
  C   C1426     1.0  0.67673  0.16988  0.77141  1.0000
  C   C1427     1.0  0.68232  0.14981  0.76522  1.0000
  C   C1428     1.0  0.66889  0.14260  0.75472  1.0000
  C   C1429     1.0  0.65005  0.15507  0.75077  1.0000
  H   H2545     1.0  0.65413  0.19784  0.77213  1.0000
  H   H2546     1.0  0.68685  0.17565  0.77959  1.0000
  H   H2547     1.0  0.67276  0.12721  0.74990  1.0000
  H   H2548     1.0  0.96746  0.01007  0.92195  1.0000
  C   C1430     1.0  0.73783  0.01027  0.72778  1.0000
  H   H2549     1.0  0.93677  0.06702  0.96510  1.0000
  H   H2550     1.0  0.75902  0.18954  0.76097  1.0000
  H   H2551     1.0  0.58202  0.25355  0.90943  1.0000
  H   H2552     1.0  0.64598  0.32665  0.78466  1.0000
  H   H2553     1.0  0.55409  0.25210  0.88911  1.0000
  H   H2554     1.0  0.49790  0.20134  0.74552  1.0000
  H   H2555     1.0  0.54315  0.27732  0.87988  1.0000
  C   C1431     1.0  0.88072  0.06621  0.96746  1.0000
  H   H2556     1.0  0.53523  0.18315  0.73958  1.0000
  H   H2557     1.0  0.87837  0.99918  0.93063  1.0000
  H   H2558     1.0  0.75468  0.04588  0.81698  1.0000
  H   H2559     1.0  0.75888  0.30108  0.73789  1.0000
  C   C1432     1.0  0.72817  0.18222  0.74066  1.0000
  H   H2560     1.0  0.97175  0.02941  0.86376  1.0000
  C   C1433     1.0  0.57170  0.29038  0.80872  1.0000
  C   C1434     1.0  0.59037  0.28523  0.81653  1.0000
  C   C1435     1.0  0.59191  0.29218  0.83187  1.0000
  H   H2561     1.0  0.59668  0.27102  0.89471  1.0000
  H   H2562     1.0  0.75871  0.26902  0.72684  1.0000
  H   H2563     1.0  0.60367  0.27602  0.81072  1.0000
  H   H2564     1.0  0.72988  0.19942  0.74248  1.0000
  H   H2565     1.0  0.62508  0.32707  0.77114  1.0000
  C   C1436     1.0  0.80731  0.06158  0.84249  1.0000
  C   C1437     1.0  0.78949  0.07388  0.83669  1.0000
  C   C1438     1.0  0.78564  0.07510  0.82032  1.0000
  C   C1439     1.0  0.79940  0.06369  0.80953  1.0000
  C   C1440     1.0  0.81724  0.05142  0.81532  1.0000
  C   C1441     1.0  0.82123  0.05041  0.83165  1.0000
  H   H2566     1.0  0.77859  0.08260  0.84493  1.0000
  H   H2567     1.0  0.77188  0.08464  0.81612  1.0000
  H   H2568     1.0  0.82803  0.04255  0.80711  1.0000
  H   H2569     1.0  0.83497  0.04085  0.83587  1.0000
  C   C1442     1.0  0.71800  0.28171  0.73828  1.0000
  C   C1443     1.0  0.85201  0.05015  0.95598  1.0000
  C   C1444     1.0  0.87188  0.05968  0.95402  1.0000
  H   H2570     1.0  0.75745  0.03404  0.78794  1.0000
  H   H2571     1.0  0.88034  0.06220  0.94216  1.0000
  C   C1445     1.0  0.96251  0.09126  0.90892  1.0000
  C   C1446     1.0  0.94325  0.08175  0.91490  1.0000
  C   C1447     1.0  0.92645  0.08138  0.90508  1.0000
  C   C1448     1.0  0.92882  0.09036  0.88912  1.0000
  C   C1449     1.0  0.94805  0.10001  0.88311  1.0000
  C   C1450     1.0  0.96490  0.10048  0.89299  1.0000
  H   H2572     1.0  0.94120  0.07481  0.92722  1.0000
  H   H2573     1.0  0.91150  0.07451  0.90998  1.0000
  H   H2574     1.0  0.94993  0.10711  0.87080  1.0000
  C   C1451     1.0  0.75097  0.17121  0.74176  1.0000
  C   C1452     1.0  0.74913  0.01415  0.81012  1.0000
  C   C1453     1.0  0.80589  0.01104  0.74901  1.0000
  H   H2575     1.0  0.56128  0.26853  0.96482  1.0000
  H   H2576     1.0  0.64994  0.24235  0.92562  1.0000
  H   H2577     1.0  0.89592  0.07387  0.96578  1.0000
  C   C1454     1.0  0.54147  0.19384  0.74765  1.0000
  C   C1455     1.0  0.98960  0.04365  0.89643  1.0000
  C   C1456     1.0  0.58053  0.29040  0.94808  1.0000
  C   C1457     1.0  0.63027  0.26413  0.91029  1.0000
  N   N81       1.0  0.84716  0.11378  0.83220  1.0000
  C   C1458     1.0  0.85995  0.09272  0.83578  1.0000
  C   C1459     1.0  0.83070  0.11736  0.84625  1.0000
  C   C1460     1.0  0.83499  0.11142  0.81784  1.0000
  C   C1461     1.0  0.86121  0.13286  0.82834  1.0000
  C   C1462     1.0  0.88231  0.13200  0.83682  1.0000
  C   C1463     1.0  0.87435  0.08449  0.82122  1.0000
  C   C1464     1.0  0.81812  0.12993  0.81350  1.0000
  C   C1465     1.0  0.83941  0.11934  0.86260  1.0000
  C   C1466     1.0  0.82100  0.12014  0.87601  1.0000
  C   C1467     1.0  0.89270  0.15377  0.83429  1.0000
  C   C1468     1.0  0.89106  0.06698  0.82651  1.0000
  C   C1469     1.0  0.81030  0.12796  0.79705  1.0000
  H   H2578     1.0  0.84895  0.07971  0.84045  1.0000
  H   H2579     1.0  0.87023  0.09358  0.84568  1.0000
  H   H2580     1.0  0.82072  0.13255  0.84385  1.0000
  H   H2581     1.0  0.81929  0.10413  0.84795  1.0000
  H   H2582     1.0  0.82638  0.09615  0.81968  1.0000
  H   H2583     1.0  0.84636  0.11000  0.80686  1.0000
  H   H2584     1.0  0.86637  0.13515  0.81522  1.0000
  H   H2585     1.0  0.85173  0.14808  0.83099  1.0000
  H   H2586     1.0  0.89423  0.11983  0.83183  1.0000
  H   H2587     1.0  0.87967  0.12750  0.84991  1.0000
  H   H2588     1.0  0.86422  0.07733  0.81319  1.0000
  H   H2589     1.0  0.88289  0.09786  0.81409  1.0000
  H   H2590     1.0  0.82495  0.14597  0.81323  1.0000
  H   H2591     1.0  0.80373  0.12911  0.82242  1.0000
  H   H2592     1.0  0.85059  0.10551  0.86603  1.0000
  H   H2593     1.0  0.84772  0.13462  0.86213  1.0000
  H   H2594     1.0  0.80945  0.13407  0.87343  1.0000
  H   H2595     1.0  0.81232  0.10495  0.87739  1.0000
  H   H2596     1.0  0.82760  0.12192  0.88757  1.0000
  H   H2597     1.0  0.90795  0.15246  0.84017  1.0000
  H   H2598     1.0  0.89646  0.15864  0.82127  1.0000
  H   H2599     1.0  0.88182  0.16642  0.83976  1.0000
  H   H2600     1.0  0.51854  0.18515  0.76762  1.0000
  C   C1470     1.0  0.98534  0.21065  0.76772  1.0000
  H   H2601     1.0  0.94789  0.03846  0.84207  1.0000
  H   H2602     1.0  0.80321  0.11210  0.79684  1.0000
  H   H2603     1.0  0.79770  0.14092  0.79449  1.0000
  H   H2604     1.0  0.82379  0.12961  0.78741  1.0000
  H   H2605     1.0  0.70876  0.14839  0.73519  1.0000
  H   H2606     1.0  0.57099  0.26916  0.87508  1.0000
  C   C1471     1.0  0.55459  0.30235  0.81655  1.0000
  H   H2607     1.0  0.91706  0.28920  0.74639  1.0000
  C   C1472     1.0  0.98698  0.25312  0.72900  1.0000
  C   C1473     1.0  0.95776  0.08747  0.97541  1.0000
  H   H2608     1.0  0.57005  0.26476  0.93555  1.0000
  H   H2609     1.0  0.69654  0.21488  0.74494  1.0000
  N   N82       1.0  0.59274  0.28199  0.91860  1.0000
  S   S334      1.0  0.72993  0.03490  0.73692  1.0000
  H   H2610     1.0  0.90142  0.07314  0.83485  1.0000
  C   C1474     1.0  0.95857  0.03076  0.87366  1.0000
  H   H2611     1.0  0.75136  0.15388  0.73976  1.0000
  H   H2612     1.0  0.98607  0.22840  0.76500  1.0000
  H   H2613     1.0  0.88478  0.00948  0.95704  1.0000
  H   H2614     1.0  0.89912  0.26815  0.74495  1.0000
  H   H2615     1.0  0.76277  0.17960  0.73292  1.0000
  H   H2616     1.0  0.79941  0.02444  0.74080  1.0000
  H   H2617     1.0  0.85815  0.99990  0.95711  1.0000
  H   H2618     1.0  0.60645  0.28813  0.83775  1.0000
  H   H2619     1.0  0.97590  0.18664  0.81679  1.0000
  H   H2620     1.0  0.77472  0.02496  0.82280  1.0000
  C   C1475     1.0  0.96400  0.20450  0.76250  1.0000
  H   H2621     1.0  0.74834  0.02605  0.83362  1.0000
  C   C1476     1.0  0.57488  0.30439  0.83959  1.0000
  H   H2622     1.0  0.74765  0.16379  0.76779  1.0000
  C   C1477     1.0  0.52383  0.20023  0.76056  1.0000
  H   H2623     1.0  0.96874  0.10050  0.97071  1.0000
  H   H2624     1.0  0.69168  0.27150  0.75575  1.0000
  C   C1478     1.0  0.51741  0.26997  0.77695  1.0000
  C   C1479     1.0  0.67100  0.22515  0.73030  1.0000
  N   N83       1.0  0.96405  0.01614  0.88837  1.0000
  H   H2625     1.0  0.66393  0.25309  0.90699  1.0000
  H   H2626     1.0  0.63146  0.30794  0.91631  1.0000
  H   H2627     1.0  0.72381  0.26456  0.73757  1.0000
  H   H2628     1.0  0.60755  0.25280  0.92996  1.0000
  H   H2629     1.0  0.90145  0.06197  0.81585  1.0000
  H   H2630     1.0  0.55517  0.18506  0.75341  1.0000
  H   H2631     1.0  0.50327  0.27863  0.78300  1.0000
  H   H2632     1.0  0.54960  0.27999  0.90809  1.0000
  H   H2633     1.0  0.61312  0.31385  0.93321  1.0000
  H   H2634     1.0  0.91914  0.03798  0.84661  1.0000
  C   C1480     1.0  0.65172  0.25700  0.91698  1.0000
  H   H2635     1.0  0.94634  0.03888  0.90331  1.0000
  H   H2636     1.0  0.56592  0.29379  0.97233  1.0000
  H   H2637     1.0  0.62568  0.25084  0.90364  1.0000
  H   H2638     1.0  0.68806  0.29875  0.74658  1.0000
  H   H2639     1.0  0.75094  0.99718  0.81544  1.0000
  C   C1481     1.0  0.84119  0.04720  0.97148  1.0000
  H   H2640     1.0  0.54002  0.30634  0.81068  1.0000
  C   C1482     1.0  0.94758  0.02121  0.90206  1.0000
  H   H2641     1.0  0.97366  0.21308  0.79268  1.0000
  H   H2642     1.0  0.73174  0.01878  0.80961  1.0000
  H   H2643     1.0  0.56552  0.29812  0.89428  1.0000
  H   H2644     1.0  0.99448  0.18745  0.84197  1.0000
  C   C1483     1.0  0.59750  0.30500  0.91232  1.0000
  H   H2645     1.0  0.56072  0.29147  0.92892  1.0000
  H   H2646     1.0  0.96315  0.20984  0.74955  1.0000
  H   H2647     1.0  0.54682  0.29322  0.95774  1.0000
  H   H2648     1.0  0.60244  0.30620  0.89914  1.0000
  H   H2649     1.0  0.68455  0.27615  0.73538  1.0000
  H   H2650     1.0  0.88295  0.05259  0.83254  1.0000
  H   H2651     1.0  0.77503  0.16467  0.75875  1.0000
  C   C1484     1.0  0.75731  0.02864  0.82154  1.0000
  H   H2652     1.0  0.95019  0.21251  0.76942  1.0000
  H   H2653     1.0  0.96267  0.18670  0.76422  1.0000
  H   H2654     1.0  0.88830  0.29555  0.74626  1.0000
  H   H2655     1.0  0.93347  0.05875  0.85374  1.0000
  H   H2656     1.0  0.98072  0.04584  0.90834  1.0000
  H   H2657     1.0  0.76745  0.99692  0.75645  1.0000
  Fe  Fe168     1.0  0.61482  0.27023  0.73610  1.0000
  H   H2658     1.0  0.95715  0.04801  0.87620  1.0000
  H   H2659     1.0  0.98396  0.05663  0.88759  1.0000
  C   C1485     1.0  0.93716  0.02686  0.86679  1.0000
  H   H2660     1.0  0.93866  0.03522  0.93300  1.0000
  H   H2661     1.0  0.63273  0.27854  0.90154  1.0000
  S   S335      1.0  0.73546  0.09914  0.73662  1.0000
  H   H2662     1.0  0.72665  0.32711  0.74011  1.0000
  H   H2663     1.0  0.76224  0.02398  0.76045  1.0000
  C   C1486     1.0  0.93436  0.04147  0.85134  1.0000
  C   C1487     1.0  0.55765  0.26908  0.88489  1.0000
  H   H2664     1.0  0.52515  0.24758  0.75938  1.0000
  H   H2665     1.0  0.61976  0.27649  0.93315  1.0000
  H   H2666     1.0  0.72853  0.01916  0.77484  1.0000
  C   C1488     1.0  0.84197  0.14505  0.73178  1.0000
  C   C1489     1.0  0.49609  0.23726  0.77457  1.0000
  H   H2667     1.0  0.77888  0.01684  0.79499  1.0000
  C   C1490     1.0  0.51031  0.25494  0.76544  1.0000
  C   C1491     1.0  0.76147  0.01725  0.79310  1.0000
  C   C1492     1.0  0.69411  0.28206  0.74432  1.0000
  H   H2668     1.0  0.82569  0.04011  0.97308  1.0000
  H   H2669     1.0  0.72421  0.99932  0.79146  1.0000
  C   C1493     1.0  0.75483  0.31144  0.72690  1.0000
  C   C1494     1.0  0.75855  0.17246  0.75836  1.0000
  C   C1495     1.0  0.73370  0.00246  0.77967  1.0000
  H   H2670     1.0  0.93882  0.09393  0.95484  1.0000
  H   H2671     1.0  0.71765  0.17551  0.75125  1.0000
  C   C1496     1.0  0.56251  0.28615  0.96154  1.0000
  C   C1497     1.0  0.95088  0.00896  0.91864  1.0000
  H   H2672     1.0  0.81918  0.12049  0.73945  1.0000
  H   H2673     1.0  0.85333  0.13855  0.74016  1.0000
  H   H2674     1.0  0.58179  0.30816  0.94610  1.0000
  C   C1498     1.0  0.55615  0.30933  0.83186  1.0000
  H   H2675     1.0  0.96079  0.07395  0.95248  1.0000
  S   S336      1.0  0.57787  0.31303  0.85881  1.0000
  H   H2676     1.0  0.52790  0.28214  0.77011  1.0000
  C   C1499     1.0  0.61540  0.31554  0.91994  1.0000
  C   C1500     1.0  0.57526  0.28157  0.93242  1.0000
  H   H2677     1.0  0.58251  0.31568  0.91359  1.0000
  C   C1501     1.0  0.56349  0.28096  0.89878  1.0000
  C   C1502     1.0  0.98689  0.20392  0.78589  1.0000
  H   H2678     1.0  0.52684  0.26071  0.78615  1.0000
  H   H2679     1.0  0.91841  0.01745  0.92917  1.0000
  H   H2680     1.0  0.82323  0.01336  0.74970  1.0000
  C   C1503     1.0  0.64873  0.32085  0.73483  1.0000
  H   H2681     1.0  0.59559  0.28282  0.95251  1.0000
  H   H2682     1.0  0.54762  0.20844  0.74035  1.0000
  C   C1504     1.0  0.62960  0.32151  0.78339  1.0000
  H   H2683     1.0  0.97973  0.10785  0.88829  1.0000
  H   H2684     1.0  0.69958  0.00770  0.76021  1.0000
  S   S337      1.0  0.98342  0.09030  0.92159  1.0000
  C   C1505     1.0  0.98657  0.02076  0.89158  1.0000
  H   H2685     1.0  0.70508  0.00100  0.72853  1.0000
  H   H2686     1.0  0.97835  0.26831  0.73120  1.0000
  H   H2687     1.0  0.79617  0.02704  0.77015  1.0000
  H   H2688     1.0  0.53114  0.21005  0.76864  1.0000
  C   C1506     1.0  0.93537  0.01816  0.93187  1.0000
  H   H2689     1.0  0.80152  0.99850  0.77389  1.0000
  H   H2690     1.0  0.61803  0.32416  0.80808  1.0000
  H   H2691     1.0  0.63675  0.31490  0.74415  1.0000
  H   H2692     1.0  0.99252  0.00951  0.90143  1.0000
  C   C1507     1.0  0.69356  0.21467  0.73214  1.0000
  H   H2693     1.0  0.93743  0.00861  0.94355  1.0000
  C   C1508     1.0  0.50461  0.21275  0.75284  1.0000
  H   H2694     1.0  0.51109  0.22571  0.74403  1.0000
  H   H2695     1.0  0.65861  0.21548  0.73765  1.0000
  C   C1509     1.0  0.82261  0.13482  0.73142  1.0000
  H   H2696     1.0  0.54282  0.31846  0.83771  1.0000
  C   C1510     1.0  0.79388  0.01121  0.76577  1.0000
  H   H2697     1.0  0.50569  0.22817  0.78377  1.0000
  H   H2698     1.0  0.93660  0.00995  0.86389  1.0000
  C   C1511     1.0  0.69526  0.19106  0.72751  1.0000
  H   H2699     1.0  0.59749  0.32413  0.79450  1.0000
  H   H2700     1.0  0.66975  0.24158  0.73445  1.0000
  H   H2701     1.0  0.98622  0.16100  0.83915  1.0000
  C   C1512     1.0  0.99324  0.18138  0.81690  1.0000
  Fe  Fe169     1.0  0.59361  0.56696  0.06930  1.0000
  S   S338      1.0  0.61695  0.58889  0.05511  1.0000
  S   S339      1.0  0.56368  0.57825  0.08421  1.0000
  Fe  Fe170     1.0  0.62041  0.52660  0.06063  1.0000
  S   S340      1.0  0.64635  0.54555  0.04608  1.0000
  S   S341      1.0  0.62300  0.49006  0.06400  1.0000
  Fe  Fe171     1.0  0.64253  0.56692  0.06672  1.0000
  S   S342      1.0  0.66855  0.58296  0.07830  1.0000
  Fe  Fe172     1.0  0.61856  0.56561  0.03595  1.0000
  S   S343      1.0  0.60932  0.57507  0.01039  1.0000
  S   S344      1.0  0.61875  0.54623  0.08177  1.0000
  S   S345      1.0  0.59304  0.54551  0.04964  1.0000
  Fe  Fe173     1.0  0.56529  0.36560  0.02155  1.0000
  S   S346      1.0  0.53671  0.38886  0.02379  1.0000
  S   S347      1.0  0.53726  0.38047  0.06327  1.0000
  Fe  Fe174     1.0  0.52369  0.36525  0.04360  1.0000
  Fe  Fe175     1.0  0.55250  0.40238  0.04298  1.0000
  S   S348      1.0  0.54920  0.43874  0.04132  1.0000
  S   S349      1.0  0.58243  0.38101  0.03939  1.0000
  H   H2702     1.0  0.55473  0.33915  0.16569  1.0000
  H   H2703     1.0  0.50153  0.42132  0.97882  1.0000
  Fe  Fe176     1.0  0.71619  0.58549  0.16888  1.0000
  S   S350      1.0  0.70531  0.56979  0.19349  1.0000
  S   S351      1.0  0.69956  0.57069  0.14953  1.0000
  Fe  Fe177     1.0  0.75033  0.61130  0.18291  1.0000
  S   S352      1.0  0.74180  0.59595  0.20804  1.0000
  S   S353      1.0  0.77162  0.64106  0.17667  1.0000
  Fe  Fe178     1.0  0.74015  0.56415  0.19738  1.0000
  S   S354      1.0  0.75484  0.53093  0.20716  1.0000
  Fe  Fe179     1.0  0.70738  0.60238  0.20231  1.0000
  H   H2704     1.0  0.64330  0.48256  0.99646  1.0000
  S   S355      1.0  0.75149  0.57887  0.17239  1.0000
  S   S356      1.0  0.71549  0.61876  0.17760  1.0000
  H   H2705     1.0  0.65004  0.52355  0.21002  1.0000
  H   H2706     1.0  0.63874  0.51073  0.99719  1.0000
  H   H2707     1.0  0.77469  0.61451  0.15177  1.0000
  H   H2708     1.0  0.60964  0.45121  0.98679  1.0000
  C   C1513     1.0  0.49603  0.48157  0.05495  1.0000
  C   C1514     1.0  0.54386  0.63086  0.12172  1.0000
  H   H2709     1.0  0.83207  0.56550  0.17306  1.0000
  H   H2710     1.0  0.60703  0.63313  0.12838  1.0000
  C   C1515     1.0  0.83129  0.65295  0.19016  1.0000
  H   H2711     1.0  0.67051  0.47952  0.01627  1.0000
  H   H2712     1.0  0.53775  0.61696  0.03548  1.0000
  C   C1516     1.0  0.55268  0.34412  0.98109  1.0000
  H   H2713     1.0  0.58975  0.57644  0.10998  1.0000
  H   H2714     1.0  0.65818  0.33088  0.13282  1.0000
  H   H2715     1.0  0.53059  0.62815  0.13142  1.0000
  H   H2716     1.0  0.49815  0.50468  0.07941  1.0000
  C   C1517     1.0  0.59653  0.51136  0.00745  1.0000
  H   H2717     1.0  0.71048  0.51850  0.21793  1.0000
  H   H2718     1.0  0.60755  0.33736  0.03874  1.0000
  H   H2719     1.0  0.71890  0.43699  0.18697  1.0000
  C   C1518     1.0  0.67660  0.57945  0.09828  1.0000
  C   C1519     1.0  0.68713  0.59606  0.10399  1.0000
  C   C1520     1.0  0.69399  0.59391  0.11965  1.0000
  C   C1521     1.0  0.69073  0.57490  0.12978  1.0000
  C   C1522     1.0  0.68018  0.55831  0.12406  1.0000
  C   C1523     1.0  0.67319  0.56052  0.10846  1.0000
  H   H2720     1.0  0.69000  0.61074  0.09623  1.0000
  H   H2721     1.0  0.70179  0.60695  0.12382  1.0000
  H   H2722     1.0  0.67751  0.54353  0.13167  1.0000
  H   H2723     1.0  0.66543  0.54745  0.10423  1.0000
  C   C1524     1.0  0.60241  0.47575  0.05774  1.0000
  C   C1525     1.0  0.60370  0.45307  0.05956  1.0000
  C   C1526     1.0  0.58742  0.44141  0.05461  1.0000
  C   C1527     1.0  0.56985  0.45245  0.04781  1.0000
  C   C1528     1.0  0.56862  0.47505  0.04591  1.0000
  C   C1529     1.0  0.58485  0.48662  0.05084  1.0000
  H   H2724     1.0  0.61728  0.44452  0.06484  1.0000
  H   H2725     1.0  0.58845  0.42393  0.05609  1.0000
  H   H2726     1.0  0.55520  0.48361  0.04047  1.0000
  H   H2727     1.0  0.58373  0.50392  0.04919  1.0000
  S   S357      1.0  0.58338  0.36118  0.99707  1.0000
  C   C1530     1.0  0.61993  0.56510  0.99194  1.0000
  H   H2728     1.0  0.53937  0.54708  0.07350  1.0000
  C   C1531     1.0  0.51355  0.61751  0.05564  1.0000
  C   C1532     1.0  0.63727  0.61479  0.12781  1.0000
  C   C1533     1.0  0.52446  0.59952  0.08078  1.0000
  C   C1534     1.0  0.54469  0.59367  0.07315  1.0000
  C   C1535     1.0  0.54940  0.59987  0.05679  1.0000
  C   C1536     1.0  0.53395  0.61201  0.04811  1.0000
  C   C1537     1.0  0.58169  0.61802  0.11150  1.0000
  H   H2729     1.0  0.52082  0.59491  0.09348  1.0000
  H   H2730     1.0  0.56500  0.59547  0.05081  1.0000
  H   H2731     1.0  0.50132  0.33146  0.01598  1.0000
  C   C1538     1.0  0.81214  0.64264  0.18850  1.0000
  H   H2732     1.0  0.56336  0.50075  0.00865  1.0000
  C   C1539     1.0  0.50415  0.55361  0.05644  1.0000
  N   N84       1.0  0.59339  0.35239  0.14499  1.0000
  C   C1540     1.0  0.58696  0.37437  0.13701  1.0000
  C   C1541     1.0  0.59753  0.35388  0.16229  1.0000
  H   H2733     1.0  0.77113  0.62194  0.11526  1.0000
  C   C1542     1.0  0.96992  0.63801  0.16141  1.0000
  H   H2734     1.0  0.97852  0.64311  0.14954  1.0000
  C   C1543     1.0  0.58274  0.37527  0.11901  1.0000
  H   H2735     1.0  0.80411  0.59277  0.08849  1.0000
  C   C1544     1.0  0.58373  0.37093  0.17171  1.0000
  C   C1545     1.0  0.58706  0.36759  0.18960  1.0000
  H   H2736     1.0  0.64719  0.36019  0.03879  1.0000
  C   C1546     1.0  0.57632  0.39829  0.11236  1.0000
  C   C1547     1.0  0.72897  0.65068  0.22137  1.0000
  H   H2737     1.0  0.59968  0.38582  0.13792  1.0000
  H   H2738     1.0  0.57214  0.38145  0.14331  1.0000
  C   C1548     1.0  0.79989  0.58212  0.11411  1.0000
  H   H2739     1.0  0.61447  0.35804  0.16304  1.0000
  C   C1549     1.0  0.52908  0.39832  0.97981  1.0000
  H   H2740     1.0  0.63886  0.60800  0.15366  1.0000
  C   C1550     1.0  0.56228  0.51413  0.08704  1.0000
  H   H2741     1.0  0.57095  0.51827  0.99085  1.0000
  H   H2742     1.0  0.54766  0.35767  0.14873  1.0000
  H   H2743     1.0  0.61149  0.34100  0.12379  1.0000
  H   H2744     1.0  0.59732  0.36994  0.11144  1.0000
  H   H2745     1.0  0.56943  0.36500  0.11739  1.0000
  H   H2746     1.0  0.66396  0.49120  0.03506  1.0000
  C   C1551     1.0  0.59859  0.58263  0.11928  1.0000
  H   H2747     1.0  0.58867  0.38742  0.16714  1.0000
  H   H2748     1.0  0.56632  0.37038  0.17058  1.0000
  H   H2749     1.0  0.58174  0.35149  0.19488  1.0000
  H   H2750     1.0  0.60433  0.36860  0.19141  1.0000
  H   H2751     1.0  0.58506  0.43140  0.00779  1.0000
  C   C1552     1.0  0.61152  0.54363  0.12597  1.0000
  C   C1553     1.0  0.52036  0.55413  0.04118  1.0000
  H   H2752     1.0  0.86333  0.64861  0.14084  1.0000
  H   H2753     1.0  0.58936  0.40930  0.11319  1.0000
  H   H2754     1.0  0.57348  0.39841  0.09950  1.0000
  H   H2755     1.0  0.56124  0.40435  0.11903  1.0000
  H   H2756     1.0  0.50210  0.47134  0.06534  1.0000
  N   N85       1.0  0.60298  0.60612  0.11463  1.0000
  C   C1554     1.0  0.49874  0.54537  0.08558  1.0000
  C   C1555     1.0  0.50878  0.61115  0.07200  1.0000
  C   C1556     1.0  0.64435  0.62019  0.14376  1.0000
  H   H2757     1.0  0.77436  0.48876  0.21634  1.0000
  H   H2758     1.0  0.73523  0.63754  0.12324  1.0000
  H   H2759     1.0  0.56683  0.50010  0.09550  1.0000
  H   H2760     1.0  0.60431  0.52698  0.00436  1.0000
  H   H2761     1.0  0.84531  0.61404  0.14484  1.0000
  C   C1557     1.0  0.49701  0.51618  0.06844  1.0000
  H   H2762     1.0  0.79402  0.59910  0.17041  1.0000
  H   H2763     1.0  0.58346  0.47193  0.00322  1.0000
  H   H2764     1.0  0.56531  0.52920  0.09228  1.0000
  C   C1558     1.0  0.57258  0.51502  0.00391  1.0000
  H   H2765     1.0  0.50861  0.55851  0.08840  1.0000
  H   H2766     1.0  0.62448  0.36321  0.05374  1.0000
  H   H2767     1.0  0.60565  0.60795  0.13996  1.0000
  H   H2768     1.0  0.50705  0.41127  0.99840  1.0000
  H   H2769     1.0  0.63925  0.62248  0.06959  1.0000
  H   H2770     1.0  0.64052  0.65027  0.07339  1.0000
  H   H2771     1.0  0.78212  0.58473  0.11456  1.0000
  H   H2772     1.0  0.54465  0.42609  0.98627  1.0000
  H   H2773     1.0  0.51393  0.60564  0.99769  1.0000
  C   C1559     1.0  0.63270  0.49487  0.00248  1.0000
  H   H2774     1.0  0.60257  0.53856  0.11634  1.0000
  H   H2775     1.0  0.57750  0.38023  0.19608  1.0000
  C   C1560     1.0  0.60047  0.47239  0.00587  1.0000
  H   H2776     1.0  0.60536  0.51567  0.97778  1.0000
  H   H2777     1.0  0.65943  0.54325  0.19406  1.0000
  H   H2778     1.0  0.84425  0.62675  0.12473  1.0000
  C   C1561     1.0  0.61204  0.45176  0.99964  1.0000
  C   C1562     1.0  0.67233  0.65462  0.20732  1.0000
  H   H2779     1.0  0.62595  0.35760  0.13446  1.0000
  H   H2780     1.0  0.95100  0.65150  0.18097  1.0000
  H   H2781     1.0  0.50319  0.63315  0.99644  1.0000
  H   H2782     1.0  0.58799  0.58075  0.13071  1.0000
  H   H2783     1.0  0.54479  0.53655  0.00939  1.0000
  C   C1563     1.0  0.61731  0.60810  0.09903  1.0000
  S   S358      1.0  0.68233  0.61366  0.22164  1.0000
  H   H2784     1.0  0.81496  0.57607  0.18939  1.0000
  H   H2785     1.0  0.60539  0.43062  0.02172  1.0000
  H   H2786     1.0  0.62973  0.56716  0.11103  1.0000
  C   C1564     1.0  0.63978  0.63345  0.07914  1.0000
  C   C1565     1.0  0.50597  0.40619  0.98615  1.0000
  C   C1566     1.0  0.53853  0.51371  0.08423  1.0000
  H   H2787     1.0  0.65460  0.62932  0.08531  1.0000
  H   H2788     1.0  0.52269  0.50185  0.05200  1.0000
  H   H2789     1.0  0.55729  0.59866  0.12601  1.0000
  H   H2790     1.0  0.59622  0.50813  0.02070  1.0000
  Fe  Fe180     1.0  0.56612  0.35760  0.05845  1.0000
  C   C1567     1.0  0.56189  0.53438  0.01200  1.0000
  C   C1568     1.0  0.74340  0.62618  0.13205  1.0000
  H   H2791     1.0  0.80733  0.61606  0.11095  1.0000
  C   C1569     1.0  0.95982  0.65769  0.16946  1.0000
  H   H2792     1.0  0.59057  0.57368  0.98084  1.0000
  H   H2793     1.0  0.80679  0.63294  0.15123  1.0000
  C   C1570     1.0  0.60688  0.56682  0.97912  1.0000
  H   H2794     1.0  0.77276  0.64254  0.12863  1.0000
  H   H2795     1.0  0.66732  0.50865  0.01663  1.0000
  S   S359      1.0  0.55128  0.34044  0.04015  1.0000
  H   H2796     1.0  0.61096  0.59883  0.09002  1.0000
  H   H2797     1.0  0.65100  0.35653  0.05991  1.0000
  H   H2798     1.0  0.53590  0.49771  0.08020  1.0000
  H   H2799     1.0  0.56851  0.61822  0.13687  1.0000
  H   H2800     1.0  0.80372  0.55997  0.17604  1.0000
  C   C1571     1.0  0.61829  0.56686  0.12196  1.0000
  H   H2801     1.0  0.54572  0.33787  0.99282  1.0000
  H   H2802     1.0  0.82585  0.57488  0.09569  1.0000
  C   C1572     1.0  0.74342  0.50618  0.21591  1.0000
  N   N86       1.0  0.60953  0.49366  0.99915  1.0000
  H   H2803     1.0  0.82841  0.58305  0.14431  1.0000
  C   C1573     1.0  0.66444  0.52901  0.20219  1.0000
  H   H2804     1.0  0.65119  0.55466  0.99934  1.0000
  C   C1574     1.0  0.67069  0.64037  0.22129  1.0000
  H   H2805     1.0  0.73748  0.60980  0.13173  1.0000
  C   C1575     1.0  0.66127  0.49293  0.02211  1.0000
  H   H2806     1.0  0.49919  0.53282  0.09592  1.0000
  H   H2807     1.0  0.98139  0.62866  0.16912  1.0000
  C   C1576     1.0  0.53205  0.53198  0.07131  1.0000
  C   C1577     1.0  0.60738  0.49794  0.98128  1.0000
  H   H2808     1.0  0.57578  0.61299  0.10043  1.0000
  C   C1578     1.0  0.63723  0.49218  0.02043  1.0000
  N   N87       1.0  0.50817  0.53647  0.07011  1.0000
  H   H2809     1.0  0.50784  0.58586  0.03152  1.0000
  N   N88       1.0  0.80359  0.60684  0.13660  1.0000
  H   H2810     1.0  0.80374  0.56712  0.12182  1.0000
  H   H2811     1.0  0.61057  0.41681  0.00377  1.0000
  H   H2812     1.0  0.59253  0.49094  0.97822  1.0000
  H   H2813     1.0  0.64483  0.59880  0.12536  1.0000
  C   C1579     1.0  0.61227  0.61572  0.12811  1.0000
  S   S360      1.0  0.58813  0.34247  0.07727  1.0000
  H   H2814     1.0  0.73907  0.63155  0.14423  1.0000
  C   C1580     1.0  0.83791  0.62776  0.13747  1.0000
  H   H2815     1.0  0.53637  0.38729  0.98924  1.0000
  N   N89       1.0  0.70371  0.50218  0.16950  1.0000
  C   C1581     1.0  0.68724  0.49991  0.15790  1.0000
  C   C1582     1.0  0.69431  0.51766  0.18142  1.0000
  C   C1583     1.0  0.72294  0.51235  0.15999  1.0000
  C   C1584     1.0  0.71122  0.48084  0.17802  1.0000
  C   C1585     1.0  0.69476  0.46290  0.18132  1.0000
  C   C1586     1.0  0.69564  0.48846  0.14273  1.0000
  C   C1587     1.0  0.74067  0.51886  0.16993  1.0000
  C   C1588     1.0  0.67414  0.51065  0.19249  1.0000
  C   C1589     1.0  0.70326  0.44386  0.19229  1.0000
  C   C1590     1.0  0.67708  0.48221  0.13392  1.0000
  C   C1591     1.0  0.76114  0.52453  0.15921  1.0000
  H   H2816     1.0  0.68041  0.51619  0.15356  1.0000
  H   H2817     1.0  0.67318  0.49136  0.16389  1.0000
  H   H2818     1.0  0.70629  0.52050  0.18975  1.0000
  H   H2819     1.0  0.69035  0.53375  0.17496  1.0000
  H   H2820     1.0  0.71769  0.52711  0.15241  1.0000
  H   H2821     1.0  0.73106  0.50111  0.15150  1.0000
  H   H2822     1.0  0.72549  0.47347  0.17107  1.0000
  H   H2823     1.0  0.71713  0.48355  0.18971  1.0000
  H   H2824     1.0  0.69173  0.45657  0.16992  1.0000
  H   H2825     1.0  0.67908  0.46881  0.18706  1.0000
  H   H2826     1.0  0.70546  0.49956  0.13417  1.0000
  H   H2827     1.0  0.70588  0.47370  0.14586  1.0000
  H   H2828     1.0  0.74498  0.50562  0.17911  1.0000
  H   H2829     1.0  0.73501  0.53344  0.17605  1.0000
  H   H2830     1.0  0.66131  0.50589  0.18561  1.0000
  H   H2831     1.0  0.67869  0.49697  0.20125  1.0000
  H   H2832     1.0  0.63190  0.47649  0.02643  1.0000
  H   H2833     1.0  0.69155  0.43097  0.19410  1.0000
  H   H2834     1.0  0.53789  0.62812  0.11011  1.0000
  H   H2835     1.0  0.66676  0.49677  0.13035  1.0000
  H   H2836     1.0  0.68362  0.47468  0.12288  1.0000
  H   H2837     1.0  0.66714  0.47039  0.14167  1.0000
  H   H2838     1.0  0.75757  0.53798  0.14995  1.0000
  H   H2839     1.0  0.77316  0.52975  0.16670  1.0000
  H   H2840     1.0  0.76822  0.51023  0.15325  1.0000
  H   H2841     1.0  0.63358  0.60048  0.10049  1.0000
  C   C1592     1.0  0.56313  0.61525  0.12513  1.0000
  H   H2842     1.0  0.56254  0.53173  0.02521  1.0000
  C   C1593     1.0  0.81146  0.58841  0.14805  1.0000
  C   C1594     1.0  0.77939  0.60936  0.13961  1.0000
  H   H2843     1.0  0.66223  0.61992  0.14297  1.0000
  H   H2844     1.0  0.62904  0.50545  0.02701  1.0000
  C   C1595     1.0  0.81028  0.59286  0.16599  1.0000
  H   H2845     1.0  0.50169  0.37342  0.00810  1.0000
  H   H2846     1.0  0.62950  0.45091  0.00112  1.0000
  C   C1596     1.0  0.51193  0.56948  0.02754  1.0000
  H   H2847     1.0  0.62643  0.57089  0.13230  1.0000
  C   C1597     1.0  0.81562  0.57228  0.17670  1.0000
  H   H2848     1.0  0.57506  0.33388  0.13128  1.0000
  H   H2849     1.0  0.82811  0.59809  0.11800  1.0000
  C   C1598     1.0  0.76778  0.62593  0.12786  1.0000
  H   H2850     1.0  0.67622  0.53395  0.20998  1.0000
  C   C1599     1.0  0.81295  0.62777  0.13924  1.0000
  H   H2851     1.0  0.80201  0.57396  0.14761  1.0000
  H   H2852     1.0  0.77207  0.59353  0.13970  1.0000
  H   H2853     1.0  0.60115  0.54209  0.13753  1.0000
  H   H2854     1.0  0.70547  0.44910  0.20423  1.0000
  C   C1600     1.0  0.61980  0.63160  0.09115  1.0000
  C   C1601     1.0  0.63622  0.32983  0.05135  1.0000
  C   C1602     1.0  0.55408  0.34115  0.15247  1.0000
  H   H2855     1.0  0.82190  0.60493  0.16776  1.0000
  H   H2856     1.0  0.62087  0.64305  0.10028  1.0000
  H   H2857     1.0  0.59980  0.47064  0.01921  1.0000
  C   C1603     1.0  0.63993  0.35393  0.05084  1.0000
  C   C1604     1.0  0.60266  0.43147  0.00881  1.0000
  C   C1605     1.0  0.80813  0.57837  0.09680  1.0000
  C   C1606     1.0  0.50529  0.61827  0.99006  1.0000
  H   H2858     1.0  0.81016  0.62618  0.19365  1.0000
  C   C1607     1.0  0.61424  0.34461  0.13606  1.0000
  H   H2859     1.0  0.58375  0.63570  0.10905  1.0000
  C   C1608     1.0  0.79585  0.65351  0.18000  1.0000
  H   H2860     1.0  0.62608  0.53257  0.12710  1.0000
  H   H2861     1.0  0.57273  0.51319  0.07566  1.0000
  C   C1609     1.0  0.64096  0.55606  0.98960  1.0000
  C   C1610     1.0  0.81039  0.60170  0.11961  1.0000
  H   H2862     1.0  0.54066  0.52739  0.05986  1.0000
  H   H2863     1.0  0.59588  0.33778  0.16926  1.0000
  H   H2864     1.0  0.53588  0.56007  0.04387  1.0000
  C   C1611     1.0  0.72125  0.50440  0.21981  1.0000
  H   H2865     1.0  0.80038  0.56432  0.09316  1.0000
  H   H2866     1.0  0.64417  0.62668  0.11824  1.0000
  C   C1612     1.0  0.57075  0.35650  0.97984  1.0000
  H   H2867     1.0  0.63780  0.63652  0.14659  1.0000
  H   H2868     1.0  0.67999  0.35569  0.21713  1.0000
  H   H2869     1.0  0.49733  0.56328  0.02349  1.0000
  H   H2870     1.0  0.52449  0.57095  0.01723  1.0000
  H   H2871     1.0  0.80746  0.64107  0.13050  1.0000
  H   H2872     1.0  0.52923  0.51501  0.09603  1.0000
  H   H2873     1.0  0.57007  0.54937  0.00735  1.0000
  H   H2874     1.0  0.74623  0.64822  0.21699  1.0000
  C   C1613     1.0  0.57674  0.33622  0.14399  1.0000
  H   H2875     1.0  0.49855  0.40173  0.04971  1.0000
  H   H2876     1.0  0.84381  0.64413  0.19653  1.0000
  H   H2877     1.0  0.60553  0.63688  0.08454  1.0000
  C   C1614     1.0  0.65694  0.33991  0.20529  1.0000
  H   H2878     1.0  0.66197  0.34755  0.19349  1.0000
  H   H2879     1.0  0.50148  0.47352  0.04391  1.0000
  C   C1615     1.0  0.50492  0.50406  0.05356  1.0000
  H   H2880     1.0  0.51157  0.36234  0.98992  1.0000
  H   H2881     1.0  0.68028  0.64910  0.19633  1.0000
  H   H2882     1.0  0.71940  0.64283  0.21338  1.0000
  H   H2883     1.0  0.52364  0.53801  0.03679  1.0000
  C   C1616     1.0  0.75716  0.48770  0.21915  1.0000
  H   H2884     1.0  0.49918  0.51319  0.04262  1.0000
  H   H2885     1.0  0.95709  0.62728  0.15949  1.0000
  H   H2886     1.0  0.50449  0.57007  0.06050  1.0000
  C   C1617     1.0  0.66718  0.34458  0.21866  1.0000
  H   H2887     1.0  0.84054  0.64975  0.15566  1.0000
  C   C1618     1.0  0.49687  0.36957  0.99635  1.0000
  H   H2888     1.0  0.54837  0.64789  0.12125  1.0000
  C   C1619     1.0  0.84548  0.64857  0.14271  1.0000
  H   H2889     1.0  0.63143  0.32982  0.02678  1.0000
  H   H2890     1.0  0.53391  0.62869  0.97606  1.0000
  Fe  Fe181     1.0  0.74890  0.36224  0.25559  1.0000
  H   H2891     1.0  0.62523  0.49381  0.43139  1.0000
  Fe  Fe182     1.0  0.71721  0.38032  0.28269  1.0000
  S   S361      1.0  0.69341  0.39336  0.26549  1.0000
  S   S362      1.0  0.71128  0.38166  0.31010  1.0000
  Fe  Fe183     1.0  0.69989  0.36205  0.25413  1.0000
  C   C1620     1.0  0.63550  0.36586  0.32259  1.0000
  Fe  Fe184     1.0  0.72199  0.40589  0.24920  1.0000
  S   S363      1.0  0.72217  0.34800  0.27246  1.0000
  S   S364      1.0  0.74585  0.39399  0.26709  1.0000
  C   C1621     1.0  0.74895  0.46782  0.22605  1.0000
  S   S365      1.0  0.54229  0.60729  0.38156  1.0000
  Fe  Fe185     1.0  0.53737  0.63371  0.42251  1.0000
  S   S366      1.0  0.53749  0.59806  0.42126  1.0000
  H   H2892     1.0  0.49998  0.44824  0.40448  1.0000
  Fe  Fe186     1.0  0.56395  0.60233  0.40151  1.0000
  S   S367      1.0  0.59086  0.57630  0.40025  1.0000
  C   C1622     1.0  0.52473  0.38387  0.43827  1.0000
  S   S368      1.0  0.56607  0.63796  0.40400  1.0000
  Fe  Fe187     1.0  0.62574  0.43174  0.38060  1.0000
  S   S369      1.0  0.58982  0.42794  0.38409  1.0000
  S   S370      1.0  0.63815  0.43179  0.35381  1.0000
  Fe  Fe188     1.0  0.62699  0.43781  0.41692  1.0000
  S   S371      1.0  0.59167  0.43354  0.42230  1.0000
  S   S372      1.0  0.64405  0.44947  0.43703  1.0000
  Fe  Fe189     1.0  0.59686  0.40679  0.40619  1.0000
  S   S373      1.0  0.58234  0.37473  0.41352  1.0000
  Fe  Fe190     1.0  0.58805  0.45525  0.39972  1.0000
  S   S374      1.0  0.56066  0.48078  0.40134  1.0000
  S   S375      1.0  0.63290  0.40897  0.40234  1.0000
  S   S376      1.0  0.62318  0.46105  0.39478  1.0000
  H   H2893     1.0  0.63290  0.40709  0.45264  1.0000
  C   C1623     1.0  0.64014  0.43887  0.45752  1.0000
  C   C1624     1.0  0.55795  0.34369  0.40554  1.0000
  H   H2894     1.0  0.52990  0.56034  0.37895  1.0000
  H   H2895     1.0  0.49962  0.53950  0.35838  1.0000
  C   C1625     1.0  0.58185  0.55012  0.39978  1.0000
  C   C1626     1.0  0.56179  0.54441  0.40742  1.0000
  C   C1627     1.0  0.55549  0.52310  0.40793  1.0000
  C   C1628     1.0  0.56899  0.50741  0.40053  1.0000
  C   C1629     1.0  0.58884  0.51319  0.39258  1.0000
  C   C1630     1.0  0.59534  0.53443  0.39236  1.0000
  H   H2896     1.0  0.55122  0.55630  0.41316  1.0000
  H   H2897     1.0  0.54007  0.51881  0.41405  1.0000
  H   H2898     1.0  0.59917  0.50137  0.38652  1.0000
  H   H2899     1.0  0.61080  0.53876  0.38632  1.0000
  H   H2900     1.0  0.54434  0.35552  0.44612  1.0000
  H   H2901     1.0  0.56721  0.33287  0.41349  1.0000
  H   H2902     1.0  0.50276  0.39842  0.40519  1.0000
  H   H2903     1.0  0.56131  0.47490  0.46184  1.0000
  C   C1631     1.0  0.52975  0.34929  0.38745  1.0000
  C   C1632     1.0  0.53367  0.37137  0.38509  1.0000
  C   C1633     1.0  0.55009  0.37949  0.39276  1.0000
  C   C1634     1.0  0.56222  0.36558  0.40304  1.0000
  H   H2904     1.0  0.50599  0.51179  0.34367  1.0000
  C   C1635     1.0  0.57764  0.38160  0.47274  1.0000
  H   H2905     1.0  0.53587  0.44462  0.45484  1.0000
  H   H2906     1.0  0.55332  0.39643  0.39082  1.0000
  H   H2907     1.0  0.58048  0.45195  0.46383  1.0000
  H   H2908     1.0  0.50759  0.48042  0.32778  1.0000
  C   C1636     1.0  0.59118  0.38959  0.35253  1.0000
  H   H2909     1.0  0.64076  0.34065  0.38278  1.0000
  H   H2910     1.0  0.65588  0.36380  0.30019  1.0000
  S   S377      1.0  0.71514  0.44130  0.23838  1.0000
  H   H2911     1.0  0.65821  0.63652  0.24622  1.0000
  C   C1637     1.0  0.69063  0.39548  0.32207  1.0000
  C   C1638     1.0  0.69032  0.39267  0.33894  1.0000
  C   C1639     1.0  0.67438  0.40345  0.34889  1.0000
  C   C1640     1.0  0.65860  0.41740  0.34206  1.0000
  C   C1641     1.0  0.65896  0.42025  0.32519  1.0000
  C   C1642     1.0  0.67471  0.40925  0.31528  1.0000
  H   H2912     1.0  0.70254  0.38206  0.34437  1.0000
  H   H2913     1.0  0.67444  0.40111  0.36182  1.0000
  H   H2914     1.0  0.64684  0.43096  0.31974  1.0000
  H   H2915     1.0  0.67446  0.41128  0.30239  1.0000
  H   H2916     1.0  0.55261  0.41146  0.36252  1.0000
  H   H2917     1.0  0.52384  0.60168  0.45604  1.0000
  H   H2918     1.0  0.52963  0.44573  0.41899  1.0000
  H   H2919     1.0  0.60379  0.55619  0.46442  1.0000
  H   H2920     1.0  0.50925  0.44840  0.37508  1.0000
  H   H2921     1.0  0.57687  0.40194  0.33013  1.0000
  H   H2922     1.0  0.63066  0.53922  0.41416  1.0000
  N   N90       1.0  0.71640  0.46316  0.29361  1.0000
  C   C1643     1.0  0.71830  0.48637  0.28662  1.0000
  C   C1644     1.0  0.70828  0.46209  0.31129  1.0000
  C   C1645     1.0  0.73877  0.45228  0.29220  1.0000
  C   C1646     1.0  0.70225  0.45112  0.28447  1.0000
  C   C1647     1.0  0.67876  0.46039  0.28374  1.0000
  C   C1648     1.0  0.72634  0.48993  0.26850  1.0000
  C   C1649     1.0  0.74109  0.42894  0.30054  1.0000
  C   C1650     1.0  0.69230  0.48060  0.31691  1.0000
  C   C1651     1.0  0.68282  0.47538  0.33426  1.0000
  C   C1652     1.0  0.66695  0.44882  0.27234  1.0000
  C   C1653     1.0  0.72734  0.51402  0.26295  1.0000
  C   C1654     1.0  0.76466  0.42054  0.29976  1.0000
  H   H2923     1.0  0.72932  0.49450  0.29344  1.0000
  H   H2924     1.0  0.70266  0.49576  0.28803  1.0000
  H   H2925     1.0  0.70076  0.44642  0.31517  1.0000
  H   H2926     1.0  0.72198  0.46229  0.31880  1.0000
  H   H2927     1.0  0.75032  0.46217  0.29714  1.0000
  H   H2928     1.0  0.74474  0.45098  0.27938  1.0000
  H   H2929     1.0  0.70968  0.44961  0.27201  1.0000
  H   H2930     1.0  0.70113  0.43415  0.28984  1.0000
  H   H2931     1.0  0.67801  0.47780  0.27944  1.0000
  H   H2932     1.0  0.66979  0.45793  0.29581  1.0000
  H   H2933     1.0  0.74275  0.48246  0.26593  1.0000
  H   H2934     1.0  0.71525  0.48310  0.26109  1.0000
  H   H2935     1.0  0.73230  0.41791  0.29439  1.0000
  H   H2936     1.0  0.73473  0.42780  0.31339  1.0000
  H   H2937     1.0  0.70088  0.49577  0.31644  1.0000
  H   H2938     1.0  0.67875  0.48381  0.30935  1.0000
  H   H2939     1.0  0.67313  0.46092  0.33526  1.0000
  H   H2940     1.0  0.69579  0.47233  0.34246  1.0000
  H   H2941     1.0  0.67208  0.48917  0.33818  1.0000
  H   H2942     1.0  0.65020  0.45587  0.27204  1.0000
  H   H2943     1.0  0.67512  0.45071  0.25995  1.0000
  H   H2944     1.0  0.66626  0.43136  0.27646  1.0000
  C   C1655     1.0  0.49994  0.43290  0.39882  1.0000
  H   H2945     1.0  0.73379  0.51614  0.25011  1.0000
  H   H2946     1.0  0.71102  0.52223  0.26415  1.0000
  H   H2947     1.0  0.77406  0.43028  0.30663  1.0000
  H   H2948     1.0  0.76564  0.40347  0.30511  1.0000
  H   H2949     1.0  0.77190  0.42106  0.28710  1.0000
  H   H2950     1.0  0.55402  0.33188  0.34981  1.0000
  H   H2951     1.0  0.50345  0.42574  0.44954  1.0000
  C   C1656     1.0  0.59427  0.48124  0.45230  1.0000
  H   H2952     1.0  0.52450  0.41193  0.40981  1.0000
  S   S378      1.0  0.51116  0.33795  0.37677  1.0000
  H   H2953     1.0  0.59393  0.33275  0.36825  1.0000
  C   C1657     1.0  0.59003  0.50616  0.45105  1.0000
  C   C1658     1.0  0.52286  0.52776  0.37455  1.0000
  H   H2954     1.0  0.58276  0.51075  0.46288  1.0000
  H   H2955     1.0  0.75983  0.45389  0.22842  1.0000
  H   H2956     1.0  0.57704  0.51008  0.44285  1.0000
  C   C1659     1.0  0.58129  0.39170  0.45543  1.0000
  H   H2957     1.0  0.63750  0.50761  0.39809  1.0000
  H   H2958     1.0  0.64155  0.38963  0.30189  1.0000
  Fe  Fe191     1.0  0.54213  0.64271  0.38524  1.0000
  C   C1660     1.0  0.63724  0.52371  0.41999  1.0000
  C   C1661     1.0  0.62668  0.51668  0.45668  1.0000
  C   C1662     1.0  0.50669  0.41318  0.41044  1.0000
  H   H2959     1.0  0.63644  0.53122  0.45495  1.0000
  H   H2960     1.0  0.70802  0.64113  0.24293  1.0000
  H   H2961     1.0  0.53046  0.51520  0.36700  1.0000
  H   H2962     1.0  0.58500  0.37872  0.44729  1.0000
  C   C1663     1.0  0.52711  0.36006  0.44465  1.0000
  C   C1664     1.0  0.61894  0.36770  0.37525  1.0000
  H   H2963     1.0  0.61567  0.55228  0.43645  1.0000
  C   C1665     1.0  0.53532  0.45273  0.44248  1.0000
  S   S379      1.0  0.51336  0.64067  0.40403  1.0000
  H   H2964     1.0  0.65240  0.36684  0.38064  1.0000
  H   H2965     1.0  0.62744  0.36664  0.29786  1.0000
  H   H2966     1.0  0.65644  0.49563  0.41182  1.0000
  H   H2967     1.0  0.61055  0.47652  0.45594  1.0000
  H   H2968     1.0  0.52448  0.38191  0.37696  1.0000
  C   C1666     1.0  0.61559  0.37941  0.32965  1.0000
  H   H2969     1.0  0.58436  0.38539  0.36507  1.0000
  H   H2970     1.0  0.60592  0.51041  0.42122  1.0000
  H   H2971     1.0  0.56966  0.62649  0.45499  1.0000
  H   H2972     1.0  0.59506  0.40230  0.45400  1.0000
  H   H2973     1.0  0.53080  0.39340  0.44715  1.0000
  C   C1667     1.0  0.57166  0.39674  0.34285  1.0000
  C   C1668     1.0  0.60198  0.54243  0.44162  1.0000
  H   H2974     1.0  0.55313  0.54348  0.37275  1.0000
  N   N91       1.0  0.60600  0.37151  0.34632  1.0000
  H   H2975     1.0  0.60016  0.65701  0.32319  1.0000
  H   H2976     1.0  0.65002  0.36887  0.32846  1.0000
  C   C1669     1.0  0.58210  0.34115  0.36042  1.0000
  C   C1670     1.0  0.71301  0.48448  0.22653  1.0000
  H   H2977     1.0  0.52417  0.46735  0.44270  1.0000
  H   H2978     1.0  0.51758  0.35705  0.45648  1.0000
  H   H2979     1.0  0.73818  0.52182  0.27005  1.0000
  H   H2980     1.0  0.55167  0.45798  0.43799  1.0000
  C   C1671     1.0  0.64891  0.51111  0.40667  1.0000
  H   H2981     1.0  0.54462  0.42050  0.34285  1.0000
  S   S380      1.0  0.72664  0.37510  0.23654  1.0000
  N   N92       1.0  0.49673  0.41313  0.42760  1.0000
  H   H2982     1.0  0.54014  0.42319  0.43127  1.0000
  H   H2983     1.0  0.73549  0.64533  0.24654  1.0000
  S   S381      1.0  0.67271  0.34015  0.25137  1.0000
  C   C1672     1.0  0.52835  0.43723  0.43128  1.0000
  C   C1673     1.0  0.56126  0.63241  0.46571  1.0000
  C   C1674     1.0  0.64031  0.37191  0.30454  1.0000
  S   S382      1.0  0.52824  0.64754  0.44675  1.0000
  C   C1675     1.0  0.54095  0.64312  0.46492  1.0000
  H   H2984     1.0  0.57206  0.35319  0.36708  1.0000
  C   C1676     1.0  0.63759  0.35803  0.38458  1.0000
  C   C1677     1.0  0.64335  0.45194  0.46970  1.0000
  H   H2985     1.0  0.57797  0.54546  0.46268  1.0000
  H   H2986     1.0  0.62075  0.39625  0.32945  1.0000
  H   H2987     1.0  0.59040  0.54392  0.43228  1.0000
  H   H2988     1.0  0.60523  0.33865  0.34014  1.0000
  C   C1678     1.0  0.53600  0.54782  0.37083  1.0000
  C   C1679     1.0  0.50490  0.43055  0.43636  1.0000
  C   C1680     1.0  0.50093  0.39097  0.43618  1.0000
  C   C1681     1.0  0.51492  0.43460  0.38328  1.0000
  Fe  Fe192     1.0  0.51571  0.60504  0.40161  1.0000
  C   C1682     1.0  0.63459  0.41756  0.46189  1.0000
  H   H2989     1.0  0.66177  0.52084  0.39998  1.0000
  H   H2990     1.0  0.58227  0.35513  0.33570  1.0000
  H   H2991     1.0  0.56675  0.40138  0.45179  1.0000
  N   N93       1.0  0.60940  0.51901  0.44512  1.0000
  C   C1683     1.0  0.59404  0.35162  0.34484  1.0000
  S   S383      1.0  0.78060  0.34334  0.24694  1.0000
  H   H2992     1.0  0.52191  0.47394  0.34537  1.0000
  H   H2993     1.0  0.59550  0.58672  0.44413  1.0000
  H   H2994     1.0  0.50866  0.57792  0.45632  1.0000
  C   C1684     1.0  0.54204  0.33553  0.39762  1.0000
  H   H2995     1.0  0.60062  0.40406  0.35306  1.0000
  H   H2996     1.0  0.53508  0.38592  0.42682  1.0000
  H   H2997     1.0  0.54959  0.65309  0.27829  1.0000
  H   H2998     1.0  0.72931  0.62146  0.23780  1.0000
  C   C1685     1.0  0.59152  0.55420  0.45608  1.0000
  H   H2999     1.0  0.56987  0.57585  0.44230  1.0000
  C   C1686     1.0  0.65971  0.64752  0.23539  1.0000
  H   H3000     1.0  0.63848  0.50303  0.45394  1.0000
  H   H3001     1.0  0.56878  0.43001  0.34918  1.0000
  H   H3002     1.0  0.64930  0.52726  0.42805  1.0000
  H   H3003     1.0  0.60434  0.35935  0.38022  1.0000
  C   C1687     1.0  0.55867  0.41585  0.34982  1.0000
  H   H3004     1.0  0.61621  0.38491  0.37769  1.0000
  H   H3005     1.0  0.52415  0.52204  0.38732  1.0000
  H   H3006     1.0  0.57530  0.58508  0.46106  1.0000
  C   C1688     1.0  0.61876  0.51084  0.42940  1.0000
  C   C1689     1.0  0.58253  0.57683  0.45052  1.0000
  H   H3007     1.0  0.53525  0.55461  0.35815  1.0000
  H   H3008     1.0  0.49549  0.60451  0.45365  1.0000
  H   H3009     1.0  0.56066  0.38334  0.34332  1.0000
  H   H3010     1.0  0.64833  0.46819  0.46645  1.0000
  C   C1690     1.0  0.72522  0.63903  0.23822  1.0000
  H   H3011     1.0  0.53164  0.43720  0.38578  1.0000
  H   H3012     1.0  0.63710  0.37798  0.35347  1.0000
  H   H3013     1.0  0.59329  0.47532  0.44035  1.0000
  C   C1691     1.0  0.62422  0.36635  0.35690  1.0000
  H   H3014     1.0  0.60328  0.38021  0.32089  1.0000
  C   C1692     1.0  0.57801  0.46969  0.46446  1.0000
  H   H3015     1.0  0.51479  0.41971  0.37707  1.0000
  H   H3016     1.0  0.52167  0.34966  0.43600  1.0000
  H   H3017     1.0  0.50757  0.48825  0.37099  1.0000
  H   H3018     1.0  0.57819  0.64803  0.34908  1.0000
  H   H3019     1.0  0.63195  0.35007  0.35496  1.0000
  C   C1693     1.0  0.66065  0.33498  0.23401  1.0000
  C   C1694     1.0  0.49906  0.53307  0.37119  1.0000
  C   C1695     1.0  0.72675  0.46599  0.22975  1.0000
  H   H3020     1.0  0.63320  0.34828  0.32439  1.0000
  C   C1696     1.0  0.49541  0.49838  0.34796  1.0000
  H   H3021     1.0  0.69583  0.48345  0.22947  1.0000
  H   H3022     1.0  0.63338  0.35943  0.39761  1.0000
  H   H3023     1.0  0.59229  0.37127  0.47524  1.0000
  H   H3024     1.0  0.49895  0.50062  0.39615  1.0000
  C   C1697     1.0  0.50809  0.59462  0.45994  1.0000
  H   H3025     1.0  0.56373  0.37126  0.47344  1.0000
  C   C1698     1.0  0.50572  0.47790  0.34111  1.0000
  H   H3026     1.0  0.49542  0.46400  0.34477  1.0000
  H   H3027     1.0  0.49910  0.65120  0.33387  1.0000
  C   C1699     1.0  0.61914  0.51256  0.47489  1.0000
  H   H3028     1.0  0.49459  0.44574  0.43482  1.0000
  H   H3029     1.0  0.50895  0.66160  0.30465  1.0000
  C   C1700     1.0  0.72098  0.50484  0.68305  1.0000
  Fe  Fe193     1.0  0.74191  0.42461  0.70079  1.0000
  S   S384      1.0  0.75140  0.41539  0.67540  1.0000
  S   S385      1.0  0.75617  0.45407  0.71022  1.0000
  Fe  Fe194     1.0  0.71283  0.38594  0.70796  1.0000
  S   S386      1.0  0.71998  0.37472  0.68340  1.0000
  H   H3030     1.0  0.50228  0.50234  0.55705  1.0000
  Fe  Fe195     1.0  0.75475  0.38051  0.68645  1.0000
  S   S387      1.0  0.77991  0.35403  0.67760  1.0000
  Fe  Fe196     1.0  0.71617  0.40988  0.67419  1.0000
  S   S388      1.0  0.69202  0.42454  0.65641  1.0000
  S   S389      1.0  0.74751  0.39005  0.71172  1.0000
  S   S390      1.0  0.70684  0.42082  0.69893  1.0000
  H   H3031     1.0  0.53704  0.56374  0.52391  1.0000
  Fe  Fe197     1.0  0.57399  0.60574  0.56874  1.0000
  S   S391      1.0  0.59563  0.58007  0.58063  1.0000
  Fe  Fe198     1.0  0.52673  0.61184  0.56323  1.0000
  S   S392      1.0  0.55564  0.59849  0.54874  1.0000
  S   S393      1.0  0.54491  0.61690  0.58413  1.0000
  Fe  Fe199     1.0  0.62952  0.43066  0.53283  1.0000
  S   S394      1.0  0.60633  0.45934  0.53435  1.0000
  S   S395      1.0  0.63154  0.41170  0.51083  1.0000
  Fe  Fe200     1.0  0.64173  0.43274  0.56774  1.0000
  S   S396      1.0  0.61895  0.46175  0.57148  1.0000
  S   S397      1.0  0.66474  0.41594  0.58561  1.0000
  Fe  Fe201     1.0  0.59556  0.44479  0.55906  1.0000
  S   S398      1.0  0.55948  0.44833  0.56529  1.0000
  Fe  Fe202     1.0  0.63139  0.47388  0.54640  1.0000
  S   S399      1.0  0.63808  0.50832  0.53752  1.0000
  S   S400      1.0  0.61719  0.41467  0.55706  1.0000
  S   S401      1.0  0.65585  0.44621  0.54309  1.0000
  C   C1701     1.0  0.63485  0.42273  0.49043  1.0000
  C   C1702     1.0  0.57877  0.56734  0.51377  1.0000
  H   H3032     1.0  0.80268  0.56780  0.70230  1.0000
  C   C1703     1.0  0.52717  0.38973  0.49777  1.0000
  H   H3033     1.0  0.64261  0.45442  0.49530  1.0000
  C   C1704     1.0  0.60630  0.56010  0.56831  1.0000
  C   C1705     1.0  0.61074  0.53912  0.57530  1.0000
  C   C1706     1.0  0.61979  0.52301  0.56577  1.0000
  C   C1707     1.0  0.62526  0.52799  0.54935  1.0000
  C   C1708     1.0  0.62090  0.54901  0.54234  1.0000
  C   C1709     1.0  0.61101  0.56496  0.55176  1.0000
  H   H3034     1.0  0.60705  0.53532  0.58810  1.0000
  H   H3035     1.0  0.62284  0.50684  0.57116  1.0000
  H   H3036     1.0  0.62510  0.55295  0.52962  1.0000
  H   H3037     1.0  0.60768  0.58118  0.54632  1.0000
  C   C1710     1.0  0.63233  0.40945  0.47822  1.0000
  C   C1711     1.0  0.52401  0.39145  0.55252  1.0000
  C   C1712     1.0  0.54563  0.38876  0.55566  1.0000
  C   C1713     1.0  0.55648  0.40618  0.55957  1.0000
  C   C1714     1.0  0.54563  0.42632  0.56083  1.0000
  C   C1715     1.0  0.52367  0.42889  0.55835  1.0000
  C   C1716     1.0  0.51289  0.41151  0.55399  1.0000
  H   H3038     1.0  0.55411  0.37314  0.55495  1.0000
  H   H3039     1.0  0.57320  0.40388  0.56183  1.0000
  H   H3040     1.0  0.51516  0.44444  0.55942  1.0000
  S   S402      1.0  0.58157  0.63901  0.55768  1.0000
  C   C1717     1.0  0.54151  0.51565  0.55923  1.0000
  S   S403      1.0  0.57421  0.63613  0.51202  1.0000
  C   C1718     1.0  0.68497  0.42181  0.63663  1.0000
  C   C1719     1.0  0.66708  0.43424  0.63109  1.0000
  C   C1720     1.0  0.66041  0.43240  0.61573  1.0000
  C   C1721     1.0  0.67194  0.41856  0.60540  1.0000
  C   C1722     1.0  0.68980  0.40607  0.61097  1.0000
  C   C1723     1.0  0.69624  0.40759  0.62647  1.0000
  H   H3041     1.0  0.65806  0.44514  0.63886  1.0000
  H   H3042     1.0  0.64616  0.44148  0.61197  1.0000
  H   H3043     1.0  0.69876  0.39510  0.60321  1.0000
  H   H3044     1.0  0.70999  0.39785  0.63050  1.0000
  S   S404      1.0  0.51217  0.36938  0.54617  1.0000
  C   C1724     1.0  0.50932  0.51810  0.57825  1.0000
  H   H3045     1.0  0.56407  0.58121  0.49312  1.0000
  H   H3046     1.0  0.55106  0.36282  0.49895  1.0000
  H   H3047     1.0  0.62061  0.65997  0.56905  1.0000
  H   H3048     1.0  0.56105  0.41090  0.47985  1.0000
  C   C1725     1.0  0.70138  0.58627  0.71380  1.0000
  C   C1726     1.0  0.69330  0.52854  0.53254  1.0000
  H   H3049     1.0  0.56920  0.64856  0.60959  1.0000
  H   H3050     1.0  0.56430  0.48206  0.61345  1.0000
  H   H3051     1.0  0.70872  0.55192  0.71806  1.0000
  H   H3052     1.0  0.69215  0.34195  0.70158  1.0000
  C   C1727     1.0  0.55959  0.57935  0.50628  1.0000
  H   H3053     1.0  0.61604  0.37397  0.69446  1.0000
  N   N94       1.0  0.63997  0.37471  0.67373  1.0000
  C   C1728     1.0  0.62810  0.37492  0.65892  1.0000
  C   C1729     1.0  0.57158  0.47748  0.60157  1.0000
  C   C1730     1.0  0.64100  0.39788  0.67736  1.0000
  C   C1731     1.0  0.66279  0.36535  0.67112  1.0000
  H   H3054     1.0  0.58474  0.38333  0.53290  1.0000
  C   C1732     1.0  0.63821  0.38763  0.64344  1.0000
  C   C1733     1.0  0.65151  0.40113  0.69289  1.0000
  H   H3055     1.0  0.80119  0.34454  0.70776  1.0000
  C   C1734     1.0  0.76957  0.56500  0.69737  1.0000
  H   H3056     1.0  0.58933  0.47548  0.60190  1.0000
  C   C1735     1.0  0.62685  0.38369  0.62881  1.0000
  C   C1736     1.0  0.55551  0.43201  0.50464  1.0000
  H   H3057     1.0  0.61137  0.38198  0.66135  1.0000
  H   H3058     1.0  0.62627  0.35825  0.65590  1.0000
  C   C1737     1.0  0.89839  0.35744  0.69778  1.0000
  H   H3059     1.0  0.54753  0.64427  0.70523  1.0000
  H   H3060     1.0  0.62451  0.40593  0.67819  1.0000
  H   H3061     1.0  0.65045  0.40732  0.66744  1.0000
  H   H3062     1.0  0.67288  0.37664  0.66287  1.0000
  H   H3063     1.0  0.67051  0.36383  0.68255  1.0000
  H   H3064     1.0  0.74203  0.52989  0.70146  1.0000
  H   H3065     1.0  0.73713  0.33035  0.66941  1.0000
  H   H3066     1.0  0.63648  0.40524  0.64463  1.0000
  H   H3067     1.0  0.65552  0.38285  0.64087  1.0000
  H   H3068     1.0  0.66895  0.39627  0.69153  1.0000
  H   H3069     1.0  0.64402  0.39152  0.70360  1.0000
  H   H3070     1.0  0.77194  0.57542  0.68591  1.0000
  H   H3071     1.0  0.60071  0.35014  0.67755  1.0000
  H   H3072     1.0  0.56200  0.66092  0.68948  1.0000
  C   C1738     1.0  0.68957  0.33586  0.66182  1.0000
  H   H3073     1.0  0.53215  0.65541  0.50403  1.0000
  C   C1739     1.0  0.50987  0.37351  0.49768  1.0000
  Fe  Fe203     1.0  0.56050  0.63265  0.53843  1.0000
  H   H3074     1.0  0.60945  0.38868  0.63057  1.0000
  C   C1740     1.0  0.53876  0.56403  0.60385  1.0000
  H   H3075     1.0  0.62872  0.36635  0.62658  1.0000
  H   H3076     1.0  0.55747  0.59551  0.51075  1.0000
  H   H3077     1.0  0.70602  0.61083  0.66275  1.0000
  H   H3078     1.0  0.65773  0.43504  0.68621  1.0000
  H   H3079     1.0  0.54139  0.55108  0.50564  1.0000
  H   H3080     1.0  0.64234  0.64446  0.59222  1.0000
  C   C1741     1.0  0.54022  0.53827  0.58212  1.0000
  C   C1742     1.0  0.53861  0.56709  0.51058  1.0000
  C   C1743     1.0  0.72760  0.57817  0.68152  1.0000
  C   C1744     1.0  0.50305  0.59466  0.47812  1.0000
  H   H3081     1.0  0.52362  0.61193  0.50736  1.0000
  H   H3082     1.0  0.51540  0.36092  0.48949  1.0000
  H   H3083     1.0  0.62016  0.36442  0.52639  1.0000
  H   H3084     1.0  0.53532  0.56551  0.61693  1.0000
  H   H3085     1.0  0.61897  0.62103  0.58120  1.0000
  H   H3086     1.0  0.53316  0.55231  0.57469  1.0000
  C   C1745     1.0  0.71365  0.52582  0.69051  1.0000
  H   H3087     1.0  0.52048  0.40223  0.50572  1.0000
  C   C1746     1.0  0.80769  0.33302  0.69948  1.0000
  H   H3088     1.0  0.54351  0.52962  0.60783  1.0000
  H   H3089     1.0  0.55786  0.54000  0.58003  1.0000
  N   N95       1.0  0.51822  0.57861  0.50498  1.0000
  H   H3090     1.0  0.73655  0.34270  0.72204  1.0000
  C   C1747     1.0  0.52213  0.58399  0.48701  1.0000
  C   C1748     1.0  0.61387  0.62757  0.59290  1.0000
  C   C1749     1.0  0.73310  0.53952  0.69208  1.0000
  H   H3091     1.0  0.67638  0.47504  0.60279  1.0000
  C   C1750     1.0  0.91883  0.34192  0.69625  1.0000
  H   H3092     1.0  0.70164  0.53457  0.68309  1.0000
  H   H3093     1.0  0.65699  0.46718  0.59058  1.0000
  N   N96       1.0  0.72827  0.56250  0.69640  1.0000
  C   C1751     1.0  0.69520  0.49648  0.55374  1.0000
  H   H3094     1.0  0.59608  0.63015  0.59412  1.0000
  H   H3095     1.0  0.55591  0.56732  0.60029  1.0000
  H   H3096     1.0  0.69729  0.33472  0.67322  1.0000
  H   H3097     1.0  0.58746  0.36136  0.50131  1.0000
  H   H3098     1.0  0.74071  0.48677  0.61291  1.0000
  H   H3099     1.0  0.73027  0.42073  0.55820  1.0000
  H   H3100     1.0  0.73076  0.45690  0.56736  1.0000
  H   H3101     1.0  0.63281  0.49898  0.59727  1.0000
  C   C1752     1.0  0.90422  0.38102  0.69439  1.0000
  H   H3102     1.0  0.58631  0.65359  0.63429  1.0000
  H   H3103     1.0  0.71672  0.45754  0.54952  1.0000
  C   C1753     1.0  0.78618  0.57071  0.70821  1.0000
  C   C1754     1.0  0.67988  0.33633  0.71073  1.0000
  H   H3104     1.0  0.63891  0.35616  0.69718  1.0000
  H   H3105     1.0  0.58827  0.40865  0.48360  1.0000
  C   C1755     1.0  0.53406  0.54144  0.60014  1.0000
  H   H3106     1.0  0.70447  0.49337  0.60412  1.0000
  H   H3107     1.0  0.70129  0.42257  0.55943  1.0000
  C   C1756     1.0  0.66572  0.34280  0.66474  1.0000
  H   H3108     1.0  0.78469  0.56056  0.71989  1.0000
  H   H3109     1.0  0.71738  0.46857  0.59736  1.0000
  H   H3110     1.0  0.70699  0.49473  0.68301  1.0000
  H   H3111     1.0  0.52824  0.57623  0.59734  1.0000
  H   H3112     1.0  0.77327  0.54792  0.69489  1.0000
  H   H3113     1.0  0.71090  0.56120  0.66530  1.0000
  H   H3114     1.0  0.63220  0.43055  0.69802  1.0000
  H   H3115     1.0  0.54152  0.49848  0.55648  1.0000
  C   C1757     1.0  0.70766  0.56398  0.70741  1.0000
  H   H3116     1.0  0.92726  0.34558  0.68405  1.0000
  H   H3117     1.0  0.67489  0.51219  0.58312  1.0000
  H   H3118     1.0  0.70538  0.52134  0.70262  1.0000
  H   H3119     1.0  0.69371  0.55943  0.70159  1.0000
  C   C1758     1.0  0.57175  0.51630  0.53669  1.0000
  H   H3120     1.0  0.49613  0.41363  0.55168  1.0000
  N   N97       1.0  0.56769  0.39135  0.50199  1.0000
  H   H3121     1.0  0.53551  0.44192  0.52564  1.0000
  H   H3122     1.0  0.54436  0.46389  0.51140  1.0000
  H   H3123     1.0  0.71200  0.51325  0.57831  1.0000
  H   H3124     1.0  0.68628  0.66198  0.69906  1.0000
  H   H3125     1.0  0.67396  0.52623  0.55512  1.0000
  H   H3126     1.0  0.60683  0.34045  0.52317  1.0000
  H   H3127     1.0  0.54337  0.37387  0.51725  1.0000
  H   H3128     1.0  0.78397  0.58803  0.71048  1.0000
  C   C1759     1.0  0.58620  0.37648  0.50743  1.0000
  H   H3129     1.0  0.72867  0.49222  0.57037  1.0000
  C   C1760     1.0  0.64024  0.44412  0.48607  1.0000
  H   H3130     1.0  0.74260  0.57607  0.67339  1.0000
  H   H3131     1.0  0.72410  0.59471  0.64984  1.0000
  C   C1761     1.0  0.64941  0.42485  0.69629  1.0000
  H   H3132     1.0  0.73943  0.51085  0.59910  1.0000
  H   H3133     1.0  0.69445  0.45521  0.58406  1.0000
  C   C1762     1.0  0.54017  0.64866  0.49350  1.0000
  H   H3134     1.0  0.57116  0.35966  0.52972  1.0000
  H   H3135     1.0  0.71121  0.49274  0.54726  1.0000
  H   H3136     1.0  0.57622  0.51948  0.56120  1.0000
  S   S405      1.0  0.53003  0.64597  0.55169  1.0000
  N   N98       1.0  0.53372  0.51741  0.57671  1.0000
  H   H3137     1.0  0.56302  0.44973  0.52435  1.0000
  H   H3138     1.0  0.51861  0.59645  0.52591  1.0000
  H   H3139     1.0  0.65276  0.50788  0.60897  1.0000
  H   H3140     1.0  0.68122  0.45791  0.56652  1.0000
  H   H3141     1.0  0.70190  0.53041  0.55632  1.0000
  C   C1763     1.0  0.60342  0.33304  0.70060  1.0000
  C   C1764     1.0  0.67353  0.49555  0.57971  1.0000
  C   C1765     1.0  0.66411  0.48131  0.59466  1.0000
  H   H3142     1.0  0.50355  0.54944  0.50083  1.0000
  H   H3143     1.0  0.60170  0.38422  0.50389  1.0000
  H   H3144     1.0  0.74570  0.55919  0.71755  1.0000
  H   H3145     1.0  0.68323  0.48863  0.54754  1.0000
  H   H3146     1.0  0.56019  0.52159  0.52769  1.0000
  C   C1766     1.0  0.57107  0.63015  0.48026  1.0000
  C   C1767     1.0  0.71587  0.45253  0.56261  1.0000
  C   C1768     1.0  0.61399  0.34392  0.68490  1.0000
  H   H3147     1.0  0.59193  0.34459  0.70676  1.0000
  H   H3148     1.0  0.66058  0.49698  0.57139  1.0000
  H   H3149     1.0  0.88689  0.35455  0.68910  1.0000
  H   H3150     1.0  0.92989  0.34682  0.70463  1.0000
  C   C1769     1.0  0.51357  0.59891  0.51346  1.0000
  H   H3151     1.0  0.72806  0.50835  0.67046  1.0000
  H   H3152     1.0  0.61849  0.61529  0.60266  1.0000
  H   H3153     1.0  0.68898  0.54612  0.53054  1.0000
  C   C1770     1.0  0.73875  0.49297  0.60023  1.0000
  C   C1771     1.0  0.71552  0.42790  0.56460  1.0000
  H   H3154     1.0  0.88996  0.35549  0.71005  1.0000
  C   C1772     1.0  0.62773  0.36268  0.68809  1.0000
  C   C1773     1.0  0.54926  0.44783  0.51731  1.0000
  C   C1774     1.0  0.54778  0.37850  0.50426  1.0000
  C   C1775     1.0  0.69558  0.46309  0.57160  1.0000
  H   H3155     1.0  0.57384  0.49838  0.53785  1.0000
  S   S406      1.0  0.50105  0.58736  0.56667  1.0000
  H   H3156     1.0  0.75232  0.48593  0.59246  1.0000
  H   H3157     1.0  0.53342  0.49795  0.59957  1.0000
  H   H3158     1.0  0.63410  0.39330  0.61797  1.0000
  C   C1776     1.0  0.56510  0.41019  0.51224  1.0000
  C   C1777     1.0  0.71356  0.49540  0.57818  1.0000
  C   C1778     1.0  0.69067  0.52132  0.55054  1.0000
  H   H3159     1.0  0.55525  0.40574  0.52375  1.0000
  H   H3160     1.0  0.51671  0.53955  0.60372  1.0000
  H   H3161     1.0  0.53015  0.52497  0.55136  1.0000
  H   H3162     1.0  0.53497  0.59570  0.48407  1.0000
  C   C1779     1.0  0.58538  0.36927  0.52572  1.0000
  H   H3163     1.0  0.53014  0.39720  0.48529  1.0000
  H   H3164     1.0  0.71023  0.52547  0.52751  1.0000
  C   C1780     1.0  0.71721  0.48645  0.59563  1.0000
  Fe  Fe204     1.0  0.55088  0.64986  0.57189  1.0000
  H   H3165     1.0  0.57316  0.51000  0.59078  1.0000
  N   N99       1.0  0.69457  0.48745  0.57118  1.0000
  H   H3166     1.0  0.64007  0.48284  0.61508  1.0000
  C   C1781     1.0  0.67532  0.34723  0.72453  1.0000
  C   C1782     1.0  0.74793  0.47766  0.72055  1.0000
  C   C1783     1.0  0.70886  0.57652  0.67110  1.0000
  C   C1784     1.0  0.56061  0.63827  0.49424  1.0000
  H   H3167     1.0  0.65700  0.42672  0.70743  1.0000
  H   H3168     1.0  0.71496  0.42170  0.57750  1.0000
  H   H3169     1.0  0.58109  0.41412  0.51572  1.0000
  H   H3170     1.0  0.50272  0.53405  0.57297  1.0000
  H   H3171     1.0  0.56253  0.54234  0.55146  1.0000
  C   C1785     1.0  0.56618  0.49497  0.58824  1.0000
  C   C1786     1.0  0.56379  0.52437  0.55295  1.0000
  C   C1787     1.0  0.53042  0.65105  0.47894  1.0000
  H   H3172     1.0  0.68251  0.51981  0.52602  1.0000
  H   H3173     1.0  0.69297  0.57745  0.67822  1.0000
  C   C1788     1.0  0.64636  0.49360  0.60454  1.0000
  H   H3174     1.0  0.57565  0.56502  0.52704  1.0000
  H   H3175     1.0  0.78027  0.48833  0.71890  1.0000
  H   H3176     1.0  0.73315  0.49540  0.69007  1.0000
  H   H3177     1.0  0.58762  0.52282  0.53236  1.0000
  C   C1789     1.0  0.70865  0.59497  0.65765  1.0000
  H   H3178     1.0  0.57421  0.48958  0.57682  1.0000
  H   H3179     1.0  0.63192  0.51054  0.49814  1.0000
  H   H3180     1.0  0.59320  0.57702  0.51083  1.0000
  H   H3181     1.0  0.56561  0.46175  0.59930  1.0000
  H   H3182     1.0  0.70078  0.59937  0.70386  1.0000
  H   H3183     1.0  0.69534  0.59322  0.65014  1.0000
  H   H3184     1.0  0.58232  0.55142  0.50893  1.0000
  C   C1790     1.0  0.49886  0.50036  0.57032  1.0000
  C   C1791     1.0  0.60545  0.35520  0.52969  1.0000
  H   H3185     1.0  0.50582  0.36559  0.50997  1.0000
  C   C1792     1.0  0.54156  0.49793  0.58716  1.0000
  H   H3186     1.0  0.74405  0.53932  0.68077  1.0000
  H   H3187     1.0  0.88936  0.39177  0.69555  1.0000
  H   H3188     1.0  0.54104  0.43003  0.49850  1.0000
  H   H3189     1.0  0.72744  0.59512  0.68470  1.0000
  H   H3190     1.0  0.60444  0.35023  0.54280  1.0000
  H   H3191     1.0  0.53688  0.48279  0.58283  1.0000
  H   H3192     1.0  0.56779  0.43953  0.49567  1.0000
  H   H3193     1.0  0.50278  0.51662  0.59108  1.0000
  H   H3194     1.0  0.91520  0.38514  0.70310  1.0000
  H   H3195     1.0  0.91210  0.38408  0.68197  1.0000
  C   C1793     1.0  0.74632  0.56849  0.70552  1.0000
  H   H3196     1.0  0.62067  0.65369  0.60619  1.0000
  H   H3197     1.0  0.52809  0.56913  0.48118  1.0000
  H   H3198     1.0  0.65868  0.34271  0.65317  1.0000
  H   H3199     1.0  0.74442  0.58584  0.70781  1.0000
  C   C1794     1.0  0.68427  0.65575  0.72486  1.0000
  H   H3200     1.0  0.69801  0.34758  0.65287  1.0000
  H   H3201     1.0  0.52366  0.65673  0.68425  1.0000
  H   H3202     1.0  0.66657  0.58353  0.71550  1.0000
  H   H3203     1.0  0.50485  0.48391  0.57472  1.0000
  H   H3204     1.0  0.51480  0.65952  0.47843  1.0000
  C   C1795     1.0  0.62481  0.64856  0.59393  1.0000
  H   H3205     1.0  0.50998  0.54042  0.52865  1.0000
  H   H3206     1.0  0.62881  0.39271  0.48138  1.0000
  C   C1796     1.0  0.80035  0.33428  0.68417  1.0000
  C   C1797     1.0  0.57354  0.39926  0.48460  1.0000
  H   H3207     1.0  0.58702  0.62236  0.48062  1.0000
  H   H3208     1.0  0.49504  0.38198  0.49338  1.0000
  H   H3209     1.0  0.90379  0.33440  0.66831  1.0000
  C   C1798     1.0  0.76361  0.49195  0.72311  1.0000
  H   H3210     1.0  0.65101  0.50205  0.48217  1.0000
  S   S407      1.0  0.70874  0.63980  0.72445  1.0000
  H   H3211     1.0  0.49527  0.64203  0.50868  1.0000
  C   C1799     1.0  0.49700  0.55301  0.52621  1.0000
  C   C1800     1.0  0.50043  0.56307  0.50854  1.0000
  H   H3212     1.0  0.49728  0.56538  0.53479  1.0000
  H   H3213     1.0  0.49698  0.63331  0.52974  1.0000
  H   H3214     1.0  0.50041  0.61182  0.48072  1.0000
  C   C1801     1.0  0.54862  0.66095  0.69927  1.0000
  H   H3215     1.0  0.62373  0.33140  0.67853  1.0000
  H   H3216     1.0  0.65832  0.33053  0.67370  1.0000
  H   H3217     1.0  0.71305  0.59017  0.72204  1.0000
  C   C1802     1.0  0.63766  0.51405  0.48523  1.0000
  H   H3218     1.0  0.64382  0.53053  0.48349  1.0000
  C   C1803     1.0  0.67922  0.58629  0.72333  1.0000
  H   H3219     1.0  0.71414  0.47208  0.72426  1.0000
  H   H3220     1.0  0.58036  0.47328  0.47682  1.0000
  H   H3221     1.0  0.60601  0.52422  0.47877  1.0000
  H   H3222     1.0  0.61317  0.49609  0.47768  1.0000
  Fe  Fe205     1.0  0.59334  0.56504  0.90051  1.0000
  S   S408      1.0  0.62899  0.56958  0.89851  1.0000
  S   S409      1.0  0.56941  0.59356  0.89778  1.0000
  Fe  Fe206     1.0  0.59866  0.51631  0.90696  1.0000
  S   S410      1.0  0.63472  0.51670  0.90497  1.0000
  S   S411      1.0  0.57863  0.48773  0.91553  1.0000
  Fe  Fe207     1.0  0.62905  0.54481  0.92020  1.0000
  S   S412      1.0  0.64757  0.54489  0.94228  1.0000
  Fe  Fe208     1.0  0.63158  0.54140  0.88344  1.0000
  S   S413      1.0  0.64962  0.53856  0.85838  1.0000
  S   S414      1.0  0.59330  0.54298  0.92323  1.0000
  S   S415      1.0  0.59568  0.53832  0.88445  1.0000
  Fe  Fe209     1.0  0.51350  0.36073  0.88359  1.0000
  Fe  Fe210     1.0  0.55444  0.38455  0.87998  1.0000
  S   S416      1.0  0.57075  0.41474  0.86934  1.0000
  S   S417      1.0  0.53852  0.36684  0.86274  1.0000
  S   S418      1.0  0.52761  0.38115  0.89993  1.0000
  Fe  Fe211     1.0  0.72074  0.61997  0.74637  1.0000
  S   S419      1.0  0.73162  0.63181  0.76850  1.0000
  C   C1804     1.0  0.74785  0.47094  0.77110  1.0000
  H   H3223     1.0  0.57148  0.61687  0.92717  1.0000
  S   S420      1.0  0.74834  0.58111  0.77803  1.0000
  H   H3224     1.0  0.56305  0.59454  0.96182  1.0000
  Fe  Fe212     1.0  0.71764  0.60169  0.78194  1.0000
  S   S421      1.0  0.69932  0.60549  0.80676  1.0000
  Fe  Fe213     1.0  0.76181  0.61103  0.76348  1.0000
  C   C1805     1.0  0.72090  0.50165  0.73406  1.0000
  S   S422      1.0  0.70415  0.59192  0.76007  1.0000
  H   H3225     1.0  0.55947  0.56294  0.94991  1.0000
  H   H3226     1.0  0.56949  0.36291  0.79453  1.0000
  N   N100      1.0  0.53526  0.60451  0.94872  1.0000
  H   H3227     1.0  0.51636  0.58253  0.93842  1.0000
  H   H3228     1.0  0.50753  0.43561  0.86298  1.0000
  H   H3229     1.0  0.49855  0.44956  0.89917  1.0000
  Fe  Fe214     1.0  0.55668  0.33732  0.87317  1.0000
  H   H3230     1.0  0.70143  0.49103  0.78652  1.0000
  H   H3231     1.0  0.54996  0.58169  0.85024  1.0000
  C   C1806     1.0  0.53494  0.36544  0.81558  1.0000
  H   H3232     1.0  0.53794  0.42826  0.96561  1.0000
  C   C1807     1.0  0.57100  0.35949  0.95050  1.0000
  H   H3233     1.0  0.57823  0.36543  0.93878  1.0000
  C   C1808     1.0  0.66396  0.55736  0.84448  1.0000
  C   C1809     1.0  0.67120  0.55134  0.82904  1.0000
  C   C1810     1.0  0.68231  0.56574  0.81750  1.0000
  C   C1811     1.0  0.68634  0.58638  0.82121  1.0000
  C   C1812     1.0  0.67901  0.59245  0.83662  1.0000
  C   C1813     1.0  0.66800  0.57803  0.84821  1.0000
  H   H3234     1.0  0.66805  0.53548  0.82595  1.0000
  H   H3235     1.0  0.68743  0.56120  0.80561  1.0000
  H   H3236     1.0  0.68196  0.60841  0.83962  1.0000
  H   H3237     1.0  0.66277  0.58287  0.86005  1.0000
  C   C1814     1.0  0.57640  0.46780  0.90243  1.0000
  C   C1815     1.0  0.56523  0.44933  0.90817  1.0000
  C   C1816     1.0  0.56348  0.43294  0.89813  1.0000
  C   C1817     1.0  0.57271  0.43505  0.88222  1.0000
  C   C1818     1.0  0.58356  0.45370  0.87639  1.0000
  C   C1819     1.0  0.58548  0.47003  0.88648  1.0000
  H   H3238     1.0  0.55822  0.44754  0.92050  1.0000
  H   H3239     1.0  0.55514  0.41862  0.90273  1.0000
  H   H3240     1.0  0.59071  0.45542  0.86409  1.0000
  H   H3241     1.0  0.59412  0.48423  0.88198  1.0000
  C   C1820     1.0  0.63620  0.55190  0.96146  1.0000
  C   C1821     1.0  0.65966  0.33945  0.73655  1.0000
  H   H3242     1.0  0.67765  0.65273  0.75059  1.0000
  H   H3243     1.0  0.68454  0.53017  0.76417  1.0000
  C   C1822     1.0  0.80924  0.64737  0.76389  1.0000
  C   C1823     1.0  0.70955  0.49620  0.83563  1.0000
  S   S423      1.0  0.57406  0.35541  0.88947  1.0000
  H   H3244     1.0  0.60064  0.34824  0.91817  1.0000
  H   H3245     1.0  0.49650  0.63085  0.81373  1.0000
  C   C1824     1.0  0.52687  0.60437  0.89494  1.0000
  C   C1825     1.0  0.54312  0.58782  0.89444  1.0000
  C   C1826     1.0  0.53821  0.56722  0.89115  1.0000
  C   C1827     1.0  0.51716  0.56336  0.88809  1.0000
  H   H3246     1.0  0.59382  0.37377  0.96339  1.0000
  H   H3247     1.0  0.53064  0.62037  0.89729  1.0000
  H   H3248     1.0  0.55061  0.55431  0.89082  1.0000
  H   H3249     1.0  0.75920  0.33450  0.75312  1.0000
  H   H3250     1.0  0.80477  0.52338  0.78126  1.0000
  C   C1828     1.0  0.53347  0.58463  0.94019  1.0000
  H   H3251     1.0  0.59695  0.62931  0.94382  1.0000
  C   C1829     1.0  0.50081  0.57988  0.88879  1.0000
  H   H3252     1.0  0.71562  0.50449  0.76970  1.0000
  H   H3253     1.0  0.59045  0.51941  0.84347  1.0000
  H   H3254     1.0  0.60530  0.35996  0.78209  1.0000
  C   C1830     1.0  0.54416  0.33905  0.96712  1.0000
  C   C1831     1.0  0.55821  0.60693  0.95215  1.0000
  Fe  Fe215     1.0  0.73564  0.57265  0.75517  1.0000
  H   H3255     1.0  0.54498  0.63126  0.84930  1.0000
  H   H3256     1.0  0.61001  0.60881  0.93193  1.0000
  H   H3257     1.0  0.72733  0.52013  0.81001  1.0000
  C   C1832     1.0  0.60620  0.35906  0.82301  1.0000
  C   C1833     1.0  0.74095  0.47625  0.78864  1.0000
  H   H3258     1.0  0.72789  0.46534  0.79340  1.0000
  C   C1834     1.0  0.50846  0.46455  0.87546  1.0000
  C   C1835     1.0  0.61486  0.56002  0.96402  1.0000
  H   H3259     1.0  0.60922  0.37686  0.86102  1.0000
  H   H3260     1.0  0.64826  0.59495  0.80547  1.0000
  H   H3261     1.0  0.53295  0.50352  0.92127  1.0000
  H   H3262     1.0  0.77953  0.49437  0.78643  1.0000
  H   H3263     1.0  0.55836  0.38797  0.81826  1.0000
  H   H3264     1.0  0.60473  0.56162  0.95424  1.0000
  H   H3265     1.0  0.53117  0.37319  0.80362  1.0000
  C   C1836     1.0  0.53914  0.61511  0.84804  1.0000
  C   C1837     1.0  0.73057  0.50265  0.80827  1.0000
  S   S424      1.0  0.72844  0.53961  0.74677  1.0000
  N   N101      1.0  0.73350  0.49945  0.79061  1.0000
  H   H3266     1.0  0.50191  0.47460  0.86523  1.0000
  H   H3267     1.0  0.70418  0.51358  0.83561  1.0000
  H   H3268     1.0  0.51349  0.54752  0.88528  1.0000
  H   H3269     1.0  0.67546  0.60223  0.72813  1.0000
  H   H3270     1.0  0.52510  0.43275  0.87897  1.0000
  C   C1838     1.0  0.75804  0.51088  0.73102  1.0000
  H   H3271     1.0  0.55962  0.62274  0.95692  1.0000
  C   C1839     1.0  0.59748  0.61189  0.94192  1.0000
  H   H3272     1.0  0.53771  0.62457  0.92611  1.0000
  H   H3273     1.0  0.71762  0.47202  0.81921  1.0000
  H   H3274     1.0  0.56023  0.36300  0.83116  1.0000
  C   C1840     1.0  0.82766  0.64941  0.77193  1.0000
  H   H3275     1.0  0.54191  0.58655  0.92789  1.0000
  C   C1841     1.0  0.76155  0.66096  0.79902  1.0000
  C   C1842     1.0  0.61317  0.33056  0.79610  1.0000
  C   C1843     1.0  0.61149  0.35566  0.79401  1.0000
  Fe  Fe216     1.0  0.54599  0.35050  0.90827  1.0000
  C   C1844     1.0  0.71263  0.50422  0.78296  1.0000
  H   H3276     1.0  0.71034  0.53986  0.78273  1.0000
  H   H3277     1.0  0.62388  0.35501  0.82132  1.0000
  H   H3278     1.0  0.52310  0.37197  0.82491  1.0000
  H   H3279     1.0  0.51709  0.60594  0.79624  1.0000
  C   C1845     1.0  0.71288  0.48955  0.81849  1.0000
  H   H3280     1.0  0.58225  0.43267  0.79519  1.0000
  H   H3281     1.0  0.53320  0.34777  0.81599  1.0000
  C   C1846     1.0  0.74981  0.51476  0.78241  1.0000
  C   C1847     1.0  0.72647  0.48274  0.72611  1.0000
  C   C1848     1.0  0.53829  0.54410  0.93911  1.0000
  C   C1849     1.0  0.62045  0.49236  0.95226  1.0000
  H   H3282     1.0  0.52905  0.38931  0.96908  1.0000
  H   H3283     1.0  0.52128  0.47337  0.87978  1.0000
  H   H3284     1.0  0.69712  0.49203  0.81341  1.0000
  H   H3285     1.0  0.72468  0.49331  0.84160  1.0000
  C   C1850     1.0  0.57563  0.60571  0.93765  1.0000
  H   H3286     1.0  0.56343  0.52982  0.84944  1.0000
  C   C1851     1.0  0.52216  0.50789  0.91160  1.0000
  H   H3287     1.0  0.69691  0.48658  0.84275  1.0000
  C   C1852     1.0  0.55771  0.37019  0.81883  1.0000
  H   H3288     1.0  0.74455  0.53174  0.78444  1.0000
  H   H3289     1.0  0.60153  0.35090  0.85674  1.0000
  H   H3290     1.0  0.53347  0.61497  0.83594  1.0000
  H   H3291     1.0  0.53153  0.63922  0.94308  1.0000
  S   S425      1.0  0.68925  0.37016  0.72737  1.0000
  H   H3292     1.0  0.57768  0.58912  0.93383  1.0000
  H   H3293     1.0  0.50500  0.59731  0.96269  1.0000
  H   H3294     1.0  0.63472  0.48795  0.94400  1.0000
  H   H3295     1.0  0.60746  0.48146  0.95101  1.0000
  H   H3296     1.0  0.61494  0.50928  0.94854  1.0000
  H   H3297     1.0  0.73454  0.47499  0.76335  1.0000
  C   C1853     1.0  0.62653  0.49027  0.96955  1.0000
  H   H3298     1.0  0.49933  0.48560  0.92297  1.0000
  C   C1854     1.0  0.55339  0.34648  0.95174  1.0000
  N   N102      1.0  0.59659  0.58688  0.84160  1.0000
  C   C1855     1.0  0.60635  0.59366  0.85600  1.0000
  C   C1856     1.0  0.59166  0.56345  0.84580  1.0000
  C   C1857     1.0  0.61285  0.58773  0.82700  1.0000
  C   C1858     1.0  0.57648  0.60034  0.83782  1.0000
  C   C1859     1.0  0.55698  0.59753  0.85068  1.0000
  C   C1860     1.0  0.60451  0.61807  0.85869  1.0000
  C   C1861     1.0  0.62363  0.60937  0.82217  1.0000
  C   C1862     1.0  0.58241  0.55194  0.83269  1.0000
  C   C1863     1.0  0.57620  0.52916  0.83926  1.0000
  H   H3299     1.0  0.59463  0.55027  0.82228  1.0000
  C   C1864     1.0  0.61816  0.62263  0.87194  1.0000
  H   H3300     1.0  0.54547  0.54694  0.92648  1.0000
  H   H3301     1.0  0.62359  0.58777  0.85569  1.0000
  H   H3302     1.0  0.59884  0.58547  0.86743  1.0000
  H   H3303     1.0  0.60657  0.55382  0.84904  1.0000
  H   H3304     1.0  0.58024  0.56162  0.85683  1.0000
  H   H3305     1.0  0.60521  0.58387  0.81631  1.0000
  H   H3306     1.0  0.62616  0.57512  0.82874  1.0000
  H   H3307     1.0  0.57975  0.61774  0.83581  1.0000
  H   H3308     1.0  0.57122  0.59673  0.82616  1.0000
  H   H3309     1.0  0.56195  0.59802  0.86291  1.0000
  H   H3310     1.0  0.60217  0.60226  0.95298  1.0000
  H   H3311     1.0  0.60970  0.62857  0.84781  1.0000
  H   H3312     1.0  0.58758  0.62317  0.86252  1.0000
  H   H3313     1.0  0.63494  0.61202  0.83107  1.0000
  H   H3314     1.0  0.61148  0.62311  0.82131  1.0000
  H   H3315     1.0  0.56783  0.56088  0.82843  1.0000
  C   C1865     1.0  0.52127  0.60247  0.96447  1.0000
  H   H3316     1.0  0.74576  0.49794  0.81389  1.0000
  C   C1866     1.0  0.75438  0.34460  0.74227  1.0000
  H   H3317     1.0  0.56999  0.52097  0.82966  1.0000
  S   S426      1.0  0.75171  0.60054  0.74045  1.0000
  H   H3318     1.0  0.49909  0.50310  0.88711  1.0000
  S   S427      1.0  0.53029  0.32976  0.89283  1.0000
  H   H3319     1.0  0.60949  0.42972  0.78568  1.0000
  H   H3320     1.0  0.51251  0.52294  0.91426  1.0000
  H   H3321     1.0  0.62586  0.60893  0.79610  1.0000
  H   H3322     1.0  0.53302  0.44807  0.86020  1.0000
  H   H3323     1.0  0.70424  0.50525  0.73824  1.0000
  H   H3324     1.0  0.52078  0.54204  0.93907  1.0000
  H   H3325     1.0  0.76198  0.47998  0.76577  1.0000
  H   H3326     1.0  0.67163  0.54517  0.78005  1.0000
  C   C1867     1.0  0.75413  0.44691  0.77040  1.0000
  H   H3327     1.0  0.75450  0.47107  0.79604  1.0000
  H   H3328     1.0  0.66893  0.51638  0.78106  1.0000
  C   C1868     1.0  0.73659  0.51592  0.73658  1.0000
  H   H3329     1.0  0.76793  0.44201  0.77757  1.0000
  H   H3330     1.0  0.54590  0.52890  0.94462  1.0000
  S   S428      1.0  0.79504  0.62282  0.76785  1.0000
  C   C1869     1.0  0.54198  0.56292  0.94868  1.0000
  C   C1870     1.0  0.57982  0.36420  0.96448  1.0000
  H   H3331     1.0  0.77040  0.52151  0.73283  1.0000
  H   H3332     1.0  0.69484  0.52596  0.79938  1.0000
  H   H3333     1.0  0.49484  0.58857  0.79804  1.0000
  H   H3334     1.0  0.75898  0.44371  0.75771  1.0000
  H   H3335     1.0  0.74028  0.43699  0.77498  1.0000
  H   H3336     1.0  0.50864  0.59205  0.81549  1.0000
  H   H3337     1.0  0.83283  0.63621  0.78031  1.0000
  C   C1871     1.0  0.52815  0.62408  0.93802  1.0000
  C   C1872     1.0  0.63668  0.60923  0.80576  1.0000
  N   N103      1.0  0.59758  0.36657  0.80699  1.0000
  C   C1873     1.0  0.59932  0.39068  0.80322  1.0000
  C   C1874     1.0  0.49893  0.64677  0.92429  1.0000
  H   H3338     1.0  0.51801  0.47507  0.90758  1.0000
  C   C1875     1.0  0.57482  0.35999  0.80683  1.0000
  H   H3339     1.0  0.75091  0.51430  0.76919  1.0000
  C   C1876     1.0  0.59122  0.40078  0.78711  1.0000
  H   H3340     1.0  0.53349  0.55963  0.96083  1.0000
  C   C1877     1.0  0.60346  0.37517  0.83618  1.0000
  C   C1878     1.0  0.51820  0.62296  0.97375  1.0000
  C   C1879     1.0  0.68010  0.52952  0.77734  1.0000
  C   C1880     1.0  0.59260  0.42534  0.78538  1.0000
  H   H3341     1.0  0.58694  0.43219  0.77371  1.0000
  H   H3342     1.0  0.61644  0.39477  0.80318  1.0000
  H   H3343     1.0  0.59032  0.39972  0.81272  1.0000
  H   H3344     1.0  0.74433  0.35887  0.74616  1.0000
  C   C1881     1.0  0.50755  0.48938  0.91076  1.0000
  H   H3345     1.0  0.63540  0.61793  0.86875  1.0000
  H   H3346     1.0  0.61670  0.64016  0.87357  1.0000
  C   C1882     1.0  0.78829  0.52624  0.77734  1.0000
  H   H3347     1.0  0.62816  0.36143  0.79294  1.0000
  C   C1883     1.0  0.51911  0.44396  0.86905  1.0000
  C   C1884     1.0  0.70022  0.52591  0.78642  1.0000
  H   H3348     1.0  0.60116  0.39460  0.77668  1.0000
  H   H3349     1.0  0.57415  0.39739  0.78644  1.0000
  H   H3350     1.0  0.77323  0.51459  0.80034  1.0000
  H   H3351     1.0  0.64598  0.62400  0.80330  1.0000
  H   H3352     1.0  0.61331  0.38935  0.83239  1.0000
  H   H3353     1.0  0.58649  0.38114  0.83863  1.0000
  C   C1885     1.0  0.61119  0.36483  0.85200  1.0000
  H   H3354     1.0  0.62845  0.35929  0.85033  1.0000
  H   H3355     1.0  0.57404  0.34228  0.80985  1.0000
  H   H3356     1.0  0.78299  0.54341  0.77861  1.0000
  H   H3357     1.0  0.65606  0.34777  0.74728  1.0000
  H   H3358     1.0  0.53237  0.51090  0.90006  1.0000
  H   H3359     1.0  0.61250  0.61360  0.88351  1.0000
  C   C1886     1.0  0.54381  0.41710  0.97560  1.0000
  H   H3360     1.0  0.78895  0.52325  0.76448  1.0000
  C   C1887     1.0  0.50571  0.60033  0.89239  1.0000
  C   C1888     1.0  0.77297  0.51115  0.78767  1.0000
  H   H3361     1.0  0.49581  0.37051  0.96654  1.0000
  H   H3362     1.0  0.61942  0.34218  0.90113  1.0000
  H   H3363     1.0  0.76133  0.64791  0.80906  1.0000
  H   H3364     1.0  0.49828  0.65532  0.84992  1.0000
  H   H3365     1.0  0.76757  0.65371  0.78775  1.0000
  H   H3366     1.0  0.59896  0.34373  0.82830  1.0000
  H   H3367     1.0  0.66558  0.54334  0.97256  1.0000
  C   C1889     1.0  0.50423  0.62557  0.93432  1.0000
  H   H3368     1.0  0.63208  0.47329  0.97267  1.0000
  C   C1890     1.0  0.67221  0.65977  0.73929  1.0000
  H   H3369     1.0  0.50438  0.40630  0.95342  1.0000
  C   C1891     1.0  0.50289  0.60030  0.80423  1.0000
  C   C1892     1.0  0.64908  0.54967  0.97440  1.0000
  S   S429      1.0  0.54382  0.33696  0.93469  1.0000
  H   H3370     1.0  0.64037  0.50055  0.96980  1.0000
  H   H3371     1.0  0.76901  0.35047  0.73491  1.0000
  H   H3372     1.0  0.67903  0.57357  0.73361  1.0000
  H   H3373     1.0  0.62915  0.34667  0.91994  1.0000
  H   H3374     1.0  0.50985  0.64844  0.91301  1.0000
  H   H3375     1.0  0.50936  0.63629  0.96693  1.0000
  H   H3376     1.0  0.52532  0.61211  0.85723  1.0000
  H   H3377     1.0  0.56033  0.41070  0.97171  1.0000
  C   C1893     1.0  0.74144  0.33173  0.73242  1.0000
  H   H3378     1.0  0.50089  0.61222  0.92729  1.0000
  H   H3379     1.0  0.52816  0.58944  0.97283  1.0000
  C   C1894     1.0  0.61614  0.33962  0.91441  1.0000
  H   H3380     1.0  0.50031  0.66077  0.93126  1.0000
  Fe  Fe217     1.0  0.93853  0.83714  0.05858  1.0000
  S   S430      1.0  0.95772  0.86332  0.06563  1.0000
  S   S431      1.0  0.93786  0.80678  0.07654  1.0000
  Fe  Fe218     1.0  0.92949  0.86338  0.02641  1.0000
  S   S432      1.0  0.94688  0.89166  0.03226  1.0000
  S   S433      1.0  0.91667  0.87055  0.00169  1.0000
  Fe  Fe219     1.0  0.97208  0.86694  0.04016  1.0000
  Fe  Fe220     1.0  0.93089  0.88570  0.05718  1.0000
  S   S434      1.0  0.92102  0.91198  0.07341  1.0000
  S   S435      1.0  0.95565  0.83867  0.03329  1.0000
  S   S436      1.0  0.91073  0.85963  0.05112  1.0000
  Fe  Fe221     1.0  0.88064  0.76505  0.16460  1.0000
  S   S437      1.0  0.89179  0.77875  0.18593  1.0000
  S   S438      1.0  0.87622  0.78744  0.14158  1.0000
  Fe  Fe222     1.0  0.87204  0.72082  0.18346  1.0000
  S   S439      1.0  0.85973  0.68610  0.18538  1.0000
  Fe  Fe223     1.0  0.86449  0.76231  0.20044  1.0000
  C   C1895     1.0  0.79899  0.67500  0.17350  1.0000
  Fe  Fe224     1.0  0.91130  0.74725  0.19008  1.0000
  H   H3381     1.0  0.92182  0.77193  0.22290  1.0000
  S   S440      1.0  0.85116  0.75116  0.17900  1.0000
  S   S441      1.0  0.90117  0.73407  0.16780  1.0000
  C   C1896     1.0  0.96910  0.91672  0.09412  1.0000
  H   H3382     1.0  0.90539  0.87368  0.09236  1.0000
  H   H3383     1.0  0.68593  0.80924  0.21226  1.0000
  H   H3384     1.0  0.94262  0.87209  0.10477  1.0000
  H   H3385     1.0  0.97528  0.84576  0.99334  1.0000
  H   H3386     1.0  0.79218  0.70900  0.20975  1.0000
  H   H3387     1.0  0.50600  0.79614  0.19450  1.0000
  H   H3388     1.0  0.98863  0.76947  0.19302  1.0000
  H   H3389     1.0  0.89583  0.78475  0.22246  1.0000
  C   C1897     1.0  0.96914  0.91317  0.98965  1.0000
  H   H3390     1.0  0.80034  0.78953  0.20066  1.0000
  H   H3391     1.0  0.82002  0.70188  0.17023  1.0000
  H   H3392     1.0  0.87128  0.83430  0.16906  1.0000
  C   C1898     1.0  0.97730  0.67267  0.17280  1.0000
  C   C1899     1.0  0.93433  0.83642  0.98464  1.0000
  H   H3393     1.0  0.97495  0.91507  0.00148  1.0000
  H   H3394     1.0  0.74621  0.69659  0.17364  1.0000
  H   H3395     1.0  0.70070  0.70959  0.20635  1.0000
  H   H3396     1.0  0.66505  0.68703  0.19678  1.0000
  C   C1900     1.0  0.83444  0.67447  0.18369  1.0000
  H   H3397     1.0  0.95088  0.72331  0.17142  1.0000
  H   H3398     1.0  0.92479  0.69479  0.22049  1.0000
  H   H3399     1.0  0.91428  0.95809  0.99168  1.0000
  C   C1901     1.0  0.93802  0.85506  0.10647  1.0000
  H   H3400     1.0  0.79049  0.88347  0.19667  1.0000
  C   C1902     1.0  0.92052  0.80153  0.09455  1.0000
  C   C1903     1.0  0.92812  0.78789  0.10743  1.0000
  C   C1904     1.0  0.91484  0.78327  0.12187  1.0000
  C   C1905     1.0  0.89360  0.79198  0.12351  1.0000
  C   C1906     1.0  0.88587  0.80528  0.11050  1.0000
  C   C1907     1.0  0.89920  0.80996  0.09611  1.0000
  H   H3401     1.0  0.94447  0.78096  0.10627  1.0000
  H   H3402     1.0  0.92102  0.77296  0.13170  1.0000
  H   H3403     1.0  0.86941  0.81189  0.11152  1.0000
  H   H3404     1.0  0.89289  0.81980  0.08610  1.0000
  C   C1908     1.0  0.90281  0.93201  0.06576  1.0000
  C   C1909     1.0  0.90036  0.95198  0.07226  1.0000
  C   C1910     1.0  0.88660  0.96858  0.06580  1.0000
  C   C1911     1.0  0.87456  0.96486  0.05330  1.0000
  C   C1912     1.0  0.87653  0.94467  0.04715  1.0000
  C   C1913     1.0  0.89098  0.92839  0.05315  1.0000
  H   H3405     1.0  0.90944  0.95478  0.08208  1.0000
  S   S442      1.0  0.94659  0.75212  0.19512  1.0000
  H   H3406     1.0  0.86701  0.94172  0.03762  1.0000
  H   H3407     1.0  0.89275  0.91295  0.04815  1.0000
  H   H3408     1.0  0.52304  0.73495  0.17671  1.0000
  H   H3409     1.0  0.97593  0.91219  0.10577  1.0000
  H   H3410     1.0  0.91336  0.83524  0.11849  1.0000
  H   H3411     1.0  0.85522  0.83534  0.15240  1.0000
  H   H3412     1.0  0.93485  0.82695  0.99613  1.0000
  H   H3413     1.0  0.92754  0.67771  0.18719  1.0000
  C   C1914     1.0  0.92675  0.85811  0.98408  1.0000
  C   C1915     1.0  0.89247  0.86862  0.10181  1.0000
  H   H3414     1.0  0.79198  0.78041  0.22125  1.0000
  H   H3415     1.0  0.90504  0.82415  0.18418  1.0000
  H   H3416     1.0  0.90888  0.94133  0.01977  1.0000
  H   H3417     1.0  0.97335  0.90342  0.08630  1.0000
  H   H3418     1.0  0.72068  0.79731  0.22209  1.0000
  C   C1916     1.0  0.72390  0.67936  0.19193  1.0000
  H   H3419     1.0  0.85309  0.81572  0.20446  1.0000
  C   C1917     1.0  0.97816  0.93785  0.08625  1.0000
  C   C1918     1.0  0.83618  0.83955  0.21893  1.0000
  S   S443      1.0  0.84387  0.77378  0.22214  1.0000
  N   N104      1.0  0.97933  0.96367  0.05990  1.0000
  C   C1919     1.0  0.92388  0.91655  0.13573  1.0000
  H   H3420     1.0  0.97251  0.92981  0.06238  1.0000
  H   H3421     1.0  0.73898  0.83340  0.19776  1.0000
  H   H3422     1.0  0.76222  0.67721  0.19846  1.0000
  H   H3423     1.0  0.77662  0.74834  0.21232  1.0000
  H   H3424     1.0  0.86064  0.86482  0.08126  1.0000
  C   C1920     1.0  0.91881  0.85167  0.11944  1.0000
  H   H3425     1.0  0.95803  0.70544  0.20171  1.0000
  H   H3426     1.0  0.76212  0.79341  0.19404  1.0000
  H   H3427     1.0  0.89855  0.85608  0.15267  1.0000
  H   H3428     1.0  0.95163  0.91771  0.99029  1.0000
  H   H3429     1.0  0.92515  0.85059  0.13136  1.0000
  H   H3430     1.0  0.80475  0.75026  0.20544  1.0000
  C   C1921     1.0  0.90373  0.93321  0.00976  1.0000
  C   C1922     1.0  0.94390  0.96617  0.04533  1.0000
  H   H3431     1.0  0.95213  0.94625  0.07190  1.0000
  C   C1923     1.0  0.88143  0.86117  0.13052  1.0000
  H   H3432     1.0  0.75964  0.86073  0.20482  1.0000
  H   H3433     1.0  0.86589  0.95519  0.00253  1.0000
  C   C1924     1.0  0.88706  0.84799  0.14644  1.0000
  C   C1925     1.0  0.93189  0.68942  0.19520  1.0000
  C   C1926     1.0  0.75418  0.69074  0.20493  1.0000
  N   N105      1.0  0.76171  0.81503  0.21261  1.0000
  C   C1927     1.0  0.72085  0.80874  0.21115  1.0000
  H   H3434     1.0  0.80806  0.98854  0.00250  1.0000
  C   C1928     1.0  0.97293  0.88974  0.98569  1.0000
  C   C1929     1.0  0.52068  0.72614  0.16630  1.0000
  H   H3435     1.0  0.94775  0.74218  0.14395  1.0000
  H   H3436     1.0  0.72809  0.68928  0.14996  1.0000
  C   C1930     1.0  0.72910  0.69238  0.17539  1.0000
  H   H3437     1.0  0.84139  0.85319  0.21078  1.0000
  H   H3438     1.0  0.87828  0.88568  0.07242  1.0000
  N   N106      1.0  0.73000  0.68917  0.20648  1.0000
  H   H3439     1.0  0.97103  0.80765  0.00547  1.0000
  H   H3440     1.0  0.88208  0.97182  0.01162  1.0000
  C   C1931     1.0  0.66361  0.67604  0.20760  1.0000
  C   C1932     1.0  0.96734  0.74910  0.20873  1.0000
  H   H3441     1.0  0.92526  0.84309  0.18584  1.0000
  C   C1933     1.0  0.54192  0.72556  0.15558  1.0000
  C   C1934     1.0  0.78836  0.75793  0.20421  1.0000
  H   H3442     1.0  0.72370  0.72193  0.19592  1.0000
  N   N107      1.0  0.89999  0.86806  0.11840  1.0000
  H   H3443     1.0  0.73426  0.83710  0.21847  1.0000
  H   H3444     1.0  0.98897  0.97957  0.07954  1.0000
  H   H3445     1.0  0.78476  0.75767  0.19155  1.0000
  C   C1935     1.0  0.98886  0.80548  0.00507  1.0000
  C   C1936     1.0  0.92241  0.82579  0.18524  1.0000
  H   H3446     1.0  0.79456  0.82339  0.20462  1.0000
  H   H3447     1.0  0.55493  0.71771  0.16260  1.0000
  N   N108      1.0  0.96946  0.69421  0.17862  1.0000
  H   H3448     1.0  0.95176  0.79294  0.22224  1.0000
  H   H3449     1.0  0.54063  0.71618  0.14518  1.0000
  H   H3450     1.0  0.92427  0.70540  0.19128  1.0000
  C   C1937     1.0  0.87988  0.96563  0.99991  1.0000
  C   C1938     1.0  0.92179  0.68277  0.21216  1.0000
  C   C1939     1.0  0.78767  0.78115  0.20871  1.0000
  H   H3451     1.0  0.75876  0.70570  0.19729  1.0000
  H   H3452     1.0  0.95132  0.91862  0.09642  1.0000
  H   H3453     1.0  0.93489  0.97293  0.05582  1.0000
  C   C1940     1.0  0.77616  0.85334  0.20569  1.0000
  C   C1941     1.0  0.95783  0.84080  0.11076  1.0000
  H   H3454     1.0  0.90735  0.88908  0.14660  1.0000
  H   H3455     1.0  0.97305  0.95057  0.09442  1.0000
  H   H3456     1.0  0.51756  0.70924  0.17104  1.0000
  H   H3457     1.0  0.78092  0.85505  0.21783  1.0000
  C   C1942     1.0  0.69880  0.82093  0.21120  1.0000
  C   C1943     1.0  0.91637  0.81867  0.21568  1.0000
  C   C1944     1.0  0.81794  0.68546  0.17545  1.0000
  H   H3458     1.0  0.96374  0.87962  0.99531  1.0000
  C   C1945     1.0  0.74568  0.97650  0.22440  1.0000
  H   H3459     1.0  0.93212  0.91812  0.14663  1.0000
  H   H3460     1.0  0.84577  0.89845  0.98840  1.0000
  H   H3461     1.0  0.88916  0.92421  0.01408  1.0000
  C   C1946     1.0  0.95660  0.69128  0.19489  1.0000
  C   C1947     1.0  0.87253  0.88405  0.09850  1.0000
  H   H3462     1.0  0.71863  0.70744  0.17429  1.0000
  H   H3463     1.0  0.69766  0.83169  0.19990  1.0000
  H   H3464     1.0  0.77628  0.82822  0.18951  1.0000
  C   C1948     1.0  0.78942  0.69340  0.21708  1.0000
  H   H3465     1.0  0.89583  0.94041  0.98561  1.0000
  H   H3466     1.0  0.93495  0.92150  0.12498  1.0000
  C   C1949     1.0  0.84289  0.81838  0.21536  1.0000
  H   H3467     1.0  0.84189  0.97707  0.98544  1.0000
  C   C1950     1.0  0.50184  0.73631  0.15675  1.0000
  C   C1951     1.0  0.96985  0.94411  0.06950  1.0000
  H   H3468     1.0  0.78668  0.86629  0.18126  1.0000
  C   C1952     1.0  0.75150  0.98802  0.20942  1.0000
  C   C1953     1.0  0.99313  0.84415  0.99298  1.0000
  H   H3469     1.0  0.90409  0.68201  0.21201  1.0000
  S   S444      1.0  0.88425  0.73139  0.20575  1.0000
  H   H3470     1.0  0.70785  0.67486  0.16286  1.0000
  H   H3471     1.0  0.54642  0.74222  0.15113  1.0000
  C   C1954     1.0  0.89933  0.94969  0.99556  1.0000
  H   H3472     1.0  0.91668  0.97461  0.03143  1.0000
  C   C1955     1.0  0.86687  0.84425  0.15802  1.0000
  H   H3473     1.0  0.97251  0.69776  0.14380  1.0000
  H   H3474     1.0  0.93173  0.82021  0.17430  1.0000
  C   C1956     1.0  0.97828  0.98285  0.06963  1.0000
  H   H3475     1.0  0.79748  0.68006  0.21047  1.0000
  H   H3476     1.0  0.94699  0.81478  0.20049  1.0000
  H   H3477     1.0  0.51346  0.76982  0.17424  1.0000
  H   H3478     1.0  0.85103  0.89286  0.07987  1.0000
  H   H3479     1.0  0.85872  0.88076  0.10760  1.0000
  H   H3480     1.0  0.91678  0.92127  0.00604  1.0000
  C   C1957     1.0  0.79136  0.86645  0.19365  1.0000
  H   H3481     1.0  0.94608  0.97715  0.08258  1.0000
  H   H3482     1.0  0.94130  0.69990  0.16514  1.0000
  C   C1958     1.0  0.95266  0.72661  0.13886  1.0000
  C   C1959     1.0  0.86521  0.88161  0.08200  1.0000
  H   H3483     1.0  0.88871  0.85214  0.09942  1.0000
  C   C1960     1.0  0.91796  0.89315  0.13550  1.0000
  C   C1961     1.0  0.72488  0.67941  0.16162  1.0000
  H   H3484     1.0  0.97123  0.98630  0.03981  1.0000
  C   C1962     1.0  0.76508  0.79267  0.20695  1.0000
  N   N109      1.0  0.87495  0.98425  0.98749  1.0000
  C   C1963     1.0  0.73924  0.82460  0.20998  1.0000
  C   C1964     1.0  0.96844  0.96927  0.04458  1.0000
  H   H3485     1.0  0.85909  0.85986  0.16147  1.0000
  C   C1965     1.0  0.92965  0.81215  0.20013  1.0000
  H   H3486     1.0  0.87097  0.85050  0.12517  1.0000
  H   H3487     1.0  0.86158  0.92027  0.99193  1.0000
  H   H3488     1.0  0.96367  0.84533  0.12195  1.0000
  C   C1966     1.0  0.86184  0.90534  0.98574  1.0000
  H   H3489     1.0  0.97094  0.84288  0.10086  1.0000
  H   H3490     1.0  0.80824  0.85987  0.19415  1.0000
  H   H3491     1.0  0.87651  0.90117  0.09850  1.0000
  H   H3492     1.0  0.89439  0.83178  0.14394  1.0000
  H   H3493     1.0  0.88499  0.98411  0.07065  1.0000
  H   H3494     1.0  0.93316  0.88294  0.13562  1.0000
  C   C1967     1.0  0.93424  0.97703  0.03035  1.0000
  H   H3495     1.0  0.87074  0.87543  0.13368  1.0000
  C   C1968     1.0  0.77775  0.82914  0.20254  1.0000
  H   H3496     1.0  0.89913  0.81970  0.21318  1.0000
  H   H3497     1.0  0.75674  0.97912  0.19918  1.0000
  H   H3498     1.0  0.94104  0.94863  0.04612  1.0000
  H   H3499     1.0  0.75321  0.78162  0.21340  1.0000
  C   C1969     1.0  0.76534  0.68998  0.22070  1.0000
  H   H3500     1.0  0.78671  0.68367  0.16681  1.0000
  H   H3501     1.0  0.93356  0.85034  0.09492  1.0000
  H   H3502     1.0  0.91762  0.99114  0.99761  1.0000
  H   H3503     1.0  0.90919  0.92763  0.13596  1.0000
  H   H3504     1.0  0.50757  0.75103  0.14931  1.0000
  H   H3505     1.0  0.72283  0.79912  0.20060  1.0000
  H   H3506     1.0  0.49957  0.72466  0.14791  1.0000
  H   H3507     1.0  0.87424  0.89359  0.99068  1.0000
  H   H3508     1.0  0.93802  0.71793  0.13765  1.0000
  H   H3509     1.0  0.91637  0.89721  0.10974  1.0000
  H   H3510     1.0  0.96338  0.67708  0.20230  1.0000
  H   H3511     1.0  0.95402  0.82350  0.11237  1.0000
  H   H3512     1.0  0.92798  0.79491  0.19869  1.0000
  H   H3513     1.0  0.70640  0.67676  0.19317  1.0000
  H   H3514     1.0  0.94187  0.96989  0.01943  1.0000
  H   H3515     1.0  0.89163  0.90180  0.12127  1.0000
  C   C1970     1.0  0.90619  0.89054  0.12055  1.0000
  C   C1971     1.0  0.71835  0.71120  0.20676  1.0000
  C   C1972     1.0  0.95634  0.70762  0.16669  1.0000
  H   H3516     1.0  0.92845  0.66657  0.21665  1.0000
  S   S445      1.0  0.85694  0.98511  0.04515  1.0000
  C   C1973     1.0  0.98677  0.75947  0.20431  1.0000
  H   H3517     1.0  0.73218  0.66311  0.19099  1.0000
  C   C1974     1.0  0.98908  0.70651  0.18037  1.0000
  H   H3518     1.0  0.84233  0.97905  0.01496  1.0000
  H   H3519     1.0  0.96108  0.73023  0.12669  1.0000
  H   H3520     1.0  0.97575  0.95905  0.03505  1.0000
  C   C1975     1.0  0.95564  0.99065  0.07677  1.0000
  C   C1976     1.0  0.85099  0.99001  0.98948  1.0000
  S   S446      1.0  0.64352  0.71072  0.22177  1.0000
  H   H3521     1.0  0.97760  0.92418  0.98020  1.0000
  H   H3522     1.0  0.99309  0.70221  0.20634  1.0000
  H   H3523     1.0  0.73777  0.72994  0.21999  1.0000
  H   H3524     1.0  0.94827  0.66605  0.16142  1.0000
  H   H3525     1.0  0.92039  0.83550  0.21716  1.0000
  C   C1977     1.0  0.65296  0.68330  0.22177  1.0000
  H   H3526     1.0  0.49850  0.75863  0.19237  1.0000
  C   C1978     1.0  0.96769  0.71281  0.14958  1.0000
  C   C1979     1.0  0.72182  0.67504  0.22122  1.0000
  C   C1980     1.0  0.96539  0.73627  0.22344  1.0000
  S   S447      1.0  0.74584  0.94750  0.22568  1.0000
  H   H3527     1.0  0.73562  0.66451  0.16148  1.0000
  H   H3528     1.0  0.70844  0.75493  0.20973  1.0000
  H   H3529     1.0  0.98435  0.72389  0.18162  1.0000
  C   C1981     1.0  0.49758  0.77004  0.18145  1.0000
  C   C1982     1.0  0.72119  0.72424  0.22108  1.0000
  H   H3530     1.0  0.70386  0.67608  0.22271  1.0000
  H   H3531     1.0  0.98869  0.67500  0.16178  1.0000
  H   H3532     1.0  0.68872  0.73962  0.22266  1.0000
  H   H3533     1.0  0.98216  0.72211  0.14990  1.0000
  C   C1983     1.0  0.70573  0.74434  0.22112  1.0000
  H   H3534     1.0  0.69596  0.83084  0.22158  1.0000
  H   H3535     1.0  0.93639  0.99470  0.02914  1.0000
  C   C1984     1.0  0.84109  0.99404  0.00671  1.0000
  H   H3536     1.0  0.99407  0.80928  0.01668  1.0000
  H   H3537     1.0  0.99359  0.78827  0.00348  1.0000
  H   H3538     1.0  0.83862  0.66298  0.13565  1.0000
  H   H3539     1.0  0.98691  0.66314  0.18175  1.0000
  C   C1985     1.0  0.83633  0.80073  0.22594  1.0000
  H   H3540     1.0  0.99415  0.81511  0.97988  1.0000
  Fe  Fe225     1.0  0.85393  0.92616  0.40836  1.0000
  S   S448      1.0  0.87925  0.94998  0.40064  1.0000
  S   S449      1.0  0.84679  0.91022  0.43393  1.0000
  Fe  Fe226     1.0  0.84285  0.92291  0.37344  1.0000
  S   S450      1.0  0.86736  0.94668  0.36340  1.0000
  S   S451      1.0  0.82579  0.90156  0.35832  1.0000
  Fe  Fe227     1.0  0.88933  0.92935  0.38053  1.0000
  S   S452      1.0  0.92410  0.92582  0.37065  1.0000
  Fe  Fe228     1.0  0.85554  0.96573  0.38416  1.0000
  C   C1986     1.0  0.95467  0.81984  0.37655  1.0000
  S   S453      1.0  0.86605  0.90406  0.38932  1.0000
  S   S454      1.0  0.82897  0.94339  0.39316  1.0000
  C   C1987     1.0  0.82238  0.84316  0.23281  1.0000
  C   C1988     1.0  0.92609  0.90025  0.47271  1.0000
  Fe  Fe229     1.0  0.61966  0.72276  0.24172  1.0000
  S   S455      1.0  0.62956  0.73106  0.26522  1.0000
  Fe  Fe230     1.0  0.57186  0.73833  0.24937  1.0000
  S   S456      1.0  0.57907  0.74858  0.27337  1.0000
  Fe  Fe231     1.0  0.61000  0.76222  0.26056  1.0000
  S   S457      1.0  0.62260  0.79437  0.26693  1.0000
  Fe  Fe232     1.0  0.59847  0.71710  0.27651  1.0000
  S   S458      1.0  0.59905  0.69270  0.29885  1.0000
  S   S459      1.0  0.59050  0.70619  0.25320  1.0000
  Fe  Fe233     1.0  0.75822  0.89957  0.27884  1.0000
  S   S460      1.0  0.77820  0.91324  0.25689  1.0000
  S   S461      1.0  0.76323  0.91578  0.30162  1.0000
  Fe  Fe234     1.0  0.73338  0.87157  0.25895  1.0000
  S   S462      1.0  0.75201  0.88485  0.23592  1.0000
  S   S463      1.0  0.71311  0.84199  0.25606  1.0000
  Fe  Fe235     1.0  0.78140  0.87958  0.24936  1.0000
  C   C1989     1.0  0.98124  0.98055  0.36577  1.0000
  Fe  Fe236     1.0  0.74777  0.91811  0.24483  1.0000
  H   H3541     1.0  0.74724  0.92826  0.37789  1.0000
  S   S464      1.0  0.76364  0.86516  0.27218  1.0000
  S   S465      1.0  0.72684  0.90550  0.26703  1.0000
  C   C1990     1.0  0.98277  0.73338  0.23323  1.0000
  H   H3542     1.0  0.98439  0.78530  0.23771  1.0000
  H   H3543     1.0  0.66543  0.73565  0.28874  1.0000
  H   H3544     1.0  0.69996  0.75198  0.29174  1.0000
  C   C1991     1.0  0.50704  0.72676  0.28410  1.0000
  C   C1992     1.0  0.58238  0.68708  0.31715  1.0000
  H   H3545     1.0  0.85237  0.95312  0.26073  1.0000
  H   H3546     1.0  0.95035  0.81728  0.23190  1.0000
  C   C1993     1.0  0.55734  0.67680  0.34690  1.0000
  C   C1994     1.0  0.55282  0.69598  0.33708  1.0000
  C   C1995     1.0  0.56521  0.70109  0.32230  1.0000
  C   C1996     1.0  0.96562  0.97459  0.38093  1.0000
  H   H3547     1.0  0.92318  0.81447  0.38922  1.0000
  H   H3548     1.0  0.53960  0.70692  0.34095  1.0000
  H   H3549     1.0  0.56159  0.71591  0.31498  1.0000
  C   C1997     1.0  0.64792  0.80732  0.26370  1.0000
  C   C1998     1.0  0.64947  0.82768  0.26941  1.0000
  C   C1999     1.0  0.66905  0.83848  0.26723  1.0000
  C   C2000     1.0  0.68767  0.82907  0.25937  1.0000
  C   C2001     1.0  0.68611  0.80857  0.25384  1.0000
  C   C2002     1.0  0.66651  0.79790  0.25585  1.0000
  H   H3550     1.0  0.66967  0.85415  0.27161  1.0000
  H   H3551     1.0  0.64804  0.68581  0.30385  1.0000
  H   H3552     1.0  0.66580  0.78233  0.25135  1.0000
  C   C2003     1.0  0.76910  0.89987  0.38209  1.0000
  H   H3553     1.0  0.51247  0.73016  0.27110  1.0000
  C   C2004     1.0  0.49924  0.67316  0.31204  1.0000
  C   C2005     1.0  0.52538  0.76097  0.28715  1.0000
  C   C2006     1.0  0.92926  0.97651  0.39509  1.0000
  H   H3554     1.0  0.81961  0.92695  0.26564  1.0000
  H   H3555     1.0  0.76360  0.91475  0.40390  1.0000
  H   H3556     1.0  0.83912  0.89391  0.46715  1.0000
  H   H3557     1.0  0.97780  0.80585  0.25142  1.0000
  H   H3558     1.0  0.53879  0.72886  0.29312  1.0000
  C   C2007     1.0  0.82326  0.80442  0.24011  1.0000
  H   H3559     1.0  0.91303  0.98499  0.39566  1.0000
  C   C2008     1.0  0.65086  0.66889  0.23565  1.0000
  C   C2009     1.0  0.85910  0.95149  0.46642  1.0000
  C   C2010     1.0  0.80896  0.90621  0.34222  1.0000
  C   C2011     1.0  0.79990  0.92668  0.33739  1.0000
  C   C2012     1.0  0.78596  0.92925  0.32499  1.0000
  C   C2013     1.0  0.78131  0.91156  0.31695  1.0000
  C   C2014     1.0  0.79049  0.89113  0.32172  1.0000
  C   C2015     1.0  0.80414  0.88850  0.33428  1.0000
  H   H3560     1.0  0.80329  0.94048  0.34338  1.0000
  H   H3561     1.0  0.77871  0.94509  0.32159  1.0000
  H   H3562     1.0  0.78678  0.87728  0.31590  1.0000
  H   H3563     1.0  0.81089  0.87255  0.33797  1.0000
  C   C2016     1.0  0.94181  0.90760  0.38086  1.0000
  C   C2017     1.0  0.93426  0.89169  0.39267  1.0000
  C   C2018     1.0  0.94895  0.87671  0.39998  1.0000
  C   C2019     1.0  0.97116  0.87791  0.39572  1.0000
  H   H3564     1.0  0.80892  0.91198  0.41679  1.0000
  C   C2020     1.0  0.96400  0.90885  0.37671  1.0000
  H   H3565     1.0  0.91713  0.89066  0.39591  1.0000
  H   H3566     1.0  0.94311  0.86411  0.40887  1.0000
  H   H3567     1.0  0.87920  0.92306  0.33018  1.0000
  H   H3568     1.0  0.96990  0.92112  0.36757  1.0000
  C   C2021     1.0  0.84979  0.92195  0.45198  1.0000
  C   C2022     1.0  0.64864  0.68729  0.31687  1.0000
  C   C2023     1.0  0.82488  0.85875  0.28249  1.0000
  N   N110      1.0  0.63726  0.75001  0.31549  1.0000
  C   C2024     1.0  0.61993  0.76346  0.30723  1.0000
  C   C2025     1.0  0.65892  0.75743  0.30815  1.0000
  C   C2026     1.0  0.63480  0.72658  0.31339  1.0000
  C   C2027     1.0  0.63549  0.75268  0.33325  1.0000
  C   C2028     1.0  0.63261  0.77629  0.33783  1.0000
  C   C2029     1.0  0.59640  0.75914  0.31402  1.0000
  C   C2030     1.0  0.65272  0.71047  0.31969  1.0000
  C   C2031     1.0  0.66520  0.75310  0.29037  1.0000
  C   C2032     1.0  0.63224  0.77697  0.35599  1.0000
  C   C2033     1.0  0.58088  0.77785  0.30867  1.0000
  H   H3569     1.0  0.78942  0.97820  0.27432  1.0000
  H   H3570     1.0  0.62087  0.76052  0.29434  1.0000
  H   H3571     1.0  0.62258  0.78102  0.30699  1.0000
  H   H3572     1.0  0.65959  0.77517  0.30855  1.0000
  H   H3573     1.0  0.67202  0.75007  0.31533  1.0000
  H   H3574     1.0  0.63355  0.72432  0.30056  1.0000
  H   H3575     1.0  0.61925  0.72117  0.31971  1.0000
  H   H3576     1.0  0.62207  0.74348  0.33981  1.0000
  H   H3577     1.0  0.65014  0.74533  0.33862  1.0000
  H   H3578     1.0  0.61721  0.78417  0.33417  1.0000
  H   H3579     1.0  0.64598  0.78603  0.33199  1.0000
  H   H3580     1.0  0.59151  0.74415  0.30957  1.0000
  H   H3581     1.0  0.59431  0.75701  0.32730  1.0000
  H   H3582     1.0  0.65329  0.71093  0.33281  1.0000
  H   H3583     1.0  0.66876  0.71420  0.31352  1.0000
  H   H3584     1.0  0.65376  0.76192  0.28245  1.0000
  H   H3585     1.0  0.61870  0.76785  0.36237  1.0000
  H   H3586     1.0  0.64766  0.76997  0.36031  1.0000
  H   H3587     1.0  0.62999  0.79401  0.35896  1.0000
  H   H3588     1.0  0.58411  0.79268  0.31413  1.0000
  H   H3589     1.0  0.58262  0.78133  0.29539  1.0000
  H   H3590     1.0  0.56405  0.77366  0.31263  1.0000
  H   H3591     1.0  0.92059  0.94638  0.42143  1.0000
  H   H3592     1.0  0.88157  0.74805  0.23638  1.0000
  H   H3593     1.0  0.90955  0.73817  0.23665  1.0000
  S   S466      1.0  0.81432  0.86992  0.23692  1.0000
  H   H3594     1.0  0.84351  0.88069  0.26626  1.0000
  H   H3595     1.0  0.90519  0.88930  0.44645  1.0000
  H   H3596     1.0  0.79695  0.69350  0.22848  1.0000
  H   H3597     1.0  0.63317  0.68234  0.32348  1.0000
  H   H3598     1.0  0.75539  0.91400  0.36041  1.0000
  C   C2034     1.0  0.84479  0.90999  0.46688  1.0000
  H   H3599     1.0  0.98110  0.72308  0.24440  1.0000
  H   H3600     1.0  0.87254  0.81520  0.26822  1.0000
  H   H3601     1.0  0.77532  0.92918  0.45397  1.0000
  H   H3602     1.0  0.87776  0.91860  0.30132  1.0000
  H   H3603     1.0  0.55663  0.67277  0.26149  1.0000
  H   H3604     1.0  0.50555  0.70871  0.22968  1.0000
  C   C2035     1.0  0.87326  0.82951  0.25919  1.0000
  H   H3605     1.0  0.75072  0.78897  0.26781  1.0000
  S   S467      1.0  0.54068  0.67089  0.36520  1.0000
  H   H3606     1.0  0.89724  0.91658  0.43942  1.0000
  H   H3607     1.0  0.92693  0.95955  0.39273  1.0000
  H   H3608     1.0  0.83898  0.84998  0.28770  1.0000
  H   H3609     1.0  0.84749  0.86049  0.38819  1.0000
  C   C2036     1.0  0.80847  0.88034  0.39865  1.0000
  H   H3610     1.0  0.76391  0.67397  0.22770  1.0000
  H   H3611     1.0  0.99220  0.85308  0.36925  1.0000
  C   C2037     1.0  0.88465  0.82331  0.24322  1.0000
  H   H3612     1.0  0.77302  0.92809  0.42501  1.0000
  H   H3613     1.0  0.91109  0.93075  0.46216  1.0000
  C   C2038     1.0  0.52004  0.68930  0.27840  1.0000
  H   H3614     1.0  0.75672  0.88039  0.41705  1.0000
  C   C2039     1.0  0.75348  0.79915  0.24225  1.0000
  H   H3615     1.0  0.73749  0.84929  0.41085  1.0000
  C   C2040     1.0  0.90927  0.90644  0.44614  1.0000
  C   C2041     1.0  0.84312  0.92798  0.30058  1.0000
  S   S468      1.0  0.98932  0.85847  0.40431  1.0000
  C   C2042     1.0  0.79639  0.90050  0.42156  1.0000
  H   H3616     1.0  0.97645  0.97271  0.35546  1.0000
  H   H3617     1.0  0.80438  0.88838  0.43003  1.0000
  H   H3618     1.0  0.77404  0.93064  0.36770  1.0000
  H   H3619     1.0  0.92619  0.96304  0.43670  1.0000
  H   H3620     1.0  0.81463  0.85449  0.41808  1.0000
  H   H3621     1.0  0.76507  0.90310  0.43621  1.0000
  H   H3622     1.0  0.88997  0.96093  0.25210  1.0000
  H   H3623     1.0  0.51965  0.70019  0.31020  1.0000
  C   C2043     1.0  0.76585  0.81511  0.22997  1.0000
  S   S469      1.0  0.53859  0.73231  0.24075  1.0000
  H   H3624     1.0  0.85651  0.83568  0.25739  1.0000
  H   H3625     1.0  0.70011  0.80079  0.24787  1.0000
  H   H3626     1.0  0.80414  0.87175  0.38861  1.0000
  H   H3627     1.0  0.94219  0.79150  0.39110  1.0000
  H   H3628     1.0  0.87276  0.91098  0.27677  1.0000
  C   C2044     1.0  0.85843  0.92079  0.27275  1.0000
  H   H3629     1.0  0.78904  0.92010  0.39321  1.0000
  H   H3630     1.0  0.80489  0.91943  0.28430  1.0000
  C   C2045     1.0  0.90192  0.76969  0.24578  1.0000
  C   C2046     1.0  0.77781  0.90701  0.39723  1.0000
  H   H3631     1.0  0.95255  0.96857  0.41326  1.0000
  H   H3632     1.0  0.81836  0.89363  0.39268  1.0000
  C   C2047     1.0  0.83670  0.89454  0.28954  1.0000
  C   C2048     1.0  0.81257  0.95240  0.28164  1.0000
  C   C2049     1.0  0.90857  0.91319  0.46320  1.0000
  C   C2050     1.0  0.97463  0.78923  0.24894  1.0000
  H   H3633     1.0  0.77738  0.86588  0.42717  1.0000
  C   C2051     1.0  0.85703  0.94276  0.45184  1.0000
  H   H3634     1.0  0.82873  0.83930  0.39260  1.0000
  C   C2052     1.0  0.97865  0.89424  0.38428  1.0000
  N   N111      1.0  0.78875  0.88967  0.40800  1.0000
  H   H3635     1.0  0.86001  0.90128  0.31439  1.0000
  H   H3636     1.0  0.90944  0.80564  0.25635  1.0000
  H   H3637     1.0  0.82600  0.96313  0.27813  1.0000
  H   H3638     1.0  0.81095  0.85896  0.29182  1.0000
  C   C2053     1.0  0.83017  0.88179  0.27597  1.0000
  H   H3639     1.0  0.78161  0.89100  0.37461  1.0000
  H   H3640     1.0  0.85183  0.88615  0.29341  1.0000
  H   H3641     1.0  0.94183  0.79210  0.25881  1.0000
  H   H3642     1.0  0.80147  0.93111  0.44292  1.0000
  C   C2054     1.0  0.94031  0.80940  0.39064  1.0000
  H   H3643     1.0  0.75273  0.82525  0.40516  1.0000
  H   H3644     1.0  0.84494  0.94564  0.29845  1.0000
  H   H3645     1.0  0.95069  0.72814  0.22716  1.0000
  H   H3646     1.0  0.86089  0.95220  0.44050  1.0000
  H   H3647     1.0  0.91404  0.76797  0.25457  1.0000
  C   C2055     1.0  0.75290  0.83957  0.41201  1.0000
  N   N112      1.0  0.50374  0.70288  0.28817  1.0000
  H   H3648     1.0  0.85495  0.91399  0.26159  1.0000
  H   H3649     1.0  0.69161  0.75779  0.27176  1.0000
  H   H3650     1.0  0.51428  0.67279  0.27822  1.0000
  H   H3651     1.0  0.75767  0.81658  0.26289  1.0000
  C   C2056     1.0  0.77327  0.87276  0.41501  1.0000
  C   C2057     1.0  0.91092  0.99398  0.36503  1.0000
  H   H3652     1.0  0.93537  0.96797  0.36330  1.0000
  C   C2058     1.0  0.58694  0.66800  0.32701  1.0000
  H   H3653     1.0  0.94837  0.76997  0.24642  1.0000
  H   H3654     1.0  0.68812  0.77846  0.28546  1.0000
  H   H3655     1.0  0.88170  0.84241  0.26380  1.0000
  C   C2059     1.0  0.73883  0.98840  0.23747  1.0000
  H   H3656     1.0  0.97786  0.81427  0.34345  1.0000
  H   H3657     1.0  0.80566  0.82809  0.25424  1.0000
  N   N113      1.0  0.91945  0.80406  0.23091  1.0000
  C   C2060     1.0  0.51310  0.74103  0.23330  1.0000
  H   H3658     1.0  0.95136  0.83759  0.37655  1.0000
  H   H3659     1.0  0.53153  0.76212  0.27423  1.0000
  C   C2061     1.0  0.77892  0.91314  0.43196  1.0000
  H   H3660     1.0  0.52154  0.69599  0.26556  1.0000
  H   H3661     1.0  0.94992  0.81457  0.36524  1.0000
  H   H3662     1.0  0.77038  0.85767  0.39244  1.0000
  C   C2062     1.0  0.95064  0.78727  0.24752  1.0000
  C   C2063     1.0  0.89595  0.74702  0.24320  1.0000
  H   H3663     1.0  0.51634  0.73735  0.30653  1.0000
  H   H3664     1.0  0.92577  0.88294  0.47049  1.0000
  C   C2064     1.0  0.68763  0.76082  0.28455  1.0000
  H   H3665     1.0  0.70833  0.75369  0.23128  1.0000
  H   H3666     1.0  0.75628  0.78225  0.23919  1.0000
  H   H3667     1.0  0.73612  0.80378  0.24288  1.0000
  H   H3668     1.0  0.63533  0.83531  0.27548  1.0000
  H   H3669     1.0  0.90422  0.97094  0.42469  1.0000
  H   H3670     1.0  0.66179  0.67610  0.32127  1.0000
  C   C2065     1.0  0.81610  0.82551  0.24345  1.0000
  H   H3671     1.0  0.98346  0.88400  0.44117  1.0000
  H   H3672     1.0  0.89934  0.93565  0.26216  1.0000
  N   N114      1.0  0.83951  0.91843  0.28530  1.0000
  H   H3673     1.0  0.81575  0.88938  0.27059  1.0000
  H   H3674     1.0  0.97371  0.84703  0.35576  1.0000
  C   C2066     1.0  0.90862  0.81569  0.24474  1.0000
  H   H3675     1.0  0.81830  0.79082  0.24841  1.0000
  H   H3676     1.0  0.72657  0.68083  0.23232  1.0000
  H   H3677     1.0  0.82439  0.89213  0.29996  1.0000
  C   C2067     1.0  0.57451  0.66285  0.34174  1.0000
  H   H3678     1.0  0.85007  0.84087  0.40531  1.0000
  C   C2068     1.0  0.76094  0.91944  0.37143  1.0000
  C   C2069     1.0  0.77199  0.85297  0.40532  1.0000
  H   H3679     1.0  0.75417  0.83385  0.42486  1.0000
  S   S470      1.0  0.60106  0.75453  0.23633  1.0000
  H   H3680     1.0  0.75523  0.88962  0.38563  1.0000
  H   H3681     1.0  0.78679  0.84221  0.40606  1.0000
  H   H3682     1.0  0.86957  0.94776  0.31946  1.0000
  H   H3683     1.0  0.71790  0.71471  0.23283  1.0000
  H   H3684     1.0  0.88725  0.77793  0.25146  1.0000
  C   C2070     1.0  0.81902  0.92846  0.27878  1.0000
  C   C2071     1.0  0.88576  0.94403  0.25602  1.0000
  C   C2072     1.0  0.54330  0.68670  0.28347  1.0000
  H   H3685     1.0  0.88362  0.83779  0.23439  1.0000
  C   C2073     1.0  0.79365  0.96110  0.27220  1.0000
  C   C2074     1.0  0.76041  0.79995  0.25911  1.0000
  H   H3686     1.0  0.82049  0.84993  0.27258  1.0000
  C   C2075     1.0  0.82372  0.86496  0.40865  1.0000
  C   C2076     1.0  0.86508  0.94409  0.26741  1.0000
  H   H3687     1.0  0.83418  0.87467  0.41473  1.0000
  H   H3688     1.0  0.92546  0.90856  0.43959  1.0000
  C   C2077     1.0  0.78808  0.92024  0.44668  1.0000
  C   C2078     1.0  0.83838  0.85054  0.39799  1.0000
  C   C2079     1.0  0.92082  0.96331  0.42448  1.0000
  C   C2080     1.0  0.50548  0.76273  0.23194  1.0000
  H   H3689     1.0  0.91739  0.83031  0.24612  1.0000
  H   H3690     1.0  0.75828  0.70233  0.22853  1.0000
  H   H3691     1.0  0.98229  0.88064  0.33808  1.0000
  H   H3692     1.0  0.73406  0.97993  0.24903  1.0000
  H   H3693     1.0  0.86807  0.95281  0.27776  1.0000
  H   H3694     1.0  0.77924  0.95171  0.27620  1.0000
  H   H3695     1.0  0.77770  0.79474  0.25946  1.0000
  C   C2081     1.0  0.93614  0.97615  0.41231  1.0000
  H   H3696     1.0  0.99368  0.80345  0.31702  1.0000
  H   H3697     1.0  0.98018  0.79612  0.38196  1.0000
  H   H3698     1.0  0.97996  0.77770  0.25894  1.0000
  H   H3699     1.0  0.57327  0.66810  0.27797  1.0000
  C   C2082     1.0  0.52273  0.73737  0.29370  1.0000
  H   H3700     1.0  0.96329  0.95693  0.38128  1.0000
  H   H3701     1.0  0.89185  0.73776  0.25499  1.0000
  H   H3702     1.0  0.87563  0.81056  0.23901  1.0000
  H   H3703     1.0  0.64265  0.67428  0.24663  1.0000
  C   C2083     1.0  0.86571  0.93083  0.32363  1.0000
  H   H3704     1.0  0.79779  0.96024  0.25910  1.0000
  H   H3705     1.0  0.89976  0.98333  0.37278  1.0000
  H   H3706     1.0  0.51522  0.77493  0.23535  1.0000
  H   H3707     1.0  0.80737  0.95364  0.29458  1.0000
  H   H3708     1.0  0.76189  0.83145  0.23414  1.0000
  H   H3709     1.0  0.88357  0.93586  0.24518  1.0000
  N   N115      1.0  0.94403  0.98706  0.38163  1.0000
  H   H3710     1.0  0.53702  0.76821  0.29389  1.0000
  H   H3711     1.0  0.94446  0.81466  0.40216  1.0000
  C   C2084     1.0  0.86263  0.91821  0.30943  1.0000
  H   H3712     1.0  0.94177  0.90549  0.46653  1.0000
  H   H3713     1.0  0.50973  0.77047  0.28851  1.0000
  H   H3714     1.0  0.82856  0.92612  0.30929  1.0000
  H   H3715     1.0  0.85091  0.93094  0.33215  1.0000
  H   H3716     1.0  0.55157  0.70193  0.28017  1.0000
  H   H3717     1.0  0.97411  0.97615  0.39167  1.0000
  H   H3718     1.0  0.79422  0.90603  0.45434  1.0000
  H   H3719     1.0  0.86450  0.96769  0.46615  1.0000
  H   H3720     1.0  0.78319  0.81187  0.23124  1.0000
  C   C2085     1.0  0.90997  0.78260  0.22969  1.0000
  C   C2086     1.0  0.94338  0.80116  0.23248  1.0000
  N   N116      1.0  0.99452  0.81973  0.36393  1.0000
  H   H3721     1.0  0.89216  0.91093  0.46904  1.0000
  H   H3722     1.0  0.93540  0.99285  0.41594  1.0000
  C   C2087     1.0  0.93455  0.98513  0.36600  1.0000
  C   C2088     1.0  0.50399  0.69693  0.30603  1.0000
  C   C2089     1.0  0.49995  0.72554  0.22875  1.0000
  H   H3723     1.0  0.86495  0.99412  0.41112  1.0000
  C   C2090     1.0  0.97884  0.81382  0.37841  1.0000
  H   H3724     1.0  0.54386  0.68189  0.29647  1.0000
  H   H3725     1.0  0.90613  0.97821  0.34377  1.0000
  H   H3726     1.0  0.98448  0.79039  0.35549  1.0000
  C   C2091     1.0  0.55641  0.66908  0.27472  1.0000
  C   C2092     1.0  0.99047  0.84353  0.35897  1.0000
  H   H3727     1.0  0.94421  0.99382  0.35579  1.0000
  C   C2093     1.0  0.99079  0.80627  0.35054  1.0000
  H   H3728     1.0  0.98296  0.82154  0.38902  1.0000
  H   H3729     1.0  0.99218  0.91679  0.45238  1.0000
  C   C2094     1.0  0.90436  0.99465  0.34795  1.0000
  H   H3730     1.0  0.49601  0.67937  0.33738  1.0000
  H   H3731     1.0  0.52198  0.66757  0.33019  1.0000
  C   C2095     1.0  0.50436  0.66761  0.32943  1.0000
  Fe  Fe237     1.0  0.85756  0.93935  0.52589  1.0000
  S   S471      1.0  0.88657  0.95173  0.53506  1.0000
  S   S472      1.0  0.85691  0.95171  0.49925  1.0000
  Fe  Fe238     1.0  0.84288  0.91745  0.56013  1.0000
  S   S473      1.0  0.87155  0.92774  0.57093  1.0000
  S   S474      1.0  0.81649  0.89829  0.57515  1.0000
  Fe  Fe239     1.0  0.86473  0.95966  0.55676  1.0000
  Fe  Fe240     1.0  0.89054  0.91884  0.54806  1.0000
  S   S475      1.0  0.92189  0.89900  0.54423  1.0000
  S   S476      1.0  0.83520  0.94995  0.54685  1.0000
  S   S477      1.0  0.86249  0.90582  0.53811  1.0000
  H   H3732     1.0  0.99368  0.83925  0.63087  1.0000
  Fe  Fe241     1.0  0.61631  0.75639  0.67837  1.0000
  S   S478      1.0  0.59933  0.75243  0.70333  1.0000
  S   S479      1.0  0.64154  0.78139  0.66864  1.0000
  Fe  Fe242     1.0  0.59547  0.71599  0.66839  1.0000
  S   S480      1.0  0.57861  0.70903  0.69321  1.0000
  S   S481      1.0  0.59226  0.69054  0.65078  1.0000
  Fe  Fe243     1.0  0.56979  0.74454  0.69201  1.0000
  S   S482      1.0  0.53490  0.75783  0.69768  1.0000
  Fe  Fe244     1.0  0.60933  0.71709  0.70249  1.0000
  H   H3733     1.0  0.54371  0.69202  0.67601  1.0000
  S   S483      1.0  0.58589  0.75157  0.66673  1.0000
  S   S484      1.0  0.62718  0.72108  0.67798  1.0000
  Fe  Fe245     1.0  0.72449  0.87297  0.68853  1.0000
  S   S485      1.0  0.69062  0.85921  0.68986  1.0000
  Fe  Fe246     1.0  0.76916  0.88399  0.67143  1.0000
  S   S486      1.0  0.78105  0.89081  0.69475  1.0000
  S   S487      1.0  0.79727  0.88944  0.65187  1.0000
  Fe  Fe247     1.0  0.76445  0.86154  0.70596  1.0000
  H   H3734     1.0  0.84532  0.84677  0.62700  1.0000
  Fe  Fe248     1.0  0.74972  0.91031  0.69944  1.0000
  H   H3735     1.0  0.84208  0.81837  0.62526  1.0000
  S   S488      1.0  0.75488  0.85287  0.68244  1.0000
  S   S489      1.0  0.73803  0.90416  0.67572  1.0000
  H   H3736     1.0  0.64214  0.90100  0.70574  1.0000
  H   H3737     1.0  0.59962  0.66815  0.58348  1.0000
  H   H3738     1.0  0.79165  0.79401  0.70318  1.0000
  C   C2096     1.0  0.84628  0.82288  0.65746  1.0000
  C   C2097     1.0  0.62066  0.72193  0.59701  1.0000
  H   H3739     1.0  0.78924  0.78726  0.68296  1.0000
  H   H3740     1.0  0.54927  0.75468  0.64475  1.0000
  H   H3741     1.0  0.56837  0.72145  0.62893  1.0000
  C   C2098     1.0  0.57854  0.68790  0.63347  1.0000
  C   C2099     1.0  0.81820  0.84295  0.72210  1.0000
  H   H3742     1.0  0.97824  0.97399  0.51994  1.0000
  H   H3743     1.0  0.84263  0.90949  0.49284  1.0000
  H   H3744     1.0  0.86911  0.86168  0.67143  1.0000
  C   C2100     1.0  0.56843  0.70550  0.62488  1.0000
  H   H3745     1.0  0.95700  0.83717  0.60474  1.0000
  H   H3746     1.0  0.63305  0.68958  0.60540  1.0000
  H   H3747     1.0  0.89222  0.79563  0.70236  1.0000
  C   C2101     1.0  0.55951  0.68213  0.60486  1.0000
  C   C2102     1.0  0.65796  0.79975  0.67643  1.0000
  C   C2103     1.0  0.65318  0.80729  0.69162  1.0000
  C   C2104     1.0  0.66466  0.82426  0.69615  1.0000
  C   C2105     1.0  0.68124  0.83386  0.68572  1.0000
  C   C2106     1.0  0.68691  0.82532  0.67097  1.0000
  C   C2107     1.0  0.67529  0.80853  0.66637  1.0000
  H   H3748     1.0  0.63987  0.80093  0.69952  1.0000
  H   H3749     1.0  0.65995  0.83071  0.70755  1.0000
  H   H3750     1.0  0.69933  0.83260  0.66264  1.0000
  H   H3751     1.0  0.67924  0.80293  0.65459  1.0000
  H   H3752     1.0  0.60494  0.72893  0.59326  1.0000
  H   H3753     1.0  0.89890  0.92715  0.49110  1.0000
  C   C2108     1.0  0.51276  0.74578  0.70984  1.0000
  C   C2109     1.0  0.57866  0.66738  0.62777  1.0000
  C   C2110     1.0  0.98353  0.87774  0.49594  1.0000
  C   C2111     1.0  0.67705  0.66505  0.71027  1.0000
  N   N117      1.0  0.97313  0.85856  0.58610  1.0000
  C   C2112     1.0  0.91519  0.92387  0.49523  1.0000
  H   H3754     1.0  0.63071  0.82867  0.64658  1.0000
  H   H3755     1.0  0.91910  0.86840  0.49678  1.0000
  H   H3756     1.0  0.63336  0.72983  0.58882  1.0000
  H   H3757     1.0  0.85674  0.89996  0.66892  1.0000
  C   C2113     1.0  0.72716  0.97605  0.71921  1.0000
  C   C2114     1.0  0.81105  0.89647  0.59650  1.0000
  C   C2115     1.0  0.79263  0.88619  0.60381  1.0000
  C   C2116     1.0  0.78793  0.88408  0.62069  1.0000
  C   C2117     1.0  0.80174  0.89209  0.63050  1.0000
  C   C2118     1.0  0.82022  0.90221  0.62322  1.0000
  C   C2119     1.0  0.82477  0.90457  0.60635  1.0000
  H   H3758     1.0  0.78193  0.87980  0.59633  1.0000
  H   H3759     1.0  0.77375  0.87608  0.62608  1.0000
  H   H3760     1.0  0.83111  0.90837  0.63066  1.0000
  H   H3761     1.0  0.83900  0.91246  0.60096  1.0000
  C   C2120     1.0  0.94642  0.91099  0.54503  1.0000
  C   C2121     1.0  0.96514  0.90118  0.53775  1.0000
  H   H3762     1.0  0.99091  0.86099  0.49667  1.0000
  C   C2122     1.0  0.98528  0.90932  0.53871  1.0000
  C   C2123     1.0  0.96825  0.93682  0.55482  1.0000
  C   C2124     1.0  0.94790  0.92910  0.55338  1.0000
  H   H3763     1.0  0.96410  0.88700  0.53151  1.0000
  C   C2125     1.0  0.68282  0.74165  0.68031  1.0000
  H   H3764     1.0  0.96947  0.95034  0.56176  1.0000
  H   H3765     1.0  0.93348  0.93671  0.55913  1.0000
  C   C2126     1.0  0.99111  0.83101  0.60655  1.0000
  H   H3766     1.0  0.68091  0.71317  0.69723  1.0000
  H   H3767     1.0  0.94391  0.88258  0.60694  1.0000
  H   H3768     1.0  0.91492  0.90887  0.59927  1.0000
  C   C2127     1.0  0.95158  0.86994  0.58316  1.0000
  C   C2128     1.0  0.94349  0.88803  0.59402  1.0000
  C   C2129     1.0  0.65787  0.67822  0.71009  1.0000
  N   N118      1.0  0.78447  0.96401  0.65193  1.0000
  H   H3769     1.0  0.81349  0.97339  0.66072  1.0000
  H   H3770     1.0  0.72908  0.71925  0.71535  1.0000
  C   C2130     1.0  0.80608  0.95836  0.65834  1.0000
  C   C2131     1.0  0.77649  0.94371  0.64678  1.0000
  C   C2132     1.0  0.75491  0.94618  0.63906  1.0000
  H   H3771     1.0  0.65811  0.67378  0.58694  1.0000
  C   C2133     1.0  0.80602  0.94251  0.67387  1.0000
  H   H3772     1.0  0.62788  0.84827  0.69319  1.0000
  N   N119      1.0  0.50959  0.69921  0.67410  1.0000
  C   C2134     1.0  0.75109  0.92603  0.63101  1.0000
  C   C2135     1.0  0.98700  0.92681  0.54757  1.0000
  C   C2136     1.0  0.82772  0.94148  0.68088  1.0000
  S   S490      1.0  0.54867  0.67959  0.58630  1.0000
  H   H3773     1.0  0.68139  0.71419  0.66636  1.0000
  H   H3774     1.0  0.82763  0.92916  0.69142  1.0000
  C   C2137     1.0  0.76926  0.97255  0.66538  1.0000
  H   H3775     1.0  0.92530  0.97868  0.48571  1.0000
  H   H3776     1.0  0.81747  0.95056  0.64933  1.0000
  H   H3777     1.0  0.78896  0.93593  0.63849  1.0000
  H   H3778     1.0  0.77404  0.93144  0.65728  1.0000
  C   C2138     1.0  0.61756  0.86180  0.68791  1.0000
  H   H3779     1.0  0.73802  0.78373  0.70912  1.0000
  H   H3780     1.0  0.94178  0.94439  0.49720  1.0000
  H   H3781     1.0  0.98507  0.86502  0.55330  1.0000
  H   H3782     1.0  0.80298  0.92599  0.67116  1.0000
  H   H3783     1.0  0.95717  0.87074  0.48310  1.0000
  C   C2139     1.0  0.91504  0.96483  0.48947  1.0000
  S   S491      1.0  0.77526  0.83385  0.72366  1.0000
  H   H3784     1.0  0.61640  0.82196  0.67206  1.0000
  H   H3785     1.0  0.87753  0.82782  0.67546  1.0000
  C   C2140     1.0  0.97160  0.84682  0.60277  1.0000
  H   H3786     1.0  0.75224  0.91130  0.63958  1.0000
  H   H3787     1.0  0.73481  0.92749  0.62669  1.0000
  H   H3788     1.0  0.76166  0.95888  0.67302  1.0000
  C   C2141     1.0  0.83411  0.83345  0.62959  1.0000
  C   C2142     1.0  0.68846  0.69868  0.56993  1.0000
  C   C2143     1.0  0.97767  0.84166  0.57427  1.0000
  H   H3789     1.0  0.84098  0.93699  0.67180  1.0000
  H   H3790     1.0  0.83067  0.95735  0.68496  1.0000
  H   H3791     1.0  0.98736  0.77391  0.69810  1.0000
  H   H3792     1.0  0.66454  0.71142  0.58696  1.0000
  C   C2144     1.0  0.51185  0.72285  0.66865  1.0000
  H   H3793     1.0  0.65483  0.73350  0.71435  1.0000
  H   H3794     1.0  0.65917  0.71723  0.56611  1.0000
  H   H3795     1.0  0.59396  0.83334  0.66219  1.0000
  H   H3796     1.0  0.50142  0.67036  0.66414  1.0000
  H   H3797     1.0  0.76317  0.92428  0.62051  1.0000
  H   H3798     1.0  0.82925  0.89297  0.67427  1.0000
  C   C2145     1.0  0.94764  0.89991  0.49571  1.0000
  H   H3799     1.0  0.77060  0.80692  0.69195  1.0000
  S   S492      1.0  0.75651  0.94390  0.70729  1.0000
  H   H3800     1.0  0.52699  0.67949  0.65653  1.0000
  N   N120      1.0  0.61231  0.85681  0.67157  1.0000
  C   C2146     1.0  0.55898  0.70261  0.61070  1.0000
  C   C2147     1.0  0.63363  0.88590  0.70567  1.0000
  C   C2148     1.0  0.66487  0.70462  0.57522  1.0000
  H   H3801     1.0  0.62459  0.71896  0.56602  1.0000
  C   C2149     1.0  0.85197  0.86574  0.66965  1.0000
  H   H3802     1.0  0.52970  0.70294  0.69310  1.0000
  H   H3803     1.0  0.82925  0.80691  0.69665  1.0000
  H   H3804     1.0  0.81891  0.84561  0.65095  1.0000
  C   C2150     1.0  0.84687  0.91874  0.48148  1.0000
  H   H3805     1.0  0.54613  0.89911  0.67241  1.0000
  H   H3806     1.0  0.65328  0.84174  0.62258  1.0000
  C   C2151     1.0  0.53306  0.75101  0.65069  1.0000
  H   H3807     1.0  0.57598  0.88039  0.68613  1.0000
  C   C2152     1.0  0.80233  0.81864  0.68421  1.0000
  H   H3808     1.0  0.51140  0.70893  0.63879  1.0000
  C   C2153     1.0  0.62278  0.72832  0.61385  1.0000
  H   H3809     1.0  0.64523  0.88235  0.68130  1.0000
  C   C2154     1.0  0.56233  0.89720  0.66576  1.0000
  H   H3810     1.0  0.61936  0.85372  0.63767  1.0000
  H   H3811     1.0  0.70640  0.72791  0.66263  1.0000
  H   H3812     1.0  0.69000  0.69225  0.55797  1.0000
  H   H3813     1.0  0.95277  0.86580  0.50468  1.0000
  C   C2155     1.0  0.58896  0.82735  0.68834  1.0000
  H   H3814     1.0  0.79927  0.83189  0.69217  1.0000
  C   C2156     1.0  0.86411  0.81905  0.68231  1.0000
  H   H3815     1.0  0.61950  0.89722  0.68392  1.0000
  H   H3816     1.0  0.69003  0.75763  0.67849  1.0000
  H   H3817     1.0  0.57091  0.91217  0.66624  1.0000
  H   H3818     1.0  0.61021  0.72110  0.62266  1.0000
  H   H3819     1.0  0.98746  0.88701  0.57351  1.0000
  H   H3820     1.0  0.65236  0.68512  0.69880  1.0000
  H   H3821     1.0  0.91888  0.90222  0.57884  1.0000
  H   H3822     1.0  0.58743  0.69036  0.56329  1.0000
  C   C2157     1.0  0.87150  0.79465  0.68306  1.0000
  C   C2158     1.0  0.84631  0.88783  0.67581  1.0000
  H   H3823     1.0  0.96118  0.97704  0.53837  1.0000
  H   H3824     1.0  0.54026  0.71659  0.65157  1.0000
  C   C2159     1.0  0.92023  0.89573  0.59151  1.0000
  H   H3825     1.0  0.85988  0.78464  0.69094  1.0000
  H   H3826     1.0  0.85027  0.80570  0.65534  1.0000
  H   H3827     1.0  0.62088  0.74617  0.61386  1.0000
  H   H3828     1.0  0.90232  0.96523  0.48109  1.0000
  H   H3829     1.0  0.60562  0.69183  0.60215  1.0000
  C   C2160     1.0  0.88811  0.88493  0.49799  1.0000
  N   N121      1.0  0.92501  0.90232  0.49060  1.0000
  H   H3830     1.0  0.58952  0.79396  0.68263  1.0000
  H   H3831     1.0  0.95808  0.91175  0.48840  1.0000
  H   H3832     1.0  0.93897  0.85788  0.58408  1.0000
  H   H3833     1.0  0.86058  0.83161  0.65191  1.0000
  C   C2161     1.0  0.89326  0.79056  0.68998  1.0000
  H   H3834     1.0  0.59127  0.73962  0.55962  1.0000
  H   H3835     1.0  0.59931  0.82342  0.69838  1.0000
  C   C2162     1.0  0.71342  0.76428  0.72296  1.0000
  C   C2163     1.0  0.83696  0.84854  0.67846  1.0000
  C   C2164     1.0  0.63267  0.84636  0.64450  1.0000
  H   H3836     1.0  0.93639  0.94238  0.47681  1.0000
  H   H3837     1.0  0.89806  0.77302  0.69060  1.0000
  C   C2165     1.0  0.72493  0.78538  0.71897  1.0000
  H   H3838     1.0  0.49512  0.68735  0.62100  1.0000
  C   C2166     1.0  0.75093  0.98928  0.66066  1.0000
  C   C2167     1.0  0.50114  0.67934  0.63224  1.0000
  H   H3839     1.0  0.52780  0.76352  0.65903  1.0000
  H   H3840     1.0  0.81981  0.83802  0.62285  1.0000
  H   H3841     1.0  0.88552  0.88283  0.48542  1.0000
  S   S493      1.0  0.73386  0.88100  0.71251  1.0000
  H   H3842     1.0  0.97619  0.81745  0.62968  1.0000
  H   H3843     1.0  0.85017  0.86736  0.65655  1.0000
  C   C2168     1.0  0.97667  0.84987  0.55629  1.0000
  C   C2169     1.0  0.78763  0.80052  0.69097  1.0000
  C   C2170     1.0  0.57480  0.87757  0.67345  1.0000
  N   N122      1.0  0.84298  0.82539  0.67523  1.0000
  H   H3844     1.0  0.81507  0.81751  0.64933  1.0000
  C   C2171     1.0  0.63314  0.85636  0.66069  1.0000
  H   H3845     1.0  0.63881  0.87299  0.65764  1.0000
  H   H3846     1.0  0.69534  0.68639  0.57882  1.0000
  H   H3847     1.0  0.82055  0.85382  0.67520  1.0000
  C   C2172     1.0  0.65371  0.84962  0.63381  1.0000
  C   C2173     1.0  0.53409  0.72864  0.65998  1.0000
  H   H3848     1.0  0.87326  0.78878  0.67096  1.0000
  H   H3849     1.0  0.95964  0.85293  0.55356  1.0000
  H   H3850     1.0  0.55155  0.71640  0.60404  1.0000
  H   H3851     1.0  0.66765  0.84228  0.64005  1.0000
  H   H3852     1.0  0.71769  0.75410  0.69923  1.0000
  H   H3853     1.0  0.98589  0.83974  0.53248  1.0000
  H   H3854     1.0  0.98430  0.94342  0.49923  1.0000
  H   H3855     1.0  0.64611  0.84715  0.66706  1.0000
  C   C2174     1.0  0.82700  0.83019  0.64757  1.0000
  C   C2175     1.0  0.82634  0.81052  0.68372  1.0000
  H   H3856     1.0  0.86333  0.82373  0.69485  1.0000
  C   C2176     1.0  0.59723  0.87404  0.66419  1.0000
  C   C2177     1.0  0.58639  0.72422  0.55584  1.0000
  H   H3857     1.0  0.79363  0.94731  0.68340  1.0000
  H   H3858     1.0  0.82797  0.79469  0.67849  1.0000
  C   C2178     1.0  0.52821  0.69167  0.68384  1.0000
  H   H3859     1.0  0.90926  0.88230  0.59464  1.0000
  H   H3860     1.0  0.70734  0.72218  0.69198  1.0000
  H   H3861     1.0  0.79747  0.82494  0.67228  1.0000
  H   H3862     1.0  0.54587  0.72875  0.66900  1.0000
  C   C2179     1.0  0.99099  0.76397  0.70891  1.0000
  C   C2180     1.0  0.85406  0.93957  0.48133  1.0000
  C   C2181     1.0  0.91244  0.88454  0.50004  1.0000
  C   C2182     1.0  0.59369  0.70507  0.56722  1.0000
  H   H3863     1.0  0.85986  0.86751  0.50733  1.0000
  C   C2183     1.0  0.65128  0.68445  0.57709  1.0000
  H   H3864     1.0  0.84888  0.88731  0.68874  1.0000
  H   H3865     1.0  0.53094  0.71802  0.71982  1.0000
  H   H3866     1.0  0.63886  0.72283  0.61775  1.0000
  H   H3867     1.0  0.56866  0.80108  0.69792  1.0000
  H   H3868     1.0  0.52175  0.75160  0.64126  1.0000
  H   H3869     1.0  0.68223  0.74012  0.65472  1.0000
  H   H3870     1.0  0.66068  0.75920  0.70416  1.0000
  H   H3871     1.0  0.91242  0.92361  0.50859  1.0000
  C   C2184     1.0  0.87747  0.86630  0.50846  1.0000
  H   H3872     1.0  0.87972  0.90015  0.50162  1.0000
  H   H3873     1.0  0.91406  0.88473  0.51313  1.0000
  H   H3874     1.0  0.94750  0.90385  0.50837  1.0000
  H   H3875     1.0  0.56514  0.86335  0.67299  1.0000
  H   H3876     1.0  0.77827  0.98073  0.67363  1.0000
  C   C2185     1.0  0.62168  0.69694  0.59672  1.0000
  H   H3877     1.0  0.55229  0.67168  0.70832  1.0000
  C   C2186     1.0  0.64595  0.68248  0.72453  1.0000
  H   H3878     1.0  0.95440  0.99207  0.52002  1.0000
  H   H3879     1.0  0.95345  0.90224  0.59083  1.0000
  H   H3880     1.0  0.96926  0.85830  0.61212  1.0000
  H   H3881     1.0  0.69796  0.71330  0.56899  1.0000
  C   C2187     1.0  0.61857  0.70253  0.56685  1.0000
  H   H3882     1.0  0.83621  0.85003  0.69156  1.0000
  H   H3883     1.0  0.81345  0.85884  0.71672  1.0000
  C   C2188     1.0  0.57758  0.80694  0.68635  1.0000
  H   H3884     1.0  0.87998  0.86696  0.52130  1.0000
  C   C2189     1.0  0.68865  0.73017  0.66510  1.0000
  H   H3885     1.0  0.90565  0.98133  0.55657  1.0000
  C   C2190     1.0  0.95934  0.87723  0.49462  1.0000
  C   C2191     1.0  0.50118  0.69585  0.64453  1.0000
  H   H3886     1.0  0.95194  0.87801  0.57073  1.0000
  H   H3887     1.0  0.49934  0.72913  0.66068  1.0000
  H   H3888     1.0  0.79655  0.96053  0.61810  1.0000
  H   H3889     1.0  0.74155  0.98371  0.65153  1.0000
  C   C2192     1.0  0.96801  0.98563  0.52697  1.0000
  H   H3890     1.0  0.81944  0.96977  0.62637  1.0000
  H   H3891     1.0  0.57657  0.83981  0.69203  1.0000
  C   C2193     1.0  0.69040  0.72789  0.69534  1.0000
  H   H3892     1.0  0.61831  0.88710  0.71355  1.0000
  H   H3893     1.0  0.59403  0.87027  0.65204  1.0000
  H   H3894     1.0  0.60295  0.86264  0.69651  1.0000
  H   H3895     1.0  0.66508  0.74422  0.68163  1.0000
  H   H3896     1.0  0.56589  0.81026  0.67717  1.0000
  H   H3897     1.0  0.75437  0.96000  0.62971  1.0000
  H   H3898     1.0  0.60493  0.88981  0.66213  1.0000
  H   H3899     1.0  0.59334  0.72232  0.54332  1.0000
  H   H3900     1.0  0.56854  0.72497  0.55611  1.0000
  N   N123      1.0  0.68883  0.73909  0.71060  1.0000
  H   H3901     1.0  0.85190  0.84930  0.72093  1.0000
  C   C2194     1.0  0.70363  0.75769  0.70801  1.0000
  H   H3902     1.0  0.88419  0.85050  0.50458  1.0000
  H   H3903     1.0  0.71397  0.69650  0.71261  1.0000
  H   H3904     1.0  0.90591  0.79951  0.68232  1.0000
  H   H3905     1.0  0.96620  0.82852  0.57709  1.0000
  H   H3906     1.0  0.78144  0.97888  0.71401  1.0000
  C   C2195     1.0  0.98716  0.83337  0.54520  1.0000
  H   H3907     1.0  0.74142  0.94836  0.64853  1.0000
  N   N124      1.0  0.62720  0.68813  0.58060  1.0000
  H   H3908     1.0  0.90723  0.96668  0.50176  1.0000
  C   C2196     1.0  0.66564  0.74716  0.71399  1.0000
  C   C2197     1.0  0.51013  0.68532  0.66025  1.0000
  H   H3909     1.0  0.62461  0.69620  0.55517  1.0000
  H   H3910     1.0  0.65603  0.86711  0.63058  1.0000
  C   C2198     1.0  0.60313  0.83474  0.67271  1.0000
  H   H3911     1.0  0.58614  0.70739  0.57947  1.0000
  H   H3912     1.0  0.64409  0.87219  0.71056  1.0000
  H   H3913     1.0  0.69515  0.77235  0.70229  1.0000
  H   H3914     1.0  0.56021  0.89511  0.65305  1.0000
  H   H3915     1.0  0.98159  0.89284  0.60452  1.0000
  C   C2199     1.0  0.62932  0.88286  0.68848  1.0000
  S   S494      1.0  0.86129  0.99148  0.56772  1.0000
  C   C2200     1.0  0.99142  0.82482  0.62460  1.0000
  C   C2201     1.0  0.52728  0.66850  0.69255  1.0000
  H   H3916     1.0  0.99149  0.88691  0.48524  1.0000
  H   H3917     1.0  0.98528  0.81719  0.69762  1.0000
  H   H3918     1.0  0.71457  0.96556  0.71764  1.0000
  H   H3919     1.0  0.98675  0.88515  0.50687  1.0000
  H   H3920     1.0  0.50893  0.73264  0.67913  1.0000
  C   C2202     1.0  0.51516  0.72618  0.71940  1.0000
  H   H3921     1.0  0.62945  0.77379  0.72251  1.0000
  C   C2203     1.0  0.56912  0.66448  0.61366  1.0000
  C   C2204     1.0  0.73532  0.99380  0.67532  1.0000
  H   H3922     1.0  0.97902  0.81788  0.54756  1.0000
  C   C2205     1.0  0.74871  0.96943  0.71512  1.0000
  C   C2206     1.0  0.97404  0.75852  0.72082  1.0000
  C   C2207     1.0  0.92875  0.94361  0.48922  1.0000
  H   H3923     1.0  0.72769  0.97876  0.68067  1.0000
  C   C2208     1.0  0.71604  0.70888  0.72091  1.0000
  H   H3924     1.0  0.95765  0.76423  0.71907  1.0000
  C   C2209     1.0  0.69449  0.72234  0.72404  1.0000
  C   C2210     1.0  0.99091  0.87426  0.58336  1.0000
  C   C2211     1.0  0.76472  0.98360  0.71720  1.0000
  H   H3925     1.0  0.71339  0.79889  0.71530  1.0000
  H   H3926     1.0  0.99020  0.81587  0.60074  1.0000
  C   C2212     1.0  0.80286  0.97434  0.62320  1.0000
  H   H3927     1.0  0.51471  0.66811  0.70290  1.0000
  C   C2213     1.0  0.61746  0.66643  0.58103  1.0000
  H   H3928     1.0  0.65490  0.67591  0.56599  1.0000
  H   H3929     1.0  0.51774  0.67243  0.62921  1.0000
  C   C2214     1.0  0.83992  0.83753  0.72453  1.0000
  C   C2215     1.0  0.78789  0.98117  0.63799  1.0000
  H   H3930     1.0  0.77245  0.98726  0.63332  1.0000
  H   H3931     1.0  0.81552  0.98757  0.59947  1.0000
  S   S495      1.0  0.62239  0.69983  0.72492  1.0000
  C   C2216     1.0  0.80459  0.99286  0.60981  1.0000
  H   H3932     1.0  0.99406  0.83374  0.57530  1.0000
  H   H3933     1.0  0.79455  0.99556  0.64217  1.0000
  Fe  Fe249     1.0  0.91447  0.87081  0.89089  1.0000
  S   S496      1.0  0.91651  0.83468  0.89628  1.0000
  S   S497      1.0  0.88254  0.88995  0.89053  1.0000
  Fe  Fe250     1.0  0.96318  0.87370  0.88643  1.0000
  S   S498      1.0  0.96894  0.83781  0.89127  1.0000
  C   C2217     1.0  0.84622  0.81704  0.73168  1.0000
  Fe  Fe251     1.0  0.94217  0.83489  0.87533  1.0000
  S   S499      1.0  0.94675  0.81557  0.85302  1.0000
  Fe  Fe252     1.0  0.94270  0.84106  0.91171  1.0000
  S   S500      1.0  0.94573  0.82540  0.93730  1.0000
  S   S501      1.0  0.93846  0.87085  0.86929  1.0000
  S   S502      1.0  0.93868  0.87708  0.90756  1.0000
  H   H3934     1.0  0.85508  0.71169  0.79210  1.0000
  Fe  Fe253     1.0  0.89149  0.76214  0.78354  1.0000
  S   S503      1.0  0.91206  0.77992  0.76374  1.0000
  S   S504      1.0  0.88753  0.76941  0.81009  1.0000
  Fe  Fe254     1.0  0.87379  0.73279  0.76012  1.0000
  H   H3935     1.0  0.89915  0.98129  0.93888  1.0000
  S   S505      1.0  0.84688  0.71060  0.75539  1.0000
  Fe  Fe255     1.0  0.92134  0.74737  0.75477  1.0000
  H   H3936     1.0  0.76312  0.77979  0.81627  1.0000
  Fe  Fe256     1.0  0.88353  0.78001  0.74927  1.0000
  H   H3937     1.0  0.62720  0.74781  0.73420  1.0000
  S   S506      1.0  0.90183  0.72909  0.77554  1.0000
  S   S507      1.0  0.86216  0.76463  0.76967  1.0000
  H   H3938     1.0  0.69657  0.97940  0.75895  1.0000
  C   C2218     1.0  0.63566  0.76316  0.73263  1.0000
  C   C2219     1.0  0.86992  0.88365  0.83199  1.0000
  H   H3939     1.0  0.98694  0.73578  0.82803  1.0000
  C   C2220     1.0  0.87435  0.84437  0.82825  1.0000
  H   H3940     1.0  0.88720  0.93401  0.94197  1.0000
  H   H3941     1.0  0.95582  0.94964  0.89786  1.0000
  C   C2221     1.0  0.89342  0.92567  0.93132  1.0000
  H   H3942     1.0  0.76051  0.93383  0.79056  1.0000
  C   C2222     1.0  0.83329  0.68561  0.75844  1.0000
  C   C2223     1.0  0.87357  0.90315  0.84142  1.0000
  H   H3943     1.0  0.84585  0.92301  0.83347  1.0000
  C   C2224     1.0  0.76281  0.76189  0.81741  1.0000
  H   H3944     1.0  0.80841  0.69986  0.80816  1.0000
  H   H3945     1.0  0.94799  0.85593  0.82963  1.0000
  H   H3946     1.0  0.89828  0.72852  0.83111  1.0000
  C   C2225     1.0  0.80890  0.80742  0.73402  1.0000
  H   H3947     1.0  0.85349  0.66946  0.77571  1.0000
  C   C2226     1.0  0.79134  0.73022  0.77479  1.0000
  H   H3948     1.0  0.96044  0.73420  0.86235  1.0000
  C   C2227     1.0  0.92873  0.80467  0.84112  1.0000
  C   C2228     1.0  0.91065  0.79380  0.84800  1.0000
  C   C2229     1.0  0.89804  0.78353  0.83828  1.0000
  C   C2230     1.0  0.90328  0.78389  0.82156  1.0000
  C   C2231     1.0  0.92111  0.79513  0.81463  1.0000
  C   C2232     1.0  0.93381  0.80528  0.82436  1.0000
  H   H3949     1.0  0.90681  0.79263  0.86089  1.0000
  H   H3950     1.0  0.88437  0.77482  0.84383  1.0000
  H   H3951     1.0  0.92530  0.79568  0.80179  1.0000
  H   H3952     1.0  0.94786  0.81343  0.81888  1.0000
  C   C2233     1.0  0.88674  0.91775  0.88796  1.0000
  C   C2234     1.0  0.90765  0.92462  0.88452  1.0000
  C   C2235     1.0  0.91131  0.94667  0.88302  1.0000
  C   C2236     1.0  0.89419  0.96205  0.88522  1.0000
  C   C2237     1.0  0.87314  0.95531  0.88855  1.0000
  C   C2238     1.0  0.86940  0.93310  0.88976  1.0000
  H   H3953     1.0  0.92112  0.91298  0.88297  1.0000
  H   H3954     1.0  0.92753  0.95184  0.88013  1.0000
  H   H3955     1.0  0.85984  0.96716  0.89013  1.0000
  H   H3956     1.0  0.85315  0.92786  0.89227  1.0000
  C   C2239     1.0  0.93245  0.86043  0.95468  1.0000
  C   C2240     1.0  0.93905  0.83851  0.95517  1.0000
  C   C2241     1.0  0.92600  0.87008  0.96901  1.0000
  H   H3957     1.0  0.93225  0.86983  0.94320  1.0000
  C   C2242     1.0  0.84708  0.71942  0.80267  1.0000
  H   H3958     1.0  0.85707  0.82043  0.80716  1.0000
  H   H3959     1.0  0.86654  0.83564  0.78867  1.0000
  N   N125      1.0  0.86894  0.89312  0.94063  1.0000
  C   C2243     1.0  0.85140  0.90844  0.93423  1.0000
  C   C2244     1.0  0.89082  0.90087  0.93398  1.0000
  C   C2245     1.0  0.86651  0.87133  0.93470  1.0000
  H   H3960     1.0  0.66523  0.74868  0.74026  1.0000
  H   H3961     1.0  0.73800  0.68650  0.73362  1.0000
  C   C2246     1.0  0.82793  0.90228  0.93946  1.0000
  C   C2247     1.0  0.88524  0.85403  0.93727  1.0000
  H   H3962     1.0  0.92047  0.88693  0.96845  1.0000
  H   H3963     1.0  0.80375  0.72219  0.76661  1.0000
  H   H3964     1.0  0.87570  0.88828  0.81928  1.0000
  H   H3965     1.0  0.75958  0.75519  0.74532  1.0000
  C   C2248     1.0  0.87986  0.83228  0.93220  1.0000
  H   H3966     1.0  0.85353  0.91001  0.92082  1.0000
  H   H3967     1.0  0.78698  0.68874  0.77760  1.0000
  H   H3968     1.0  0.90330  0.89370  0.94171  1.0000
  H   H3969     1.0  0.98494  0.75924  0.80439  1.0000
  H   H3970     1.0  0.86452  0.87321  0.92159  1.0000
  H   H3971     1.0  0.85164  0.86398  0.94064  1.0000
  C   C2249     1.0  0.95856  0.75251  0.83892  1.0000
  C   C2250     1.0  0.86706  0.91059  0.96764  1.0000
  C   C2251     1.0  0.97205  0.95268  0.89169  1.0000
  H   H3972     1.0  0.91826  0.94857  0.92459  1.0000
  H   H3973     1.0  0.82461  0.88693  0.93477  1.0000
  H   H3974     1.0  0.77607  0.76844  0.75731  1.0000
  H   H3975     1.0  0.88856  0.85129  0.95004  1.0000
  H   H3976     1.0  0.90024  0.85891  0.92999  1.0000
  H   H3977     1.0  0.81753  0.73643  0.81010  1.0000
  H   H3978     1.0  0.89398  0.82059  0.93333  1.0000
  H   H3979     1.0  0.80439  0.99540  0.74404  1.0000
  C   C2252     1.0  0.77398  0.75303  0.75217  1.0000
  H   H3980     1.0  0.96538  0.71311  0.79308  1.0000
  H   H3981     1.0  0.85262  0.92501  0.93765  1.0000
  H   H3982     1.0  0.88055  0.87927  0.96307  1.0000
  H   H3983     1.0  0.94075  0.75232  0.84003  1.0000
  C   C2253     1.0  0.92850  0.71267  0.82190  1.0000
  H   H3984     1.0  0.75655  0.73884  0.77372  1.0000
  C   C2254     1.0  0.86348  0.92415  0.83367  1.0000
  H   H3985     1.0  0.64402  0.67639  0.75033  1.0000
  H   H3986     1.0  0.85498  0.92321  0.96354  1.0000
  H   H3987     1.0  0.76144  0.96136  0.76684  1.0000
  H   H3988     1.0  0.97743  0.97729  0.90656  1.0000
  H   H3989     1.0  0.87261  0.82110  0.85627  1.0000
  H   H3990     1.0  0.89097  0.90547  0.84165  1.0000
  H   H3991     1.0  0.81944  0.69984  0.78786  1.0000
  H   H3992     1.0  0.96132  0.79377  0.78253  1.0000
  H   H3993     1.0  0.87125  0.96315  0.96922  1.0000
  H   H3994     1.0  0.99018  0.72231  0.79756  1.0000
  H   H3995     1.0  0.80991  0.69665  0.74179  1.0000
  C   C2255     1.0  0.65997  0.75859  0.72952  1.0000
  C   C2256     1.0  0.98820  0.67764  0.80243  1.0000
  H   H3996     1.0  0.97377  0.86846  0.93663  1.0000
  H   H3997     1.0  0.76778  0.71997  0.75986  1.0000
  H   H3998     1.0  0.72698  0.96962  0.77524  1.0000
  C   C2257     1.0  0.87675  0.83411  0.86331  1.0000
  H   H3999     1.0  0.77765  0.72124  0.81556  1.0000
  H   H4000     1.0  0.93382  0.70984  0.83414  1.0000
  C   C2258     1.0  0.97159  0.78075  0.77700  1.0000
  H   H4001     1.0  0.76960  0.68533  0.81348  1.0000
  H   H4002     1.0  0.88493  0.85993  0.80395  1.0000
  C   C2259     1.0  0.96561  0.74975  0.85593  1.0000
  C   C2260     1.0  0.91702  0.93083  0.92716  1.0000
  H   H4003     1.0  0.85635  0.86078  0.80898  1.0000
  N   N126      1.0  0.88002  0.86202  0.83801  1.0000
  C   C2261     1.0  0.91694  0.86798  0.82151  1.0000
  H   H4004     1.0  0.92386  0.92312  0.91627  1.0000
  H   H4005     1.0  0.96784  0.99133  0.87168  1.0000
  H   H4006     1.0  0.71048  0.68619  0.74225  1.0000
  C   C2262     1.0  0.83061  0.80198  0.73644  1.0000
  H   H4007     1.0  0.88447  0.93279  0.92111  1.0000
  H   H4008     1.0  0.89753  0.97234  0.96847  1.0000
  H   H4009     1.0  0.92942  0.74746  0.81677  1.0000
  H   H4010     1.0  0.72673  0.70841  0.74490  1.0000
  C   C2263     1.0  0.81498  0.68352  0.75026  1.0000
  H   H4011     1.0  0.78799  0.93918  0.79336  1.0000
  H   H4012     1.0  0.91107  0.84678  0.84278  1.0000
  C   C2264     1.0  0.81186  0.91966  0.93286  1.0000
  H   H4013     1.0  0.90806  0.87413  0.84636  1.0000
  H   H4014     1.0  0.95804  0.76314  0.86274  1.0000
  C   C2265     1.0  0.97806  0.97561  0.89355  1.0000
  C   C2266     1.0  0.80301  0.66466  0.75298  1.0000
  H   H4015     1.0  0.89423  0.83232  0.86478  1.0000
  H   H4016     1.0  0.91057  0.88311  0.81514  1.0000
  C   C2267     1.0  0.88029  0.97757  0.97067  1.0000
  H   H4017     1.0  0.96609  0.68917  0.82128  1.0000
  N   N127      1.0  0.96217  0.73461  0.81205  1.0000
  H   H4018     1.0  0.78203  0.92803  0.77542  1.0000
  S   S508      1.0  0.87375  0.81066  0.73407  1.0000
  H   H4019     1.0  0.92665  0.92500  0.93730  1.0000
  C   C2268     1.0  0.97826  0.74526  0.73475  1.0000
  H   H4020     1.0  0.79145  0.75842  0.80134  1.0000
  H   H4021     1.0  0.87605  0.86841  0.86306  1.0000
  H   H4022     1.0  0.82623  0.74054  0.78885  1.0000
  H   H4023     1.0  0.76133  0.70014  0.78436  1.0000
  C   C2269     1.0  0.90408  0.86265  0.83798  1.0000
  C   C2270     1.0  0.86702  0.89005  0.95876  1.0000
  H   H4024     1.0  0.78906  0.66344  0.74656  1.0000
  H   H4025     1.0  0.85692  0.73282  0.80494  1.0000
  C   C2271     1.0  0.76506  0.97879  0.78826  1.0000
  C   C2272     1.0  0.77401  0.72810  0.80330  1.0000
  H   H4026     1.0  0.96938  0.78198  0.76397  1.0000
  H   H4027     1.0  0.94824  0.75685  0.78253  1.0000
  C   C2273     1.0  0.82441  0.72840  0.79938  1.0000
  H   H4028     1.0  0.94559  0.80973  0.97083  1.0000
  H   H4029     1.0  0.95789  0.76952  0.80815  1.0000
  H   H4030     1.0  0.79795  0.74597  0.77606  1.0000
  C   C2274     1.0  0.93816  0.73287  0.81230  1.0000
  C   C2275     1.0  0.97998  0.69526  0.81330  1.0000
  C   C2276     1.0  0.77282  0.96216  0.77597  1.0000
  C   C2277     1.0  0.94060  0.87082  0.82350  1.0000
  C   C2278     1.0  0.65318  0.67318  0.73911  1.0000
  C   C2279     1.0  0.72319  0.69684  0.73642  1.0000
  H   H4031     1.0  0.84648  0.70739  0.81337  1.0000
  H   H4032     1.0  0.82472  0.90057  0.95274  1.0000
  H   H4033     1.0  0.81381  0.93536  0.93762  1.0000
  C   C2280     1.0  0.77602  0.93944  0.78442  1.0000
  C   C2281     1.0  0.87153  0.85066  0.81017  1.0000
  H   H4034     1.0  0.77063  0.75541  0.82833  1.0000
  H   H4035     1.0  0.83530  0.78610  0.74186  1.0000
  H   H4036     1.0  0.75206  0.97159  0.79680  1.0000
  N   N128      1.0  0.78827  0.71672  0.79075  1.0000
  C   C2282     1.0  0.90390  0.71495  0.82383  1.0000
  H   H4037     1.0  0.97701  0.85591  0.96579  1.0000
  C   C2283     1.0  0.88174  0.98629  0.94035  1.0000
  H   H4038     1.0  0.79692  0.79568  0.73764  1.0000
  S   S509      1.0  0.95739  0.73691  0.74994  1.0000
  H   H4039     1.0  0.78850  0.96646  0.76943  1.0000
  C   C2284     1.0  0.77618  0.67850  0.80218  1.0000
  H   H4040     1.0  0.89743  0.71794  0.81192  1.0000
  H   H4041     1.0  0.85218  0.88247  0.83210  1.0000
  H   H4042     1.0  0.87099  0.92782  0.82122  1.0000
  S   S510      1.0  0.89415  0.74873  0.73881  1.0000
  H   H4043     1.0  0.74479  0.66771  0.79802  1.0000
  C   C2285     1.0  0.96790  0.75605  0.80303  1.0000
  H   H4044     1.0  0.79516  0.91480  0.93654  1.0000
  H   H4045     1.0  0.69491  0.72970  0.73546  1.0000
  H   H4046     1.0  0.85872  0.83762  0.83329  1.0000
  H   H4047     1.0  0.94216  0.88463  0.83064  1.0000
  H   H4048     1.0  0.89735  0.69986  0.83006  1.0000
  H   H4049     1.0  0.87205  0.97239  0.93897  1.0000
  H   H4050     1.0  0.86603  0.90098  0.85397  1.0000
  H   H4051     1.0  0.88651  0.83048  0.82912  1.0000
  H   H4052     1.0  0.91653  0.85439  0.81397  1.0000
  C   C2286     1.0  0.97431  0.71682  0.80325  1.0000
  H   H4053     1.0  0.74574  0.75747  0.81879  1.0000
  H   H4054     1.0  0.88333  0.91703  0.96586  1.0000
  H   H4055     1.0  0.94963  0.87410  0.81152  1.0000
  H   H4056     1.0  0.73486  0.98657  0.75720  1.0000
  H   H4057     1.0  0.98878  0.78297  0.77832  1.0000
  S   S511      1.0  0.98735  0.89942  0.88005  1.0000
  H   H4058     1.0  0.78833  0.74933  0.74375  1.0000
  C   C2287     1.0  0.81008  0.71008  0.79652  1.0000
  H   H4059     1.0  0.76698  0.76086  0.79189  1.0000
  H   H4060     1.0  0.81420  0.92179  0.91951  1.0000
  C   C2288     1.0  0.87007  0.83066  0.80125  1.0000
  C   C2289     1.0  0.96320  0.99288  0.88471  1.0000
  C   C2290     1.0  0.77480  0.75308  0.80246  1.0000
  C   C2291     1.0  0.87069  0.85692  0.85519  1.0000
  H   H4061     1.0  0.98384  0.94081  0.89723  1.0000
  H   H4062     1.0  0.89550  0.89513  0.92192  1.0000
  H   H4063     1.0  0.85231  0.88136  0.96340  1.0000
  H   H4064     1.0  0.94742  0.99173  0.91850  1.0000
  H   H4065     1.0  0.86842  0.84304  0.88772  1.0000
  H   H4066     1.0  0.93308  0.69826  0.81528  1.0000
  H   H4067     1.0  0.97555  0.74634  0.77843  1.0000
  H   H4068     1.0  0.88558  0.82090  0.80089  1.0000
  H   H4069     1.0  0.77880  0.97969  0.79562  1.0000
  H   H4070     1.0  0.68163  0.71053  0.72667  1.0000
  C   C2292     1.0  0.96518  0.75855  0.78476  1.0000
  H   H4071     1.0  0.87599  0.83399  0.91951  1.0000
  C   C2293     1.0  0.94032  0.82667  0.97026  1.0000
  C   C2294     1.0  0.86479  0.83046  0.88006  1.0000
  H   H4072     1.0  0.93349  0.73274  0.79991  1.0000
  H   H4073     1.0  0.87000  0.81440  0.88585  1.0000
  H   H4074     1.0  0.84713  0.83087  0.87928  1.0000
  H   H4075     1.0  0.85276  0.85895  0.85601  1.0000
  H   H4076     1.0  0.86616  0.93771  0.84076  1.0000
  H   H4077     1.0  0.63201  0.77142  0.74377  1.0000
  S   S512      1.0  0.90034  0.98932  0.88380  1.0000
  C   C2295     1.0  0.77795  0.69632  0.78788  1.0000
  H   H4078     1.0  0.86597  0.82570  0.94004  1.0000
  H   H4079     1.0  0.97546  0.67404  0.79492  1.0000
  C   C2296     1.0  0.96916  0.73445  0.82877  1.0000
  H   H4080     1.0  0.96614  0.71888  0.83600  1.0000
  H   H4081     1.0  0.49932  0.70212  0.73606  1.0000
  H   H4082     1.0  0.96337  0.76868  0.83352  1.0000
  C   C2297     1.0  0.83952  0.66830  0.76929  1.0000
  H   H4083     1.0  0.70112  0.76652  0.73315  1.0000
  H   H4084     1.0  0.72549  0.75164  0.72712  1.0000
  H   H4085     1.0  0.73220  0.78957  0.72971  1.0000
  C   C2298     1.0  0.99158  0.86881  0.93480  1.0000
  C   C2299     1.0  0.77097  0.73465  0.76556  1.0000
  H   H4086     1.0  0.94636  0.98764  0.88697  1.0000
  H   H4087     1.0  0.96616  0.88849  0.97416  1.0000
  C   C2300     1.0  0.72565  0.98625  0.76914  1.0000
  H   H4088     1.0  0.97228  0.94999  0.87880  1.0000
  H   H4089     1.0  0.75676  0.72495  0.80271  1.0000
  C   C2301     1.0  0.49715  0.71721  0.72866  1.0000
  H   H4090     1.0  0.66744  0.77443  0.72823  1.0000
  C   C2302     1.0  0.87554  0.99495  0.95667  1.0000
  H   H4091     1.0  0.69175  0.99031  0.77817  1.0000
  C   C2303     1.0  0.70192  0.99128  0.76652  1.0000
  H   H4092     1.0  0.98337  0.75032  0.85561  1.0000
  H   H4093     1.0  0.79229  0.67043  0.80390  1.0000
  C   C2304     1.0  0.80263  0.82786  0.72676  1.0000
  H   H4094     1.0  0.99274  0.66259  0.80988  1.0000
  H   H4095     1.0  0.99296  0.69765  0.82097  1.0000
  H   H4096     1.0  0.99405  0.89035  0.95272  1.0000
