data_image0
_chemical_formula_structural       FeS2FeS2FeSFeS3FeS2H4C2FeHSH2CH4CHCH3C6H4C3HC7H5CH3NC11H28C2HCH9NH2CHC2H2CHC3HC3H4SCH5C2HC2H3CHCHCHCH3CNSHFeCH2NCH7C2H2CHC2H4CH2CH3C2H2CH2SHCH2CH7CFeS2FeS2FeSFeS3FeS2FeS2FeSFeS3HFeS3CFeSHSFeS2Fe2SHFeS2FeS2FeSFeS3C3HCHCH3C6H4C6H7C4H3C6H4C6H3C6H4C6H5CH8C2HC4HCH2C2H4SH3SH3CH2C3H3CH3C2NC11H22NHC3HSC2H3CNCH12C3HNH8CH3C4H8C3NH2CH5SCH2CH3CHCHCH4C2HC2H2SH3CHCH2CH3CHC2H2C2H2CH7CH3CFeNC4H3CH2CH2SH3FeCH2CHCH2CH3CH6CHCH2CH2CH4CH2C2H3CH2NHC2H6CHCHCH3C4H2CHCH4C2SH2NH7C2HCSH4CH2CH2CH2CH2C3H9CHCNHNC2HCH3CH6C2HC2HCNH10C2H3FeHCH6CH6C2H2CHCHC2H2C2HC3H2CH3CH3CH3C2H2CH2CHCHCH4CH2CH3CHCHFeS2FeS2FeSFeS3FeS2FeS2CFeSH2SHCHCH2C2HCHC7H4C6H5C3HCH2SC3SC3HCHC2H8CH6CNH7CH2CH9CNCHCH4CH4NC12H28C2H4SCHCH2CH8C2H4CHCHCHFeH4CHFeC2H3CHC2H7C2H6CHNHCHCH3CHCH4CFeCSH2CH2CFeS2FeS2FeSFeS3FeS2C2H2SC6H4C3H2CH2FeC8H4C2NHC2H2CH4CH2SC3HSH4CH5CH3CHCH2FeH4CH4C2H2SCH2CH2NC9HC2H19SH2CH5CH3CH3CH3CH5CHC2H3C2NC2H3SH2CH6C2HCH2CH7CH2CH3FeHCH3CHNHCSH2S3FeS2FeS2FeS2FeSFeS3FeS2FeS2FeSFeS3FeS2FeS2FeSFeS3FeS2HCH2CSFeS2HCNH2CSH2CHCH3C4HC6H6C7H4C6H4CHCH2C2H2C6H3C6H6C4H5C6H5NCHCH9CH4SCH5CH6CNC12H28C4H2CH2C2H3C3H12CH3NC12H22C2H7C2SC5HCH3CHFeCHNHCH2CH2NFeC4H11NHC5HCH17CH2C2H6CH2CHCHC3HCHC2H2CHCH4C3H3FeHCH5CH3FeHCH2C3HCH3C2NHCH3CSHCH5CHCHSH3CHFeC2H8CSHC3H3C2H2C2HCH7CNHCHC3H2CHCH4CH4CH8C2H2CH6CHSH4CHCH2SCFeS2FeS2FeS2FeSFeS3HCSHCHC4H3FeCH3NC6H5CH3C6H6CHCH2CH4CH2CH2C2H6CHCHC2H7CH2FeC2H5C2H9NHCH4CH4CH3C4NH4SHCH4CH2CH2CHCHC2HC4HSH8C2HNHC3H2CHCH2CH4C2HNHC2H3C2HCH5CH5SHFeH2CFeSFeS2FeS2FeSFeS3CHSHFeS2FeS2FeSFeS3H3FeS2HC2HCHC2SC2HCHCH2C6H4CHCNHC7H6CH2C6H4C6H4NC2HC3H15CHC3HC2H2C2H11CH3C3HCH3S2CH13CHCHCHCNCH4FeH5CH3CHCH2CH5CH3CH2C2HCH3C2H4CNHNC6HC2HCH8CH4CH5CH4CNC5H3CH10CH4CH3SH2CH2CHC2H2CH4C2HCH4CH5CHC2HCFeCH4SHCFeH2CSH2SHSCHFeSFeSFeSCSFeS2HCH2NH5CHC6H6S2H3C2FeC7H3C2H3CHNH2C2H6CHCH3CH4CSC2HCH2SH2CH6C2HCHCH3CHCHCH2CHCH4FeC2HC2H4CHSHCH4C3HC3H2CH4SH2CFeH2CH7C2H2CH7S2CSFeSFeSHFeS2FeS2FeSFeS3H3SCHFeSCFeS2FeS2FeSFeS3FeS2H2C2H3CHC6H4C3HC3HC6H4C3H2C6H4NHC6H4SHC3HC2H6C2H7CHCH3CH5CNCH8SCH5FeC3H3CH4CH10CH4CH4CH3CH4SHCH2FeHCSH2CH5CHNC4HC6H9CH2CH6C2H4NH5C2H2C2FeHCNCH6C2HCH3CH3NC9HC2H26C2H3SH2C5NH2C3HCH2SHCH7C2H2CHCHCH2CH3C2HCHSFeS2FeS2FeSFeS3FeS2H2FeH2FeS2FeS2FeSFeS3HCHFeS3CSH2C2H2C3NHC6H4CHNH2C6H4C6H4C8H6C3H10CHNC8H19CNC12H19CH11C2H2NC6H17CH6FeC5H3C2H4C3HCH3CHSC3H2CH3C2HCH2C2HCH5SHCHFeCH2CH5C2HCH2CHC2HC2H2CH4CH9CH9CHC2HCHC2H7CHSH2CH2CH5C2H3CH7SCHCHCH4CH9C2HCH6C4H3CH5C3H2C2H4C4HCH2FeHCNHNH6S2FeHSFeSFeCSH2S2FeS2HC6H4CH3C4H2NH4CH2C6FeH2CHCFeH4C3H3CHNCHCH7CHCH5CHC2H3C3H2NSCH2CH4C2SH4CH5C3H2SH4CH4CH2CSH4C2SH5CHCHNH4FeHNCH5C3FeC3H6C2H4C2HC3H2CHCHC2H2CHCH6CHCH2CHSCFeHSH5SCFeS2FeS2FeSFeS3FeS2FeS2FeS2FeSFeS3H2SHFeH2C2H6CHCH2C6H5CH2CHC7H4CHCSHC6H5C7H5C2H2NSHCHNC10H23C2H3CSCH3C2H3C2HCH3NH2CH3CH3C3HNH5CH6CH2FeSCHCH6CH8C3H3CHC2H4CHCHCSH2NC9H2CH8CH2CH7CH2CH6CH2CHCFeCH4NH8CHC2H2CNH3C3HCHC2HC2H2C2HCH2CHCH2CH7CNHCH3C2H3SC2H6CH6CH6C2HCH4CHFeCHC2HC2H3CSCH2C2H2CH2C2NSH2CHC2HCHFeSFeS2FeS2FeSFeS3FeS2FeS2FeS2FeSFeS3CH2C2H2SHNFeH8C2HCH2C6H11C6H4C6H4C3HC7H4CH2C2SCH2CHC3H7NC10H23C2H7CNH3C2HCFeH8FeH2C2H4CH4CH3CH2C2H16CH4SCNC2HC4H5CH3C2HSH3CHC2H2CHNCH3C3HCHCHCHCH2C2HCH4CHCHSC2H4SHC3H4C3H2CH6C2H2NH3C2HCH2C2HCH2C2HCHNH3CH6CH2SHCHCH3CHCH2CH2C2HC2H2C3NCHCH9CHCHC2H4SCSFeS2H2FeSFeSFeSCH2SH3FeSHFeS2H3CHCHFeH4C6H4CSCNH2CH3CH3C9H3C2H4CH2CH3SH3CHCH2NC2HC2HC3H9CH3CHSCH6SHNCHFeH2CH2C2HCHSH2FeHC2H5C2HCH2CH4SH2CHC2HCHCH3C2H5CHCH3C2HCH2C2HCH3C2H4FeHC3SHC3SCH3NH5FeHSFeS3FeS2FeS2FeSFeS3FeS2C3H3FeS2FeS2FeSFeS3HCHCH2FeS2C2NH2SC6H6FeH2C8H4C6H4C4HSHC7H4CNC2H12C2HNHCH4CH3CH5CH3SC2H2CHFeH6C2HCH3CNC12H30C2H3CH2C2H4CH2C4HCH4CH7CHCH6NHCHCH5CH4CH9CH3CH4CH2CHCSC3H3NC9H12C2HC2H2CH7CH2CHC3NC2H6C2H6CH2CH5FeC3H5CSFeSFeS2FeS2FeSFeS3H5CHSCFeS2FeS2FeSFeS3FeS2CH2CH2CH3C3H2C6H6CSH4C6H4CH2CHCH2C6H4C6H4C2H5CSH4C2H2C2HNHCH3C3H4C2H3CH5C2H3C4H5C2H2C3SCH7CH2CH2C2H3C2FeH5NC2HCH6CHC2HC2H10CHCHCH3CH4C3H3CH3CH4CH2CHCHNC8H2CH15CH10CHFeH2CH2CH2CH2CH2NHCHFeC3HNH2CH3CH3CH2NCH3CH2C4H6C2H5CH2CH3CHCH2SHCH4NSC3SH3CHSH2SCSH2FeS2CH4CFeSFeSHCSH2NH4FeSC2H3C6H6CHCH3FeC2HC2H2C2H2CHCHC6H2CH2C3HCHCHCHCHCH7C3HSHCHCH2CH2C2H4SH6CH3CH2CH3CH2CH2FeH2CNH2SHC2H5C2HCH12C2FeH2SH2SHNH2FeSCH2SHCHCH3C2HC2H2C3FeC4H2SHCH5CH4CFeHSH2S2FeS2FeS2FeSFeS3FeS2FeS2FeS2FeSFeS3FeSHC2H3C7H10CSH2C6H4C6H4C2SH5C6H5CH7CH2CHCNCH7CHCH5CH2C3H8CH2CFeCH6CH2NCH3C3H2CSHCH3CHCHC2H2C3H3CH5C2H3CNH5CH3SH2C2H4CH2SHCHCH3CH5NC7H3C2H2CH12CH2NCHCH7C3H2CH2CH3CH3CH2CHCH4C2HC3H2C2HC2H4CH4CH2CH2NHFeH2CH2SCH6CSC4HCHC2HFeS2FeS2FeSFeS3CH4Fe2S2H2SH7CHC6H4CHCH2C6H9C2H3C2HCH5C3H3SHC2H5C2H3CH3CHFeCH3C2HNC9H2NH6SC2H8CH2SHCNC4HC7H3CH5SH16CH4CH2CH3CHCHFeHSH2CH4FeS2FeS2FeSFeS3FeS2FeS2FeSFeS3CH4FeS2FeHSH2C2HFeS2FeS2FeS2FeS2FeS2FeSFeS3CHC6H4CHC6H4C2H3C7H4C6H4C5H2C6H4C6HCH2C4H3CH3C2HCHNC8H8C2H9C2H7C3HNH4NHCH4C2H2CHCH9SCH6CH2CH4CHNC6SHCSH6NH3CH6C3HCH3SC2H13CHC2HCH2FeCHCH3C2HCHCH2FeH8CSCH5CHCHCH3NHCHCH2CFeH3C2HCH2CNHCH9CH5CH3C4H2CH9CH4CHCHCHCH2CH3CH7CHCHC2H2CNH3CH2CH2C2NCHCH6CH4C2H2SH5CHCHCH6C2H3CHCHSH2CH3CH4NHC4HCH2C3HCH2C2H4CH2CHCFeCHCHFeS2FeS2FeSFeS3FeS2FeS2H3NH6CH2CH2SC6H4C4HC6H6C2H4CHCH2FeC2H10CHNCHCH10C2HSH3NC8HC2H20C2H4C4HCHCHCH2CH3CHCH3NCH3C2SCH2CHC2H7CH4C3HCH9CH6CHCHCH4CH3C2HCH4CHC2HSH3C3H2CSH2CHCHCH5CFeS2FeS2FeS2FeSFeS3CH2FeS2FeH2C6H4C2H4CHCHC6H6C2H3C2H2SH8CHCH5CH2CHS2H3C2H3CNC2SH3CH3CH3CH2CH6CHCHCH2NC2HC3HC3HCH3CH6CHCH6CH2CHC2H2NC9H2CH11FeH8CH3CH5NC2H3CHCFeSCHCHNCH2CHCFeS2H2FeS2FeS2FeS2FeSFeS3FeS2FeS2FeSFeS3FeS2FeS2FeSFeS3FeS2FeHSC2H2CHC6H4C2HCSH2C6H4C6H4C2HCH2C3H5C6H3C6H4C7H2C6H4C3H3CH6C2H5NHC4HC3HC2H21CH6CHCH2CH2CHCH8CH2C2H4CHSH6SHCH4NHCH2CH3CH4C2H2CNCHC2HC2H2C3H2CH12C4HNCH6CH3NC12H28FeC2H2CH3C2H4CSH3NCH6C4H3CH6SH2CH4CH5CSCH2NCH2C2H3CH2NH2C2H3CHC3H4CHCHCHCH2NHC2HCH2C2H6CHCH6SH6C4H2C3HCHC2H5CH5CHCH5CHC5H2CHNCH2CH4FeHC2HCH3CNCH5CSCH2FeS2FeS2FeS2FeSFeS3H3CSH3C6H8SHFeHCHCH2C6H7CH4CH3CH2C2H2CHCH3CHC2H4C2H2CH2SNH14CHCHCHC2HCHCHCH2FeCH3CHC2NC12H4C2H4NH18C2SH3CH2CH7CHCHC3HCH2CFeCHC
_chemical_formula_sum              "Fe288 S576 H4608 C2592 N144"
_cell_length_a       71.9036
_cell_length_b       71.9526
_cell_length_c       72.0787
_cell_angle_alpha    84.2309
_cell_angle_beta     84.198
_cell_angle_gamma    84.2541

_space_group_name_H-M_alt    "P 1"
_space_group_IT_number       1

loop_
  _space_group_symop_operation_xyz
  'x, y, z'

loop_
  _atom_site_type_symbol
  _atom_site_label
  _atom_site_symmetry_multiplicity
  _atom_site_fract_x
  _atom_site_fract_y
  _atom_site_fract_z
  _atom_site_occupancy
  Fe  Fe1       1.0  0.18409  0.38511  0.14463  1.0000
  S   S1        1.0  0.16296  0.36397  0.15336  1.0000
  S   S2        1.0  0.21593  0.38259  0.13628  1.0000
  Fe  Fe2       1.0  0.15434  0.41866  0.15020  1.0000
  S   S3        1.0  0.13101  0.40000  0.15925  1.0000
  S   S4        1.0  0.15004  0.45025  0.14208  1.0000
  Fe  Fe3       1.0  0.15161  0.38198  0.17681  1.0000
  S   S5        1.0  0.14801  0.37114  0.20843  1.0000
  Fe  Fe4       1.0  0.14363  0.38330  0.13538  1.0000
  S   S6        1.0  0.12513  0.37286  0.11529  1.0000
  S   S7        1.0  0.17420  0.40205  0.16904  1.0000
  S   S8        1.0  0.16540  0.40294  0.12535  1.0000
  Fe  Fe5       1.0  0.09075  0.39845  0.01005  1.0000
  S   S9        1.0  0.06186  0.41351  0.01289  1.0000
  S   S10       1.0  0.11340  0.40124  0.02983  1.0000
  H   H1        1.0  0.13787  0.35477  0.30479  1.0000
  H   H2        1.0  0.09006  0.41794  0.26236  1.0000
  H   H3        1.0  0.23327  0.32326  0.10651  1.0000
  H   H4        1.0  0.09644  0.40923  0.30933  1.0000
  C   C1        1.0  0.05565  0.37437  0.26240  1.0000
  C   C2        1.0  0.00082  0.31877  0.31253  1.0000
  Fe  Fe6       1.0  0.08681  0.32303  0.30547  1.0000
  H   H5        1.0  0.08409  0.46318  0.13616  1.0000
  S   S11       1.0  0.09227  0.33200  0.27366  1.0000
  H   H6        1.0  0.09165  0.37242  0.26828  1.0000
  H   H7        1.0  0.05237  0.36333  0.27386  1.0000
  C   C3        1.0  0.11695  0.41516  0.23429  1.0000
  H   H8        1.0  0.00718  0.43060  0.01511  1.0000
  H   H9        1.0  0.12078  0.37592  0.27983  1.0000
  H   H10       1.0  0.06818  0.40038  0.25768  1.0000
  H   H11       1.0  0.06491  0.42362  0.28414  1.0000
  C   C4        1.0  0.02509  0.44969  0.02360  1.0000
  H   H12       1.0  0.12485  0.40845  0.22226  1.0000
  C   C5        1.0  0.23128  0.36575  0.12423  1.0000
  H   H13       1.0  0.08428  0.43547  0.28936  1.0000
  H   H14       1.0  0.08307  0.43384  0.03968  1.0000
  H   H15       1.0  0.18833  0.43227  0.10210  1.0000
  C   C6        1.0  0.13254  0.35934  0.22600  1.0000
  C   C7        1.0  0.13835  0.35454  0.24415  1.0000
  C   C8        1.0  0.12656  0.34574  0.25869  1.0000
  C   C9        1.0  0.10860  0.34161  0.25542  1.0000
  C   C10       1.0  0.10285  0.34626  0.23724  1.0000
  C   C11       1.0  0.11466  0.35502  0.22268  1.0000
  H   H16       1.0  0.15212  0.35770  0.24699  1.0000
  H   H17       1.0  0.13135  0.34223  0.27245  1.0000
  H   H18       1.0  0.08904  0.34321  0.23439  1.0000
  H   H19       1.0  0.10985  0.35854  0.20891  1.0000
  C   C12       1.0  0.15585  0.46891  0.15413  1.0000
  C   C13       1.0  0.16211  0.46590  0.17203  1.0000
  C   C14       1.0  0.01744  0.28199  0.28516  1.0000
  H   H20       1.0  0.16278  0.45195  0.17919  1.0000
  C   C15       1.0  0.16352  0.44400  0.06895  1.0000
  C   C16       1.0  0.12147  0.38174  0.09184  1.0000
  C   C17       1.0  0.13333  0.39395  0.08134  1.0000
  C   C18       1.0  0.13069  0.39959  0.06238  1.0000
  C   C19       1.0  0.11587  0.39358  0.05380  1.0000
  C   C20       1.0  0.10383  0.38163  0.06439  1.0000
  C   C21       1.0  0.10676  0.37561  0.08322  1.0000
  H   H21       1.0  0.14477  0.39871  0.08769  1.0000
  H   H22       1.0  0.14024  0.40862  0.05425  1.0000
  H   H23       1.0  0.09242  0.37680  0.05800  1.0000
  H   H24       1.0  0.09753  0.36610  0.09116  1.0000
  H   H25       1.0  0.08534  0.46135  0.10178  1.0000
  C   C22       1.0  0.08888  0.47143  0.01606  1.0000
  H   H26       1.0  0.10464  0.38997  0.24494  1.0000
  H   H27       1.0  0.21070  0.34646  0.12256  1.0000
  H   H28       1.0  0.14577  0.36855  0.03021  1.0000
  N   N1        1.0  0.17561  0.34039  0.08331  1.0000
  C   C23       1.0  0.17861  0.35916  0.08959  1.0000
  C   C24       1.0  0.15807  0.33353  0.09400  1.0000
  C   C25       1.0  0.19267  0.32703  0.08696  1.0000
  C   C26       1.0  0.17307  0.34184  0.06266  1.0000
  C   C27       1.0  0.15816  0.35742  0.05570  1.0000
  C   C28       1.0  0.19508  0.36920  0.07867  1.0000
  C   C29       1.0  0.19115  0.30622  0.08393  1.0000
  C   C30       1.0  0.15876  0.32916  0.11544  1.0000
  C   C31       1.0  0.14087  0.32088  0.12444  1.0000
  C   C32       1.0  0.15643  0.35718  0.03477  1.0000
  C   C33       1.0  0.19596  0.38856  0.08527  1.0000
  H   H29       1.0  0.22225  0.47731  0.12322  1.0000
  H   H30       1.0  0.18155  0.35764  0.10456  1.0000
  H   H31       1.0  0.16553  0.36879  0.08917  1.0000
  H   H32       1.0  0.14592  0.34420  0.09221  1.0000
  H   H33       1.0  0.15407  0.32090  0.08817  1.0000
  H   H34       1.0  0.19657  0.32761  0.10143  1.0000
  H   H35       1.0  0.16846  0.45236  0.07933  1.0000
  H   H36       1.0  0.18661  0.34391  0.05411  1.0000
  H   H37       1.0  0.16884  0.32840  0.05875  1.0000
  H   H38       1.0  0.16199  0.37152  0.05789  1.0000
  H   H39       1.0  0.14409  0.35552  0.06309  1.0000
  H   H40       1.0  0.07661  0.39652  0.30910  1.0000
  H   H41       1.0  0.19367  0.37117  0.06342  1.0000
  H   H42       1.0  0.18868  0.30478  0.06922  1.0000
  H   H43       1.0  0.17956  0.30031  0.09329  1.0000
  H   H44       1.0  0.17077  0.31897  0.11894  1.0000
  H   H45       1.0  0.15990  0.34220  0.12203  1.0000
  H   H46       1.0  0.13944  0.30725  0.11898  1.0000
  H   H47       1.0  0.14142  0.31855  0.13985  1.0000
  H   H48       1.0  0.12831  0.33068  0.12159  1.0000
  H   H49       1.0  0.09982  0.46505  0.02451  1.0000
  H   H50       1.0  0.17003  0.35957  0.02655  1.0000
  H   H51       1.0  0.15182  0.34360  0.03178  1.0000
  H   H52       1.0  0.01875  0.27951  0.27011  1.0000
  H   H53       1.0  0.18274  0.39753  0.08306  1.0000
  H   H54       1.0  0.18171  0.42857  0.19792  1.0000
  H   H55       1.0  0.21150  0.47356  0.16581  1.0000
  H   H56       1.0  0.00236  0.28229  0.29047  1.0000
  C   C34       1.0  0.19663  0.42708  0.20103  1.0000
  C   C35       1.0  0.08357  0.38155  0.27827  1.0000
  H   H57       1.0  0.19832  0.38725  0.10034  1.0000
  C   C36       1.0  0.06294  0.43182  0.31211  1.0000
  H   H58       1.0  0.04235  0.38042  0.25671  1.0000
  H   H59       1.0  0.20164  0.45498  0.18983  1.0000
  H   H60       1.0  0.13602  0.45503  0.09417  1.0000
  H   H61       1.0  0.09184  0.48015  0.07443  1.0000
  H   H62       1.0  0.22588  0.42482  0.13525  1.0000
  H   H63       1.0  0.10952  0.44584  0.05412  1.0000
  H   H64       1.0  0.12562  0.42559  0.23869  1.0000
  H   H65       1.0  0.07905  0.37180  0.29048  1.0000
  H   H66       1.0  0.07199  0.44680  0.07901  1.0000
  N   N2        1.0  0.09591  0.39533  0.28397  1.0000
  H   H67       1.0  0.11137  0.41871  0.27242  1.0000
  H   H68       1.0  0.02447  0.25277  0.29338  1.0000
  C   C37       1.0  0.12992  0.44807  0.08345  1.0000
  H   H69       1.0  0.20509  0.33142  0.07768  1.0000
  C   C38       1.0  0.11289  0.40013  0.25035  1.0000
  C   C39       1.0  0.22520  0.34924  0.11915  1.0000
  H   H70       1.0  0.12665  0.39294  0.25378  1.0000
  H   H71       1.0  0.20249  0.41232  0.19979  1.0000
  C   C40       1.0  0.10215  0.40891  0.26766  1.0000
  H   H72       1.0  0.08647  0.44621  0.00311  1.0000
  C   C41       1.0  0.10209  0.44356  0.06833  1.0000
  C   C42       1.0  0.08137  0.46078  0.00387  1.0000
  C   C43       1.0  0.14328  0.45077  0.06527  1.0000
  H   H73       1.0  0.03570  0.45926  0.01735  1.0000
  C   C44       1.0  0.10700  0.47533  0.07476  1.0000
  C   C45       1.0  0.22064  0.48214  0.13745  1.0000
  C   C46       1.0  0.10842  0.45200  0.11875  1.0000
  H   H74       1.0  0.19109  0.43075  0.13566  1.0000
  H   H75       1.0  0.06480  0.36780  0.25102  1.0000
  H   H76       1.0  0.10326  0.35815  0.30479  1.0000
  H   H77       1.0  0.05539  0.39620  0.28049  1.0000
  S   S12       1.0  0.02299  0.38122  0.01136  1.0000
  C   C47       1.0  0.00554  0.45677  0.99589  1.0000
  H   H78       1.0  0.04392  0.26698  0.29013  1.0000
  H   H79       1.0  0.01351  0.32313  0.30468  1.0000
  H   H80       1.0  0.20873  0.36105  0.08097  1.0000
  H   H81       1.0  0.03214  0.43825  0.03260  1.0000
  H   H82       1.0  0.17854  0.22105  0.31138  1.0000
  C   C48       1.0  0.07459  0.42469  0.29490  1.0000
  C   C49       1.0  0.11335  0.38438  0.29082  1.0000
  H   H83       1.0  0.19290  0.43827  0.16401  1.0000
  C   C50       1.0  0.06537  0.38981  0.26965  1.0000
  C   C51       1.0  0.21967  0.43971  0.13410  1.0000
  H   H84       1.0  0.10367  0.42243  0.22952  1.0000
  H   H85       1.0  0.10264  0.45091  0.14890  1.0000
  H   H86       1.0  0.22139  0.29923  0.07874  1.0000
  C   C52       1.0  0.21123  0.46792  0.15204  1.0000
  H   H87       1.0  0.19470  0.18836  0.31401  1.0000
  C   C53       1.0  0.20929  0.29421  0.08809  1.0000
  H   H88       1.0  0.07642  0.41901  0.06055  1.0000
  C   C54       1.0  0.09476  0.45090  0.13641  1.0000
  H   H89       1.0  0.02262  0.29581  0.28636  1.0000
  C   C55       1.0  0.20241  0.43257  0.10705  1.0000
  H   H90       1.0  0.21071  0.44179  0.09680  1.0000
  H   H91       1.0  0.12346  0.39423  0.29386  1.0000
  H   H92       1.0  0.07805  0.46178  0.05816  1.0000
  C   C56       1.0  0.06766  0.46911  0.99244  1.0000
  N   N3        1.0  0.10950  0.45492  0.08205  1.0000
  S   S13       1.0  0.08028  0.37355  0.99884  1.0000
  H   H93       1.0  0.01627  0.46600  0.98902  1.0000
  Fe  Fe7       1.0  0.05168  0.39010  0.99924  1.0000
  C   C57       1.0  0.20027  0.43992  0.12639  1.0000
  H   H94       1.0  0.05967  0.43691  0.05114  1.0000
  H   H95       1.0  0.20946  0.41808  0.10774  1.0000
  N   N4        1.0  0.21974  0.44784  0.15262  1.0000
  C   C58       1.0  0.20798  0.44056  0.18776  1.0000
  H   H96       1.0  0.02783  0.43393  0.99956  1.0000
  H   H97       1.0  0.99601  0.46578  0.00511  1.0000
  H   H98       1.0  0.07862  0.21501  0.31001  1.0000
  H   H99       1.0  0.21211  0.29470  0.10290  1.0000
  H   H100      1.0  0.22240  0.43914  0.19222  1.0000
  H   H101      1.0  0.11906  0.43973  0.12015  1.0000
  H   H102      1.0  0.19711  0.43031  0.21571  1.0000
  C   C59       1.0  0.02906  0.26645  0.29601  1.0000
  C   C60       1.0  0.08607  0.40573  0.30000  1.0000
  H   H103      1.0  0.19610  0.46872  0.14986  1.0000
  H   H104      1.0  0.09310  0.43712  0.10233  1.0000
  C   C61       1.0  0.07467  0.43346  0.05350  1.0000
  H   H105      1.0  0.19311  0.45431  0.12495  1.0000
  C   C62       1.0  0.12894  0.36230  0.31566  1.0000
  C   C63       1.0  0.20786  0.43629  0.16703  1.0000
  H   H106      1.0  0.10473  0.42831  0.07275  1.0000
  H   H107      1.0  0.13951  0.44263  0.05417  1.0000
  H   H108      1.0  0.01423  0.45750  0.03257  1.0000
  H   H109      1.0  0.21229  0.42104  0.16626  1.0000
  C   C64       1.0  0.00288  0.38388  0.99856  1.0000
  H   H110      1.0  0.16460  0.42894  0.07430  1.0000
  H   H111      1.0  0.22899  0.17590  0.31037  1.0000
  C   C65       1.0  0.16751  0.48101  0.18067  1.0000
  H   H112      1.0  0.20783  0.39545  0.07728  1.0000
  H   H113      1.0  0.20799  0.27941  0.08569  1.0000
  H   H114      1.0  0.13112  0.43286  0.08845  1.0000
  C   C66       1.0  0.09823  0.45139  0.10083  1.0000
  C   C67       1.0  0.11025  0.37022  0.30838  1.0000
  H   H115      1.0  0.08765  0.43775  0.13770  1.0000
  H   H116      1.0  0.05529  0.44562  0.30817  1.0000
  C   C68       1.0  0.08089  0.44761  0.06552  1.0000
  H   H117      1.0  0.14299  0.46578  0.05987  1.0000
  H   H118      1.0  0.05347  0.24068  0.30793  1.0000
  S   S14       1.0  0.07045  0.29773  0.31444  1.0000
  H   H119      1.0  0.17250  0.47853  0.19445  1.0000
  C   C69       1.0  0.23806  0.33610  0.11010  1.0000
  H   H120      1.0  0.11566  0.46490  0.11847  1.0000
  H   H121      1.0  0.99795  0.24788  0.31338  1.0000
  C   C70       1.0  0.01634  0.44128  0.00825  1.0000
  H   H122      1.0  0.22872  0.44705  0.12294  1.0000
  H   H123      1.0  0.11290  0.47733  0.05988  1.0000
  H   H124      1.0  0.13021  0.48542  0.08784  1.0000
  H   H125      1.0  0.17279  0.44568  0.05572  1.0000
  H   H126      1.0  0.23457  0.48453  0.14164  1.0000
  H   H127      1.0  0.23589  0.32406  0.15497  1.0000
  H   H128      1.0  0.20939  0.15072  0.31733  1.0000
  C   C71       1.0  0.02741  0.26900  0.31729  1.0000
  Fe  Fe8       1.0  0.12607  0.13896  0.40620  1.0000
  S   S15       1.0  0.12981  0.16257  0.42345  1.0000
  S   S16       1.0  0.09467  0.13515  0.40772  1.0000
  Fe  Fe9       1.0  0.16955  0.13115  0.39690  1.0000
  S   S17       1.0  0.17529  0.15396  0.41418  1.0000
  S   S18       1.0  0.19207  0.11044  0.38243  1.0000
  Fe  Fe10      1.0  0.15286  0.14335  0.43582  1.0000
  S   S19       1.0  0.15318  0.13266  0.46688  1.0000
  Fe  Fe11      1.0  0.15140  0.17132  0.40028  1.0000
  S   S20       1.0  0.15512  0.20139  0.38725  1.0000
  S   S21       1.0  0.14837  0.11946  0.41934  1.0000
  S   S22       1.0  0.14646  0.14893  0.38216  1.0000
  Fe  Fe12      1.0  0.14077  0.12939  0.59948  1.0000
  S   S23       1.0  0.13110  0.15937  0.59069  1.0000
  S   S24       1.0  0.12351  0.10457  0.59902  1.0000
  Fe  Fe13      1.0  0.18228  0.13771  0.60121  1.0000
  S   S25       1.0  0.17499  0.16842  0.59222  1.0000
  S   S26       1.0  0.21374  0.12689  0.60211  1.0000
  Fe  Fe14      1.0  0.14907  0.16663  0.61239  1.0000
  S   S27       1.0  0.14046  0.18671  0.63525  1.0000
  Fe  Fe15      1.0  0.15765  0.15875  0.57120  1.0000
  S   S28       1.0  0.15815  0.17265  0.54123  1.0000
  S   S29       1.0  0.15720  0.13630  0.62261  1.0000
  S   S30       1.0  0.16640  0.12849  0.57876  1.0000
  H   H129      1.0  0.03461  0.36564  0.63360  1.0000
  Fe  Fe16      1.0  0.01047  0.07083  0.40532  1.0000
  S   S31       1.0  0.04104  0.07322  0.39361  1.0000
  S   S32       1.0  0.00611  0.04144  0.41758  1.0000
  S   S33       1.0  0.02634  0.06354  0.57133  1.0000
  C   C72       1.0  0.09667  0.12377  0.54147  1.0000
  Fe  Fe17      1.0  0.01781  0.08942  0.58664  1.0000
  S   S34       1.0  0.03442  0.10329  0.60590  1.0000
  H   H130      1.0  0.00754  0.36938  0.40909  1.0000
  S   S35       1.0  0.07469  0.36226  0.62577  1.0000
  Fe  Fe18      1.0  0.08567  0.33260  0.34618  1.0000
  S   S36       1.0  0.06965  0.30828  0.35756  1.0000
  S   S37       1.0  0.09274  0.35538  0.36356  1.0000
  Fe  Fe19      1.0  0.05181  0.31595  0.33355  1.0000
  Fe  Fe20      1.0  0.08915  0.29121  0.33805  1.0000
  S   S38       1.0  0.09400  0.26001  0.34865  1.0000
  H   H131      1.0  0.06973  0.27046  0.58163  1.0000
  Fe  Fe21      1.0  0.07577  0.41792  0.48754  1.0000
  S   S39       1.0  0.09728  0.39258  0.48622  1.0000
  S   S40       1.0  0.07684  0.44860  0.47589  1.0000
  Fe  Fe22      1.0  0.04414  0.39409  0.50179  1.0000
  S   S41       1.0  0.06267  0.36736  0.50172  1.0000
  S   S42       1.0  0.01391  0.39237  0.51269  1.0000
  Fe  Fe23      1.0  0.08284  0.38287  0.51452  1.0000
  S   S43       1.0  0.09728  0.36536  0.53805  1.0000
  Fe  Fe24      1.0  0.07544  0.37857  0.47351  1.0000
  S   S44       1.0  0.07780  0.35625  0.45249  1.0000
  S   S45       1.0  0.06318  0.40911  0.51663  1.0000
  S   S46       1.0  0.05513  0.40429  0.47281  1.0000
  C   C73       1.0  0.99816  0.39853  0.49567  1.0000
  C   C74       1.0  0.00358  0.40850  0.47864  1.0000
  C   C75       1.0  0.02709  0.34891  0.46914  1.0000
  H   H132      1.0  0.18326  0.38831  0.62667  1.0000
  C   C76       1.0  0.02370  0.46255  0.50902  1.0000
  H   H133      1.0  0.01734  0.41336  0.47615  1.0000
  C   C77       1.0  0.02792  0.38022  0.43700  1.0000
  H   H134      1.0  0.10369  0.28787  0.43154  1.0000
  H   H135      1.0  0.11479  0.39479  0.55591  1.0000
  H   H136      1.0  0.17764  0.16453  0.64355  1.0000
  C   C78       1.0  0.08785  0.35579  0.38823  1.0000
  C   C79       1.0  0.09023  0.37209  0.39671  1.0000
  C   C80       1.0  0.08694  0.37271  0.41632  1.0000
  C   C81       1.0  0.08160  0.35685  0.42769  1.0000
  C   C82       1.0  0.07921  0.34060  0.41919  1.0000
  C   C83       1.0  0.08206  0.34013  0.39959  1.0000
  H   H137      1.0  0.09473  0.38430  0.38807  1.0000
  H   H138      1.0  0.08889  0.38531  0.42264  1.0000
  H   H139      1.0  0.07494  0.32832  0.42786  1.0000
  H   H140      1.0  0.07988  0.32765  0.39326  1.0000
  C   C84       1.0  0.07875  0.36207  0.60111  1.0000
  C   C85       1.0  0.08720  0.34620  0.59280  1.0000
  C   C86       1.0  0.09218  0.34720  0.57334  1.0000
  C   C87       1.0  0.08819  0.36385  0.56190  1.0000
  C   C88       1.0  0.07880  0.37941  0.57009  1.0000
  C   C89       1.0  0.07425  0.37855  0.58963  1.0000
  H   H141      1.0  0.09047  0.33335  0.60145  1.0000
  H   H142      1.0  0.09948  0.33511  0.56713  1.0000
  H   H143      1.0  0.07579  0.39235  0.56147  1.0000
  H   H144      1.0  0.06765  0.39088  0.59591  1.0000
  H   H145      1.0  0.10925  0.08169  0.42805  1.0000
  H   H146      1.0  0.02101  0.33365  0.44610  1.0000
  H   H147      1.0  0.00680  0.37718  0.32866  1.0000
  C   C90       1.0  0.11769  0.24934  0.63329  1.0000
  C   C91       1.0  0.13143  0.21078  0.63394  1.0000
  C   C92       1.0  0.12956  0.22158  0.61687  1.0000
  C   C93       1.0  0.12279  0.24072  0.61658  1.0000
  H   H148      1.0  0.07026  0.26267  0.38471  1.0000
  H   H149      1.0  0.13348  0.21524  0.60388  1.0000
  H   H150      1.0  0.12152  0.24893  0.60327  1.0000
  C   C94       1.0  0.05913  0.10431  0.60274  1.0000
  C   C95       1.0  0.06730  0.11745  0.61182  1.0000
  C   C96       1.0  0.08694  0.11821  0.61023  1.0000
  C   C97       1.0  0.09865  0.10540  0.60002  1.0000
  C   C98       1.0  0.09047  0.09218  0.59105  1.0000
  C   C99       1.0  0.07082  0.09187  0.59208  1.0000
  H   H151      1.0  0.05838  0.12699  0.62027  1.0000
  H   H152      1.0  0.09304  0.12826  0.61744  1.0000
  H   H153      1.0  0.09938  0.08189  0.58354  1.0000
  H   H154      1.0  0.06475  0.08150  0.58527  1.0000
  C   C100      1.0  0.13797  0.21754  0.37657  1.0000
  C   C101      1.0  0.14311  0.23512  0.36832  1.0000
  C   C102      1.0  0.12993  0.24833  0.35975  1.0000
  C   C103      1.0  0.11137  0.24414  0.35938  1.0000
  C   C104      1.0  0.10627  0.22659  0.36768  1.0000
  C   C105      1.0  0.11943  0.21339  0.37620  1.0000
  H   H155      1.0  0.15743  0.23847  0.36843  1.0000
  H   H156      1.0  0.13422  0.26157  0.35311  1.0000
  H   H157      1.0  0.11521  0.19998  0.38248  1.0000
  C   C106      1.0  0.15462  0.14425  0.48724  1.0000
  C   C107      1.0  0.15539  0.16365  0.48664  1.0000
  C   C108      1.0  0.15648  0.17211  0.50329  1.0000
  C   C109      1.0  0.15686  0.16132  0.52067  1.0000
  C   C110      1.0  0.15636  0.14190  0.52120  1.0000
  C   C111      1.0  0.15510  0.13346  0.50461  1.0000
  H   H158      1.0  0.15511  0.17212  0.47337  1.0000
  H   H159      1.0  0.15699  0.18714  0.50270  1.0000
  H   H160      1.0  0.15690  0.13339  0.53441  1.0000
  H   H161      1.0  0.15463  0.11842  0.50522  1.0000
  C   C112      1.0  0.08037  0.11727  0.40417  1.0000
  C   C113      1.0  0.08747  0.10110  0.39561  1.0000
  C   C114      1.0  0.07526  0.08772  0.39256  1.0000
  C   C115      1.0  0.05591  0.09022  0.39826  1.0000
  C   C116      1.0  0.04893  0.10613  0.40728  1.0000
  C   C117      1.0  0.06107  0.11963  0.41004  1.0000
  H   H162      1.0  0.10225  0.09912  0.39095  1.0000
  H   H163      1.0  0.08080  0.07546  0.38557  1.0000
  H   H164      1.0  0.03411  0.10825  0.41174  1.0000
  H   H165      1.0  0.05541  0.13210  0.41665  1.0000
  H   H166      1.0  0.99602  0.25047  0.62928  1.0000
  C   C118      1.0  0.21652  0.10847  0.37365  1.0000
  H   H167      1.0  0.22294  0.13518  0.38093  1.0000
  H   H168      1.0  0.04478  0.26860  0.34860  1.0000
  H   H169      1.0  0.21694  0.14430  0.33997  1.0000
  H   H170      1.0  0.10873  0.06036  0.44254  1.0000
  H   H171      1.0  0.23418  0.15900  0.59485  1.0000
  H   H172      1.0  0.09156  0.29550  0.39212  1.0000
  H   H173      1.0  0.02172  0.34269  0.60333  1.0000
  H   H174      1.0  0.06191  0.02177  0.36763  1.0000
  C   C119      1.0  0.08479  0.46769  0.48576  1.0000
  C   C120      1.0  0.02450  0.07431  0.48468  1.0000
  H   H175      1.0  0.09839  0.45126  0.50800  1.0000
  C   C121      1.0  0.21014  0.14294  0.49560  1.0000
  C   C122      1.0  0.03400  0.24912  0.63310  1.0000
  C   C123      1.0  0.22832  0.12271  0.37431  1.0000
  C   C124      1.0  0.00152  0.35334  0.56703  1.0000
  H   H176      1.0  0.07906  0.16419  0.49949  1.0000
  C   C125      1.0  0.02336  0.06997  0.50409  1.0000
  H   H177      1.0  0.22671  0.16795  0.36334  1.0000
  H   H178      1.0  0.10728  0.38148  0.61906  1.0000
  C   C126      1.0  0.23011  0.11694  0.61860  1.0000
  C   C127      1.0  0.12215  0.38263  0.62144  1.0000
  H   H179      1.0  0.01916  0.43374  0.50591  1.0000
  H   H180      1.0  0.06845  0.99768  0.37287  1.0000
  H   H181      1.0  0.01863  0.48309  0.48594  1.0000
  H   H182      1.0  0.08515  0.02580  0.34011  1.0000
  S   S47       1.0  0.03409  0.08320  0.51829  1.0000
  H   H183      1.0  0.04072  0.24553  0.35845  1.0000
  H   H184      1.0  0.02620  0.38525  0.45123  1.0000
  H   H185      1.0  0.02014  0.00970  0.39642  1.0000
  S   S48       1.0  0.10898  0.27349  0.63181  1.0000
  H   H186      1.0  0.02953  0.31888  0.47775  1.0000
  H   H187      1.0  0.02219  0.22675  0.34331  1.0000
  H   H188      1.0  0.20892  0.19496  0.33035  1.0000
  C   C128      1.0  0.02481  0.01712  0.36059  1.0000
  H   H189      1.0  0.00753  0.35539  0.34336  1.0000
  H   H190      1.0  0.18102  0.20414  0.35208  1.0000
  C   C129      1.0  0.05341  0.24499  0.32233  1.0000
  C   C130      1.0  0.00070  0.31359  0.33174  1.0000
  C   C131      1.0  0.07363  0.27792  0.59323  1.0000
  H   H191      1.0  0.02975  0.42583  0.41523  1.0000
  H   H192      1.0  0.05681  0.26075  0.40717  1.0000
  H   H193      1.0  0.01295  0.06491  0.34870  1.0000
  C   C132      1.0  0.21432  0.15503  0.55357  1.0000
  H   H194      1.0  0.02612  0.36534  0.37841  1.0000
  H   H195      1.0  0.99375  0.21401  0.32216  1.0000
  H   H196      1.0  0.00036  0.35955  0.58067  1.0000
  C   C133      1.0  0.01384  0.06518  0.47373  1.0000
  C   C134      1.0  0.01072  0.99466  0.53215  1.0000
  N   N5        1.0  0.09675  0.08508  0.45623  1.0000
  C   C135      1.0  0.07759  0.08307  0.45013  1.0000
  C   C136      1.0  0.10078  0.10551  0.45482  1.0000
  C   C137      1.0  0.11100  0.07535  0.44264  1.0000
  C   C138      1.0  0.09899  0.07587  0.47570  1.0000
  C   C139      1.0  0.08514  0.08371  0.49147  1.0000
  C   C140      1.0  0.07052  0.06317  0.45390  1.0000
  C   C141      1.0  0.13194  0.07565  0.44615  1.0000
  C   C142      1.0  0.08404  0.12032  0.45900  1.0000
  C   C143      1.0  0.09085  0.13942  0.46094  1.0000
  C   C144      1.0  0.08604  0.07102  0.50974  1.0000
  C   C145      1.0  0.05487  0.06098  0.44167  1.0000
  H   H197      1.0  0.07730  0.08785  0.43496  1.0000
  H   H198      1.0  0.06641  0.09232  0.45720  1.0000
  H   H199      1.0  0.11187  0.10734  0.46407  1.0000
  H   H200      1.0  0.10682  0.11015  0.44042  1.0000
  H   H201      1.0  0.07921  0.16982  0.54594  1.0000
  H   H202      1.0  0.05992  0.28360  0.39517  1.0000
  H   H203      1.0  0.09814  0.06046  0.47611  1.0000
  H   H204      1.0  0.11320  0.07742  0.47983  1.0000
  H   H205      1.0  0.07041  0.08518  0.48786  1.0000
  H   H206      1.0  0.08911  0.09762  0.49418  1.0000
  H   H207      1.0  0.06487  0.06087  0.46880  1.0000
  H   H208      1.0  0.13521  0.06633  0.45886  1.0000
  H   H209      1.0  0.13543  0.08994  0.44808  1.0000
  H   H210      1.0  0.07493  0.12210  0.44726  1.0000
  H   H211      1.0  0.07528  0.11626  0.47197  1.0000
  H   H212      1.0  0.07864  0.14972  0.46399  1.0000
  H   H213      1.0  0.10014  0.13842  0.47247  1.0000
  H   H214      1.0  0.09872  0.14458  0.44769  1.0000
  H   H215      1.0  0.07657  0.07740  0.52100  1.0000
  H   H216      1.0  0.08131  0.05710  0.50807  1.0000
  H   H217      1.0  0.10054  0.06918  0.51412  1.0000
  H   H218      1.0  0.04779  0.04817  0.44682  1.0000
  N   N6        1.0  0.13494  0.37159  0.60772  1.0000
  H   H219      1.0  0.00364  0.99951  0.46198  1.0000
  C   C146      1.0  0.13024  0.37776  0.58788  1.0000
  C   C147      1.0  0.13142  0.35114  0.61205  1.0000
  C   C148      1.0  0.15538  0.37315  0.60977  1.0000
  H   H220      1.0  0.04705  0.27641  0.60950  1.0000
  S   S49       1.0  0.06937  0.30995  0.64427  1.0000
  C   C149      1.0  0.13969  0.33762  0.59713  1.0000
  C   C150      1.0  0.12366  0.39882  0.58321  1.0000
  H   H221      1.0  0.11819  0.41864  0.55917  1.0000
  H   H222      1.0  0.04491  0.34101  0.61144  1.0000
  H   H223      1.0  0.09971  0.11520  0.52930  1.0000
  C   C151      1.0  0.13617  0.31731  0.60387  1.0000
  N   N7        1.0  0.21490  0.12955  0.53025  1.0000
  C   C152      1.0  0.12631  0.21939  0.65066  1.0000
  H   H224      1.0  0.14228  0.37367  0.57767  1.0000
  H   H225      1.0  0.11838  0.37029  0.58445  1.0000
  H   H226      1.0  0.11608  0.34969  0.61436  1.0000
  H   H227      1.0  0.16844  0.23143  0.33225  1.0000
  H   H228      1.0  0.20979  0.11257  0.64222  1.0000
  H   H229      1.0  0.16442  0.36476  0.59965  1.0000
  H   H230      1.0  0.07728  0.13151  0.50192  1.0000
  H   H231      1.0  0.99755  0.04633  0.35255  1.0000
  H   H232      1.0  0.07648  0.18733  0.62885  1.0000
  H   H233      1.0  0.17645  0.09200  0.55454  1.0000
  H   H234      1.0  0.15506  0.33815  0.59414  1.0000
  H   H235      1.0  0.13313  0.34114  0.58378  1.0000
  C   C153      1.0  0.01219  0.04965  0.34799  1.0000
  C   C154      1.0  0.20729  0.13663  0.47653  1.0000
  C   C155      1.0  0.12267  0.31572  0.44323  1.0000
  H   H236      1.0  0.13827  0.40193  0.55517  1.0000
  N   N8        1.0  0.19649  0.16863  0.33855  1.0000
  H   H237      1.0  0.00109  0.39362  0.64115  1.0000
  H   H238      1.0  0.99874  0.00563  0.53356  1.0000
  H   H239      1.0  0.00738  0.25248  0.36379  1.0000
  H   H240      1.0  0.02545  0.00110  0.43012  1.0000
  H   H241      1.0  0.14192  0.30795  0.59291  1.0000
  H   H242      1.0  0.14312  0.31262  0.61683  1.0000
  H   H243      1.0  0.12089  0.31582  0.60673  1.0000
  H   H244      1.0  0.21405  0.17954  0.56888  1.0000
  C   C156      1.0  0.99959  0.24527  0.64365  1.0000
  H   H245      1.0  0.17719  0.13658  0.35588  1.0000
  H   H246      1.0  0.19393  0.12997  0.47717  1.0000
  H   H247      1.0  0.21791  0.11395  0.50562  1.0000
  C   C157      1.0  0.20502  0.09645  0.54275  1.0000
  C   C158      1.0  0.05857  0.22241  0.63682  1.0000
  C   C159      1.0  0.12927  0.30093  0.42958  1.0000
  C   C160      1.0  0.23806  0.10421  0.64990  1.0000
  H   H248      1.0  0.02189  0.04299  0.37507  1.0000
  H   H249      1.0  0.16621  0.16768  0.34220  1.0000
  H   H250      1.0  0.08887  0.27465  0.59478  1.0000
  H   H251      1.0  0.16844  0.23918  0.41978  1.0000
  H   H252      1.0  0.21545  0.08085  0.36488  1.0000
  H   H253      1.0  0.20722  0.11921  0.55913  1.0000
  H   H254      1.0  0.13651  0.37371  0.31984  1.0000
  H   H255      1.0  0.23568  0.17469  0.33377  1.0000
  C   C161      1.0  0.18229  0.39292  0.61158  1.0000
  C   C162      1.0  0.04756  0.12988  0.50731  1.0000
  C   C163      1.0  0.21314  0.15668  0.33002  1.0000
  N   N9        1.0  0.20240  0.17916  0.64413  1.0000
  H   H256      1.0  0.01540  0.99798  0.49387  1.0000
  H   H257      1.0  0.06677  0.23196  0.34728  1.0000
  C   C164      1.0  0.01967  0.27198  0.37828  1.0000
  H   H258      1.0  0.04422  0.01646  0.42699  1.0000
  H   H259      1.0  0.03612  0.44348  0.48852  1.0000
  H   H260      1.0  0.08695  0.11564  0.55145  1.0000
  H   H261      1.0  0.04013  0.04260  0.35595  1.0000
  H   H262      1.0  0.99143  0.00199  0.41864  1.0000
  S   S50       1.0  0.99293  0.08411  0.42902  1.0000
  C   C165      1.0  0.16210  0.39307  0.60659  1.0000
  H   H263      1.0  0.01276  0.27435  0.32154  1.0000
  H   H264      1.0  0.03221  0.32050  0.61304  1.0000
  C   C166      1.0  0.03589  0.36007  0.56308  1.0000
  H   H265      1.0  0.16199  0.39828  0.59157  1.0000
  H   H266      1.0  0.03711  0.33335  0.49408  1.0000
  H   H267      1.0  0.19756  0.15332  0.36592  1.0000
  C   C167      1.0  0.20336  0.11786  0.54478  1.0000
  H   H268      1.0  0.19360  0.22776  0.32784  1.0000
  C   C168      1.0  0.09035  0.16843  0.50716  1.0000
  H   H269      1.0  0.18350  0.17473  0.36601  1.0000
  C   C169      1.0  0.07932  0.21464  0.63851  1.0000
  H   H270      1.0  0.09202  0.22310  0.36756  1.0000
  H   H271      1.0  0.98954  0.23503  0.64969  1.0000
  H   H272      1.0  0.19370  0.08892  0.57149  1.0000
  H   H273      1.0  0.08839  0.21883  0.62572  1.0000
  C   C170      1.0  0.07409  0.14925  0.56906  1.0000
  C   C171      1.0  0.09904  0.28151  0.39557  1.0000
  H   H274      1.0  0.13180  0.10233  0.53533  1.0000
  C   C172      1.0  0.21347  0.17689  0.36630  1.0000
  C   C173      1.0  0.99888  0.36493  0.33384  1.0000
  H   H275      1.0  0.15929  0.11740  0.33947  1.0000
  H   H276      1.0  0.02853  0.28393  0.37541  1.0000
  S   S51       1.0  0.10687  0.31527  0.32793  1.0000
  H   H277      1.0  0.03113  0.33219  0.64387  1.0000
  H   H278      1.0  0.15910  0.36682  0.62380  1.0000
  H   H279      1.0  0.01268  0.35080  0.47618  1.0000
  C   C174      1.0  0.01710  0.36336  0.55451  1.0000
  H   H280      1.0  0.05531  0.01361  0.33456  1.0000
  C   C175      1.0  0.17878  0.16054  0.33469  1.0000
  H   H281      1.0  0.07101  0.29327  0.58956  1.0000
  H   H282      1.0  0.20209  0.09342  0.52860  1.0000
  C   C176      1.0  0.02249  0.44660  0.49683  1.0000
  H   H283      1.0  0.00730  0.40201  0.42537  1.0000
  H   H284      1.0  0.01987  0.02517  0.54757  1.0000
  H   H285      1.0  0.02398  0.34046  0.38401  1.0000
  C   C177      1.0  0.21269  0.16852  0.62856  1.0000
  H   H286      1.0  0.03466  0.36108  0.47143  1.0000
  C   C178      1.0  0.05868  0.00754  0.36481  1.0000
  C   C179      1.0  0.99093  0.11265  0.49736  1.0000
  H   H287      1.0  0.01424  0.06891  0.45885  1.0000
  H   H288      1.0  0.02672  0.26082  0.38761  1.0000
  C   C180      1.0  0.02843  0.00536  0.52646  1.0000
  C   C181      1.0  0.19577  0.18848  0.32933  1.0000
  H   H289      1.0  0.01338  0.37874  0.55293  1.0000
  H   H290      1.0  0.01942  0.35822  0.54038  1.0000
  C   C182      1.0  0.03488  0.25749  0.34919  1.0000
  H   H291      1.0  0.19701  0.18174  0.55191  1.0000
  H   H292      1.0  0.08417  0.17947  0.51620  1.0000
  H   H293      1.0  0.03952  0.02359  0.39296  1.0000
  H   H294      1.0  0.01188  0.05222  0.52728  1.0000
  H   H295      1.0  0.02020  0.22301  0.63589  1.0000
  H   H296      1.0  0.03769  0.00684  0.55408  1.0000
  H   H297      1.0  0.15330  0.40303  0.61529  1.0000
  C   C183      1.0  0.22455  0.11149  0.63738  1.0000
  H   H298      1.0  0.10000  0.15842  0.55433  1.0000
  H   H299      1.0  0.14001  0.30700  0.41927  1.0000
  H   H300      1.0  0.07045  0.11309  0.51925  1.0000
  C   C184      1.0  0.02697  0.34697  0.44787  1.0000
  Fe  Fe25      1.0  0.01718  0.08207  0.54639  1.0000
  N   N10       1.0  0.08748  0.14285  0.53527  1.0000
  C   C185      1.0  0.99044  0.45528  0.41945  1.0000
  C   C186      1.0  0.01245  0.05584  0.51236  1.0000
  C   C187      1.0  0.02585  0.03853  0.36081  1.0000
  C   C188      1.0  0.20937  0.12634  0.51112  1.0000
  H   H301      1.0  0.04475  0.36538  0.40586  1.0000
  H   H302      1.0  0.10903  0.40182  0.58952  1.0000
  H   H303      1.0  0.10206  0.27505  0.38207  1.0000
  C   C189      1.0  0.10161  0.48087  0.50828  1.0000
  H   H304      1.0  0.01131  0.45023  0.48718  1.0000
  H   H305      1.0  0.05384  0.21663  0.62448  1.0000
  C   C190      1.0  0.18083  0.21004  0.64874  1.0000
  H   H306      1.0  0.06086  0.05956  0.42703  1.0000
  H   H307      1.0  0.04424  0.07329  0.44184  1.0000
  S   S52       1.0  0.02086  0.31391  0.34404  1.0000
  H   H308      1.0  0.04261  0.47758  0.48904  1.0000
  H   H309      1.0  0.04707  0.12007  0.49645  1.0000
  H   H310      1.0  0.02624  0.01537  0.51397  1.0000
  Fe  Fe26      1.0  0.99580  0.05790  0.57660  1.0000
  C   C191      1.0  0.03261  0.01652  0.54229  1.0000
  H   H311      1.0  0.03289  0.08530  0.47824  1.0000
  H   H312      1.0  0.08165  0.05174  0.45128  1.0000
  C   C192      1.0  0.01619  0.26435  0.36000  1.0000
  H   H313      1.0  0.14253  0.07751  0.41659  1.0000
  C   C193      1.0  0.06684  0.26924  0.39809  1.0000
  H   H314      1.0  0.15386  0.26085  0.39606  1.0000
  H   H315      1.0  0.04858  0.99236  0.43627  1.0000
  C   C194      1.0  0.22670  0.17970  0.61503  1.0000
  H   H316      1.0  0.04884  0.40992  0.42337  1.0000
  H   H317      1.0  0.14268  0.05383  0.42784  1.0000
  H   H318      1.0  0.03012  0.41861  0.43987  1.0000
  C   C195      1.0  0.17773  0.13926  0.34051  1.0000
  H   H319      1.0  0.11887  0.09341  0.55672  1.0000
  H   H320      1.0  0.15982  0.06902  0.43254  1.0000
  H   H321      1.0  0.15131  0.32167  0.37236  1.0000
  H   H322      1.0  0.01868  0.01383  0.58978  1.0000
  H   H323      1.0  0.17674  0.16296  0.31948  1.0000
  H   H324      1.0  0.13282  0.33479  0.36023  1.0000
  C   C196      1.0  0.17966  0.20242  0.33717  1.0000
  H   H325      1.0  0.04673  0.36704  0.55350  1.0000
  C   C197      1.0  0.08458  0.26985  0.40796  1.0000
  H   H326      1.0  0.09043  0.25513  0.41111  1.0000
  H   H327      1.0  0.12208  0.25354  0.40086  1.0000
  C   C198      1.0  0.06806  0.14059  0.53014  1.0000
  H   H328      1.0  0.08024  0.27606  0.42137  1.0000
  H   H329      1.0  0.13726  0.34533  0.62537  1.0000
  C   C199      1.0  0.14497  0.06853  0.42975  1.0000
  H   H330      1.0  0.05899  0.14985  0.56678  1.0000
  H   H331      1.0  0.03467  0.45773  0.51864  1.0000
  H   H332      1.0  0.12396  0.13475  0.54388  1.0000
  H   H333      1.0  0.13961  0.10521  0.55777  1.0000
  C   C200      1.0  0.14709  0.26073  0.41063  1.0000
  H   H334      1.0  0.09629  0.18806  0.64208  1.0000
  H   H335      1.0  0.13471  0.31904  0.45044  1.0000
  C   C201      1.0  0.11255  0.29524  0.42016  1.0000
  C   C202      1.0  0.12704  0.10500  0.55005  1.0000
  H   H336      1.0  0.15285  0.27165  0.41752  1.0000
  H   H337      1.0  0.06621  0.15759  0.59708  1.0000
  H   H338      1.0  0.09766  0.18877  0.48384  1.0000
  C   C203      1.0  0.02196  0.33994  0.63368  1.0000
  H   H339      1.0  0.11198  0.12682  0.56557  1.0000
  H   H340      1.0  0.14727  0.23023  0.41450  1.0000
  N   N11       1.0  0.11717  0.28342  0.40388  1.0000
  H   H341      1.0  0.13283  0.28351  0.37671  1.0000
  C   C204      1.0  0.21094  0.17828  0.38741  1.0000
  C   C205      1.0  0.11521  0.12382  0.55074  1.0000
  H   H342      1.0  0.04389  0.14439  0.50113  1.0000
  H   H343      1.0  0.11175  0.31056  0.45402  1.0000
  H   H344      1.0  0.09019  0.16061  0.58860  1.0000
  H   H345      1.0  0.21763  0.15937  0.52349  1.0000
  H   H346      1.0  0.11037  0.31248  0.37334  1.0000
  H   H347      1.0  0.11886  0.25927  0.42443  1.0000
  C   C206      1.0  0.12544  0.26391  0.41028  1.0000
  H   H348      1.0  0.14417  0.29348  0.39334  1.0000
  C   C207      1.0  0.13015  0.29250  0.38858  1.0000
  H   H349      1.0  0.21889  0.18896  0.60458  1.0000
  C   C208      1.0  0.13813  0.32053  0.36590  1.0000
  H   H350      1.0  0.19870  0.15404  0.49887  1.0000
  H   H351      1.0  0.99656  0.35747  0.32162  1.0000
  H   H352      1.0  0.10378  0.30824  0.41586  1.0000
  C   C209      1.0  0.12334  0.31254  0.38044  1.0000
  C   C210      1.0  0.08584  0.15578  0.55073  1.0000
  C   C211      1.0  0.03074  0.33588  0.61413  1.0000
  C   C212      1.0  0.02862  0.48073  0.49683  1.0000
  H   H353      1.0  0.03945  0.48269  0.53202  1.0000
  H   H354      1.0  0.18827  0.12309  0.54460  1.0000
  C   C213      1.0  0.15290  0.24170  0.42085  1.0000
  H   H355      1.0  0.12061  0.32230  0.39159  1.0000
  C   C214      1.0  0.09509  0.46522  0.50143  1.0000
  H   H356      1.0  0.14762  0.24131  0.43590  1.0000
  H   H357      1.0  0.02601  0.22697  0.31867  1.0000
  H   H358      1.0  0.04367  0.02601  0.53715  1.0000
  H   H359      1.0  0.07878  0.13471  0.57423  1.0000
  C   C215      1.0  0.01060  0.00276  0.58679  1.0000
  C   C216      1.0  0.06577  0.25098  0.61744  1.0000
  S   S53       1.0  0.06663  0.34166  0.32332  1.0000
  H   H360      1.0  0.14115  0.31152  0.35412  1.0000
  H   H361      1.0  0.13578  0.28854  0.43779  1.0000
  N   N12       1.0  0.03372  0.25183  0.32975  1.0000
  H   H362      1.0  0.11249  0.15596  0.52358  1.0000
  H   H363      1.0  0.10497  0.14062  0.50891  1.0000
  H   H364      1.0  0.18992  0.13050  0.33436  1.0000
  H   H365      1.0  0.21910  0.12647  0.47190  1.0000
  H   H366      1.0  0.11682  0.32889  0.43564  1.0000
  H   H367      1.0  0.07139  0.17679  0.57988  1.0000
  H   H368      1.0  0.20664  0.14896  0.46594  1.0000
  C   C217      1.0  0.12430  0.37695  0.64252  1.0000
  C   C218      1.0  0.09961  0.15129  0.51880  1.0000
  H   H369      1.0  0.99510  0.42041  0.45185  1.0000
  C   C219      1.0  0.02014  0.36121  0.63611  1.0000
  S   S54       1.0  0.01053  0.10813  0.56110  1.0000
  H   H370      1.0  0.03540  0.42636  0.64995  1.0000
  H   H371      1.0  0.21095  0.16408  0.39501  1.0000
  H   H372      1.0  0.04668  0.34888  0.37737  1.0000
  H   H373      1.0  0.06320  0.24327  0.60540  1.0000
  C   C220      1.0  0.19112  0.08663  0.55697  1.0000
  H   H374      1.0  0.04235  0.34071  0.41143  1.0000
  H   H375      1.0  0.04052  0.34486  0.56501  1.0000
  C   C221      1.0  0.21158  0.17625  0.55465  1.0000
  H   H376      1.0  0.11169  0.16659  0.48336  1.0000
  H   H377      1.0  0.00994  0.46471  0.51733  1.0000
  C   C222      1.0  0.16002  0.13244  0.33441  1.0000
  H   H378      1.0  0.12629  0.35226  0.32817  1.0000
  H   H379      1.0  0.06137  0.99631  0.40335  1.0000
  C   C223      1.0  0.19689  0.16805  0.35949  1.0000
  H   H380      1.0  0.22893  0.15028  0.55664  1.0000
  H   H381      1.0  0.13247  0.40837  0.58866  1.0000
  C   C224      1.0  0.10474  0.17716  0.49264  1.0000
  C   C225      1.0  0.21019  0.14983  0.53410  1.0000
  C   C226      1.0  0.03698  0.33144  0.47900  1.0000
  H   H382      1.0  0.99745  0.37371  0.45902  1.0000
  H   H383      1.0  0.18693  0.40729  0.60877  1.0000
  H   H384      1.0  0.05954  0.13392  0.54230  1.0000
  H   H385      1.0  0.06036  0.15454  0.52678  1.0000
  H   H386      1.0  0.06620  0.28057  0.62226  1.0000
  H   H387      1.0  0.20252  0.16371  0.61983  1.0000
  H   H388      1.0  0.00185  0.29262  0.63244  1.0000
  H   H389      1.0  0.20455  0.14869  0.56477  1.0000
  H   H390      1.0  0.03489  0.36613  0.57677  1.0000
  C   C227      1.0  0.06718  0.12801  0.51408  1.0000
  H   H391      1.0  0.08109  0.24857  0.61889  1.0000
  C   C228      1.0  0.12376  0.40378  0.56208  1.0000
  N   N13       1.0  0.01713  0.36329  0.43679  1.0000
  H   H392      1.0  0.04194  0.34481  0.44226  1.0000
  N   N14       1.0  0.03860  0.00446  0.37165  1.0000
  C   C229      1.0  0.02246  0.39736  0.42315  1.0000
  C   C230      1.0  0.01619  0.35826  0.41710  1.0000
  H   H393      1.0  0.01255  0.36867  0.62442  1.0000
  C   C231      1.0  0.03348  0.41391  0.42560  1.0000
  H   H394      1.0  0.03694  0.12626  0.51909  1.0000
  H   H395      1.0  0.04330  0.37647  0.43427  1.0000
  H   H396      1.0  0.11563  0.18296  0.49970  1.0000
  C   C232      1.0  0.03275  0.35210  0.38513  1.0000
  H   H397      1.0  0.22365  0.14928  0.49425  1.0000
  H   H398      1.0  0.05175  0.32911  0.47290  1.0000
  H   H399      1.0  0.02566  0.39396  0.40843  1.0000
  H   H400      1.0  0.07215  0.43363  0.32317  1.0000
  H   H401      1.0  0.00687  0.33832  0.56983  1.0000
  H   H402      1.0  0.00888  0.34535  0.41728  1.0000
  C   C233      1.0  0.03537  0.00929  0.39172  1.0000
  C   C234      1.0  0.03531  0.35415  0.40562  1.0000
  H   H403      1.0  0.19455  0.12273  0.51214  1.0000
  C   C235      1.0  0.07561  0.16191  0.58453  1.0000
  C   C236      1.0  0.06204  0.27229  0.61153  1.0000
  H   H404      1.0  0.19501  0.15387  0.53271  1.0000
  C   C237      1.0  0.22427  0.09206  0.36547  1.0000
  N   N15       1.0  0.05466  0.24353  0.63510  1.0000
  H   H405      1.0  0.19191  0.38339  0.60299  1.0000
  H   H406      1.0  0.03001  0.26349  0.63753  1.0000
  H   H407      1.0  0.03635  0.39444  0.64025  1.0000
  H   H408      1.0  0.99319  0.03610  0.50810  1.0000
  H   H409      1.0  0.00561  0.45745  0.41715  1.0000
  H   H410      1.0  0.12386  0.39784  0.61907  1.0000
  H   H411      1.0  0.16564  0.19771  0.33602  1.0000
  H   H412      1.0  0.01024  0.01410  0.36590  1.0000
  H   H413      1.0  0.03112  0.25002  0.61810  1.0000
  H   H414      1.0  0.19762  0.18674  0.39145  1.0000
  C   C238      1.0  0.18018  0.22182  0.32644  1.0000
  C   C239      1.0  0.99071  0.99181  0.63591  1.0000
  H   H415      1.0  0.18361  0.19382  0.62465  1.0000
  H   H416      1.0  0.21490  0.19126  0.35958  1.0000
  H   H417      1.0  0.02613  0.01417  0.34571  1.0000
  Fe  Fe27      1.0  0.08200  0.33675  0.64593  1.0000
  H   H418      1.0  0.05387  0.21626  0.33672  1.0000
  C   C240      1.0  0.23532  0.12318  0.53202  1.0000
  H   H419      1.0  0.09478  0.00218  0.34713  1.0000
  H   H420      1.0  0.16029  0.13389  0.31890  1.0000
  H   H421      1.0  0.98986  0.37908  0.43649  1.0000
  H   H422      1.0  0.00606  0.27707  0.38560  1.0000
  H   H423      1.0  0.01580  0.04640  0.33325  1.0000
  H   H424      1.0  0.00827  0.27563  0.35172  1.0000
  C   C241      1.0  0.04070  0.00190  0.42611  1.0000
  H   H425      1.0  0.00213  0.11287  0.50687  1.0000
  H   H426      1.0  0.99378  0.25246  0.33737  1.0000
  H   H427      1.0  0.98954  0.35941  0.52943  1.0000
  H   H428      1.0  0.22163  0.18343  0.54430  1.0000
  H   H429      1.0  0.06280  0.25657  0.32117  1.0000
  H   H430      1.0  0.01526  0.42408  0.63765  1.0000
  C   C242      1.0  0.00284  0.99113  0.50044  1.0000
  C   C243      1.0  0.06471  0.00495  0.34395  1.0000
  H   H431      1.0  0.22028  0.15528  0.63415  1.0000
  H   H432      1.0  0.08836  0.20872  0.33212  1.0000
  C   C244      1.0  0.02113  0.23613  0.33011  1.0000
  H   H433      1.0  0.14724  0.14051  0.34045  1.0000
  C   C245      1.0  0.00197  0.04663  0.50144  1.0000
  H   H434      1.0  0.00807  0.33426  0.63563  1.0000
  C   C246      1.0  0.08456  0.01069  0.33841  1.0000
  C   C247      1.0  0.23130  0.16633  0.32318  1.0000
  H   H435      1.0  0.06491  0.98996  0.34149  1.0000
  H   H436      1.0  0.04111  0.99581  0.52312  1.0000
  C   C248      1.0  0.02217  0.41945  0.65066  1.0000
  C   C249      1.0  0.99093  0.41259  0.46492  1.0000
  H   H437      1.0  0.08872  0.00838  0.32350  1.0000
  C   C250      1.0  0.06307  0.22790  0.33378  1.0000
  C   C251      1.0  0.17519  0.22919  0.63861  1.0000
  C   C252      1.0  0.99737  0.36779  0.44536  1.0000
  H   H438      1.0  0.21931  0.09006  0.54543  1.0000
  H   H439      1.0  0.19279  0.07131  0.55559  1.0000
  C   C253      1.0  0.04597  0.99598  0.40633  1.0000
  H   H440      1.0  0.10991  0.47881  0.52015  1.0000
  H   H441      1.0  0.16776  0.22750  0.62618  1.0000
  H   H442      1.0  0.01173  0.98773  0.54656  1.0000
  C   C254      1.0  0.19287  0.19708  0.63521  1.0000
  H   H443      1.0  0.99734  0.33677  0.53909  1.0000
  H   H444      1.0  0.23436  0.18871  0.62266  1.0000
  H   H445      1.0  0.16555  0.23770  0.64818  1.0000
  C   C255      1.0  0.08130  0.19320  0.64103  1.0000
  H   H446      1.0  0.09112  0.23159  0.32012  1.0000
  H   H447      1.0  0.02936  0.29582  0.64982  1.0000
  H   H448      1.0  0.10155  0.37671  0.32004  1.0000
  C   C256      1.0  0.01965  0.23589  0.64334  1.0000
  C   C257      1.0  0.99247  0.00721  0.58131  1.0000
  H   H449      1.0  0.13863  0.37887  0.64598  1.0000
  H   H450      1.0  0.00505  0.98972  0.62867  1.0000
  C   C258      1.0  0.08139  0.22039  0.32328  1.0000
  H   H451      1.0  0.20345  0.20590  0.62743  1.0000
  H   H452      1.0  0.18774  0.23688  0.63404  1.0000
  C   C259      1.0  0.00234  0.05156  0.48217  1.0000
  H   H453      1.0  0.22277  0.18517  0.39171  1.0000
  C   C260      1.0  0.98963  0.99129  0.40963  1.0000
  H   H454      1.0  0.03568  0.28087  0.31904  1.0000
  C   C261      1.0  0.99967  0.29658  0.64663  1.0000
  H   H455      1.0  0.99179  0.00294  0.50240  1.0000
  H   H456      1.0  0.99103  0.33932  0.45752  1.0000
  H   H457      1.0  0.99732  0.10655  0.48439  1.0000
  H   H458      1.0  0.98926  0.21872  0.34654  1.0000
  C   C262      1.0  0.99995  0.24184  0.32790  1.0000
  H   H459      1.0  0.12144  0.36216  0.64648  1.0000
  H   H460      1.0  0.98904  0.44031  0.42433  1.0000
  C   C263      1.0  0.11944  0.23851  0.65038  1.0000
  H   H461      1.0  0.23856  0.10859  0.52801  1.0000
  H   H462      1.0  0.23848  0.12235  0.54692  1.0000
  H   H463      1.0  0.05739  0.26764  0.65003  1.0000
  C   C264      1.0  0.08079  0.48594  0.47730  1.0000
  H   H464      1.0  0.05036  0.21585  0.64915  1.0000
  C   C265      1.0  0.99191  0.99116  0.46799  1.0000
  H   H465      1.0  0.05248  0.42185  0.31780  1.0000
  Fe  Fe28      1.0  0.17543  0.37251  0.82403  1.0000
  S   S55       1.0  0.14463  0.36764  0.82703  1.0000
  S   S56       1.0  0.19706  0.34818  0.83171  1.0000
  Fe  Fe29      1.0  0.16775  0.41315  0.80827  1.0000
  S   S57       1.0  0.13673  0.41106  0.80977  1.0000
  S   S58       1.0  0.18195  0.43970  0.79781  1.0000
  Fe  Fe30      1.0  0.14013  0.39596  0.83838  1.0000
  S   S59       1.0  0.12081  0.40748  0.86251  1.0000
  Fe  Fe31      1.0  0.14354  0.38289  0.79795  1.0000
  S   S60       1.0  0.12438  0.37458  0.77643  1.0000
  S   S61       1.0  0.17092  0.39964  0.83736  1.0000
  S   S62       1.0  0.17466  0.38612  0.79443  1.0000
  Fe  Fe32      1.0  0.08565  0.38884  0.97003  1.0000
  S   S63       1.0  0.05643  0.40339  0.96987  1.0000
  S   S64       1.0  0.10076  0.37274  0.94630  1.0000
  Fe  Fe33      1.0  0.10002  0.32255  0.68275  1.0000
  S   S65       1.0  0.08856  0.29412  0.68328  1.0000
  S   S66       1.0  0.12075  0.33038  0.70296  1.0000
  C   C266      1.0  0.16294  0.43680  0.87361  1.0000
  Fe  Fe34      1.0  0.06162  0.31053  0.67498  1.0000
  S   S67       1.0  0.03196  0.30572  0.68781  1.0000
  H   H466      1.0  0.15307  0.40216  0.88552  1.0000
  H   H467      1.0  0.18329  0.33586  0.89083  1.0000
  S   S68       1.0  0.07252  0.33859  0.67647  1.0000
  H   H468      1.0  0.18275  0.42778  0.89375  1.0000
  C   C267      1.0  0.01268  0.30345  0.67483  1.0000
  H   H469      1.0  0.05500  0.24828  0.70032  1.0000
  C   C268      1.0  0.15684  0.39661  0.92267  1.0000
  H   H470      1.0  0.11171  0.43785  0.94005  1.0000
  H   H471      1.0  0.16648  0.14638  0.68139  1.0000
  C   C269      1.0  0.21536  0.18401  0.65786  1.0000
  C   C270      1.0  0.17697  0.13802  0.67246  1.0000
  H   H472      1.0  0.22940  0.15528  0.66414  1.0000
  C   C271      1.0  0.15464  0.38239  0.94033  1.0000
  H   H473      1.0  0.00838  0.47454  0.95134  1.0000
  C   C272      1.0  0.00439  0.38705  0.97903  1.0000
  C   C273      1.0  0.12387  0.36275  0.75557  1.0000
  C   C274      1.0  0.14012  0.35499  0.74566  1.0000
  C   C275      1.0  0.13883  0.34533  0.72966  1.0000
  C   C276      1.0  0.12135  0.34322  0.72314  1.0000
  C   C277      1.0  0.10512  0.35103  0.73303  1.0000
  C   C278      1.0  0.10640  0.36066  0.74903  1.0000
  H   H474      1.0  0.15369  0.35639  0.75032  1.0000
  H   H475      1.0  0.15154  0.33941  0.72227  1.0000
  H   H476      1.0  0.09154  0.34961  0.72837  1.0000
  H   H477      1.0  0.09368  0.36655  0.75644  1.0000
  C   C279      1.0  0.10565  0.38254  0.92294  1.0000
  C   C280      1.0  0.11457  0.37094  0.90948  1.0000
  C   C281      1.0  0.11929  0.37830  0.89090  1.0000
  C   C282      1.0  0.11502  0.39735  0.88560  1.0000
  C   C283      1.0  0.10597  0.40893  0.89903  1.0000
  C   C284      1.0  0.10134  0.40159  0.91762  1.0000
  H   H478      1.0  0.11786  0.35617  0.91348  1.0000
  H   H479      1.0  0.12609  0.36921  0.88068  1.0000
  H   H480      1.0  0.10253  0.42367  0.89503  1.0000
  H   H481      1.0  0.09439  0.41063  0.92782  1.0000
  H   H482      1.0  0.22098  0.19778  0.65321  1.0000
  C   C285      1.0  0.17732  0.45984  0.81050  1.0000
  C   C286      1.0  0.16408  0.46026  0.82609  1.0000
  C   C287      1.0  0.03194  0.35807  0.70340  1.0000
  H   H483      1.0  0.15645  0.44813  0.83059  1.0000
  C   C288      1.0  0.99426  0.30658  0.68327  1.0000
  H   H484      1.0  0.17589  0.36051  0.91323  1.0000
  H   H485      1.0  0.21201  0.37767  0.84954  1.0000
  S   S69       1.0  0.11034  0.32257  0.65188  1.0000
  C   C289      1.0  0.06105  0.25383  0.68631  1.0000
  C   C290      1.0  0.10138  0.45032  0.93836  1.0000
  C   C291      1.0  0.14313  0.39165  0.95651  1.0000
  S   S70       1.0  0.05867  0.45612  0.97671  1.0000
  C   C292      1.0  0.17226  0.34377  0.88269  1.0000
  C   C293      1.0  0.16051  0.47648  0.83580  1.0000
  C   C294      1.0  0.22564  0.38977  0.90560  1.0000
  H   H486      1.0  0.20356  0.14025  0.65660  1.0000
  C   C295      1.0  0.23010  0.33265  0.84550  1.0000
  H   H487      1.0  0.12771  0.21120  0.66396  1.0000
  C   C296      1.0  0.00871  0.43956  0.96793  1.0000
  C   C297      1.0  0.00098  0.43514  0.94968  1.0000
  H   H488      1.0  0.11328  0.46426  0.95864  1.0000
  H   H489      1.0  0.01286  0.42401  0.66295  1.0000
  H   H490      1.0  0.05785  0.26930  0.68501  1.0000
  H   H491      1.0  0.20779  0.37072  0.89725  1.0000
  H   H492      1.0  0.02074  0.41057  0.94511  1.0000
  H   H493      1.0  0.22638  0.43535  0.84728  1.0000
  H   H494      1.0  0.08417  0.48269  0.95472  1.0000
  H   H495      1.0  0.01419  0.38001  0.69018  1.0000
  C   C298      1.0  0.18694  0.47585  0.80474  1.0000
  H   H496      1.0  0.22953  0.38314  0.77246  1.0000
  H   H497      1.0  0.19241  0.38263  0.92584  1.0000
  H   H498      1.0  0.99653  0.44817  0.94109  1.0000
  H   H499      1.0  0.20171  0.43678  0.84438  1.0000
  H   H500      1.0  0.02136  0.44734  0.96395  1.0000
  H   H501      1.0  0.01429  0.42590  0.97490  1.0000
  C   C299      1.0  0.11034  0.38890  0.65484  1.0000
  N   N16       1.0  0.17095  0.39062  0.90685  1.0000
  H   H502      1.0  0.20606  0.39383  0.88471  1.0000
  H   H503      1.0  0.23181  0.37560  0.81482  1.0000
  H   H504      1.0  0.23064  0.42713  0.75113  1.0000
  H   H505      1.0  0.19722  0.47566  0.79271  1.0000
  H   H506      1.0  0.15312  0.36810  0.90664  1.0000
  H   H507      1.0  0.17219  0.43242  0.86127  1.0000
  H   H508      1.0  0.00414  0.35793  0.69538  1.0000
  C   C300      1.0  0.19031  0.39180  0.91274  1.0000
  H   H509      1.0  0.16835  0.37667  0.94524  1.0000
  H   H510      1.0  0.11559  0.24488  0.66336  1.0000
  C   C301      1.0  0.22162  0.36515  0.85079  1.0000
  H   H511      1.0  0.01812  0.38732  0.97144  1.0000
  H   H512      1.0  0.02662  0.36172  0.71771  1.0000
  H   H513      1.0  0.05469  0.22979  0.67380  1.0000
  H   H514      1.0  0.15826  0.33949  0.88848  1.0000
  H   H515      1.0  0.02830  0.43233  0.93349  1.0000
  H   H516      1.0  0.15015  0.47665  0.84777  1.0000
  H   H517      1.0  0.09824  0.45245  0.92348  1.0000
  H   H518      1.0  0.22621  0.40503  0.90644  1.0000
  H   H519      1.0  0.15841  0.43011  0.90305  1.0000
  C   C302      1.0  0.09509  0.48520  0.94286  1.0000
  N   N17       1.0  0.01109  0.36685  0.65478  1.0000
  C   C303      1.0  0.21913  0.42110  0.82400  1.0000
  H   H520      1.0  0.04500  0.36505  0.69910  1.0000
  C   C304      1.0  0.16812  0.37071  0.90343  1.0000
  H   H521      1.0  0.99890  0.39281  0.66580  1.0000
  H   H522      1.0  0.03711  0.24973  0.67263  1.0000
  H   H523      1.0  0.17481  0.34011  0.86799  1.0000
  H   H524      1.0  0.18199  0.12507  0.68093  1.0000
  C   C305      1.0  0.19358  0.14926  0.66520  1.0000
  H   H525      1.0  0.18700  0.36850  0.87710  1.0000
  H   H526      1.0  0.14020  0.38091  0.96836  1.0000
  H   H527      1.0  0.14258  0.39974  0.91764  1.0000
  H   H528      1.0  0.15831  0.48556  0.77813  1.0000
  N   N18       1.0  0.12467  0.31397  0.79980  1.0000
  C   C306      1.0  0.12522  0.29950  0.78591  1.0000
  C   C307      1.0  0.12411  0.30421  0.81937  1.0000
  C   C308      1.0  0.10649  0.32641  0.79835  1.0000
  C   C309      1.0  0.14092  0.32607  0.79611  1.0000
  C   C310      1.0  0.15994  0.31705  0.78742  1.0000
  C   C311      1.0  0.12213  0.30749  0.76552  1.0000
  C   C312      1.0  0.10191  0.34107  0.81294  1.0000
  C   C313      1.0  0.14121  0.29030  0.82401  1.0000
  C   C314      1.0  0.13776  0.27988  0.84343  1.0000
  C   C315      1.0  0.17554  0.32996  0.78768  1.0000
  C   C316      1.0  0.12834  0.29300  0.75152  1.0000
  C   C317      1.0  0.08495  0.35465  0.80820  1.0000
  H   H529      1.0  0.11419  0.28970  0.79037  1.0000
  H   H530      1.0  0.13864  0.29046  0.78555  1.0000
  H   H531      1.0  0.12326  0.31461  0.82991  1.0000
  H   H532      1.0  0.11119  0.29664  0.82241  1.0000
  H   H533      1.0  0.09436  0.31773  0.79937  1.0000
  H   H534      1.0  0.10657  0.33461  0.78439  1.0000
  H   H535      1.0  0.13738  0.33846  0.78628  1.0000
  H   H536      1.0  0.14349  0.33201  0.80921  1.0000
  H   H537      1.0  0.15894  0.31472  0.77258  1.0000
  H   H538      1.0  0.16434  0.30337  0.79483  1.0000
  H   H539      1.0  0.10699  0.31185  0.76428  1.0000
  H   H540      1.0  0.12996  0.31994  0.76137  1.0000
  H   H541      1.0  0.11396  0.34941  0.81341  1.0000
  H   H542      1.0  0.09832  0.33411  0.82712  1.0000
  H   H543      1.0  0.14431  0.27959  0.81384  1.0000
  H   H544      1.0  0.15374  0.29808  0.82432  1.0000
  H   H545      1.0  0.12559  0.27140  0.84400  1.0000
  H   H546      1.0  0.15035  0.27027  0.84660  1.0000
  H   H547      1.0  0.13507  0.28994  0.85434  1.0000
  H   H548      1.0  0.18888  0.32359  0.78089  1.0000
  H   H549      1.0  0.17192  0.34382  0.77998  1.0000
  H   H550      1.0  0.17777  0.33210  0.80232  1.0000
  H   H551      1.0  0.12057  0.28033  0.75504  1.0000
  H   H552      1.0  0.12536  0.29913  0.73723  1.0000
  H   H553      1.0  0.14367  0.28895  0.75139  1.0000
  H   H554      1.0  0.08206  0.36498  0.81883  1.0000
  H   H555      1.0  0.08774  0.36252  0.79428  1.0000
  H   H556      1.0  0.07231  0.34697  0.80813  1.0000
  C   C318      1.0  0.17295  0.36487  0.88319  1.0000
  C   C319      1.0  0.21495  0.42739  0.84373  1.0000
  H   H557      1.0  0.14814  0.43531  0.87124  1.0000
  H   H558      1.0  0.17714  0.40024  0.87750  1.0000
  H   H559      1.0  0.14712  0.37042  0.93737  1.0000
  H   H560      1.0  0.15089  0.40249  0.96149  1.0000
  S   S71       1.0  0.09778  0.41264  0.98109  1.0000
  C   C320      1.0  0.22463  0.35665  0.78751  1.0000
  H   H561      1.0  0.08834  0.44739  0.94733  1.0000
  C   C321      1.0  0.18711  0.16778  0.65391  1.0000
  H   H562      1.0  0.13963  0.47975  0.98114  1.0000
  H   H563      1.0  0.22537  0.41868  0.78513  1.0000
  C   C322      1.0  0.10948  0.46755  0.94404  1.0000
  H   H564      1.0  0.08762  0.48512  0.93007  1.0000
  H   H565      1.0  0.09570  0.38702  0.65222  1.0000
  H   H566      1.0  0.02482  0.34348  0.67099  1.0000
  H   H567      1.0  0.01012  0.42113  0.92458  1.0000
  H   H568      1.0  0.16765  0.20388  0.65432  1.0000
  H   H569      1.0  0.23346  0.10014  0.66436  1.0000
  H   H570      1.0  0.12949  0.39828  0.95203  1.0000
  H   H571      1.0  0.18854  0.21243  0.66072  1.0000
  C   C323      1.0  0.20707  0.38600  0.89866  1.0000
  C   C324      1.0  0.23288  0.16998  0.66131  1.0000
  H   H572      1.0  0.07651  0.25034  0.68535  1.0000
  H   H573      1.0  0.11909  0.47153  0.78049  1.0000
  H   H574      1.0  0.16436  0.45184  0.87490  1.0000
  H   H575      1.0  0.20730  0.18602  0.67166  1.0000
  C   C325      1.0  0.16726  0.40382  0.88969  1.0000
  H   H576      1.0  0.11278  0.40397  0.65208  1.0000
  C   C326      1.0  0.21743  0.34882  0.84369  1.0000
  H   H577      1.0  0.20758  0.41293  0.82138  1.0000
  C   C327      1.0  0.16829  0.42501  0.89145  1.0000
  H   H578      1.0  0.19185  0.40618  0.91642  1.0000
  Fe  Fe35      1.0  0.09709  0.29533  0.65215  1.0000
  H   H579      1.0  0.17009  0.13382  0.66062  1.0000
  H   H580      1.0  0.22709  0.34916  0.77462  1.0000
  H   H581      1.0  0.22698  0.31991  0.84013  1.0000
  H   H582      1.0  0.16249  0.37206  0.87390  1.0000
  C   C328      1.0  0.01599  0.42412  0.93752  1.0000
  H   H583      1.0  0.13677  0.47031  0.76071  1.0000
  Fe  Fe36      1.0  0.06815  0.42574  0.98347  1.0000
  C   C329      1.0  0.01709  0.36463  0.68985  1.0000
  C   C330      1.0  0.00840  0.38800  0.65370  1.0000
  H   H584      1.0  0.16039  0.40987  0.92760  1.0000
  H   H585      1.0  0.23307  0.17350  0.69099  1.0000
  H   H586      1.0  0.14112  0.45762  0.78293  1.0000
  C   C331      1.0  0.99221  0.35923  0.65950  1.0000
  H   H587      1.0  0.21886  0.43398  0.81414  1.0000
  C   C332      1.0  0.02364  0.35904  0.66980  1.0000
  C   C333      1.0  0.05235  0.24524  0.67107  1.0000
  H   H588      1.0  0.20029  0.15231  0.67763  1.0000
  H   H589      1.0  0.21328  0.41509  0.85416  1.0000
  H   H590      1.0  0.99788  0.25720  0.65252  1.0000
  H   H591      1.0  0.17805  0.17588  0.66422  1.0000
  H   H592      1.0  0.03518  0.34261  0.70392  1.0000
  H   H593      1.0  0.21620  0.39135  0.80254  1.0000
  H   H594      1.0  0.03826  0.36281  0.66589  1.0000
  C   C334      1.0  0.13439  0.47081  0.77612  1.0000
  C   C335      1.0  0.02662  0.39816  0.65253  1.0000
  H   H595      1.0  0.22985  0.34710  0.79934  1.0000
  H   H596      1.0  0.07308  0.18799  0.65406  1.0000
  H   H597      1.0  0.23757  0.38476  0.89579  1.0000
  H   H598      1.0  0.02249  0.23146  0.65800  1.0000
  H   H599      1.0  0.99207  0.31036  0.69754  1.0000
  H   H600      1.0  0.22742  0.38217  0.91960  1.0000
  C   C336      1.0  0.23489  0.37448  0.78476  1.0000
  H   H601      1.0  0.12261  0.46947  0.93498  1.0000
  N   N19       1.0  0.99488  0.44986  0.98138  1.0000
  H   H602      1.0  0.03410  0.39448  0.66532  1.0000
  C   C337      1.0  0.01530  0.29838  0.65645  1.0000
  H   H603      1.0  0.99386  0.34372  0.66274  1.0000
  C   C338      1.0  0.23118  0.38570  0.80220  1.0000
  H   H604      1.0  0.11208  0.38444  0.66983  1.0000
  H   H605      1.0  0.20929  0.36009  0.79043  1.0000
  H   H606      1.0  0.98952  0.39183  0.95418  1.0000
  C   C339      1.0  0.99655  0.48112  0.96021  1.0000
  H   H607      1.0  0.99170  0.99181  0.65118  1.0000
  C   C340      1.0  0.23845  0.40938  0.82180  1.0000
  H   H608      1.0  0.23830  0.39810  0.83349  1.0000
  H   H609      1.0  0.98872  0.42681  0.95290  1.0000
  H   H610      1.0  0.07652  0.25042  0.65121  1.0000
  H   H611      1.0  0.08476  0.21967  0.65078  1.0000
  C   C341      1.0  0.06095  0.25220  0.65137  1.0000
  Fe  Fe37      1.0  0.08725  0.64796  0.30674  1.0000
  C   C342      1.0  0.16639  0.49933  0.17170  1.0000
  S   S72       1.0  0.09236  0.63937  0.27627  1.0000
  H   H612      1.0  0.05941  0.54187  0.09883  1.0000
  H   H613      1.0  0.14881  0.66725  0.20023  1.0000
  C   C343      1.0  0.17356  0.71550  0.25415  1.0000
  H   H614      1.0  0.03844  0.53783  0.05142  1.0000
  H   H615      1.0  0.00719  0.54701  0.03017  1.0000
  C   C344      1.0  0.13224  0.49282  0.98625  1.0000
  Fe  Fe38      1.0  0.14730  0.57957  0.15036  1.0000
  S   S73       1.0  0.17349  0.56095  0.14382  1.0000
  S   S74       1.0  0.12315  0.58134  0.13172  1.0000
  Fe  Fe39      1.0  0.15918  0.58823  0.18830  1.0000
  S   S75       1.0  0.18659  0.56986  0.18365  1.0000
  S   S76       1.0  0.15444  0.60124  0.21698  1.0000
  Fe  Fe40      1.0  0.18905  0.58323  0.15392  1.0000
  S   S77       1.0  0.21695  0.58668  0.13528  1.0000
  Fe  Fe41      1.0  0.16939  0.54897  0.17359  1.0000
  S   S78       1.0  0.17448  0.51762  0.18270  1.0000
  S   S79       1.0  0.16270  0.60295  0.15876  1.0000
  S   S80       1.0  0.14210  0.56627  0.17997  1.0000
  Fe  Fe42      1.0  0.10768  0.57114  0.02604  1.0000
  S   S81       1.0  0.08214  0.55706  0.03753  1.0000
  S   S82       1.0  0.12470  0.58724  0.04302  1.0000
  C   C345      1.0  0.11539  0.69556  0.28284  1.0000
  C   C346      1.0  0.11349  0.50915  0.07608  1.0000
  H   H616      1.0  0.21662  0.59644  0.07139  1.0000
  H   H617      1.0  0.17998  0.64084  0.10022  1.0000
  S   S83       1.0  0.11973  0.54690  0.01007  1.0000
  C   C347      1.0  0.12612  0.58148  0.10705  1.0000
  C   C348      1.0  0.11982  0.56699  0.09824  1.0000
  C   C349      1.0  0.11956  0.56830  0.07859  1.0000
  C   C350      1.0  0.12520  0.58434  0.06766  1.0000
  C   C351      1.0  0.13138  0.59879  0.07651  1.0000
  C   C352      1.0  0.13176  0.59742  0.09606  1.0000
  H   H618      1.0  0.11488  0.55485  0.10668  1.0000
  H   H619      1.0  0.11474  0.55707  0.07194  1.0000
  H   H620      1.0  0.13551  0.61134  0.06820  1.0000
  H   H621      1.0  0.13579  0.60900  0.10277  1.0000
  C   C353      1.0  0.21984  0.56599  0.07291  1.0000
  C   C354      1.0  0.02346  0.52028  0.03602  1.0000
  C   C355      1.0  0.19022  0.59997  0.04441  1.0000
  H   H622      1.0  0.21403  0.58500  0.09418  1.0000
  H   H623      1.0  0.15863  0.51645  0.14698  1.0000
  C   C356      1.0  0.06311  0.55146  0.08624  1.0000
  H   H624      1.0  0.13425  0.68387  0.22734  1.0000
  H   H625      1.0  0.17166  0.72985  0.24691  1.0000
  Fe  Fe43      1.0  0.09287  0.53415  0.01953  1.0000
  C   C357      1.0  0.17431  0.55471  0.08659  1.0000
  C   C358      1.0  0.00497  0.53331  0.03841  1.0000
  C   C359      1.0  0.10900  0.62670  0.26062  1.0000
  C   C360      1.0  0.12630  0.61817  0.26590  1.0000
  C   C361      1.0  0.13978  0.61025  0.25247  1.0000
  C   C362      1.0  0.13604  0.60998  0.23364  1.0000
  C   C363      1.0  0.11841  0.61777  0.22856  1.0000
  C   C364      1.0  0.10514  0.62621  0.24186  1.0000
  H   H626      1.0  0.12947  0.61799  0.28026  1.0000
  H   H627      1.0  0.15326  0.60421  0.25671  1.0000
  H   H628      1.0  0.11521  0.61782  0.21421  1.0000
  H   H629      1.0  0.09186  0.63265  0.23748  1.0000
  C   C365      1.0  0.15683  0.63636  0.30564  1.0000
  C   C366      1.0  0.01300  0.61550  0.07430  1.0000
  N   N20       1.0  0.14126  0.67416  0.26571  1.0000
  H   H630      1.0  0.14423  0.71543  0.26283  1.0000
  C   C367      1.0  0.15797  0.64665  0.28599  1.0000
  C   C368      1.0  0.18284  0.58570  0.06035  1.0000
  H   H631      1.0  0.15564  0.54716  0.11144  1.0000
  H   H632      1.0  0.15900  0.63575  0.27600  1.0000
  C   C369      1.0  0.14443  0.66247  0.24920  1.0000
  H   H633      1.0  0.11021  0.68532  0.29428  1.0000
  H   H634      1.0  0.17062  0.67888  0.26058  1.0000
  H   H635      1.0  0.09408  0.71691  0.29229  1.0000
  H   H636      1.0  0.07680  0.54589  0.07941  1.0000
  C   C370      1.0  0.00142  0.58903  0.02034  1.0000
  H   H637      1.0  0.15128  0.70598  0.24102  1.0000
  H   H638      1.0  0.16309  0.52832  0.09700  1.0000
  S   S84       1.0  0.09410  0.58644  0.00128  1.0000
  C   C371      1.0  0.03886  0.63916  0.27508  1.0000
  C   C372      1.0  0.01851  0.58277  0.01071  1.0000
  C   C373      1.0  0.12232  0.68525  0.26516  1.0000
  H   H639      1.0  0.18911  0.56854  0.10538  1.0000
  S   S85       1.0  0.07797  0.54652  0.99468  1.0000
  H   H640      1.0  0.17107  0.65383  0.28393  1.0000
  H   H641      1.0  0.99028  0.62087  0.30519  1.0000
  H   H642      1.0  0.05029  0.49431  0.98495  1.0000
  H   H643      1.0  0.16723  0.58744  0.06096  1.0000
  C   C374      1.0  0.09918  0.71046  0.27912  1.0000
  H   H644      1.0  0.15956  0.67979  0.22716  1.0000
  H   H645      1.0  0.10387  0.72166  0.26845  1.0000
  H   H646      1.0  0.06338  0.51303  0.00663  1.0000
  H   H647      1.0  0.11135  0.67580  0.26334  1.0000
  H   H648      1.0  0.16046  0.62840  0.11135  1.0000
  C   C375      1.0  0.15963  0.50242  0.15401  1.0000
  H   H649      1.0  0.08735  0.70402  0.27423  1.0000
  H   H650      1.0  0.18927  0.61738  0.07559  1.0000
  H   H651      1.0  0.02319  0.50825  0.04699  1.0000
  C   C376      1.0  0.16772  0.54070  0.10269  1.0000
  H   H652      1.0  0.15757  0.65301  0.24980  1.0000
  C   C377      1.0  0.15521  0.70621  0.25541  1.0000
  H   H653      1.0  0.16667  0.57920  0.10090  1.0000
  H   H654      1.0  0.15799  0.64812  0.21583  1.0000
  Fe  Fe44      1.0  0.06885  0.57070  0.01204  1.0000
  H   H655      1.0  0.16705  0.60944  0.08382  1.0000
  H   H656      1.0  0.17963  0.63188  0.12450  1.0000
  H   H657      1.0  0.02568  0.51461  0.02217  1.0000
  H   H658      1.0  0.08162  0.64139  0.02989  1.0000
  C   C378      1.0  0.18621  0.61052  0.10511  1.0000
  H   H659      1.0  0.13843  0.66875  0.29597  1.0000
  H   H660      1.0  0.18181  0.59937  0.11593  1.0000
  H   H661      1.0  0.98992  0.66853  0.28479  1.0000
  H   H662      1.0  0.19515  0.49981  0.13128  1.0000
  C   C379      1.0  0.14651  0.65958  0.21430  1.0000
  C   C380      1.0  0.14616  0.67310  0.22945  1.0000
  H   H663      1.0  0.04275  0.54136  0.02621  1.0000
  H   H664      1.0  0.20577  0.59922  0.04307  1.0000
  S   S86       1.0  0.09328  0.50389  0.03109  1.0000
  C   C381      1.0  0.18235  0.60650  0.08515  1.0000
  H   H665      1.0  0.05209  0.55176  0.07645  1.0000
  H   H666      1.0  0.18697  0.57159  0.05556  1.0000
  C   C382      1.0  0.18402  0.59603  0.02561  1.0000
  H   H667      1.0  0.18989  0.58187  0.02187  1.0000
  H   H668      1.0  0.02452  0.56714  0.27627  1.0000
  N   N21       1.0  0.06728  0.60553  0.07844  1.0000
  C   C383      1.0  0.06956  0.58509  0.07484  1.0000
  C   C384      1.0  0.07687  0.61674  0.06200  1.0000
  C   C385      1.0  0.07751  0.60745  0.09539  1.0000
  C   C386      1.0  0.04695  0.61303  0.08218  1.0000
  C   C387      1.0  0.03217  0.60427  0.07222  1.0000
  C   C388      1.0  0.06450  0.57109  0.09202  1.0000
  C   C389      1.0  0.07946  0.62773  0.09996  1.0000
  C   C390      1.0  0.06964  0.61588  0.04263  1.0000
  C   C391      1.0  0.08176  0.62644  0.02723  1.0000
  H   H669      1.0  0.01380  0.62996  0.06741  1.0000
  C   C392      1.0  0.08275  0.49043  0.01678  1.0000
  C   C393      1.0  0.08667  0.62782  0.11919  1.0000
  H   H670      1.0  0.08435  0.58099  0.06963  1.0000
  H   H671      1.0  0.06128  0.58245  0.06337  1.0000
  H   H672      1.0  0.07548  0.63189  0.06423  1.0000
  H   H673      1.0  0.09223  0.61229  0.06074  1.0000
  H   H674      1.0  0.09193  0.60022  0.09382  1.0000
  H   H675      1.0  0.07039  0.60031  0.10820  1.0000
  H   H676      1.0  0.04229  0.61106  0.09742  1.0000
  H   H677      1.0  0.04539  0.62849  0.07858  1.0000
  H   H678      1.0  0.03036  0.58975  0.07847  1.0000
  H   H679      1.0  0.03622  0.60352  0.05710  1.0000
  H   H680      1.0  0.07561  0.56983  0.10185  1.0000
  H   H681      1.0  0.05098  0.57588  0.09968  1.0000
  H   H682      1.0  0.06578  0.63637  0.09989  1.0000
  H   H683      1.0  0.08980  0.63444  0.08955  1.0000
  H   H684      1.0  0.06996  0.60127  0.03895  1.0000
  H   H685      1.0  0.05517  0.62279  0.04239  1.0000
  H   H686      1.0  0.07615  0.62585  0.01351  1.0000
  H   H687      1.0  0.00009  0.49768  0.03080  1.0000
  H   H688      1.0  0.09647  0.61992  0.02640  1.0000
  S   S87       1.0  0.07288  0.67693  0.31115  1.0000
  H   H689      1.0  0.05253  0.63052  0.27349  1.0000
  H   H690      1.0  0.03494  0.64464  0.26091  1.0000
  C   C394      1.0  0.14045  0.66080  0.28333  1.0000
  H   H691      1.0  0.18494  0.70729  0.24606  1.0000
  H   H692      1.0  0.16248  0.55826  0.07768  1.0000
  H   H693      1.0  0.10051  0.61948  0.11976  1.0000
  H   H694      1.0  0.08841  0.64244  0.12194  1.0000
  H   H695      1.0  0.07662  0.62186  0.13040  1.0000
  C   C395      1.0  0.15716  0.68633  0.26607  1.0000
  H   H696      1.0  0.12800  0.65258  0.28413  1.0000
  H   H697      1.0  0.15924  0.68866  0.28076  1.0000
  H   H698      1.0  0.12200  0.69570  0.25279  1.0000
  C   C396      1.0  0.02371  0.62729  0.28506  1.0000
  H   H699      1.0  0.20142  0.61174  0.10552  1.0000
  H   H700      1.0  0.00136  0.59370  0.03414  1.0000
  H   H701      1.0  0.02730  0.63374  0.31283  1.0000
  C   C397      1.0  0.17993  0.57284  0.09384  1.0000
  H   H702      1.0  0.13293  0.65328  0.21518  1.0000
  H   H703      1.0  0.17777  0.71665  0.26838  1.0000
  H   H704      1.0  0.01166  0.53228  0.99884  1.0000
  C   C398      1.0  0.03218  0.56293  0.28889  1.0000
  H   H705      1.0  0.05320  0.52071  0.03885  1.0000
  H   H706      1.0  0.13287  0.65324  0.24966  1.0000
  H   H707      1.0  0.12678  0.70235  0.28804  1.0000
  H   H708      1.0  0.09859  0.51393  0.07407  1.0000
  H   H709      1.0  0.20660  0.50664  0.15044  1.0000
  C   C399      1.0  0.01503  0.58994  0.30564  1.0000
  H   H710      1.0  0.12174  0.50955  0.06217  1.0000
  C   C400      1.0  0.23047  0.62134  0.13863  1.0000
  C   C401      1.0  0.17589  0.62908  0.11052  1.0000
  H   H711      1.0  0.21733  0.56462  0.05820  1.0000
  H   H712      1.0  0.01008  0.63596  0.28487  1.0000
  H   H713      1.0  0.18910  0.60660  0.01444  1.0000
  C   C402      1.0  0.23272  0.60463  0.12991  1.0000
  C   C403      1.0  0.21004  0.58453  0.07971  1.0000
  N   N22       1.0  0.18898  0.58705  0.07959  1.0000
  C   C404      1.0  0.99884  0.52489  0.99865  1.0000
  C   C405      1.0  0.03444  0.58006  0.29910  1.0000
  H   H714      1.0  0.04304  0.61509  0.30521  1.0000
  H   H715      1.0  0.01779  0.67049  0.30206  1.0000
  H   H716      1.0  0.18447  0.61450  0.04686  1.0000
  S   S88       1.0  0.03949  0.58317  0.02161  1.0000
  H   H717      1.0  0.02444  0.55251  0.29828  1.0000
  H   H718      1.0  0.04056  0.65124  0.28303  1.0000
  C   C406      1.0  0.04045  0.53073  0.03829  1.0000
  H   H719      1.0  0.11899  0.51903  0.08462  1.0000
  H   H720      1.0  0.21877  0.62373  0.14905  1.0000
  H   H721      1.0  0.02313  0.61532  0.27667  1.0000
  H   H722      1.0  0.21477  0.55385  0.08204  1.0000
  H   H723      1.0  0.16844  0.59687  0.02619  1.0000
  H   H724      1.0  0.16938  0.62617  0.30709  1.0000
  C   C407      1.0  0.20896  0.50113  0.13643  1.0000
  C   C408      1.0  0.06865  0.49859  0.00571  1.0000
  H   H725      1.0  0.17931  0.53581  0.11159  1.0000
  C   C409      1.0  0.06113  0.48796  0.99353  1.0000
  H   H726      1.0  0.98880  0.50131  0.05321  1.0000
  H   H727      1.0  0.00792  0.61616  0.08932  1.0000
  C   C410      1.0  0.02804  0.62078  0.30550  1.0000
  H   H728      1.0  0.04283  0.58957  0.28929  1.0000
  H   H729      1.0  0.18612  0.54750  0.07822  1.0000
  H   H730      1.0  0.00381  0.53636  0.05338  1.0000
  H   H731      1.0  0.00687  0.59353  0.29323  1.0000
  H   H732      1.0  0.00268  0.60863  0.06744  1.0000
  H   H733      1.0  0.04625  0.55616  0.28432  1.0000
  H   H734      1.0  0.00246  0.50955  0.00090  1.0000
  C   C411      1.0  0.00429  0.66855  0.30968  1.0000
  H   H735      1.0  0.14413  0.62851  0.30813  1.0000
  H   H736      1.0  0.12836  0.49024  0.00155  1.0000
  C   C412      1.0  0.01842  0.57706  0.99273  1.0000
  H   H737      1.0  0.23696  0.79778  0.28078  1.0000
  H   H738      1.0  0.21641  0.51142  0.12662  1.0000
  H   H739      1.0  0.06948  0.75600  0.31489  1.0000
  Fe  Fe45      1.0  0.10438  0.56091  0.98592  1.0000
  H   H740      1.0  0.14951  0.48978  0.13147  1.0000
  C   C413      1.0  0.11516  0.48932  0.08602  1.0000
  H   H741      1.0  0.10715  0.48993  0.09996  1.0000
  H   H742      1.0  0.03151  0.57246  0.98506  1.0000
  H   H743      1.0  0.04260  0.57522  0.31122  1.0000
  C   C414      1.0  0.15449  0.48727  0.14525  1.0000
  H   H744      1.0  0.15635  0.64642  0.31645  1.0000
  N   N23       1.0  0.01554  0.60693  0.31618  1.0000
  H   H745      1.0  0.00727  0.57913  0.31450  1.0000
  C   C415      1.0  0.00142  0.57832  0.98424  1.0000
  S   S89       1.0  0.10793  0.64960  0.32795  1.0000
  H   H746      1.0  0.05710  0.48764  0.51356  1.0000
  H   H747      1.0  0.03096  0.89865  0.65000  1.0000
  S   S90       1.0  0.06651  0.63415  0.32806  1.0000
  S   S91       1.0  0.10887  0.59809  0.63094  1.0000
  S   S92       1.0  0.09155  0.65007  0.64081  1.0000
  Fe  Fe46      1.0  0.08606  0.63777  0.34967  1.0000
  S   S93       1.0  0.07239  0.66604  0.35653  1.0000
  S   S94       1.0  0.09079  0.61188  0.37040  1.0000
  Fe  Fe47      1.0  0.08350  0.58427  0.52672  1.0000
  S   S95       1.0  0.07383  0.55548  0.53361  1.0000
  S   S96       1.0  0.08844  0.60613  0.54633  1.0000
  Fe  Fe48      1.0  0.07787  0.58440  0.48459  1.0000
  S   S97       1.0  0.06732  0.55560  0.48818  1.0000
  S   S98       1.0  0.08000  0.60683  0.45968  1.0000
  Fe  Fe49      1.0  0.05137  0.56487  0.51456  1.0000
  S   S99       1.0  0.02297  0.55578  0.52488  1.0000
  Fe  Fe50      1.0  0.09048  0.54755  0.50698  1.0000
  S   S100      1.0  0.10632  0.51846  0.50852  1.0000
  S   S101      1.0  0.05944  0.59423  0.50951  1.0000
  S   S102      1.0  0.10259  0.57573  0.50156  1.0000
  Fe  Fe51      1.0  0.14499  0.78601  0.39382  1.0000
  S   S103      1.0  0.15246  0.81215  0.37547  1.0000
  S   S104      1.0  0.13028  0.75973  0.38962  1.0000
  Fe  Fe52      1.0  0.15273  0.80326  0.43013  1.0000
  S   S105      1.0  0.16039  0.83046  0.41437  1.0000
  S   S106      1.0  0.14593  0.79558  0.46155  1.0000
  Fe  Fe53      1.0  0.13568  0.82813  0.39799  1.0000
  S   S107      1.0  0.11439  0.85337  0.39332  1.0000
  Fe  Fe54      1.0  0.17700  0.81282  0.39297  1.0000
  S   S108      1.0  0.20839  0.81572  0.38223  1.0000
  S   S109      1.0  0.12704  0.80236  0.41505  1.0000
  S   S110      1.0  0.17050  0.78536  0.40998  1.0000
  Fe  Fe55      1.0  0.18326  0.81096  0.60359  1.0000
  S   S111      1.0  0.18340  0.78689  0.58535  1.0000
  S   S112      1.0  0.20852  0.81255  0.62107  1.0000
  Fe  Fe56      1.0  0.14414  0.82742  0.59205  1.0000
  S   S113      1.0  0.14210  0.80504  0.57313  1.0000
  S   S114      1.0  0.12259  0.85280  0.59382  1.0000
  Fe  Fe57      1.0  0.15303  0.78481  0.59660  1.0000
  S   S115      1.0  0.13528  0.75954  0.60266  1.0000
  Fe  Fe58      1.0  0.17219  0.80868  0.56351  1.0000
  S   S116      1.0  0.18450  0.81330  0.53311  1.0000
  S   S117      1.0  0.15341  0.80739  0.61621  1.0000
  S   S118      1.0  0.17380  0.83258  0.58101  1.0000
  Fe  Fe59      1.0  0.00462  0.86789  0.39335  1.0000
  S   S119      1.0  0.00843  0.88313  0.41792  1.0000
  S   S120      1.0  0.02838  0.84641  0.38403  1.0000
  H   H748      1.0  0.10607  0.73523  0.61361  1.0000
  C   C416      1.0  0.00391  0.60736  0.41977  1.0000
  H   H749      1.0  0.99828  0.80106  0.61701  1.0000
  H   H750      1.0  0.99294  0.96432  0.54214  1.0000
  C   C417      1.0  0.00713  0.61139  0.61472  1.0000
  S   S121      1.0  0.01685  0.94576  0.59006  1.0000
  Fe  Fe60      1.0  0.01818  0.87997  0.57136  1.0000
  S   S122      1.0  0.02487  0.90762  0.55653  1.0000
  S   S123      1.0  0.03824  0.85349  0.57335  1.0000
  H   H751      1.0  0.04523  0.86864  0.51824  1.0000
  C   C418      1.0  0.02334  0.60063  0.33472  1.0000
  N   N24       1.0  0.02803  0.61154  0.61544  1.0000
  H   H752      1.0  0.02039  0.95095  0.36642  1.0000
  H   H753      1.0  0.07953  0.82167  0.35756  1.0000
  C   C419      1.0  0.03364  0.84836  0.45655  1.0000
  S   S124      1.0  0.10914  0.70425  0.33175  1.0000
  H   H754      1.0  0.16820  0.73693  0.39137  1.0000
  H   H755      1.0  0.02214  0.95323  0.34120  1.0000
  C   C420      1.0  0.21308  0.91700  0.37427  1.0000
  H   H756      1.0  0.20560  0.84401  0.54563  1.0000
  C   C421      1.0  0.01804  0.98388  0.58906  1.0000
  H   H757      1.0  0.05430  0.93595  0.54184  1.0000
  H   H758      1.0  0.03126  0.83643  0.46736  1.0000
  H   H759      1.0  0.04776  0.97470  0.37445  1.0000
  C   C422      1.0  0.03222  0.86449  0.51342  1.0000
  C   C423      1.0  0.09045  0.82036  0.44940  1.0000
  C   C424      1.0  0.08201  0.78492  0.37389  1.0000
  C   C425      1.0  0.07459  0.83004  0.46176  1.0000
  H   H760      1.0  0.12688  0.75236  0.46817  1.0000
  C   C426      1.0  0.06153  0.85347  0.57947  1.0000
  C   C427      1.0  0.07365  0.83691  0.57884  1.0000
  C   C428      1.0  0.09232  0.83645  0.58336  1.0000
  C   C429      1.0  0.09908  0.85258  0.58848  1.0000
  C   C430      1.0  0.08696  0.86914  0.58912  1.0000
  C   C431      1.0  0.06824  0.86958  0.58474  1.0000
  H   H761      1.0  0.06856  0.82434  0.57494  1.0000
  H   H762      1.0  0.10143  0.82355  0.58310  1.0000
  H   H763      1.0  0.09204  0.88167  0.59313  1.0000
  H   H764      1.0  0.05904  0.88240  0.58538  1.0000
  H   H765      1.0  0.00428  0.91839  0.47274  1.0000
  H   H766      1.0  0.01707  0.58782  0.34149  1.0000
  C   C432      1.0  0.03441  0.51443  0.49359  1.0000
  C   C433      1.0  0.15707  0.80061  0.48115  1.0000
  C   C434      1.0  0.17305  0.81049  0.47923  1.0000
  C   C435      1.0  0.18126  0.81424  0.49528  1.0000
  C   C436      1.0  0.17356  0.80829  0.51338  1.0000
  C   C437      1.0  0.15756  0.79845  0.51528  1.0000
  C   C438      1.0  0.14943  0.79457  0.49925  1.0000
  H   H767      1.0  0.17910  0.81520  0.46541  1.0000
  H   H768      1.0  0.19368  0.82181  0.49364  1.0000
  H   H769      1.0  0.15155  0.79368  0.52910  1.0000
  H   H770      1.0  0.13707  0.78693  0.50091  1.0000
  C   C439      1.0  0.05173  0.84876  0.38859  1.0000
  C   C440      1.0  0.06363  0.83264  0.39333  1.0000
  C   C441      1.0  0.08276  0.83390  0.39526  1.0000
  C   C442      1.0  0.09017  0.85130  0.39240  1.0000
  C   C443      1.0  0.07810  0.86750  0.38842  1.0000
  C   C444      1.0  0.05896  0.86626  0.38655  1.0000
  H   H771      1.0  0.05803  0.81913  0.39547  1.0000
  H   H772      1.0  0.09186  0.82142  0.39870  1.0000
  H   H773      1.0  0.08369  0.88105  0.38632  1.0000
  H   H774      1.0  0.04993  0.87879  0.38295  1.0000
  C   C445      1.0  0.99448  0.62064  0.63064  1.0000
  H   H775      1.0  0.04686  0.78589  0.36154  1.0000
  C   C446      1.0  0.98964  0.97381  0.57957  1.0000
  H   H776      1.0  0.04673  0.66574  0.60771  1.0000
  H   H777      1.0  0.08381  0.51550  0.47767  1.0000
  C   C447      1.0  0.00613  0.56446  0.50959  1.0000
  C   C448      1.0  0.01080  0.57643  0.49365  1.0000
  H   H778      1.0  0.05458  0.90894  0.41236  1.0000
  H   H779      1.0  0.02497  0.58047  0.49067  1.0000
  C   C449      1.0  0.11493  0.71938  0.34821  1.0000
  C   C450      1.0  0.10967  0.71656  0.36745  1.0000
  C   C451      1.0  0.11464  0.72894  0.37982  1.0000
  C   C452      1.0  0.12481  0.74443  0.37320  1.0000
  C   C453      1.0  0.12997  0.74733  0.35396  1.0000
  C   C454      1.0  0.12514  0.73485  0.34161  1.0000
  H   H780      1.0  0.10183  0.70478  0.37282  1.0000
  H   H781      1.0  0.11058  0.72643  0.39465  1.0000
  H   H782      1.0  0.13779  0.75911  0.34858  1.0000
  C   C455      1.0  0.08553  0.61083  0.39511  1.0000
  C   C456      1.0  0.08454  0.59322  0.40547  1.0000
  C   C457      1.0  0.08188  0.59170  0.42523  1.0000
  C   C458      1.0  0.08051  0.60780  0.43486  1.0000
  C   C459      1.0  0.08117  0.62540  0.42447  1.0000
  C   C460      1.0  0.08353  0.62694  0.40473  1.0000
  H   H783      1.0  0.08608  0.58067  0.39815  1.0000
  H   H784      1.0  0.08132  0.57807  0.43298  1.0000
  H   H785      1.0  0.08016  0.63794  0.43176  1.0000
  H   H786      1.0  0.08432  0.64057  0.39699  1.0000
  H   H787      1.0  0.03866  0.59633  0.33247  1.0000
  H   H788      1.0  0.21455  0.91226  0.64619  1.0000
  C   C461      1.0  0.15082  0.72946  0.62572  1.0000
  C   C462      1.0  0.13501  0.73799  0.61732  1.0000
  C   C463      1.0  0.11843  0.72876  0.61994  1.0000
  C   C464      1.0  0.11759  0.71133  0.63078  1.0000
  H   H789      1.0  0.03190  0.98053  0.59379  1.0000
  H   H790      1.0  0.16370  0.73631  0.62382  1.0000
  H   H791      1.0  0.99597  0.62961  0.32563  1.0000
  H   H792      1.0  0.03265  0.61367  0.58519  1.0000
  H   H793      1.0  0.00125  0.95535  0.62790  1.0000
  C   C465      1.0  0.10165  0.59989  0.60795  1.0000
  C   C466      1.0  0.10654  0.58490  0.59677  1.0000
  C   C467      1.0  0.10190  0.58625  0.57810  1.0000
  C   C468      1.0  0.09261  0.60277  0.57032  1.0000
  C   C469      1.0  0.08750  0.61766  0.58159  1.0000
  C   C470      1.0  0.09165  0.61608  0.60042  1.0000
  H   H794      1.0  0.11417  0.57225  0.60251  1.0000
  H   H795      1.0  0.10600  0.57471  0.56956  1.0000
  H   H796      1.0  0.08024  0.63046  0.57572  1.0000
  H   H797      1.0  0.08738  0.62749  0.60901  1.0000
  H   H798      1.0  0.05117  0.80839  0.36688  1.0000
  N   N25       1.0  0.07582  0.79257  0.35491  1.0000
  C   C471      1.0  0.04677  0.57889  0.57592  1.0000
  H   H799      1.0  0.11399  0.79897  0.33871  1.0000
  C   C472      1.0  0.00256  0.66743  0.32923  1.0000
  H   H800      1.0  0.02949  0.61913  0.37666  1.0000
  H   H801      1.0  0.02720  0.67657  0.59543  1.0000
  H   H802      1.0  0.12523  0.58727  0.38132  1.0000
  H   H803      1.0  0.05563  0.78337  0.39203  1.0000
  H   H804      1.0  0.00331  0.59672  0.61535  1.0000
  H   H805      1.0  0.16202  0.56520  0.43846  1.0000
  H   H806      1.0  0.01140  0.64733  0.60132  1.0000
  H   H807      1.0  0.12670  0.63390  0.47911  1.0000
  H   H808      1.0  0.17250  0.71358  0.42928  1.0000
  C   C473      1.0  0.22551  0.84661  0.61602  1.0000
  H   H809      1.0  0.08265  0.81544  0.33411  1.0000
  H   H810      1.0  0.20670  0.90395  0.37239  1.0000
  H   H811      1.0  0.04883  0.63104  0.61668  1.0000
  H   H812      1.0  0.01243  0.60084  0.43115  1.0000
  S   S125      1.0  0.00361  0.93535  0.40888  1.0000
  C   C474      1.0  0.08541  0.81022  0.34871  1.0000
  H   H813      1.0  0.10930  0.83756  0.35436  1.0000
  H   H814      1.0  0.13023  0.82622  0.34299  1.0000
  H   H815      1.0  0.00726  0.62215  0.41652  1.0000
  H   H816      1.0  0.03571  0.50458  0.46561  1.0000
  H   H817      1.0  0.02654  0.62862  0.34330  1.0000
  C   C475      1.0  0.02843  0.95698  0.35362  1.0000
  H   H818      1.0  0.00789  0.59960  0.40720  1.0000
  H   H819      1.0  0.11196  0.74469  0.43144  1.0000
  H   H820      1.0  0.06203  0.57920  0.57695  1.0000
  H   H821      1.0  0.02065  0.77308  0.61484  1.0000
  H   H822      1.0  0.04254  0.58862  0.56378  1.0000
  H   H823      1.0  0.18378  0.71606  0.39566  1.0000
  C   C476      1.0  0.99869  0.79323  0.60448  1.0000
  N   N26       1.0  0.12070  0.85773  0.52428  1.0000
  C   C477      1.0  0.11977  0.85888  0.50334  1.0000
  C   C478      1.0  0.10619  0.87189  0.53303  1.0000
  C   C479      1.0  0.13997  0.86270  0.52756  1.0000
  C   C480      1.0  0.11841  0.83823  0.53349  1.0000
  C   C481      1.0  0.10012  0.82975  0.53054  1.0000
  C   C482      1.0  0.13364  0.84504  0.49245  1.0000
  C   C483      1.0  0.14340  0.86425  0.54825  1.0000
  C   C484      1.0  0.08773  0.87705  0.52338  1.0000
  C   C485      1.0  0.07370  0.88982  0.53478  1.0000
  C   C486      1.0  0.10066  0.80920  0.53846  1.0000
  C   C487      1.0  0.13108  0.84775  0.47151  1.0000
  C   C488      1.0  0.16220  0.87206  0.54945  1.0000
  H   H824      1.0  0.12213  0.87336  0.49709  1.0000
  H   H825      1.0  0.10563  0.85638  0.49982  1.0000
  H   H826      1.0  0.10229  0.86721  0.54803  1.0000
  H   H827      1.0  0.11218  0.88557  0.53324  1.0000
  H   H828      1.0  0.14298  0.87624  0.51940  1.0000
  H   H829      1.0  0.15109  0.85198  0.52253  1.0000
  H   H830      1.0  0.13060  0.82835  0.52903  1.0000
  H   H831      1.0  0.11868  0.83798  0.54893  1.0000
  H   H832      1.0  0.09789  0.83022  0.51552  1.0000
  H   H833      1.0  0.08795  0.83743  0.53805  1.0000
  H   H834      1.0  0.14847  0.84712  0.49393  1.0000
  H   H835      1.0  0.13108  0.83037  0.49745  1.0000
  H   H836      1.0  0.14385  0.85018  0.55612  1.0000
  H   H837      1.0  0.13235  0.87357  0.55542  1.0000
  H   H838      1.0  0.09081  0.88483  0.50947  1.0000
  H   H839      1.0  0.08080  0.86443  0.52134  1.0000
  H   H840      1.0  0.06823  0.88194  0.54786  1.0000
  H   H841      1.0  0.08030  0.90216  0.53833  1.0000
  H   H842      1.0  0.06162  0.89495  0.52661  1.0000
  H   H843      1.0  0.08720  0.80354  0.53668  1.0000
  H   H844      1.0  0.11228  0.80068  0.53101  1.0000
  H   H845      1.0  0.10264  0.80781  0.55364  1.0000
  H   H846      1.0  0.11670  0.84491  0.46901  1.0000
  H   H847      1.0  0.13367  0.86224  0.46567  1.0000
  H   H848      1.0  0.14125  0.83785  0.46393  1.0000
  H   H849      1.0  0.16436  0.87292  0.56438  1.0000
  H   H850      1.0  0.17387  0.86269  0.54318  1.0000
  H   H851      1.0  0.16241  0.88636  0.54209  1.0000
  C   C489      1.0  0.15783  0.57981  0.44200  1.0000
  C   C490      1.0  0.04846  0.94256  0.52881  1.0000
  C   C491      1.0  0.99164  0.84152  0.60653  1.0000
  C   C492      1.0  0.03555  0.58427  0.59408  1.0000
  H   H852      1.0  0.21872  0.93572  0.64798  1.0000
  H   H853      1.0  0.00599  0.61844  0.35433  1.0000
  C   C493      1.0  0.03152  0.53459  0.46276  1.0000
  H   H854      1.0  0.12935  0.73722  0.32679  1.0000
  H   H855      1.0  0.07977  0.83076  0.47567  1.0000
  C   C494      1.0  0.02354  0.96648  0.51590  1.0000
  C   C495      1.0  0.99698  0.58354  0.48175  1.0000
  H   H856      1.0  0.21771  0.91575  0.38863  1.0000
  H   H857      1.0  0.04378  0.93138  0.52126  1.0000
  H   H858      1.0  0.04915  0.79670  0.32699  1.0000
  C   C496      1.0  0.00757  0.96933  0.58556  1.0000
  C   C497      1.0  0.04976  0.85798  0.48189  1.0000
  C   C498      1.0  0.03225  0.86826  0.49216  1.0000
  H   H859      1.0  0.12552  0.61081  0.40485  1.0000
  H   H860      1.0  0.19217  0.58728  0.45357  1.0000
  H   H861      1.0  0.07990  0.85906  0.45533  1.0000
  H   H862      1.0  0.01964  0.95500  0.50818  1.0000
  H   H863      1.0  0.12204  0.60239  0.47190  1.0000
  H   H864      1.0  0.03604  0.51650  0.53925  1.0000
  H   H865      1.0  0.11496  0.52611  0.45658  1.0000
  H   H866      1.0  0.12626  0.54979  0.43189  1.0000
  H   H867      1.0  0.13665  0.63979  0.45548  1.0000
  H   H868      1.0  0.01287  0.98405  0.35247  1.0000
  H   H869      1.0  0.01244  0.88930  0.63975  1.0000
  H   H870      1.0  0.00685  0.81502  0.58284  1.0000
  C   C499      1.0  0.07700  0.76548  0.40506  1.0000
  H   H871      1.0  0.08898  0.75510  0.40148  1.0000
  H   H872      1.0  0.08211  0.77672  0.41219  1.0000
  H   H873      1.0  0.06652  0.75825  0.41484  1.0000
  N   N27       1.0  0.13226  0.65430  0.58785  1.0000
  C   C500      1.0  0.13537  0.64542  0.60732  1.0000
  C   C501      1.0  0.11244  0.66355  0.58785  1.0000
  C   C502      1.0  0.13408  0.63858  0.57513  1.0000
  C   C503      1.0  0.14633  0.66819  0.58049  1.0000
  C   C504      1.0  0.15357  0.67964  0.59507  1.0000
  C   C505      1.0  0.15395  0.63257  0.60890  1.0000
  C   C506      1.0  0.12808  0.64381  0.55504  1.0000
  C   C507      1.0  0.10745  0.68044  0.59968  1.0000
  C   C508      1.0  0.08646  0.68674  0.60039  1.0000
  C   C509      1.0  0.16360  0.69629  0.58553  1.0000
  C   C510      1.0  0.99041  0.97038  0.52772  1.0000
  C   C511      1.0  0.13462  0.62812  0.54241  1.0000
  H   H874      1.0  0.12375  0.63659  0.61273  1.0000
  H   H875      1.0  0.13478  0.65610  0.61748  1.0000
  H   H876      1.0  0.10931  0.66920  0.57348  1.0000
  H   H877      1.0  0.10227  0.65297  0.59249  1.0000
  H   H878      1.0  0.12574  0.62692  0.58152  1.0000
  H   H879      1.0  0.14888  0.63230  0.57351  1.0000
  H   H880      1.0  0.15913  0.66101  0.57335  1.0000
  H   H881      1.0  0.14039  0.67830  0.56938  1.0000
  H   H882      1.0  0.16369  0.67069  0.60351  1.0000
  H   H883      1.0  0.14223  0.68521  0.60503  1.0000
  H   H884      1.0  0.15289  0.61912  0.60290  1.0000
  H   H885      1.0  0.16605  0.63926  0.60122  1.0000
  H   H886      1.0  0.13399  0.65686  0.54859  1.0000
  H   H887      1.0  0.11252  0.64579  0.55542  1.0000
  H   H888      1.0  0.11103  0.67701  0.61426  1.0000
  H   H889      1.0  0.11495  0.69258  0.59324  1.0000
  H   H890      1.0  0.07814  0.67535  0.60729  1.0000
  H   H891      1.0  0.08331  0.69911  0.60862  1.0000
  H   H892      1.0  0.08211  0.69075  0.58607  1.0000
  H   H893      1.0  0.15362  0.70646  0.57805  1.0000
  H   H894      1.0  0.16926  0.70365  0.59627  1.0000
  H   H895      1.0  0.17544  0.69150  0.57550  1.0000
  C   C512      1.0  0.01815  0.78258  0.60203  1.0000
  C   C513      1.0  0.04372  0.49361  0.52081  1.0000
  H   H896      1.0  0.99383  0.89713  0.45182  1.0000
  H   H897      1.0  0.15018  0.62626  0.54032  1.0000
  H   H898      1.0  0.12929  0.61467  0.54865  1.0000
  H   H899      1.0  0.12903  0.63164  0.52855  1.0000
  H   H900      1.0  0.22455  0.85911  0.54347  1.0000
  H   H901      1.0  0.04053  0.57425  0.60562  1.0000
  H   H902      1.0  0.02125  0.94922  0.54298  1.0000
  C   C514      1.0  0.13176  0.60560  0.44183  1.0000
  C   C515      1.0  0.99468  0.80647  0.58668  1.0000
  S   S126      1.0  0.00040  0.91860  0.51257  1.0000
  C   C516      1.0  0.09744  0.49914  0.49990  1.0000
  C   C517      1.0  0.01992  0.90202  0.64015  1.0000
  C   C518      1.0  0.22574  0.82816  0.62442  1.0000
  C   C519      1.0  0.15807  0.62764  0.62926  1.0000
  C   C520      1.0  0.08689  0.50159  0.48443  1.0000
  H   H903      1.0  0.14496  0.69969  0.43553  1.0000
  C   C521      1.0  0.13353  0.70257  0.63872  1.0000
  H   H904      1.0  0.01924  0.77397  0.58994  1.0000
  H   H905      1.0  0.07183  0.73452  0.33003  1.0000
  H   H906      1.0  0.04994  0.51430  0.49130  1.0000
  C   C522      1.0  0.05489  0.79802  0.35630  1.0000
  H   H907      1.0  0.05759  0.76149  0.34719  1.0000
  Fe  Fe61      1.0  0.99220  0.90802  0.40382  1.0000
  C   C523      1.0  0.03155  0.60835  0.36645  1.0000
  H   H908      1.0  0.13817  0.60699  0.37272  1.0000
  N   N28       1.0  0.00688  0.98070  0.51903  1.0000
  H   H909      1.0  0.14644  0.60676  0.46711  1.0000
  C   C524      1.0  0.07689  0.74869  0.32672  1.0000
  H   H910      1.0  0.15872  0.71465  0.39828  1.0000
  H   H911      1.0  0.16994  0.60683  0.43378  1.0000
  C   C525      1.0  0.06330  0.50387  0.54473  1.0000
  H   H912      1.0  0.03500  0.97285  0.50663  1.0000
  H   H913      1.0  0.09217  0.74688  0.32235  1.0000
  N   N29       1.0  0.13787  0.58561  0.43771  1.0000
  Fe  Fe62      1.0  0.99847  0.90716  0.54276  1.0000
  C   C526      1.0  0.04729  0.87931  0.45355  1.0000
  C   C527      1.0  0.03524  0.83989  0.43745  1.0000
  C   C528      1.0  0.05456  0.88472  0.43290  1.0000
  C   C529      1.0  0.04988  0.90562  0.42738  1.0000
  H   H914      1.0  0.06921  0.84986  0.43766  1.0000
  H   H915      1.0  0.03224  0.88482  0.45548  1.0000
  H   H916      1.0  0.05479  0.88789  0.46193  1.0000
  H   H917      1.0  0.04743  0.82924  0.43606  1.0000
  H   H918      1.0  0.03666  0.85083  0.42573  1.0000
  H   H919      1.0  0.07006  0.88190  0.43072  1.0000
  H   H920      1.0  0.04826  0.87687  0.42319  1.0000
  H   H921      1.0  0.03450  0.90948  0.42942  1.0000
  H   H922      1.0  0.05710  0.91424  0.43587  1.0000
  H   H923      1.0  0.08531  0.81747  0.43605  1.0000
  H   H924      1.0  0.01908  0.86359  0.48818  1.0000
  N   N30       1.0  0.04981  0.85878  0.46083  1.0000
  H   H925      1.0  0.12345  0.67742  0.45119  1.0000
  C   C530      1.0  0.06864  0.85013  0.45313  1.0000
  C   C531      1.0  0.99049  0.92311  0.63324  1.0000
  C   C532      1.0  0.22565  0.83705  0.56656  1.0000
  C   C533      1.0  0.08175  0.77870  0.34058  1.0000
  C   C534      1.0  0.01776  0.83013  0.43526  1.0000
  H   H926      1.0  0.09936  0.77571  0.44126  1.0000
  C   C535      1.0  0.11088  0.74670  0.44657  1.0000
  H   H927      1.0  0.21805  0.77316  0.60768  1.0000
  H   H928      1.0  0.11344  0.54281  0.47376  1.0000
  H   H929      1.0  0.17809  0.75436  0.49894  1.0000
  H   H930      1.0  0.02378  0.66949  0.62014  1.0000
  H   H931      1.0  0.03090  0.84941  0.51789  1.0000
  H   H932      1.0  0.11869  0.69097  0.47109  1.0000
  H   H933      1.0  0.15065  0.58470  0.37951  1.0000
  H   H934      1.0  0.12777  0.57333  0.46520  1.0000
  H   H935      1.0  0.15050  0.75789  0.48171  1.0000
  H   H936      1.0  0.09550  0.77592  0.37221  1.0000
  H   H937      1.0  0.00506  0.84028  0.43585  1.0000
  H   H938      1.0  0.02688  0.90585  0.62598  1.0000
  H   H939      1.0  0.15825  0.73340  0.48589  1.0000
  H   H940      1.0  0.10463  0.70466  0.63290  1.0000
  H   H941      1.0  0.12082  0.57921  0.41635  1.0000
  H   H942      1.0  0.22936  0.94965  0.35495  1.0000
  H   H943      1.0  0.09407  0.76558  0.46500  1.0000
  C   C536      1.0  0.21945  0.85076  0.36570  1.0000
  H   H944      1.0  0.02062  0.58242  0.59276  1.0000
  H   H945      1.0  0.03201  0.88366  0.48867  1.0000
  C   C537      1.0  0.12664  0.63104  0.46425  1.0000
  C   C538      1.0  0.06800  0.77383  0.38744  1.0000
  H   H946      1.0  0.08506  0.79654  0.38187  1.0000
  H   H947      1.0  0.98877  0.98213  0.45731  1.0000
  H   H948      1.0  0.22460  0.91968  0.34561  1.0000
  H   H949      1.0  0.07940  0.75102  0.35573  1.0000
  H   H950      1.0  0.11033  0.57823  0.44919  1.0000
  H   H951      1.0  0.11160  0.80339  0.36299  1.0000
  C   C539      1.0  0.09569  0.76275  0.45002  1.0000
  H   H952      1.0  0.08205  0.75895  0.44628  1.0000
  H   H953      1.0  0.14727  0.61886  0.63662  1.0000
  C   C540      1.0  0.12762  0.55191  0.44670  1.0000
  H   H954      1.0  0.14022  0.61568  0.43289  1.0000
  C   C541      1.0  0.99374  0.95840  0.40299  1.0000
  H   H955      1.0  0.06171  0.60822  0.63497  1.0000
  C   C542      1.0  0.03787  0.60484  0.59750  1.0000
  C   C543      1.0  0.99280  0.90341  0.49800  1.0000
  C   C544      1.0  0.13529  0.58298  0.41754  1.0000
  H   H956      1.0  0.10236  0.82924  0.44614  1.0000
  C   C545      1.0  0.03192  0.95679  0.53383  1.0000
  H   H957      1.0  0.10601  0.73399  0.45491  1.0000
  C   C546      1.0  0.07301  0.75971  0.34398  1.0000
  C   C547      1.0  0.03331  0.63099  0.61732  1.0000
  H   H958      1.0  0.99192  0.49544  0.49772  1.0000
  H   H959      1.0  0.09718  0.77498  0.33989  1.0000
  C   C548      1.0  0.17986  0.75230  0.48376  1.0000
  H   H960      1.0  0.06295  0.76226  0.38087  1.0000
  C   C549      1.0  0.16154  0.74676  0.47773  1.0000
  H   H961      1.0  0.01267  0.51412  0.47382  1.0000
  H   H962      1.0  0.04418  0.56446  0.57328  1.0000
  H   H963      1.0  0.19636  0.57048  0.43616  1.0000
  H   H964      1.0  0.13257  0.76543  0.44640  1.0000
  C   C550      1.0  0.04856  0.51030  0.53102  1.0000
  C   C551      1.0  0.10712  0.80859  0.34896  1.0000
  C   C552      1.0  0.01037  0.50287  0.51820  1.0000
  H   H965      1.0  0.00091  0.85950  0.62550  1.0000
  H   H966      1.0  0.05064  0.84317  0.48820  1.0000
  H   H967      1.0  0.00050  0.59314  0.46965  1.0000
  Fe  Fe63      1.0  0.09270  0.67795  0.33350  1.0000
  H   H968      1.0  0.23823  0.94035  0.37614  1.0000
  C   C553      1.0  0.12974  0.75115  0.45291  1.0000
  H   H969      1.0  0.01584  0.81853  0.44646  1.0000
  H   H970      1.0  0.02008  0.87282  0.52027  1.0000
  H   H971      1.0  0.15830  0.64052  0.63654  1.0000
  H   H972      1.0  0.02670  0.53516  0.44855  1.0000
  H   H973      1.0  0.02020  0.85755  0.45751  1.0000
  C   C554      1.0  0.17006  0.72347  0.40029  1.0000
  H   H974      1.0  0.14482  0.57090  0.41267  1.0000
  H   H975      1.0  0.01921  0.82421  0.42149  1.0000
  H   H976      1.0  0.99739  0.92497  0.61875  1.0000
  Fe  Fe64      1.0  0.00572  0.92095  0.57898  1.0000
  H   H977      1.0  0.13522  0.71936  0.47197  1.0000
  C   C555      1.0  0.23815  0.82239  0.55531  1.0000
  H   H978      1.0  0.02962  0.52787  0.49971  1.0000
  H   H979      1.0  0.06267  0.82115  0.46373  1.0000
  C   C556      1.0  0.23309  0.86301  0.35789  1.0000
  C   C557      1.0  0.15010  0.71181  0.63621  1.0000
  C   C558      1.0  0.14384  0.71815  0.45832  1.0000
  H   H980      1.0  0.11223  0.63500  0.45998  1.0000
  C   C559      1.0  0.02527  0.81106  0.34140  1.0000
  H   H981      1.0  0.06240  0.86400  0.48571  1.0000
  H   H982      1.0  0.05311  0.60665  0.59659  1.0000
  H   H983      1.0  0.09572  0.80684  0.45675  1.0000
  C   C560      1.0  0.12533  0.57301  0.45026  1.0000
  C   C561      1.0  0.16970  0.72715  0.42086  1.0000
  N   N31       1.0  0.14667  0.73750  0.44881  1.0000
  H   H984      1.0  0.16592  0.75885  0.44897  1.0000
  C   C562      1.0  0.16317  0.74484  0.45632  1.0000
  H   H985      1.0  0.15751  0.71070  0.46200  1.0000
  H   H986      1.0  0.15905  0.57937  0.45732  1.0000
  H   H987      1.0  0.02187  0.82131  0.35209  1.0000
  C   C563      1.0  0.99679  0.90653  0.47862  1.0000
  S   S127      1.0  0.02208  0.66875  0.34216  1.0000
  H   H988      1.0  0.02776  0.58520  0.63297  1.0000
  C   C564      1.0  0.02099  0.61534  0.34934  1.0000
  H   H989      1.0  0.17415  0.59002  0.41637  1.0000
  H   H990      1.0  0.01828  0.79811  0.34622  1.0000
  H   H991      1.0  0.07913  0.78515  0.32630  1.0000
  H   H992      1.0  0.21448  0.85197  0.60724  1.0000
  H   H993      1.0  0.12215  0.71105  0.44080  1.0000
  C   C565      1.0  0.05525  0.59505  0.63389  1.0000
  H   H994      1.0  0.14151  0.54530  0.45047  1.0000
  C   C566      1.0  0.12945  0.68705  0.45963  1.0000
  H   H995      1.0  0.06247  0.58824  0.62166  1.0000
  S   S128      1.0  0.00104  0.89306  0.59527  1.0000
  H   H996      1.0  0.20299  0.59403  0.43055  1.0000
  H   H997      1.0  0.13939  0.73202  0.42145  1.0000
  H   H998      1.0  0.19147  0.74120  0.48127  1.0000
  C   C567      1.0  0.13486  0.70450  0.44713  1.0000
  H   H999      1.0  0.17618  0.73547  0.45343  1.0000
  Fe  Fe65      1.0  0.05366  0.66300  0.33379  1.0000
  C   C568      1.0  0.11267  0.54128  0.45870  1.0000
  C   C569      1.0  0.03144  0.66573  0.60667  1.0000
  H   H1000     1.0  0.18140  0.73588  0.42194  1.0000
  H   H1001     1.0  0.99324  0.52032  0.49865  1.0000
  H   H1002     1.0  0.02922  0.79252  0.59979  1.0000
  H   H1003     1.0  0.05429  0.52147  0.52094  1.0000
  H   H1004     1.0  0.00316  0.96886  0.42707  1.0000
  H   H1005     1.0  0.15095  0.75236  0.42144  1.0000
  H   H1006     1.0  0.09842  0.54663  0.45479  1.0000
  H   H1007     1.0  0.03718  0.96706  0.54205  1.0000
  C   C570      1.0  0.15077  0.73765  0.42785  1.0000
  S   S129      1.0  0.99023  0.89344  0.37785  1.0000
  H   H1008     1.0  0.05973  0.94957  0.51993  1.0000
  C   C571      1.0  0.00629  0.91831  0.64661  1.0000
  C   C572      1.0  0.11467  0.82774  0.34368  1.0000
  C   C573      1.0  0.22491  0.83229  0.37261  1.0000
  H   H1009     1.0  0.14196  0.67949  0.46576  1.0000
  H   H1010     1.0  0.00271  0.61815  0.60108  1.0000
  H   H1011     1.0  0.11717  0.60938  0.43806  1.0000
  C   C574      1.0  0.17301  0.59177  0.43156  1.0000
  C   C575      1.0  0.02676  0.64650  0.60222  1.0000
  H   H1012     1.0  0.02393  0.98017  0.38264  1.0000
  H   H1013     1.0  0.03399  0.64386  0.58826  1.0000
  C   C576      1.0  0.02781  0.51576  0.47360  1.0000
  C   C577      1.0  0.03380  0.59893  0.63231  1.0000
  H   H1014     1.0  0.04318  0.95061  0.35324  1.0000
  C   C578      1.0  0.19228  0.58544  0.43843  1.0000
  H   H1015     1.0  0.20467  0.85555  0.36623  1.0000
  H   H1016     1.0  0.18365  0.76572  0.47593  1.0000
  H   H1017     1.0  0.20226  0.92906  0.37271  1.0000
  H   H1018     1.0  0.22850  0.87708  0.35246  1.0000
  H   H1019     1.0  0.04687  0.60591  0.36234  1.0000
  H   H1020     1.0  0.99757  0.61366  0.64455  1.0000
  H   H1021     1.0  0.15061  0.60681  0.40372  1.0000
  C   C579      1.0  0.13797  0.59433  0.38290  1.0000
  N   N32       1.0  0.02889  0.49798  0.50714  1.0000
  H   H1022     1.0  0.23433  0.84503  0.57423  1.0000
  C   C580      1.0  0.13762  0.60008  0.40278  1.0000
  H   H1023     1.0  0.01089  0.51592  0.52514  1.0000
  C   C581      1.0  0.22897  0.76529  0.59872  1.0000
  C   C582      1.0  0.99613  0.97250  0.41445  1.0000
  C   C583      1.0  0.21478  0.85125  0.55352  1.0000
  H   H1024     1.0  0.00899  0.96870  0.48144  1.0000
  H   H1025     1.0  0.02807  0.63553  0.63137  1.0000
  C   C584      1.0  0.13222  0.61020  0.46234  1.0000
  H   H1026     1.0  0.11049  0.83382  0.32977  1.0000
  C   C585      1.0  0.22979  0.91947  0.35965  1.0000
  H   H1027     1.0  0.05811  0.49301  0.55552  1.0000
  H   H1028     1.0  0.06645  0.51600  0.55189  1.0000
  H   H1029     1.0  0.00490  0.83232  0.60741  1.0000
  H   H1030     1.0  0.00769  0.49192  0.52994  1.0000
  C   C586      1.0  0.04651  0.80660  0.33800  1.0000
  H   H1031     1.0  0.02379  0.54632  0.47005  1.0000
  H   H1032     1.0  0.02630  0.59514  0.37337  1.0000
  H   H1033     1.0  0.04677  0.53642  0.46128  1.0000
  H   H1034     1.0  0.17196  0.61942  0.62981  1.0000
  C   C587      1.0  0.99716  0.97900  0.48564  1.0000
  H   H1035     1.0  0.22645  0.78959  0.56822  1.0000
  H   H1036     1.0  0.05245  0.81998  0.33271  1.0000
  H   H1037     1.0  0.20578  0.86141  0.56191  1.0000
  H   H1038     1.0  0.01956  0.81734  0.32819  1.0000
  H   H1039     1.0  0.07653  0.49812  0.53722  1.0000
  H   H1040     1.0  0.07299  0.48799  0.46507  1.0000
  H   H1041     1.0  0.98948  0.83936  0.56811  1.0000
  H   H1042     1.0  0.21523  0.83040  0.57678  1.0000
  C   C588      1.0  0.99104  0.89437  0.46676  1.0000
  C   C589      1.0  0.03497  0.98411  0.37132  1.0000
  H   H1043     1.0  0.99648  0.63573  0.63039  1.0000
  H   H1044     1.0  0.16253  0.70523  0.64232  1.0000
  C   C590      1.0  0.99286  0.50654  0.50706  1.0000
  H   H1045     1.0  0.01465  0.93038  0.64709  1.0000
  H   H1046     1.0  0.02783  0.60513  0.64542  1.0000
  H   H1047     1.0  0.22576  0.80317  0.58740  1.0000
  H   H1048     1.0  0.03592  0.98359  0.34040  1.0000
  H   H1049     1.0  0.99507  0.79727  0.57512  1.0000
  H   H1050     1.0  0.22225  0.75963  0.58753  1.0000
  C   C591      1.0  0.02774  0.97832  0.35333  1.0000
  H   H1051     1.0  0.99357  0.85209  0.59437  1.0000
  S   S130      1.0  0.99318  0.87816  0.55545  1.0000
  H   H1052     1.0  0.98896  0.84427  0.53328  1.0000
  H   H1053     1.0  0.04252  0.98127  0.40649  1.0000
  H   H1054     1.0  0.22901  0.81588  0.54663  1.0000
  H   H1055     1.0  0.23541  0.75333  0.60760  1.0000
  C   C592      1.0  0.23551  0.79498  0.57779  1.0000
  H   H1056     1.0  0.00401  0.67455  0.65038  1.0000
  C   C593      1.0  0.99589  0.61638  0.31893  1.0000
  H   H1057     1.0  0.98894  0.95799  0.52007  1.0000
  H   H1058     1.0  0.13315  0.71915  0.67759  1.0000
  S   S131      1.0  0.07945  0.61826  0.67538  1.0000
  C   C594      1.0  0.99932  0.62851  0.68243  1.0000
  Fe  Fe66      1.0  0.10004  0.62976  0.69226  1.0000
  S   S132      1.0  0.10328  0.61943  0.72344  1.0000
  S   S133      1.0  0.08922  0.65997  0.68452  1.0000
  Fe  Fe67      1.0  0.16921  0.57996  0.81099  1.0000
  S   S134      1.0  0.19310  0.55765  0.81733  1.0000
  S   S135      1.0  0.16662  0.59033  0.77972  1.0000
  Fe  Fe68      1.0  0.15536  0.57986  0.85291  1.0000
  S   S136      1.0  0.17754  0.55751  0.86116  1.0000
  S   S137      1.0  0.13465  0.59313  0.87504  1.0000
  Fe  Fe69      1.0  0.19758  0.57404  0.84162  1.0000
  S   S138      1.0  0.22495  0.57627  0.85530  1.0000
  Fe  Fe70      1.0  0.17121  0.54319  0.83653  1.0000
  S   S139      1.0  0.16449  0.51261  0.84269  1.0000
  S   S140      1.0  0.17542  0.59719  0.83402  1.0000
  S   S141      1.0  0.14737  0.56472  0.82943  1.0000
  H   H1059     1.0  0.12766  0.71202  0.71245  1.0000
  C   C595      1.0  0.18332  0.49212  0.81445  1.0000
  S   S142      1.0  0.12208  0.55505  0.95864  1.0000
  H   H1060     1.0  0.16925  0.51211  0.78243  1.0000
  C   C596      1.0  0.14994  0.68200  0.72615  1.0000
  H   H1061     1.0  0.11767  0.51529  0.88511  1.0000
  C   C597      1.0  0.15551  0.60079  0.95188  1.0000
  C   C598      1.0  0.10267  0.56029  0.75672  1.0000
  C   C599      1.0  0.20222  0.92401  0.67190  1.0000
  C   C600      1.0  0.16176  0.52341  0.77359  1.0000
  H   H1062     1.0  0.14261  0.69235  0.73555  1.0000
  H   H1063     1.0  0.21649  0.65755  0.90224  1.0000
  H   H1064     1.0  0.13962  0.54429  0.75429  1.0000
  Fe  Fe71      1.0  0.11104  0.65948  0.65970  1.0000
  C   C601      1.0  0.05922  0.58198  0.65137  1.0000
  H   H1065     1.0  0.14153  0.53837  0.80353  1.0000
  H   H1066     1.0  0.12792  0.66695  0.75807  1.0000
  H   H1067     1.0  0.19084  0.50432  0.80996  1.0000
  N   N33       1.0  0.23757  0.91526  0.66254  1.0000
  C   C602      1.0  0.13076  0.58231  0.89817  1.0000
  C   C603      1.0  0.11831  0.59144  0.91142  1.0000
  C   C604      1.0  0.11521  0.58330  0.93001  1.0000
  C   C605      1.0  0.12469  0.56599  0.93549  1.0000
  C   C606      1.0  0.13720  0.55696  0.92225  1.0000
  C   C607      1.0  0.14011  0.56498  0.90370  1.0000
  H   H1068     1.0  0.11098  0.60486  0.90728  1.0000
  H   H1069     1.0  0.10560  0.59045  0.94007  1.0000
  H   H1070     1.0  0.14468  0.54362  0.92636  1.0000
  H   H1071     1.0  0.14961  0.55773  0.89368  1.0000
  H   H1072     1.0  0.11161  0.73096  0.68726  1.0000
  C   C608      1.0  0.14310  0.65370  0.71091  1.0000
  H   H1073     1.0  0.04962  0.52494  0.96591  1.0000
  H   H1074     1.0  0.22567  0.61596  0.84020  1.0000
  H   H1075     1.0  0.21230  0.88456  0.66688  1.0000
  C   C609      1.0  0.12099  0.61016  0.73867  1.0000
  C   C610      1.0  0.11594  0.60701  0.75809  1.0000
  C   C611      1.0  0.12951  0.60066  0.77081  1.0000
  C   C612      1.0  0.14850  0.59746  0.76435  1.0000
  C   C613      1.0  0.15350  0.60033  0.74491  1.0000
  C   C614      1.0  0.13988  0.60646  0.73218  1.0000
  H   H1076     1.0  0.10140  0.60974  0.76338  1.0000
  H   H1077     1.0  0.12531  0.59858  0.78566  1.0000
  H   H1078     1.0  0.16807  0.59783  0.73963  1.0000
  H   H1079     1.0  0.14403  0.60843  0.71735  1.0000
  H   H1080     1.0  0.18297  0.69060  0.73919  1.0000
  H   H1081     1.0  0.13741  0.50606  0.75723  1.0000
  C   C615      1.0  0.01721  0.63499  0.67747  1.0000
  H   H1082     1.0  0.15738  0.65839  0.74739  1.0000
  C   C616      1.0  0.10126  0.65589  0.75979  1.0000
  H   H1083     1.0  0.11142  0.56629  0.74438  1.0000
  H   H1084     1.0  0.22462  0.85144  0.67014  1.0000
  C   C617      1.0  0.17100  0.54165  0.77550  1.0000
  H   H1085     1.0  0.17861  0.57166  0.91951  1.0000
  H   H1086     1.0  0.12805  0.64520  0.74757  1.0000
  H   H1087     1.0  0.99561  0.60196  0.73760  1.0000
  H   H1088     1.0  0.08211  0.51163  0.96613  1.0000
  C   C618      1.0  0.11893  0.71703  0.68458  1.0000
  H   H1089     1.0  0.13060  0.49291  0.95008  1.0000
  H   H1090     1.0  0.23178  0.63976  0.91430  1.0000
  C   C619      1.0  0.23853  0.59478  0.85929  1.0000
  H   H1091     1.0  0.12228  0.53244  0.83539  1.0000
  H   H1092     1.0  0.11078  0.53143  0.75231  1.0000
  C   C620      1.0  0.18770  0.57363  0.90621  1.0000
  C   C621      1.0  0.21506  0.62911  0.89474  1.0000
  H   H1093     1.0  0.18054  0.91513  0.65651  1.0000
  H   H1094     1.0  0.14136  0.50457  0.88559  1.0000
  H   H1095     1.0  0.15972  0.62435  0.69002  1.0000
  H   H1096     1.0  0.11130  0.68441  0.73377  1.0000
  H   H1097     1.0  0.18921  0.63824  0.91111  1.0000
  H   H1098     1.0  0.16572  0.68761  0.75917  1.0000
  C   C622      1.0  0.12018  0.70468  0.70304  1.0000
  H   H1099     1.0  0.10727  0.51105  0.98266  1.0000
  C   C623      1.0  0.13168  0.54131  0.76822  1.0000
  H   H1100     1.0  0.21019  0.55674  0.89132  1.0000
  C   C624      1.0  0.01902  0.65170  0.66597  1.0000
  C   C625      1.0  0.19846  0.59135  0.90556  1.0000
  H   H1101     1.0  0.04138  0.53632  0.94447  1.0000
  H   H1102     1.0  0.10192  0.53549  0.77582  1.0000
  H   H1103     1.0  0.19215  0.61205  0.87437  1.0000
  H   H1104     1.0  0.13737  0.49926  0.92001  1.0000
  H   H1105     1.0  0.16826  0.54602  0.78989  1.0000
  H   H1106     1.0  0.00354  0.52499  0.96838  1.0000
  H   H1107     1.0  0.05273  0.58833  0.66419  1.0000
  C   C626      1.0  0.16944  0.60931  0.91865  1.0000
  H   H1108     1.0  0.16960  0.66368  0.69682  1.0000
  H   H1109     1.0  0.06385  0.50896  0.93778  1.0000
  Fe  Fe72      1.0  0.07039  0.64826  0.66609  1.0000
  C   C627      1.0  0.11112  0.54078  0.76363  1.0000
  C   C628      1.0  0.11449  0.49848  0.97631  1.0000
  H   H1110     1.0  0.11887  0.50619  0.77518  1.0000
  H   H1111     1.0  0.20907  0.59093  0.89318  1.0000
  H   H1112     1.0  0.09272  0.53099  0.95358  1.0000
  H   H1113     1.0  0.10160  0.56987  0.76802  1.0000
  H   H1114     1.0  0.10835  0.53728  0.80470  1.0000
  C   C629      1.0  0.13430  0.50639  0.77267  1.0000
  C   C630      1.0  0.22582  0.64441  0.90080  1.0000
  H   H1115     1.0  0.15533  0.62618  0.85767  1.0000
  H   H1116     1.0  0.05871  0.54657  0.95561  1.0000
  H   H1117     1.0  0.19838  0.55231  0.77220  1.0000
  H   H1118     1.0  0.09299  0.64790  0.75166  1.0000
  H   H1119     1.0  0.08835  0.55943  0.75255  1.0000
  H   H1120     1.0  0.10554  0.70342  0.70924  1.0000
  H   H1121     1.0  0.09318  0.66947  0.76256  1.0000
  H   H1122     1.0  0.14450  0.61266  0.95015  1.0000
  H   H1123     1.0  0.10334  0.64761  0.77340  1.0000
  N   N34       1.0  0.18652  0.60988  0.90468  1.0000
  H   H1124     1.0  0.17792  0.63529  0.85089  1.0000
  C   C631      1.0  0.10826  0.51252  0.92375  1.0000
  H   H1125     1.0  0.20404  0.62090  0.92284  1.0000
  H   H1126     1.0  0.18566  0.67057  0.75618  1.0000
  H   H1127     1.0  0.13486  0.52635  0.89582  1.0000
  H   H1128     1.0  0.20686  0.58966  0.91786  1.0000
  C   C632      1.0  0.20118  0.55591  0.90478  1.0000
  H   H1129     1.0  0.16096  0.62311  0.91809  1.0000
  H   H1130     1.0  0.17448  0.66112  0.72787  1.0000
  H   H1131     1.0  0.09630  0.51371  0.91494  1.0000
  H   H1132     1.0  0.19586  0.53489  0.75655  1.0000
  C   C633      1.0  0.06941  0.52198  0.94104  1.0000
  H   H1133     1.0  0.16564  0.55333  0.76563  1.0000
  H   H1134     1.0  0.02955  0.62724  0.68277  1.0000
  H   H1135     1.0  0.15339  0.65825  0.68126  1.0000
  C   C634      1.0  0.12034  0.65910  0.74917  1.0000
  C   C635      1.0  0.18321  0.92737  0.66379  1.0000
  C   C636      1.0  0.11596  0.52098  0.82972  1.0000
  C   C637      1.0  0.13030  0.68501  0.69979  1.0000
  N   N35       1.0  0.13568  0.67272  0.71705  1.0000
  H   H1136     1.0  0.22499  0.61639  0.89345  1.0000
  H   H1137     1.0  0.19301  0.54353  0.90530  1.0000
  H   H1138     1.0  0.15980  0.59934  0.91493  1.0000
  H   H1139     1.0  0.18369  0.59225  0.94144  1.0000
  S   S143      1.0  0.12276  0.62993  0.66847  1.0000
  H   H1140     1.0  0.05370  0.56821  0.65074  1.0000
  C   C638      1.0  0.19228  0.53893  0.77104  1.0000
  H   H1141     1.0  0.16525  0.51991  0.75884  1.0000
  H   H1142     1.0  0.99345  0.50589  0.94048  1.0000
  H   H1143     1.0  0.19860  0.52798  0.78111  1.0000
  H   H1144     1.0  0.12537  0.51677  0.95307  1.0000
  C   C639      1.0  0.15923  0.65379  0.69485  1.0000
  H   H1145     1.0  0.10754  0.66414  0.72285  1.0000
  H   H1146     1.0  0.11203  0.52713  0.92430  1.0000
  C   C640      1.0  0.21847  0.92179  0.65614  1.0000
  H   H1147     1.0  0.17921  0.61679  0.94459  1.0000
  H   H1148     1.0  0.14789  0.64412  0.72283  1.0000
  C   C641      1.0  0.16945  0.63349  0.88091  1.0000
  H   H1149     1.0  0.11023  0.51210  0.80370  1.0000
  C   C642      1.0  0.12987  0.51270  0.89363  1.0000
  H   H1150     1.0  0.15848  0.59875  0.96681  1.0000
  C   C643      1.0  0.16951  0.63430  0.69328  1.0000
  C   C644      1.0  0.11904  0.50313  0.95493  1.0000
  H   H1151     1.0  0.21021  0.55392  0.91658  1.0000
  C   C645      1.0  0.11681  0.52388  0.80835  1.0000
  C   C646      1.0  0.17346  0.60469  0.93946  1.0000
  C   C647      1.0  0.16420  0.66893  0.73746  1.0000
  C   C648      1.0  0.05387  0.53311  0.95252  1.0000
  H   H1152     1.0  0.13159  0.64668  0.70598  1.0000
  S   S144      1.0  0.04109  0.66079  0.65942  1.0000
  H   H1153     1.0  0.12112  0.67777  0.69189  1.0000
  H   H1154     1.0  0.07262  0.53081  0.92779  1.0000
  H   H1155     1.0  0.15865  0.69047  0.71543  1.0000
  H   H1156     1.0  0.99804  0.61574  0.69155  1.0000
  H   H1157     1.0  0.15014  0.58779  0.94831  1.0000
  H   H1158     1.0  0.00032  0.91406  0.66103  1.0000
  H   H1159     1.0  0.15591  0.63488  0.88974  1.0000
  H   H1160     1.0  0.17054  0.60341  0.88265  1.0000
  C   C649      1.0  0.18010  0.61389  0.88524  1.0000
  C   C650      1.0  0.19814  0.62490  0.90915  1.0000
  H   H1161     1.0  0.21048  0.63401  0.88070  1.0000
  N   N36       1.0  0.10257  0.50407  0.94331  1.0000
  H   H1162     1.0  0.17187  0.92935  0.67527  1.0000
  C   C651      1.0  0.08717  0.51740  0.95183  1.0000
  C   C652      1.0  0.11803  0.67055  0.73006  1.0000
  C   C653      1.0  0.17004  0.49252  0.83003  1.0000
  H   H1163     1.0  0.17573  0.62902  0.70652  1.0000
  H   H1164     1.0  0.18098  0.63498  0.68176  1.0000
  C   C654      1.0  0.16489  0.63655  0.86054  1.0000
  H   H1165     1.0  0.14298  0.68751  0.68998  1.0000
  C   C655      1.0  0.17528  0.68020  0.74865  1.0000
  H   H1166     1.0  0.14637  0.51400  0.80707  1.0000
  H   H1167     1.0  0.10112  0.52090  0.83571  1.0000
  C   C656      1.0  0.13726  0.52503  0.79959  1.0000
  H   H1168     1.0  0.17868  0.57479  0.89456  1.0000
  H   H1169     1.0  0.13243  0.55393  0.77586  1.0000
  H   H1170     1.0  0.11086  0.71049  0.67500  1.0000
  H   H1171     1.0  0.17786  0.64497  0.88329  1.0000
  C   C657      1.0  0.12457  0.50174  0.91242  1.0000
  C   C658      1.0  0.14299  0.48758  0.78213  1.0000
  H   H1172     1.0  0.15768  0.65080  0.85777  1.0000
  N   N37       1.0  0.14078  0.52401  0.77870  1.0000
  H   H1173     1.0  0.00159  0.57488  0.96995  1.0000
  C   C659      1.0  0.23742  0.89655  0.67408  1.0000
  C   C660      1.0  0.23622  0.61280  0.85002  1.0000
  H   H1174     1.0  0.00251  0.48939  0.96999  1.0000
  H   H1175     1.0  0.20380  0.93628  0.67962  1.0000
  H   H1176     1.0  0.12361  0.50735  0.83426  1.0000
  C   C661      1.0  0.99210  0.52914  0.97910  1.0000
  C   C662      1.0  0.23188  0.86197  0.67627  1.0000
  H   H1177     1.0  0.22683  0.86212  0.69134  1.0000
  C   C663      1.0  0.00281  0.66158  0.65921  1.0000
  H   H1178     1.0  0.23063  0.89815  0.68848  1.0000
  H   H1179     1.0  0.18271  0.94016  0.65377  1.0000
  H   H1180     1.0  0.14055  0.48705  0.79761  1.0000
  H   H1181     1.0  0.23759  0.64746  0.89007  1.0000
  H   H1182     1.0  0.20181  0.91144  0.68211  1.0000
  C   C664      1.0  0.22776  0.88127  0.66583  1.0000
  H   H1183     1.0  0.23327  0.93069  0.68713  1.0000
  H   H1184     1.0  0.10517  0.48697  0.97918  1.0000
  H   H1185     1.0  0.14176  0.50425  0.98390  1.0000
  H   H1186     1.0  0.12020  0.48815  0.90919  1.0000
  H   H1187     1.0  0.07462  0.57960  0.65229  1.0000
  S   S145      1.0  0.13375  0.67990  0.65136  1.0000
  H   H1188     1.0  0.99311  0.95673  0.65185  1.0000
  Fe  Fe73      1.0  0.10155  0.62080  0.65100  1.0000
  H   H1189     1.0  0.23260  0.88026  0.65090  1.0000
  H   H1190     1.0  0.33654  0.18222  0.18241  1.0000
  C   C665      1.0  0.32026  0.11035  0.22589  1.0000
  Fe  Fe74      1.0  0.33539  0.07197  0.30741  1.0000
  S   S146      1.0  0.34801  0.07383  0.27667  1.0000
  Fe  Fe75      1.0  0.40094  0.11264  0.15257  1.0000
  S   S147      1.0  0.41768  0.11727  0.17644  1.0000
  S   S148      1.0  0.40071  0.08122  0.14846  1.0000
  Fe  Fe76      1.0  0.38790  0.15570  0.14647  1.0000
  S   S149      1.0  0.40343  0.16220  0.17016  1.0000
  S   S150      1.0  0.37162  0.17805  0.12717  1.0000
  Fe  Fe77      1.0  0.42731  0.14266  0.15850  1.0000
  S   S151      1.0  0.45662  0.15202  0.14887  1.0000
  Fe  Fe78      1.0  0.39243  0.13615  0.18621  1.0000
  S   S152      1.0  0.37918  0.13783  0.21655  1.0000
  S   S153      1.0  0.41215  0.13686  0.13403  1.0000
  S   S154      1.0  0.37530  0.13080  0.16313  1.0000
  C   C666      1.0  0.48597  0.43351  0.06242  1.0000
  H   H1191     1.0  0.24275  0.43205  0.16622  1.0000
  S   S155      1.0  0.40107  0.02901  0.08101  1.0000
  H   H1192     1.0  0.47312  0.39880  0.05986  1.0000
  Fe  Fe79      1.0  0.33183  0.30665  0.05285  1.0000
  S   S156      1.0  0.35668  0.30608  0.06963  1.0000
  S   S157      1.0  0.34043  0.29863  0.02304  1.0000
  Fe  Fe80      1.0  0.30456  0.31909  0.08585  1.0000
  S   S158      1.0  0.32805  0.31955  0.10436  1.0000
  S   S159      1.0  0.27287  0.32153  0.09561  1.0000
  Fe  Fe81      1.0  0.34352  0.33385  0.07880  1.0000
  S   S160      1.0  0.36536  0.35548  0.07635  1.0000
  Fe  Fe82      1.0  0.33966  0.29160  0.09369  1.0000
  S   S161      1.0  0.35184  0.26792  0.11489  1.0000
  S   S162      1.0  0.31939  0.33505  0.06082  1.0000
  S   S163      1.0  0.31545  0.29050  0.07642  1.0000
  H   H1193     1.0  0.26350  0.25978  0.19473  1.0000
  H   H1194     1.0  0.36957  0.40921  0.01402  1.0000
  H   H1195     1.0  0.25523  0.38163  0.12382  1.0000
  Fe  Fe83      1.0  0.39292  0.46064  0.08455  1.0000
  S   S164      1.0  0.36864  0.44184  0.08947  1.0000
  S   S165      1.0  0.42410  0.45336  0.07937  1.0000
  H   H1196     1.0  0.46879  0.43791  0.03826  1.0000
  C   C667      1.0  0.40176  0.43468  0.03178  1.0000
  C   C668      1.0  0.40329  0.04383  0.30287  1.0000
  H   H1197     1.0  0.34900  0.38722  0.04380  1.0000
  C   C669      1.0  0.33458  0.17283  0.19554  1.0000
  H   H1198     1.0  0.43787  0.23856  0.13086  1.0000
  C   C670      1.0  0.32491  0.14093  0.20912  1.0000
  C   C671      1.0  0.25716  0.33921  0.10604  1.0000
  S   S166      1.0  0.39176  0.48170  0.05953  1.0000
  C   C672      1.0  0.26318  0.35581  0.11093  1.0000
  C   C673      1.0  0.28636  0.27704  0.12789  1.0000
  H   H1199     1.0  0.27778  0.35844  0.10795  1.0000
  C   C674      1.0  0.32791  0.30342  0.00288  1.0000
  H   H1200     1.0  0.24416  0.14334  0.30719  1.0000
  C   C675      1.0  0.30873  0.30929  0.00398  1.0000
  H   H1201     1.0  0.34506  0.00884  0.16958  1.0000
  H   H1202     1.0  0.30121  0.31155  0.01746  1.0000
  C   C676      1.0  0.36569  0.37965  0.07976  1.0000
  C   C677      1.0  0.34949  0.39098  0.08524  1.0000
  C   C678      1.0  0.35066  0.41000  0.08796  1.0000
  C   C679      1.0  0.36798  0.41793  0.08528  1.0000
  C   C680      1.0  0.38411  0.40669  0.07952  1.0000
  C   C681      1.0  0.38294  0.38771  0.07674  1.0000
  H   H1203     1.0  0.33612  0.38505  0.08756  1.0000
  H   H1204     1.0  0.33808  0.41855  0.09241  1.0000
  H   H1205     1.0  0.39755  0.41250  0.07753  1.0000
  H   H1206     1.0  0.39556  0.37908  0.07250  1.0000
  C   C682      1.0  0.32830  0.15422  0.19107  1.0000
  H   H1207     1.0  0.33229  0.45157  0.03487  1.0000
  C   C683      1.0  0.47718  0.15293  0.16044  1.0000
  N   N38       1.0  0.37466  0.98767  0.14832  1.0000
  H   H1208     1.0  0.25765  0.43526  0.13503  1.0000
  C   C684      1.0  0.48624  0.46676  0.05077  1.0000
  C   C685      1.0  0.36633  0.20312  0.12412  1.0000
  C   C686      1.0  0.36927  0.21503  0.13759  1.0000
  C   C687      1.0  0.36467  0.23467  0.13452  1.0000
  C   C688      1.0  0.35712  0.24286  0.11794  1.0000
  C   C689      1.0  0.35409  0.23094  0.10454  1.0000
  C   C690      1.0  0.35861  0.21130  0.10765  1.0000
  H   H1209     1.0  0.37499  0.20910  0.15041  1.0000
  H   H1210     1.0  0.36709  0.24362  0.14505  1.0000
  H   H1211     1.0  0.34832  0.23685  0.09171  1.0000
  H   H1212     1.0  0.35616  0.20235  0.09710  1.0000
  H   H1213     1.0  0.34940  0.26244  0.99287  1.0000
  H   H1214     1.0  0.26031  0.15913  0.31279  1.0000
  C   C691      1.0  0.47902  0.47804  0.13466  1.0000
  H   H1215     1.0  0.36264  0.42174  0.98617  1.0000
  H   H1216     1.0  0.46592  0.14247  0.18785  1.0000
  C   C692      1.0  0.40181  0.06728  0.12908  1.0000
  C   C693      1.0  0.39692  0.07472  0.11135  1.0000
  C   C694      1.0  0.39689  0.06284  0.09685  1.0000
  C   C695      1.0  0.40205  0.04341  0.09969  1.0000
  C   C696      1.0  0.40733  0.03604  0.11731  1.0000
  C   C697      1.0  0.40695  0.04784  0.13194  1.0000
  H   H1217     1.0  0.39283  0.08957  0.10888  1.0000
  H   H1218     1.0  0.39279  0.06876  0.08331  1.0000
  H   H1219     1.0  0.41170  0.02127  0.11966  1.0000
  H   H1220     1.0  0.41086  0.04190  0.14554  1.0000
  C   C698      1.0  0.35721  0.09189  0.26066  1.0000
  C   C699      1.0  0.35459  0.11085  0.26401  1.0000
  C   C700      1.0  0.36169  0.12465  0.25052  1.0000
  C   C701      1.0  0.37140  0.11974  0.23348  1.0000
  C   C702      1.0  0.37422  0.10076  0.23025  1.0000
  C   C703      1.0  0.36710  0.08698  0.24370  1.0000
  H   H1221     1.0  0.34683  0.11490  0.27686  1.0000
  H   H1222     1.0  0.35941  0.13927  0.25320  1.0000
  H   H1223     1.0  0.38177  0.09670  0.21730  1.0000
  H   H1224     1.0  0.36921  0.07238  0.24092  1.0000
  N   N39       1.0  0.40402  0.09830  0.29487  1.0000
  C   C704      1.0  0.39672  0.07942  0.30076  1.0000
  C   C705      1.0  0.40719  0.10027  0.27371  1.0000
  H   H1225     1.0  0.34845  0.99106  0.13536  1.0000
  C   C706      1.0  0.40860  0.06243  0.29255  1.0000
  C   C707      1.0  0.41199  0.11987  0.26449  1.0000
  C   C708      1.0  0.42054  0.11888  0.24426  1.0000
  H   H1226     1.0  0.38224  0.07932  0.29647  1.0000
  H   H1227     1.0  0.42079  0.25938  0.09924  1.0000
  H   H1228     1.0  0.37632  0.11255  0.29317  1.0000
  H   H1229     1.0  0.39460  0.09673  0.26745  1.0000
  H   H1230     1.0  0.41885  0.09000  0.26886  1.0000
  H   H1231     1.0  0.43455  0.09584  0.29306  1.0000
  H   H1232     1.0  0.48077  0.46457  0.03742  1.0000
  H   H1233     1.0  0.40605  0.06210  0.27762  1.0000
  H   H1234     1.0  0.31506  0.15746  0.18422  1.0000
  H   H1235     1.0  0.42212  0.12594  0.27225  1.0000
  H   H1236     1.0  0.39899  0.12962  0.26422  1.0000
  H   H1237     1.0  0.33691  0.14128  0.21774  1.0000
  H   H1238     1.0  0.41132  0.11211  0.23602  1.0000
  H   H1239     1.0  0.42221  0.13328  0.23753  1.0000
  H   H1240     1.0  0.43455  0.11082  0.24385  1.0000
  C   C709      1.0  0.34315  0.46101  0.03631  1.0000
  H   H1241     1.0  0.34218  0.47261  0.02493  1.0000
  C   C710      1.0  0.37393  0.00656  0.15590  1.0000
  C   C711      1.0  0.33831  0.46963  0.05492  1.0000
  C   C712      1.0  0.47481  0.05551  0.03926  1.0000
  H   H1242     1.0  0.29665  0.09186  0.25388  1.0000
  C   C713      1.0  0.35414  0.01706  0.15915  1.0000
  C   C714      1.0  0.42231  0.10059  0.30275  1.0000
  H   H1243     1.0  0.38350  0.99922  0.10834  1.0000
  H   H1244     1.0  0.34417  0.44753  0.00430  1.0000
  C   C715      1.0  0.47566  0.20752  0.11953  1.0000
  C   C716      1.0  0.47807  0.14758  0.17955  1.0000
  H   H1245     1.0  0.31244  0.14772  0.21705  1.0000
  H   H1246     1.0  0.36564  0.32733  0.00657  1.0000
  H   H1247     1.0  0.39628  0.25706  0.10616  1.0000
  H   H1248     1.0  0.33785  0.45843  0.06672  1.0000
  H   H1249     1.0  0.37696  0.36459  0.98598  1.0000
  H   H1250     1.0  0.32391  0.17990  0.20536  1.0000
  H   H1251     1.0  0.32850  0.08544  0.19248  1.0000
  H   H1252     1.0  0.42824  0.43537  0.01411  1.0000
  H   H1253     1.0  0.31681  0.31352  0.14853  1.0000
  H   H1254     1.0  0.25395  0.32348  0.17070  1.0000
  H   H1255     1.0  0.37135  0.41260  0.03752  1.0000
  C   C717      1.0  0.35789  0.08407  0.18231  1.0000
  H   H1256     1.0  0.47780  0.05551  0.05410  1.0000
  H   H1257     1.0  0.39837  0.20974  0.17555  1.0000
  H   H1258     1.0  0.34380  0.38819  0.01966  1.0000
  C   C718      1.0  0.47752  0.42656  0.04574  1.0000
  C   C719      1.0  0.38979  0.43779  0.01473  1.0000
  C   C720      1.0  0.27446  0.44919  0.15123  1.0000
  H   H1259     1.0  0.45296  0.41592  0.06212  1.0000
  C   C721      1.0  0.36331  0.45087  0.03509  1.0000
  H   H1260     1.0  0.33935  0.14823  0.18100  1.0000
  H   H1261     1.0  0.27884  0.13545  0.17170  1.0000
  H   H1262     1.0  0.34835  0.29890  0.13924  1.0000
  S   S167      1.0  0.39575  0.48308  0.10370  1.0000
  S   S168      1.0  0.43950  0.47222  0.02783  1.0000
  C   C722      1.0  0.25130  0.32272  0.15589  1.0000
  H   H1263     1.0  0.47171  0.47173  0.14723  1.0000
  H   H1264     1.0  0.46313  0.08774  0.13546  1.0000
  H   H1265     1.0  0.31725  0.09561  0.22495  1.0000
  H   H1266     1.0  0.35233  0.29605  0.98425  1.0000
  H   H1267     1.0  0.33367  0.24982  0.00932  1.0000
  H   H1268     1.0  0.36011  0.06856  0.18379  1.0000
  H   H1269     1.0  0.39414  0.99144  0.00998  1.0000
  H   H1270     1.0  0.38008  0.00512  0.16958  1.0000
  H   H1271     1.0  0.47414  0.43718  0.07308  1.0000
  H   H1272     1.0  0.34698  0.28201  0.15959  1.0000
  H   H1273     1.0  0.41159  0.03201  0.29621  1.0000
  H   H1274     1.0  0.47335  0.46934  0.06051  1.0000
  H   H1275     1.0  0.29084  0.11148  0.26774  1.0000
  C   C723      1.0  0.41066  0.25413  0.11078  1.0000
  H   H1276     1.0  0.39510  0.07660  0.31622  1.0000
  C   C724      1.0  0.35552  0.00535  0.10011  1.0000
  H   H1277     1.0  0.48050  0.02370  0.07725  1.0000
  C   C725      1.0  0.32573  0.99186  0.31664  1.0000
  H   H1278     1.0  0.46774  0.11191  0.13514  1.0000
  C   C726      1.0  0.34158  0.09062  0.19612  1.0000
  N   N40       1.0  0.32216  0.12081  0.20661  1.0000
  C   C727      1.0  0.36938  0.00349  0.11507  1.0000
  H   H1279     1.0  0.39378  0.12763  0.29600  1.0000
  H   H1280     1.0  0.46909  0.06987  0.03432  1.0000
  H   H1281     1.0  0.36408  0.04499  0.15628  1.0000
  H   H1282     1.0  0.32816  0.00525  0.30897  1.0000
  Fe  Fe84      1.0  0.40991  0.99780  0.07786  1.0000
  H   H1283     1.0  0.46166  0.99682  0.07663  1.0000
  H   H1284     1.0  0.33412  0.42222  0.01962  1.0000
  H   H1285     1.0  0.41131  0.26186  0.12326  1.0000
  H   H1286     1.0  0.34085  0.11811  0.18118  1.0000
  H   H1287     1.0  0.36310  0.46164  0.99864  1.0000
  C   C728      1.0  0.47301  0.09826  0.12968  1.0000
  H   H1288     1.0  0.40423  0.22872  0.12696  1.0000
  H   H1289     1.0  0.27775  0.43665  0.16105  1.0000
  H   H1290     1.0  0.34716  0.01984  0.14598  1.0000
  C   C729      1.0  0.46502  0.41078  0.05249  1.0000
  H   H1291     1.0  0.29741  0.23971  0.09981  1.0000
  C   C730      1.0  0.30486  0.11871  0.24018  1.0000
  H   H1292     1.0  0.43032  0.42697  0.03821  1.0000
  H   H1293     1.0  0.31411  0.10744  0.17074  1.0000
  C   C731      1.0  0.28879  0.25226  0.10475  1.0000
  H   H1294     1.0  0.27906  0.11011  0.17377  1.0000
  H   H1295     1.0  0.39470  0.42663  0.00525  1.0000
  H   H1296     1.0  0.33376  0.10936  0.23233  1.0000
  H   H1297     1.0  0.29825  0.10612  0.20214  1.0000
  H   H1298     1.0  0.39369  0.45115  0.00679  1.0000
  C   C732      1.0  0.33747  0.30047  0.98525  1.0000
  H   H1299     1.0  0.35207  0.23710  0.99551  1.0000
  H   H1300     1.0  0.31521  0.29822  0.16968  1.0000
  H   H1301     1.0  0.27996  0.26423  0.21066  1.0000
  C   C733      1.0  0.36926  0.34203  0.00606  1.0000
  H   H1302     1.0  0.29354  0.13075  0.20162  1.0000
  H   H1303     1.0  0.42059  0.23129  0.15793  1.0000
  C   C734      1.0  0.47598  0.99434  0.08021  1.0000
  C   C735      1.0  0.47010  0.48131  0.11813  1.0000
  H   H1304     1.0  0.42383  0.06333  0.29320  1.0000
  C   C736      1.0  0.42725  0.47097  0.99318  1.0000
  H   H1305     1.0  0.45948  0.40564  0.04029  1.0000
  H   H1306     1.0  0.35788  0.35031  0.01409  1.0000
  H   H1307     1.0  0.25417  0.29273  0.15877  1.0000
  C   C737      1.0  0.34174  0.24966  0.99534  1.0000
  C   C738      1.0  0.34314  0.41559  0.03047  1.0000
  H   H1308     1.0  0.39582  0.42501  0.04324  1.0000
  H   H1309     1.0  0.31478  0.10152  0.26457  1.0000
  H   H1310     1.0  0.31204  0.26036  0.11750  1.0000
  H   H1311     1.0  0.47310  0.21918  0.10859  1.0000
  C   C739      1.0  0.32071  0.29906  0.15479  1.0000
  N   N41       1.0  0.36875  0.43844  0.01930  1.0000
  H   H1312     1.0  0.36555  0.44280  0.04883  1.0000
  N   N42       1.0  0.43976  0.20844  0.12979  1.0000
  C   C740      1.0  0.42697  0.20354  0.14717  1.0000
  C   C741      1.0  0.43928  0.19431  0.11568  1.0000
  C   C742      1.0  0.45953  0.20723  0.13563  1.0000
  C   C743      1.0  0.43502  0.22819  0.12128  1.0000
  C   C744      1.0  0.41481  0.23304  0.11558  1.0000
  C   C745      1.0  0.42598  0.21686  0.16295  1.0000
  H   H1313     1.0  0.33847  0.42139  0.04407  1.0000
  C   C746      1.0  0.42022  0.18638  0.11426  1.0000
  C   C747      1.0  0.42106  0.17494  0.09740  1.0000
  H   H1314     1.0  0.35495  0.08880  0.16765  1.0000
  C   C748      1.0  0.28701  0.12219  0.16800  1.0000
  H   H1315     1.0  0.43137  0.18907  0.15322  1.0000
  H   H1316     1.0  0.41230  0.20302  0.14390  1.0000
  H   H1317     1.0  0.44457  0.20019  0.10145  1.0000
  H   H1318     1.0  0.44897  0.18160  0.11910  1.0000
  H   H1319     1.0  0.46249  0.19409  0.14490  1.0000
  H   H1320     1.0  0.46116  0.21896  0.14411  1.0000
  H   H1321     1.0  0.29131  0.12210  0.23393  1.0000
  H   H1322     1.0  0.44436  0.23129  0.10833  1.0000
  C   C749      1.0  0.36405  0.41856  0.02508  1.0000
  H   H1323     1.0  0.41304  0.22615  0.10285  1.0000
  H   H1324     1.0  0.43993  0.21728  0.16810  1.0000
  H   H1325     1.0  0.37262  0.46250  0.03383  1.0000
  H   H1326     1.0  0.34468  0.08403  0.21021  1.0000
  C   C750      1.0  0.25032  0.36895  0.11996  1.0000
  H   H1327     1.0  0.41673  0.17692  0.12699  1.0000
  H   H1328     1.0  0.40846  0.19742  0.11310  1.0000
  H   H1329     1.0  0.43223  0.16313  0.09835  1.0000
  H   H1330     1.0  0.40739  0.16903  0.09717  1.0000
  H   H1331     1.0  0.42377  0.18395  0.08416  1.0000
  C   C751      1.0  0.35541  0.03603  0.16650  1.0000
  H   H1332     1.0  0.40858  0.98996  0.16605  1.0000
  H   H1333     1.0  0.41196  0.22027  0.19069  1.0000
  H   H1334     1.0  0.35432  0.99153  0.09495  1.0000
  H   H1335     1.0  0.28877  0.26354  0.09305  1.0000
  C   C752      1.0  0.35968  0.44680  0.00196  1.0000
  N   N43       1.0  0.29176  0.28352  0.14577  1.0000
  C   C753      1.0  0.28172  0.30277  0.14785  1.0000
  C   C754      1.0  0.31282  0.28453  0.14380  1.0000
  C   C755      1.0  0.28606  0.26935  0.16172  1.0000
  C   C756      1.0  0.28717  0.27474  0.18180  1.0000
  C   C757      1.0  0.25996  0.30406  0.14901  1.0000
  H   H1336     1.0  0.41799  0.19621  0.18588  1.0000
  H   H1337     1.0  0.30924  0.13167  0.24498  1.0000
  H   H1338     1.0  0.28877  0.12234  0.15249  1.0000
  C   C758      1.0  0.42424  0.47880  0.01037  1.0000
  H   H1339     1.0  0.28643  0.31272  0.13578  1.0000
  H   H1340     1.0  0.28555  0.30875  0.16037  1.0000
  H   H1341     1.0  0.31780  0.28833  0.12892  1.0000
  H   H1342     1.0  0.27111  0.27510  0.12903  1.0000
  H   H1343     1.0  0.27159  0.26559  0.16065  1.0000
  H   H1344     1.0  0.29506  0.25592  0.16073  1.0000
  H   H1345     1.0  0.27944  0.28853  0.18418  1.0000
  H   H1346     1.0  0.30203  0.27489  0.18455  1.0000
  H   H1347     1.0  0.25530  0.30312  0.13493  1.0000
  H   H1348     1.0  0.24065  0.45652  0.16882  1.0000
  C   C759      1.0  0.29917  0.31177  0.98764  1.0000
  H   H1349     1.0  0.34821  0.17044  0.20184  1.0000
  H   H1350     1.0  0.47313  0.09971  0.11418  1.0000
  H   H1351     1.0  0.36052  0.01508  0.08809  1.0000
  H   H1352     1.0  0.35235  0.11615  0.20164  1.0000
  C   C760      1.0  0.30629  0.12046  0.17554  1.0000
  H   H1353     1.0  0.40124  0.99225  0.13275  1.0000
  H   H1354     1.0  0.38293  0.01605  0.14662  1.0000
  H   H1355     1.0  0.36970  0.01762  0.11982  1.0000
  S   S169      1.0  0.43155  0.98893  0.05444  1.0000
  H   H1356     1.0  0.28427  0.31606  0.98864  1.0000
  H   H1357     1.0  0.32431  0.47769  0.05498  1.0000
  C   C761      1.0  0.33959  0.11227  0.19598  1.0000
  H   H1358     1.0  0.38241  0.34195  0.01295  1.0000
  H   H1359     1.0  0.40249  0.44827  0.03760  1.0000
  C   C762      1.0  0.42182  0.42677  0.02625  1.0000
  H   H1360     1.0  0.37111  0.08960  0.18517  1.0000
  C   C763      1.0  0.30162  0.10501  0.25760  1.0000
  C   C764      1.0  0.41274  0.21032  0.17975  1.0000
  H   H1361     1.0  0.28602  0.44989  0.13979  1.0000
  H   H1362     1.0  0.34114  0.04340  0.16868  1.0000
  C   C765      1.0  0.29701  0.25849  0.12162  1.0000
  H   H1363     1.0  0.32025  0.27047  0.14733  1.0000
  H   H1364     1.0  0.46398  0.04569  0.03849  1.0000
  H   H1365     1.0  0.28609  0.24612  0.19498  1.0000
  H   H1366     1.0  0.42202  0.41208  0.02268  1.0000
  C   C766      1.0  0.27864  0.26028  0.19637  1.0000
  C   C767      1.0  0.30447  0.11954  0.19727  1.0000
  H   H1367     1.0  0.34727  0.30664  0.16230  1.0000
  C   C768      1.0  0.34212  0.29641  0.15392  1.0000
  H   H1368     1.0  0.32526  0.39283  0.03785  1.0000
  H   H1369     1.0  0.29618  0.24685  0.13286  1.0000
  H   H1370     1.0  0.36174  0.03411  0.18008  1.0000
  H   H1371     1.0  0.27418  0.24859  0.10864  1.0000
  C   C769      1.0  0.34019  0.39468  0.03306  1.0000
  H   H1372     1.0  0.28866  0.28803  0.11604  1.0000
  H   H1373     1.0  0.31384  0.13243  0.16895  1.0000
  H   H1374     1.0  0.47279  0.47112  0.99184  1.0000
  H   H1375     1.0  0.27377  0.46202  0.15876  1.0000
  H   H1376     1.0  0.25354  0.46034  0.13290  1.0000
  C   C770      1.0  0.36380  0.98868  0.13134  1.0000
  H   H1377     1.0  0.34146  0.01115  0.10584  1.0000
  C   C771      1.0  0.38906  0.11348  0.30049  1.0000
  C   C772      1.0  0.48662  0.00955  0.08062  1.0000
  H   H1378     1.0  0.43940  0.46120  0.99034  1.0000
  C   C773      1.0  0.25592  0.44790  0.14298  1.0000
  Fe  Fe85      1.0  0.42703  0.47736  0.09636  1.0000
  C   C774      1.0  0.37209  0.35047  0.98575  1.0000
  H   H1379     1.0  0.47722  0.19415  0.11280  1.0000
  H   H1380     1.0  0.42375  0.11573  0.30369  1.0000
  H   H1381     1.0  0.25730  0.33468  0.14719  1.0000
  H   H1382     1.0  0.34886  0.47929  0.05710  1.0000
  S   S170      1.0  0.44701  0.47454  0.11898  1.0000
  H   H1383     1.0  0.45486  0.98868  0.99196  1.0000
  C   C775      1.0  0.23949  0.44612  0.15862  1.0000
  Fe  Fe86      1.0  0.42306  0.47609  0.05568  1.0000
  H   H1384     1.0  0.38815  0.04235  0.30216  1.0000
  H   H1385     1.0  0.35461  0.12688  0.31731  1.0000
  C   C776      1.0  0.24766  0.15188  0.31816  1.0000
  S   S171      1.0  0.36467  0.07685  0.61764  1.0000
  H   H1386     1.0  0.39398  0.07904  0.58749  1.0000
  H   H1387     1.0  0.41958  0.00934  0.45079  1.0000
  S   S172      1.0  0.47429  0.05536  0.58131  1.0000
  H   H1388     1.0  0.43126  0.02111  0.38305  1.0000
  S   S173      1.0  0.44986  0.09382  0.61537  1.0000
  C   C777      1.0  0.48702  0.12392  0.43554  1.0000
  H   H1389     1.0  0.25607  0.13199  0.36704  1.0000
  Fe  Fe87      1.0  0.30404  0.08188  0.33903  1.0000
  S   S174      1.0  0.27889  0.10330  0.34774  1.0000
  Fe  Fe88      1.0  0.34593  0.07320  0.34732  1.0000
  S   S175      1.0  0.36669  0.08247  0.36585  1.0000
  Fe  Fe89      1.0  0.32376  0.04150  0.33808  1.0000
  S   S176      1.0  0.32028  0.01079  0.34891  1.0000
  C   C778      1.0  0.48122  0.07385  0.51750  1.0000
  S   S177      1.0  0.31893  0.06211  0.36018  1.0000
  Fe  Fe90      1.0  0.47299  0.06047  0.39491  1.0000
  S   S178      1.0  0.45313  0.05517  0.37337  1.0000
  S   S179      1.0  0.47436  0.04237  0.42218  1.0000
  H   H1390     1.0  0.43754  0.98663  0.56219  1.0000
  C   C779      1.0  0.25502  0.10436  0.35831  1.0000
  H   H1391     1.0  0.47502  0.99922  0.47634  1.0000
  H   H1392     1.0  0.44189  0.02419  0.47075  1.0000
  N   N44       1.0  0.41947  0.02109  0.62121  1.0000
  H   H1393     1.0  0.40161  0.05527  0.42210  1.0000
  H   H1394     1.0  0.42203  0.99893  0.38819  1.0000
  H   H1395     1.0  0.32003  0.99662  0.60739  1.0000
  H   H1396     1.0  0.27988  0.13640  0.51526  1.0000
  H   H1397     1.0  0.43070  0.06799  0.42856  1.0000
  C   C780      1.0  0.42154  0.99785  0.44140  1.0000
  H   H1398     1.0  0.43093  0.04231  0.40618  1.0000
  C   C781      1.0  0.42910  0.06301  0.37151  1.0000
  C   C782      1.0  0.41956  0.07644  0.38258  1.0000
  C   C783      1.0  0.40048  0.08222  0.38061  1.0000
  C   C784      1.0  0.39068  0.07458  0.36769  1.0000
  C   C785      1.0  0.40016  0.06099  0.35675  1.0000
  C   C786      1.0  0.41931  0.05534  0.35857  1.0000
  H   H1399     1.0  0.42690  0.08249  0.39255  1.0000
  H   H1400     1.0  0.39325  0.09272  0.38916  1.0000
  H   H1401     1.0  0.39269  0.05485  0.34696  1.0000
  H   H1402     1.0  0.42656  0.04488  0.34999  1.0000
  H   H1403     1.0  0.41552  0.04059  0.59686  1.0000
  H   H1404     1.0  0.36624  0.99691  0.32249  1.0000
  S   S180      1.0  0.47845  0.08658  0.40763  1.0000
  S   S181      1.0  0.33110  0.09443  0.32736  1.0000
  H   H1405     1.0  0.44812  0.05912  0.64670  1.0000
  H   H1406     1.0  0.35940  0.02637  0.39815  1.0000
  H   H1407     1.0  0.27043  0.99188  0.38169  1.0000
  C   C787      1.0  0.36864  0.02415  0.38510  1.0000
  C   C788      1.0  0.26292  0.10697  0.62500  1.0000
  Fe  Fe91      1.0  0.47512  0.07777  0.60072  1.0000
  C   C789      1.0  0.38884  0.07967  0.61741  1.0000
  C   C790      1.0  0.39692  0.08136  0.63390  1.0000
  C   C791      1.0  0.41593  0.08477  0.63318  1.0000
  C   C792      1.0  0.42706  0.08638  0.61602  1.0000
  C   C793      1.0  0.41921  0.08368  0.59962  1.0000
  C   C794      1.0  0.40014  0.08043  0.60032  1.0000
  C   C795      1.0  0.38293  0.02260  0.62024  1.0000
  H   H1408     1.0  0.45298  0.99086  0.48373  1.0000
  H   H1409     1.0  0.42760  0.08498  0.58629  1.0000
  H   H1410     1.0  0.38719  0.03224  0.41230  1.0000
  C   C796      1.0  0.43151  0.03500  0.64942  1.0000
  C   C797      1.0  0.45711  0.01610  0.49542  1.0000
  H   H1411     1.0  0.35097  0.13154  0.64619  1.0000
  H   H1412     1.0  0.44185  0.00473  0.58948  1.0000
  H   H1413     1.0  0.43647  0.02704  0.42569  1.0000
  C   C798      1.0  0.26976  0.12791  0.52422  1.0000
  H   H1414     1.0  0.44766  0.02836  0.62376  1.0000
  N   N45       1.0  0.41521  0.01792  0.41000  1.0000
  H   H1415     1.0  0.45167  0.02337  0.56028  1.0000
  H   H1416     1.0  0.45821  0.08425  0.50105  1.0000
  C   C799      1.0  0.46496  0.99677  0.48893  1.0000
  C   C800      1.0  0.24332  0.08994  0.35801  1.0000
  H   H1417     1.0  0.42667  0.02153  0.56189  1.0000
  H   H1418     1.0  0.25112  0.14237  0.33070  1.0000
  H   H1419     1.0  0.45023  0.00222  0.53199  1.0000
  H   H1420     1.0  0.36732  0.00486  0.34529  1.0000
  H   H1421     1.0  0.46381  0.00866  0.37388  1.0000
  H   H1422     1.0  0.45037  0.02627  0.59395  1.0000
  C   C801      1.0  0.42450  0.03302  0.41780  1.0000
  H   H1423     1.0  0.33757  0.01267  0.59996  1.0000
  C   C802      1.0  0.40928  0.00262  0.42474  1.0000
  H   H1424     1.0  0.27171  0.12924  0.53912  1.0000
  H   H1425     1.0  0.43324  0.05071  0.44830  1.0000
  H   H1426     1.0  0.38427  0.00870  0.61476  1.0000
  C   C803      1.0  0.43801  0.02748  0.56813  1.0000
  H   H1427     1.0  0.44602  0.04343  0.48362  1.0000
  H   H1428     1.0  0.44567  0.08824  0.34319  1.0000
  H   H1429     1.0  0.36189  0.12812  0.34031  1.0000
  H   H1430     1.0  0.46503  0.03247  0.46917  1.0000
  C   C804      1.0  0.39793  0.02715  0.40128  1.0000
  S   S182      1.0  0.46921  0.07551  0.46316  1.0000
  C   C805      1.0  0.37571  0.99836  0.33342  1.0000
  C   C806      1.0  0.26849  0.98695  0.36796  1.0000
  H   H1431     1.0  0.43089  0.04790  0.62114  1.0000
  C   C807      1.0  0.45514  0.98744  0.53585  1.0000
  H   H1432     1.0  0.47451  0.07919  0.53025  1.0000
  H   H1433     1.0  0.39479  0.00623  0.43121  1.0000
  S   S183      1.0  0.48339  0.00917  0.61396  1.0000
  H   H1434     1.0  0.40849  0.98942  0.41811  1.0000
  H   H1435     1.0  0.44133  0.99807  0.62112  1.0000
  C   C808      1.0  0.41157  0.04602  0.43051  1.0000
  H   H1436     1.0  0.38835  0.08034  0.64710  1.0000
  H   H1437     1.0  0.40141  0.03987  0.39202  1.0000
  H   H1438     1.0  0.40230  0.11891  0.64769  1.0000
  H   H1439     1.0  0.43564  0.04305  0.56667  1.0000
  H   H1440     1.0  0.39631  0.01274  0.37605  1.0000
  H   H1441     1.0  0.27764  0.10526  0.62002  1.0000
  C   C809      1.0  0.44763  0.00032  0.40011  1.0000
  C   C810      1.0  0.42847  0.00989  0.39456  1.0000
  H   H1442     1.0  0.46723  0.02257  0.50283  1.0000
  C   C811      1.0  0.33406  0.99803  0.59964  1.0000
  H   H1443     1.0  0.42205  0.08626  0.64593  1.0000
  C   C812      1.0  0.43863  0.02019  0.58874  1.0000
  H   H1444     1.0  0.35259  0.02268  0.62532  1.0000
  H   H1445     1.0  0.37136  0.11993  0.63415  1.0000
  H   H1446     1.0  0.41344  0.06813  0.44851  1.0000
  C   C813      1.0  0.41972  0.02536  0.60023  1.0000
  H   H1447     1.0  0.28117  0.98964  0.35828  1.0000
  C   C814      1.0  0.45221  0.02982  0.47867  1.0000
  H   H1448     1.0  0.48422  0.00248  0.52011  1.0000
  C   C815      1.0  0.24942  0.11452  0.61255  1.0000
  H   H1449     1.0  0.25610  0.99525  0.36230  1.0000
  H   H1450     1.0  0.25404  0.11852  0.59808  1.0000
  C   C816      1.0  0.32156  0.99080  0.33607  1.0000
  H   H1451     1.0  0.40920  0.01798  0.59433  1.0000
  C   C817      1.0  0.24973  0.13496  0.51998  1.0000
  H   H1452     1.0  0.40336  0.03773  0.44168  1.0000
  H   H1453     1.0  0.27297  0.11300  0.52129  1.0000
  H   H1454     1.0  0.44393  0.01467  0.50463  1.0000
  H   H1455     1.0  0.38141  0.03342  0.60819  1.0000
  Fe  Fe92      1.0  0.48217  0.06777  0.43443  1.0000
  C   C818      1.0  0.38275  0.11366  0.32165  1.0000
  C   C819      1.0  0.38793  0.01480  0.38963  1.0000
  H   H1456     1.0  0.33346  0.99541  0.58479  1.0000
  C   C820      1.0  0.42297  0.05894  0.43951  1.0000
  C   C821      1.0  0.40005  0.02605  0.63059  1.0000
  H   H1457     1.0  0.37003  0.03790  0.37681  1.0000
  H   H1458     1.0  0.36261  0.03822  0.63853  1.0000
  H   H1459     1.0  0.38643  0.00790  0.32737  1.0000
  H   H1460     1.0  0.36176  0.01509  0.37678  1.0000
  C   C822      1.0  0.47202  0.07672  0.50089  1.0000
  H   H1461     1.0  0.42642  0.99824  0.64199  1.0000
  S   S184      1.0  0.35180  0.05140  0.32686  1.0000
  H   H1462     1.0  0.24878  0.13370  0.50491  1.0000
  C   C823      1.0  0.42635  0.00093  0.62656  1.0000
  H   H1463     1.0  0.38594  0.00087  0.39730  1.0000
  H   H1464     1.0  0.24887  0.07726  0.35173  1.0000
  H   H1465     1.0  0.45985  0.12792  0.64608  1.0000
  H   H1466     1.0  0.45504  0.00931  0.40796  1.0000
  C   C824      1.0  0.48071  0.07032  0.48404  1.0000
  C   C825      1.0  0.43286  0.03336  0.62796  1.0000
  C   C826      1.0  0.25739  0.10179  0.64388  1.0000
  H   H1467     1.0  0.39797  0.04134  0.63242  1.0000
  C   C827      1.0  0.36476  0.02421  0.63314  1.0000
  C   C828      1.0  0.24726  0.12075  0.36653  1.0000
  C   C829      1.0  0.46072  0.99564  0.38283  1.0000
  H   H1468     1.0  0.34885  0.98788  0.62341  1.0000
  H   H1469     1.0  0.43658  0.99590  0.43662  1.0000
  C   C830      1.0  0.48548  0.99407  0.59627  1.0000
  H   H1470     1.0  0.37037  0.14475  0.63708  1.0000
  H   H1471     1.0  0.24755  0.14993  0.52275  1.0000
  H   H1472     1.0  0.25135  0.17537  0.59541  1.0000
  H   H1473     1.0  0.37766  0.10010  0.32763  1.0000
  S   S185      1.0  0.32011  0.05837  0.64523  1.0000
  H   H1474     1.0  0.42849  0.07469  0.32091  1.0000
  H   H1475     1.0  0.39855  0.01879  0.64500  1.0000
  C   C831      1.0  0.36651  0.13092  0.64380  1.0000
  Fe  Fe93      1.0  0.34542  0.07469  0.64473  1.0000
  H   H1476     1.0  0.36509  0.01322  0.64512  1.0000
  H   H1477     1.0  0.24903  0.15677  0.61396  1.0000
  C   C832      1.0  0.36670  0.12888  0.32512  1.0000
  H   H1478     1.0  0.42848  0.14564  0.64980  1.0000
  H   H1479     1.0  0.39442  0.11693  0.32934  1.0000
  H   H1480     1.0  0.41381  0.09215  0.33271  1.0000
  H   H1481     1.0  0.44078  0.11147  0.33206  1.0000
  H   H1482     1.0  0.46473  0.98771  0.44883  1.0000
  H   H1483     1.0  0.41242  0.98825  0.60554  1.0000
  H   H1484     1.0  0.46768  0.98736  0.54356  1.0000
  C   C833      1.0  0.44307  0.09637  0.32963  1.0000
  C   C834      1.0  0.42584  0.09000  0.32211  1.0000
  H   H1485     1.0  0.47714  0.13676  0.43647  1.0000
  H   H1486     1.0  0.47863  0.11165  0.43678  1.0000
  C   C835      1.0  0.24117  0.16685  0.60421  1.0000
  H   H1487     1.0  0.24331  0.17052  0.64887  1.0000
  H   H1488     1.0  0.37145  0.14302  0.32075  1.0000
  H   H1489     1.0  0.47420  0.98851  0.38730  1.0000
  H   H1490     1.0  0.36281  0.98665  0.60116  1.0000
  H   H1491     1.0  0.44549  0.98687  0.40865  1.0000
  H   H1492     1.0  0.45574  0.09399  0.31970  1.0000
  H   H1493     1.0  0.40634  0.04297  0.31774  1.0000
  S   S186      1.0  0.30736  0.06060  0.31739  1.0000
  S   S187      1.0  0.35561  0.05901  0.67058  1.0000
  C   C836      1.0  0.37511  0.12623  0.66246  1.0000
  S   S188      1.0  0.31306  0.06501  0.69002  1.0000
  Fe  Fe94      1.0  0.33875  0.08125  0.68668  1.0000
  S   S189      1.0  0.35595  0.08841  0.71018  1.0000
  Fe  Fe95      1.0  0.32958  0.04380  0.67222  1.0000
  S   S190      1.0  0.33550  0.01221  0.68057  1.0000
  H   H1494     1.0  0.30997  0.22534  0.79295  1.0000
  Fe  Fe96      1.0  0.39053  0.17277  0.82487  1.0000
  S   S191      1.0  0.40562  0.16854  0.79614  1.0000
  S   S192      1.0  0.38541  0.20345  0.83311  1.0000
  Fe  Fe97      1.0  0.38891  0.12994  0.83338  1.0000
  S   S193      1.0  0.40357  0.12329  0.80563  1.0000
  S   S194      1.0  0.37754  0.10702  0.85430  1.0000
  Fe  Fe98      1.0  0.42312  0.14470  0.81068  1.0000
  S   S195      1.0  0.45438  0.13531  0.80448  1.0000
  Fe  Fe99      1.0  0.38499  0.14739  0.79339  1.0000
  S   S196      1.0  0.36699  0.14760  0.76857  1.0000
  S   S197      1.0  0.40938  0.14986  0.83941  1.0000
  S   S198      1.0  0.36896  0.15313  0.82114  1.0000
  H   H1495     1.0  0.33836  0.18715  0.80400  1.0000
  H   H1496     1.0  0.36700  0.23972  0.89749  1.0000
  H   H1497     1.0  0.43632  0.05643  0.87512  1.0000
  S   S199      1.0  0.38109  0.98781  0.94477  1.0000
  C   C837      1.0  0.33910  0.26860  0.81199  1.0000
  H   H1498     1.0  0.31067  0.23855  0.74186  1.0000
  Fe  Fe100     1.0  0.40262  0.99670  0.87666  1.0000
  S   S200      1.0  0.40854  0.02092  0.85457  1.0000
  C   C838      1.0  0.44774  0.04507  0.65460  1.0000
  Fe  Fe101     1.0  0.32360  0.29363  0.88441  1.0000
  S   S201      1.0  0.29429  0.30238  0.89741  1.0000
  S   S202      1.0  0.32791  0.26260  0.87705  1.0000
  Fe  Fe102     1.0  0.33706  0.33175  0.89078  1.0000
  S   S203      1.0  0.30915  0.34236  0.90418  1.0000
  S   S204      1.0  0.36283  0.34832  0.88872  1.0000
  Fe  Fe103     1.0  0.30867  0.31377  0.91962  1.0000
  S   S205      1.0  0.29603  0.31129  0.95000  1.0000
  Fe  Fe104     1.0  0.29663  0.33044  0.88096  1.0000
  S   S206      1.0  0.27352  0.35142  0.86898  1.0000
  S   S207      1.0  0.33758  0.30362  0.90788  1.0000
  S   S208      1.0  0.32501  0.32129  0.86632  1.0000
  Fe  Fe105     1.0  0.38287  0.45257  0.91314  1.0000
  S   S209      1.0  0.40128  0.45044  0.93685  1.0000
  S   S210      1.0  0.36067  0.43216  0.91165  1.0000
  H   H1499     1.0  0.30539  0.08498  0.76098  1.0000
  H   H1500     1.0  0.35032  0.19771  0.81996  1.0000
  C   C839      1.0  0.25152  0.34941  0.86036  1.0000
  C   C840      1.0  0.31544  0.99318  0.65843  1.0000
  H   H1501     1.0  0.32737  0.26834  0.82329  1.0000
  H   H1502     1.0  0.31675  0.16957  0.82606  1.0000
  H   H1503     1.0  0.25679  0.32046  0.85481  1.0000
  C   C841      1.0  0.33902  0.25068  0.92577  1.0000
  H   H1504     1.0  0.34960  0.18117  0.95490  1.0000
  C   C842      1.0  0.36206  0.37208  0.89389  1.0000
  C   C843      1.0  0.34509  0.38250  0.89869  1.0000
  C   C844      1.0  0.34502  0.40089  0.90386  1.0000
  C   C845      1.0  0.36185  0.40926  0.90403  1.0000
  C   C846      1.0  0.37885  0.39902  0.89881  1.0000
  C   C847      1.0  0.37893  0.38052  0.89379  1.0000
  H   H1505     1.0  0.33200  0.37633  0.89863  1.0000
  H   H1506     1.0  0.33179  0.40869  0.90777  1.0000
  H   H1507     1.0  0.39191  0.40529  0.89879  1.0000
  H   H1508     1.0  0.39214  0.37264  0.88997  1.0000
  C   C848      1.0  0.32791  0.30299  0.96894  1.0000
  C   C849      1.0  0.30871  0.30861  0.97007  1.0000
  C   C850      1.0  0.36967  0.25191  0.90483  1.0000
  H   H1509     1.0  0.33529  0.30035  0.95552  1.0000
  C   C851      1.0  0.33793  0.25356  0.79869  1.0000
  C   C852      1.0  0.40248  0.10087  0.68341  1.0000
  C   C853      1.0  0.45096  0.99474  0.96281  1.0000
  H   H1510     1.0  0.26682  0.38367  0.83236  1.0000
  C   C854      1.0  0.36988  0.21923  0.84668  1.0000
  C   C855      1.0  0.35321  0.21397  0.85672  1.0000
  C   C856      1.0  0.34068  0.22739  0.86586  1.0000
  C   C857      1.0  0.34460  0.24628  0.86536  1.0000
  C   C858      1.0  0.36145  0.25145  0.85565  1.0000
  C   C859      1.0  0.37389  0.23807  0.84636  1.0000
  H   H1511     1.0  0.34986  0.19960  0.85729  1.0000
  H   H1512     1.0  0.32780  0.22308  0.87338  1.0000
  H   H1513     1.0  0.36484  0.26582  0.85511  1.0000
  H   H1514     1.0  0.38668  0.24243  0.83868  1.0000
  C   C860      1.0  0.47409  0.14664  0.80920  1.0000
  C   C861      1.0  0.47213  0.16367  0.81731  1.0000
  C   C862      1.0  0.40131  0.13382  0.69139  1.0000
  H   H1515     1.0  0.45825  0.17044  0.82074  1.0000
  H   H1516     1.0  0.24924  0.41862  0.82454  1.0000
  C   C863      1.0  0.38727  0.08333  0.85519  1.0000
  C   C864      1.0  0.37949  0.07001  0.86861  1.0000
  C   C865      1.0  0.38621  0.05089  0.86905  1.0000
  C   C866      1.0  0.40062  0.04491  0.85587  1.0000
  C   C867      1.0  0.40853  0.05825  0.84261  1.0000
  C   C868      1.0  0.40208  0.07739  0.84241  1.0000
  H   H1517     1.0  0.36807  0.07448  0.87860  1.0000
  H   H1518     1.0  0.37994  0.04074  0.87929  1.0000
  H   H1519     1.0  0.41944  0.05366  0.83219  1.0000
  H   H1520     1.0  0.40829  0.08750  0.83212  1.0000
  N   N46       1.0  0.32841  0.24585  0.94465  1.0000
  H   H1521     1.0  0.41208  0.14254  0.73576  1.0000
  C   C869      1.0  0.35880  0.10528  0.72609  1.0000
  C   C870      1.0  0.34681  0.12173  0.72761  1.0000
  C   C871      1.0  0.34955  0.13442  0.74066  1.0000
  C   C872      1.0  0.36432  0.13097  0.75237  1.0000
  C   C873      1.0  0.37656  0.11471  0.75057  1.0000
  C   C874      1.0  0.37372  0.10194  0.73764  1.0000
  H   H1522     1.0  0.33530  0.12459  0.71886  1.0000
  H   H1523     1.0  0.34007  0.14700  0.74174  1.0000
  H   H1524     1.0  0.38823  0.11201  0.75910  1.0000
  H   H1525     1.0  0.38319  0.08937  0.73657  1.0000
  S   S211      1.0  0.27378  0.09265  0.66066  1.0000
  H   H1526     1.0  0.37114  0.11214  0.66822  1.0000
  C   C875      1.0  0.32041  0.08729  0.76114  1.0000
  C   C876      1.0  0.39675  0.12713  0.65968  1.0000
  C   C877      1.0  0.36075  0.25013  0.92502  1.0000
  H   H1527     1.0  0.35962  0.22793  0.77669  1.0000
  C   C878      1.0  0.36326  0.19758  0.77746  1.0000
  C   C879      1.0  0.37979  0.19965  0.76255  1.0000
  H   H1528     1.0  0.35246  0.21186  0.93713  1.0000
  H   H1529     1.0  0.35128  0.19340  0.77078  1.0000
  H   H1530     1.0  0.39213  0.20368  0.76883  1.0000
  H   H1531     1.0  0.38376  0.18605  0.75649  1.0000
  H   H1532     1.0  0.37593  0.21041  0.75110  1.0000
  H   H1533     1.0  0.29875  0.37946  0.96185  1.0000
  C   C880      1.0  0.41779  0.08713  0.69244  1.0000
  C   C881      1.0  0.40999  0.06855  0.69998  1.0000
  H   H1534     1.0  0.38974  0.10141  0.69353  1.0000
  H   H1535     1.0  0.32388  0.23484  0.81866  1.0000
  H   H1536     1.0  0.42964  0.08382  0.68179  1.0000
  H   H1537     1.0  0.42337  0.09304  0.70411  1.0000
  H   H1538     1.0  0.42122  0.05885  0.70615  1.0000
  H   H1539     1.0  0.39826  0.07085  0.71100  1.0000
  H   H1540     1.0  0.40478  0.06182  0.68852  1.0000
  C   C882      1.0  0.47284  0.46451  0.91602  1.0000
  H   H1541     1.0  0.31139  0.27240  0.94516  1.0000
  C   C883      1.0  0.33731  0.23395  0.80958  1.0000
  H   H1542     1.0  0.32199  0.10246  0.75748  1.0000
  H   H1543     1.0  0.34862  0.23223  0.81919  1.0000
  H   H1544     1.0  0.34147  0.26639  0.95752  1.0000
  C   C884      1.0  0.32014  0.19933  0.82598  1.0000
  H   H1545     1.0  0.35263  0.26636  0.81845  1.0000
  H   H1546     1.0  0.35644  0.46077  0.96481  1.0000
  H   H1547     1.0  0.35024  0.25428  0.78818  1.0000
  H   H1548     1.0  0.43915  0.02270  0.87554  1.0000
  H   H1549     1.0  0.36393  0.26504  0.89712  1.0000
  C   C885      1.0  0.24261  0.17474  0.67789  1.0000
  N   N47       1.0  0.33889  0.21727  0.79817  1.0000
  C   C886      1.0  0.29733  0.25519  0.92901  1.0000
  H   H1550     1.0  0.30100  0.37570  0.93717  1.0000
  H   H1551     1.0  0.39883  0.14200  0.65487  1.0000
  H   H1552     1.0  0.44661  0.11279  0.85114  1.0000
  H   H1553     1.0  0.44601  0.04690  0.66981  1.0000
  H   H1554     1.0  0.25269  0.40096  0.76369  1.0000
  H   H1555     1.0  0.27963  0.28119  0.93323  1.0000
  H   H1556     1.0  0.32484  0.25727  0.79167  1.0000
  H   H1557     1.0  0.26146  0.36600  0.81814  1.0000
  S   S212      1.0  0.40494  0.46400  0.89158  1.0000
  C   C887      1.0  0.42810  0.12058  0.67023  1.0000
  H   H1558     1.0  0.33450  0.26521  0.92014  1.0000
  H   H1559     1.0  0.33832  0.28270  0.80412  1.0000
  H   H1560     1.0  0.30419  0.26062  0.91532  1.0000
  H   H1561     1.0  0.31056  0.00679  0.65199  1.0000
  H   H1562     1.0  0.43237  0.15003  0.67329  1.0000
  Fe  Fe106     1.0  0.39005  0.48003  0.94090  1.0000
  C   C888      1.0  0.44203  0.04793  0.88734  1.0000
  C   C889      1.0  0.47368  0.00826  0.86401  1.0000
  C   C890      1.0  0.48190  0.47273  0.97849  1.0000
  H   H1563     1.0  0.31784  0.34909  0.96867  1.0000
  H   H1564     1.0  0.46137  0.06834  0.85975  1.0000
  H   H1565     1.0  0.30080  0.25342  0.95846  1.0000
  C   C891      1.0  0.33784  0.19985  0.81174  1.0000
  H   H1566     1.0  0.36916  0.21670  0.79685  1.0000
  H   H1567     1.0  0.36467  0.26211  0.93196  1.0000
  H   H1568     1.0  0.32874  0.07916  0.75032  1.0000
  H   H1569     1.0  0.30711  0.20335  0.81895  1.0000
  C   C892      1.0  0.47542  0.99113  0.91738  1.0000
  H   H1570     1.0  0.41107  0.15944  0.71556  1.0000
  H   H1571     1.0  0.43684  0.11500  0.68171  1.0000
  H   H1572     1.0  0.33008  0.18740  0.94098  1.0000
  H   H1573     1.0  0.46526  0.08569  0.82808  1.0000
  H   H1574     1.0  0.45339  0.01924  0.89448  1.0000
  H   H1575     1.0  0.36206  0.38973  0.96941  1.0000
  H   H1576     1.0  0.45243  0.05563  0.89305  1.0000
  H   H1577     1.0  0.47704  0.09997  0.86359  1.0000
  H   H1578     1.0  0.38040  0.43780  0.97922  1.0000
  H   H1579     1.0  0.34708  0.33843  0.97968  1.0000
  C   C893      1.0  0.26415  0.39394  0.80271  1.0000
  H   H1580     1.0  0.43193  0.11092  0.65902  1.0000
  H   H1581     1.0  0.29726  0.24087  0.76415  1.0000
  H   H1582     1.0  0.26726  0.41750  0.77027  1.0000
  H   H1583     1.0  0.40744  0.11707  0.71745  1.0000
  C   C894      1.0  0.26947  0.37837  0.81832  1.0000
  H   H1584     1.0  0.31932  0.20416  0.78368  1.0000
  H   H1585     1.0  0.42695  0.12945  0.70652  1.0000
  H   H1586     1.0  0.31710  0.26078  0.98202  1.0000
  H   H1587     1.0  0.38509  0.25226  0.90470  1.0000
  C   C895      1.0  0.29031  0.37154  0.81582  1.0000
  H   H1588     1.0  0.38612  0.13313  0.69605  1.0000
  H   H1589     1.0  0.27282  0.40579  0.80361  1.0000
  H   H1590     1.0  0.26929  0.38832  0.78919  1.0000
  C   C896      1.0  0.42561  0.04576  0.90239  1.0000
  H   H1591     1.0  0.25528  0.16477  0.67970  1.0000
  H   H1592     1.0  0.43567  0.02087  0.95317  1.0000
  H   H1593     1.0  0.40251  0.14861  0.68554  1.0000
  H   H1594     1.0  0.48648  0.18530  0.82707  1.0000
  S   S213      1.0  0.36985  0.48146  0.91915  1.0000
  H   H1595     1.0  0.33166  0.17504  0.84322  1.0000
  C   C897      1.0  0.35801  0.21585  0.78734  1.0000
  H   H1596     1.0  0.31905  0.22133  0.93460  1.0000
  H   H1597     1.0  0.29479  0.24039  0.92813  1.0000
  Fe  Fe107     1.0  0.42269  0.46377  0.91589  1.0000
  H   H1598     1.0  0.43197  0.02106  0.65750  1.0000
  C   C898      1.0  0.45835  0.99784  0.85675  1.0000
  S   S214      1.0  0.33003  0.09827  0.66023  1.0000
  H   H1599     1.0  0.39039  0.14816  0.72512  1.0000
  H   H1600     1.0  0.32709  0.18932  0.96602  1.0000
  C   C899      1.0  0.35355  0.35193  0.97612  1.0000
  H   H1601     1.0  0.41928  0.05981  0.90596  1.0000
  H   H1602     1.0  0.29384  0.36531  0.80228  1.0000
  H   H1603     1.0  0.29910  0.38327  0.81642  1.0000
  H   H1604     1.0  0.29366  0.36059  0.82732  1.0000
  H   H1605     1.0  0.36745  0.18591  0.78792  1.0000
  C   C900      1.0  0.48377  0.03496  0.87747  1.0000
  H   H1606     1.0  0.38330  0.41374  0.95462  1.0000
  N   N48       1.0  0.35476  0.35701  0.95517  1.0000
  C   C901      1.0  0.37013  0.36949  0.94816  1.0000
  C   C902      1.0  0.35779  0.33967  0.94465  1.0000
  C   C903      1.0  0.33631  0.36734  0.95018  1.0000
  C   C904      1.0  0.45065  0.02857  0.88154  1.0000
  H   H1607     1.0  0.35269  0.24359  0.96074  1.0000
  C   C905      1.0  0.36736  0.38966  0.95442  1.0000
  C   C906      1.0  0.31881  0.35605  0.95419  1.0000
  C   C907      1.0  0.37613  0.32687  0.94727  1.0000
  C   C908      1.0  0.37825  0.31112  0.93426  1.0000
  C   C909      1.0  0.38576  0.39898  0.95122  1.0000
  C   C910      1.0  0.30071  0.36869  0.95165  1.0000
  H   H1608     1.0  0.37172  0.37100  0.93256  1.0000
  H   H1609     1.0  0.38398  0.36304  0.95213  1.0000
  H   H1610     1.0  0.34641  0.33044  0.94884  1.0000
  H   H1611     1.0  0.35709  0.34370  0.92936  1.0000
  H   H1612     1.0  0.33723  0.37244  0.93508  1.0000
  H   H1613     1.0  0.33313  0.38009  0.95790  1.0000
  H   H1614     1.0  0.45063  0.00684  0.84611  1.0000
  H   H1615     1.0  0.41636  0.46908  0.96669  1.0000
  H   H1616     1.0  0.27000  0.26532  0.91978  1.0000
  C   C911      1.0  0.33688  0.19107  0.95314  1.0000
  H   H1617     1.0  0.35698  0.39837  0.94602  1.0000
  H   H1618     1.0  0.46407  0.13252  0.66949  1.0000
  C   C912      1.0  0.46435  0.03985  0.84973  1.0000
  H   H1619     1.0  0.31934  0.34519  0.94421  1.0000
  H   H1620     1.0  0.38873  0.33470  0.94409  1.0000
  H   H1621     1.0  0.37578  0.32011  0.96182  1.0000
  H   H1622     1.0  0.37863  0.31702  0.91937  1.0000
  H   H1623     1.0  0.39158  0.30224  0.93624  1.0000
  H   H1624     1.0  0.36646  0.30211  0.93740  1.0000
  C   C913      1.0  0.47185  0.48358  0.90970  1.0000
  C   C914      1.0  0.45635  0.13777  0.65713  1.0000
  H   H1625     1.0  0.39631  0.39153  0.96022  1.0000
  H   H1626     1.0  0.24996  0.37001  0.78164  1.0000
  H   H1627     1.0  0.41458  0.03836  0.89722  1.0000
  H   H1628     1.0  0.47962  0.10959  0.83941  1.0000
  N   N49       1.0  0.46811  0.02840  0.86800  1.0000
  H   H1629     1.0  0.33879  0.44448  0.97151  1.0000
  H   H1630     1.0  0.24706  0.18920  0.67542  1.0000
  H   H1631     1.0  0.48437  0.02759  0.89179  1.0000
  H   H1632     1.0  0.42169  0.00530  0.96842  1.0000
  H   H1633     1.0  0.48377  0.13414  0.87061  1.0000
  C   C915      1.0  0.43570  0.01077  0.96588  1.0000
  C   C916      1.0  0.47636  0.11310  0.85412  1.0000
  H   H1634     1.0  0.30224  0.21804  0.75523  1.0000
  H   H1635     1.0  0.48604  0.00743  0.85341  1.0000
  C   C917      1.0  0.45617  0.12217  0.85592  1.0000
  C   C918      1.0  0.46826  0.06085  0.84786  1.0000
  Fe  Fe108     1.0  0.30504  0.08087  0.66249  1.0000
  H   H1636     1.0  0.46449  0.00105  0.95937  1.0000
  C   C919      1.0  0.24702  0.33290  0.85386  1.0000
  N   N50       1.0  0.24365  0.40118  0.80324  1.0000
  C   C920      1.0  0.32761  0.99200  0.67256  1.0000
  H   H1637     1.0  0.43045  0.03773  0.91528  1.0000
  H   H1638     1.0  0.32184  0.23566  0.98304  1.0000
  H   H1639     1.0  0.24206  0.37833  0.86370  1.0000
  H   H1640     1.0  0.47260  0.44865  0.96695  1.0000
  H   H1641     1.0  0.28857  0.36003  0.95401  1.0000
  H   H1642     1.0  0.39146  0.39903  0.93630  1.0000
  C   C921      1.0  0.32613  0.22864  0.76582  1.0000
  C   C922      1.0  0.40588  0.14610  0.72220  1.0000
  H   H1643     1.0  0.35845  0.43861  0.95499  1.0000
  C   C923      1.0  0.34246  0.21118  0.94987  1.0000
  H   H1644     1.0  0.36852  0.13657  0.67214  1.0000
  H   H1645     1.0  0.46112  0.15163  0.65153  1.0000
  H   H1646     1.0  0.44950  0.03917  0.84681  1.0000
  C   C924      1.0  0.38834  0.98960  0.98133  1.0000
  H   H1647     1.0  0.45494  0.13574  0.84710  1.0000
  H   H1648     1.0  0.36712  0.23705  0.93209  1.0000
  H   H1649     1.0  0.45158  0.12468  0.87071  1.0000
  N   N51       1.0  0.35577  0.07929  0.79969  1.0000
  C   C925      1.0  0.34511  0.09124  0.81402  1.0000
  C   C926      1.0  0.35402  0.05894  0.80639  1.0000
  C   C927      1.0  0.37597  0.08378  0.79753  1.0000
  C   C928      1.0  0.34801  0.08334  0.78088  1.0000
  C   C929      1.0  0.32684  0.08103  0.78056  1.0000
  C   C930      1.0  0.34253  0.11261  0.80811  1.0000
  C   C931      1.0  0.38985  0.07108  0.78529  1.0000
  C   C932      1.0  0.36363  0.05161  0.82439  1.0000
  C   C933      1.0  0.36083  0.03094  0.82990  1.0000
  H   H1650     1.0  0.32080  0.20903  0.83689  1.0000
  C   C934      1.0  0.33176  0.12309  0.82386  1.0000
  C   C935      1.0  0.40992  0.07648  0.78494  1.0000
  H   H1651     1.0  0.35237  0.08969  0.82712  1.0000
  H   H1652     1.0  0.33098  0.08633  0.81837  1.0000
  H   H1653     1.0  0.33898  0.05636  0.80946  1.0000
  H   H1654     1.0  0.35951  0.04976  0.79514  1.0000
  H   H1655     1.0  0.38140  0.08354  0.81147  1.0000
  H   H1656     1.0  0.37704  0.09839  0.79113  1.0000
  H   H1657     1.0  0.35062  0.09774  0.77477  1.0000
  H   H1658     1.0  0.35552  0.07392  0.77069  1.0000
  H   H1659     1.0  0.31804  0.08951  0.79072  1.0000
  H   H1660     1.0  0.32409  0.06610  0.78391  1.0000
  H   H1661     1.0  0.35630  0.11846  0.80484  1.0000
  H   H1662     1.0  0.33449  0.11573  0.79565  1.0000
  H   H1663     1.0  0.38616  0.07253  0.77061  1.0000
  H   H1664     1.0  0.38991  0.05610  0.79067  1.0000
  H   H1665     1.0  0.37893  0.05281  0.82228  1.0000
  H   H1666     1.0  0.35773  0.05955  0.83637  1.0000
  H   H1667     1.0  0.34566  0.02887  0.83260  1.0000
  H   H1668     1.0  0.36733  0.02218  0.81871  1.0000
  H   H1669     1.0  0.36766  0.02614  0.84293  1.0000
  H   H1670     1.0  0.44768  0.98793  0.95058  1.0000
  H   H1671     1.0  0.33968  0.12126  0.83649  1.0000
  H   H1672     1.0  0.32991  0.13827  0.81919  1.0000
  H   H1673     1.0  0.31768  0.11796  0.82755  1.0000
  H   H1674     1.0  0.41092  0.09121  0.77889  1.0000
  H   H1675     1.0  0.41454  0.07491  0.79930  1.0000
  H   H1676     1.0  0.41958  0.06718  0.77617  1.0000
  C   C936      1.0  0.31875  0.17975  0.83612  1.0000
  C   C937      1.0  0.32295  0.21846  0.78580  1.0000
  H   H1677     1.0  0.33156  0.24246  0.76592  1.0000
  H   H1678     1.0  0.46927  0.00241  0.92548  1.0000
  H   H1679     1.0  0.33645  0.22011  0.75692  1.0000
  S   S215      1.0  0.45299  0.45144  0.91808  1.0000
  H   H1680     1.0  0.47829  0.99982  0.87681  1.0000
  H   H1681     1.0  0.25428  0.42832  0.74034  1.0000
  C   C938      1.0  0.41149  0.13028  0.70949  1.0000
  C   C939      1.0  0.27810  0.26619  0.93195  1.0000
  C   C940      1.0  0.30951  0.25719  0.94521  1.0000
  C   C941      1.0  0.30791  0.23167  0.75624  1.0000
  C   C942      1.0  0.33862  0.25138  0.96029  1.0000
  N   N52       1.0  0.40740  0.12055  0.67654  1.0000
  H   H1682     1.0  0.27007  0.26033  0.94482  1.0000
  H   H1683     1.0  0.44813  0.99348  0.86861  1.0000
  C   C943      1.0  0.25250  0.41496  0.76877  1.0000
  C   C944      1.0  0.43518  0.13981  0.66259  1.0000
  C   C945      1.0  0.46134  0.07105  0.82983  1.0000
  H   H1684     1.0  0.30654  0.17999  0.84688  1.0000
  C   C946      1.0  0.32508  0.22532  0.94709  1.0000
  H   H1685     1.0  0.33544  0.24168  0.91516  1.0000
  H   H1686     1.0  0.47291  0.03366  0.83772  1.0000
  S   S216      1.0  0.41744  0.99215  0.90279  1.0000
  H   H1687     1.0  0.48356  0.06216  0.84727  1.0000
  C   C947      1.0  0.35403  0.44572  0.96791  1.0000
  H   H1688     1.0  0.31427  0.22245  0.95893  1.0000
  H   H1689     1.0  0.38353  0.34173  0.97849  1.0000
  H   H1690     1.0  0.34959  0.21376  0.96219  1.0000
  H   H1691     1.0  0.46769  0.06393  0.81742  1.0000
  H   H1692     1.0  0.43820  0.01832  0.97798  1.0000
  H   H1693     1.0  0.39859  0.09354  0.67172  1.0000
  H   H1694     1.0  0.24374  0.43037  0.79222  1.0000
  C   C948      1.0  0.48567  0.45337  0.97121  1.0000
  C   C949      1.0  0.36532  0.43673  0.98392  1.0000
  H   H1695     1.0  0.45799  0.48233  0.96325  1.0000
  H   H1696     1.0  0.48107  0.05000  0.87986  1.0000
  C   C950      1.0  0.48818  0.17207  0.82089  1.0000
  H   H1697     1.0  0.44583  0.07163  0.83035  1.0000
  C   C951      1.0  0.41417  0.47535  0.97984  1.0000
  H   H1698     1.0  0.41826  0.04321  0.65411  1.0000
  C   C952      1.0  0.32832  0.24910  0.98028  1.0000
  H   H1699     1.0  0.38310  0.00421  0.97920  1.0000
  H   H1700     1.0  0.24527  0.44392  0.75788  1.0000
  C   C953      1.0  0.24518  0.42950  0.75365  1.0000
  H   H1701     1.0  0.47956  0.48550  0.95000  1.0000
  H   H1702     1.0  0.33822  0.48608  0.87610  1.0000
  H   H1703     1.0  0.46135  0.03672  0.65138  1.0000
  C   C954      1.0  0.24051  0.41672  0.78778  1.0000
  C   C955      1.0  0.23864  0.36546  0.85887  1.0000
  H   H1704     1.0  0.34383  0.36238  0.98358  1.0000
  C   C956      1.0  0.42891  0.52620  0.11884  1.0000
  H   H1705     1.0  0.29730  0.74177  0.17215  1.0000
  S   S217      1.0  0.34750  0.84386  0.29025  1.0000
  Fe  Fe109     1.0  0.38041  0.82252  0.18171  1.0000
  S   S218      1.0  0.37259  0.81705  0.15312  1.0000
  S   S219      1.0  0.35995  0.84004  0.20130  1.0000
  Fe  Fe110     1.0  0.42134  0.80651  0.17324  1.0000
  S   S220      1.0  0.41654  0.79971  0.14442  1.0000
  S   S221      1.0  0.44872  0.80148  0.18749  1.0000
  Fe  Fe111     1.0  0.40025  0.82828  0.14226  1.0000
  S   S222      1.0  0.40664  0.84876  0.11670  1.0000
  Fe  Fe112     1.0  0.38920  0.78862  0.15716  1.0000
  S   S223      1.0  0.38134  0.75874  0.15235  1.0000
  S   S224      1.0  0.40688  0.83554  0.17012  1.0000
  S   S225      1.0  0.39521  0.79362  0.18662  1.0000
  Fe  Fe113     1.0  0.40382  0.95699  0.09225  1.0000
  S   S226      1.0  0.42475  0.94577  0.07040  1.0000
  S   S227      1.0  0.38939  0.93748  0.11478  1.0000
  H   H1706     1.0  0.43023  0.55917  0.13498  1.0000
  H   H1707     1.0  0.44275  0.56163  0.05571  1.0000
  Fe  Fe114     1.0  0.41193  0.96764  0.04981  1.0000
  H   H1708     1.0  0.41432  0.49407  0.13769  1.0000
  H   H1709     1.0  0.35653  0.91527  0.08571  1.0000
  Fe  Fe115     1.0  0.33733  0.67610  0.09530  1.0000
  S   S228      1.0  0.31267  0.67513  0.07821  1.0000
  S   S229      1.0  0.34431  0.70600  0.10076  1.0000
  Fe  Fe116     1.0  0.34397  0.63242  0.09809  1.0000
  S   S230      1.0  0.31999  0.62902  0.08138  1.0000
  S   S231      1.0  0.36060  0.60702  0.11210  1.0000
  Fe  Fe117     1.0  0.33055  0.65333  0.06219  1.0000
  S   S232      1.0  0.33882  0.65249  0.03051  1.0000
  Fe  Fe118     1.0  0.30394  0.65080  0.09868  1.0000
  S   S233      1.0  0.27477  0.65003  0.11509  1.0000
  S   S234      1.0  0.35568  0.65546  0.07818  1.0000
  S   S235      1.0  0.32748  0.65306  0.11649  1.0000
  H   H1710     1.0  0.35439  0.86936  0.06380  1.0000
  C   C957      1.0  0.47197  0.82205  0.16174  1.0000
  H   H1711     1.0  0.33001  0.97653  0.29205  1.0000
  Fe  Fe119     1.0  0.39684  0.50364  0.07809  1.0000
  S   S236      1.0  0.37985  0.53170  0.07157  1.0000
  S   S237      1.0  0.42829  0.49944  0.07218  1.0000
  S   S238      1.0  0.42239  0.97770  0.10016  1.0000
  C   C958      1.0  0.40786  0.97719  0.15882  1.0000
  S   S239      1.0  0.40939  0.95351  0.02326  1.0000
  H   H1712     1.0  0.44174  0.89966  0.13028  1.0000
  H   H1713     1.0  0.47108  0.93663  0.99454  1.0000
  C   C959      1.0  0.25891  0.63217  0.12051  1.0000
  C   C960      1.0  0.48731  0.49933  0.03327  1.0000
  H   H1714     1.0  0.45961  0.97062  0.01792  1.0000
  H   H1715     1.0  0.27247  0.61343  0.10093  1.0000
  C   C961      1.0  0.32656  0.65442  0.01003  1.0000
  C   C962      1.0  0.48715  0.93732  0.12963  1.0000
  C   C963      1.0  0.30702  0.65470  0.01080  1.0000
  N   N53       1.0  0.44163  0.54169  0.11297  1.0000
  H   H1716     1.0  0.29880  0.65420  0.02424  1.0000
  C   C964      1.0  0.36645  0.58617  0.10079  1.0000
  C   C965      1.0  0.36254  0.58530  0.08236  1.0000
  C   C966      1.0  0.36690  0.56852  0.07371  1.0000
  C   C967      1.0  0.37518  0.55238  0.08337  1.0000
  C   C968      1.0  0.37893  0.55313  0.10195  1.0000
  C   C969      1.0  0.37473  0.57003  0.11057  1.0000
  H   H1717     1.0  0.35617  0.59766  0.07481  1.0000
  H   H1718     1.0  0.36377  0.56794  0.05944  1.0000
  H   H1719     1.0  0.38461  0.54064  0.10975  1.0000
  H   H1720     1.0  0.37760  0.57053  0.12495  1.0000
  C   C970      1.0  0.40868  0.49164  0.01380  1.0000
  H   H1721     1.0  0.37410  0.85310  0.08876  1.0000
  N   N54       1.0  0.37646  0.90219  0.05082  1.0000
  H   H1722     1.0  0.41456  0.59577  0.11002  1.0000
  H   H1723     1.0  0.41086  0.86877  0.23702  1.0000
  C   C971      1.0  0.37153  0.74440  0.13725  1.0000
  C   C972      1.0  0.36108  0.75194  0.12240  1.0000
  C   C973      1.0  0.35313  0.74002  0.11139  1.0000
  C   C974      1.0  0.35554  0.72029  0.11477  1.0000
  C   C975      1.0  0.36617  0.71273  0.12947  1.0000
  C   C976      1.0  0.37389  0.72465  0.14066  1.0000
  H   H1724     1.0  0.35901  0.76700  0.11946  1.0000
  H   H1725     1.0  0.34503  0.74619  0.10010  1.0000
  H   H1726     1.0  0.36845  0.69767  0.13225  1.0000
  H   H1727     1.0  0.38194  0.71849  0.15199  1.0000
  C   C977      1.0  0.40284  0.87335  0.11753  1.0000
  C   C978      1.0  0.39038  0.88153  0.13125  1.0000
  C   C979      1.0  0.38656  0.90120  0.13041  1.0000
  C   C980      1.0  0.39529  0.91285  0.11599  1.0000
  C   C981      1.0  0.40820  0.90464  0.10266  1.0000
  C   C982      1.0  0.41186  0.88502  0.10338  1.0000
  H   H1728     1.0  0.38330  0.87266  0.14221  1.0000
  H   H1729     1.0  0.37659  0.90736  0.14084  1.0000
  H   H1730     1.0  0.41514  0.91330  0.09159  1.0000
  H   H1731     1.0  0.42157  0.87879  0.09277  1.0000
  C   C983      1.0  0.47041  0.81013  0.17828  1.0000
  C   C984      1.0  0.40125  0.95186  0.98716  1.0000
  C   C985      1.0  0.35141  0.84348  0.26545  1.0000
  C   C986      1.0  0.36032  0.82714  0.25803  1.0000
  C   C987      1.0  0.36335  0.82593  0.23849  1.0000
  C   C988      1.0  0.35739  0.84105  0.22607  1.0000
  C   C989      1.0  0.34833  0.85732  0.23351  1.0000
  C   C990      1.0  0.34551  0.85863  0.25304  1.0000
  H   H1732     1.0  0.36472  0.81523  0.26747  1.0000
  H   H1733     1.0  0.36987  0.81314  0.23303  1.0000
  H   H1734     1.0  0.34343  0.86903  0.22406  1.0000
  H   H1735     1.0  0.33854  0.87125  0.25847  1.0000
  H   H1736     1.0  0.36568  0.97498  0.12512  1.0000
  H   H1737     1.0  0.42934  0.91105  0.02110  1.0000
  C   C991      1.0  0.32294  0.75512  0.16940  1.0000
  C   C992      1.0  0.45967  0.53653  0.12224  1.0000
  C   C993      1.0  0.37378  0.92079  0.05928  1.0000
  H   H1738     1.0  0.38307  0.50516  0.00375  1.0000
  H   H1739     1.0  0.34961  0.85752  0.09668  1.0000
  H   H1740     1.0  0.47784  0.90188  0.06868  1.0000
  H   H1741     1.0  0.38829  0.91391  0.30730  1.0000
  H   H1742     1.0  0.24891  0.82473  0.29233  1.0000
  H   H1743     1.0  0.45976  0.82601  0.15409  1.0000
  H   H1744     1.0  0.48594  0.91382  0.09760  1.0000
  H   H1745     1.0  0.39737  0.88835  0.03173  1.0000
  H   H1746     1.0  0.30295  0.70718  0.19240  1.0000
  H   H1747     1.0  0.42674  0.52688  0.00598  1.0000
  C   C994      1.0  0.40775  0.85534  0.23200  1.0000
  H   H1748     1.0  0.35083  0.97824  0.16624  1.0000
  N   N55       1.0  0.30854  0.70878  0.15264  1.0000
  C   C995      1.0  0.31998  0.72282  0.15943  1.0000
  C   C996      1.0  0.32053  0.69052  0.15000  1.0000
  C   C997      1.0  0.30242  0.71682  0.13376  1.0000
  C   C998      1.0  0.29105  0.70555  0.16550  1.0000
  C   C999      1.0  0.29325  0.70334  0.12255  1.0000
  C   C1000     1.0  0.33563  0.68430  0.16391  1.0000
  C   C1001     1.0  0.34487  0.66465  0.16080  1.0000
  C   C1002     1.0  0.28794  0.71314  0.10376  1.0000
  H   H1749     1.0  0.33265  0.72476  0.14946  1.0000
  H   H1750     1.0  0.31148  0.67882  0.14996  1.0000
  H   H1751     1.0  0.32869  0.69135  0.13602  1.0000
  H   H1752     1.0  0.31458  0.72209  0.12464  1.0000
  H   H1753     1.0  0.29202  0.72922  0.13526  1.0000
  H   H1754     1.0  0.28121  0.71852  0.16536  1.0000
  H   H1755     1.0  0.28319  0.69490  0.16027  1.0000
  H   H1756     1.0  0.30572  0.74969  0.14847  1.0000
  H   H1757     1.0  0.28024  0.69848  0.13030  1.0000
  H   H1758     1.0  0.30296  0.69083  0.11948  1.0000
  H   H1759     1.0  0.34693  0.69397  0.16174  1.0000
  H   H1760     1.0  0.32983  0.68427  0.17869  1.0000
  H   H1761     1.0  0.35563  0.66057  0.17085  1.0000
  H   H1762     1.0  0.33429  0.65421  0.16298  1.0000
  H   H1763     1.0  0.35195  0.66439  0.14637  1.0000
  H   H1764     1.0  0.27792  0.72569  0.10587  1.0000
  H   H1765     1.0  0.30069  0.71743  0.09498  1.0000
  H   H1766     1.0  0.28117  0.70334  0.09617  1.0000
  H   H1767     1.0  0.33563  0.75681  0.15943  1.0000
  C   C1003     1.0  0.34783  0.59727  0.01430  1.0000
  N   N56       1.0  0.31073  0.57086  0.12209  1.0000
  C   C1004     1.0  0.32436  0.55348  0.12196  1.0000
  C   C1005     1.0  0.31135  0.58122  0.10272  1.0000
  C   C1006     1.0  0.31710  0.58351  0.13529  1.0000
  C   C1007     1.0  0.29102  0.56648  0.12919  1.0000
  C   C1008     1.0  0.28173  0.55305  0.11827  1.0000
  C   C1009     1.0  0.32652  0.54187  0.14106  1.0000
  C   C1010     1.0  0.30696  0.60368  0.13517  1.0000
  C   C1011     1.0  0.31430  0.56925  0.08567  1.0000
  C   C1012     1.0  0.31168  0.58142  0.06733  1.0000
  C   C1013     1.0  0.26336  0.54731  0.12887  1.0000
  C   C1014     1.0  0.34024  0.52442  0.13869  1.0000
  C   C1015     1.0  0.31455  0.61482  0.14926  1.0000
  H   H1768     1.0  0.33857  0.55744  0.11629  1.0000
  H   H1769     1.0  0.32069  0.54366  0.11229  1.0000
  H   H1770     1.0  0.29844  0.59095  0.10130  1.0000
  H   H1771     1.0  0.32328  0.59024  0.10062  1.0000
  H   H1772     1.0  0.33243  0.58496  0.13221  1.0000
  H   H1773     1.0  0.31521  0.57724  0.15002  1.0000
  H   H1774     1.0  0.29044  0.56090  0.14419  1.0000
  H   H1775     1.0  0.28137  0.57954  0.12901  1.0000
  H   H1776     1.0  0.29089  0.54002  0.11596  1.0000
  H   H1777     1.0  0.27814  0.56032  0.10460  1.0000
  H   H1778     1.0  0.33222  0.55013  0.15101  1.0000
  H   H1779     1.0  0.31286  0.53714  0.14731  1.0000
  H   H1780     1.0  0.29167  0.60342  0.13907  1.0000
  H   H1781     1.0  0.30902  0.61159  0.12122  1.0000
  H   H1782     1.0  0.32882  0.56229  0.08453  1.0000
  H   H1783     1.0  0.30460  0.55813  0.08682  1.0000
  H   H1784     1.0  0.32200  0.59209  0.06504  1.0000
  H   H1785     1.0  0.31400  0.57251  0.05544  1.0000
  H   H1786     1.0  0.29725  0.58859  0.06753  1.0000
  C   C1016     1.0  0.27850  0.84368  0.30654  1.0000
  H   H1787     1.0  0.24432  0.56534  0.08859  1.0000
  H   H1788     1.0  0.26609  0.53914  0.14239  1.0000
  H   H1789     1.0  0.34175  0.51637  0.15252  1.0000
  H   H1790     1.0  0.46239  0.91862  0.10646  1.0000
  H   H1791     1.0  0.35431  0.52845  0.13275  1.0000
  H   H1792     1.0  0.32976  0.61629  0.14559  1.0000
  H   H1793     1.0  0.30696  0.62906  0.14901  1.0000
  H   H1794     1.0  0.31242  0.60781  0.16366  1.0000
  H   H1795     1.0  0.34701  0.86965  0.00965  1.0000
  H   H1796     1.0  0.41691  0.56144  0.11555  1.0000
  H   H1797     1.0  0.36307  0.61482  0.02935  1.0000
  C   C1017     1.0  0.42805  0.54815  0.08065  1.0000
  C   C1018     1.0  0.45912  0.83764  0.23708  1.0000
  H   H1798     1.0  0.41493  0.52996  0.11362  1.0000
  H   H1799     1.0  0.39336  0.91309  0.02622  1.0000
  N   N57       1.0  0.42238  0.83975  0.23761  1.0000
  C   C1019     1.0  0.42311  0.83941  0.25854  1.0000
  C   C1020     1.0  0.41666  0.82162  0.23206  1.0000
  C   C1021     1.0  0.42878  0.80353  0.23833  1.0000
  C   C1022     1.0  0.40475  0.83524  0.27091  1.0000
  C   C1023     1.0  0.42024  0.78611  0.23376  1.0000
  C   C1024     1.0  0.40769  0.83388  0.29173  1.0000
  H   H1800     1.0  0.43422  0.82885  0.26357  1.0000
  H   H1801     1.0  0.39358  0.85247  0.23869  1.0000
  H   H1802     1.0  0.40182  0.81987  0.23721  1.0000
  H   H1803     1.0  0.41702  0.82198  0.21653  1.0000
  H   H1804     1.0  0.42999  0.80210  0.25361  1.0000
  H   H1805     1.0  0.44296  0.80343  0.23069  1.0000
  H   H1806     1.0  0.39339  0.84660  0.26858  1.0000
  H   H1807     1.0  0.39991  0.82175  0.26805  1.0000
  H   H1808     1.0  0.45992  0.82250  0.24182  1.0000
  H   H1809     1.0  0.42911  0.77332  0.23848  1.0000
  H   H1810     1.0  0.40587  0.78537  0.24092  1.0000
  H   H1811     1.0  0.41963  0.78627  0.21841  1.0000
  H   H1812     1.0  0.41834  0.82213  0.29533  1.0000
  H   H1813     1.0  0.41225  0.84720  0.29551  1.0000
  H   H1814     1.0  0.39424  0.83124  0.30017  1.0000
  H   H1815     1.0  0.31811  0.72616  0.98753  1.0000
  H   H1816     1.0  0.46908  0.94833  0.04405  1.0000
  C   C1025     1.0  0.46531  0.94296  0.03116  1.0000
  H   H1817     1.0  0.39590  0.96871  0.13479  1.0000
  H   H1818     1.0  0.46045  0.92568  0.13634  1.0000
  H   H1819     1.0  0.37318  0.59811  0.99523  1.0000
  H   H1820     1.0  0.43456  0.60817  0.11260  1.0000
  H   H1821     1.0  0.26545  0.68994  0.19263  1.0000
  H   H1822     1.0  0.46610  0.50036  0.99845  1.0000
  Fe  Fe120     1.0  0.32481  0.90771  0.31738  1.0000
  C   C1026     1.0  0.32677  0.97555  0.30709  1.0000
  C   C1027     1.0  0.47969  0.48973  0.10200  1.0000
  C   C1028     1.0  0.41020  0.50717  0.14458  1.0000
  C   C1029     1.0  0.39540  0.49565  0.00073  1.0000
  C   C1030     1.0  0.34461  0.88114  0.01906  1.0000
  H   H1823     1.0  0.43963  0.86521  0.13706  1.0000
  H   H1824     1.0  0.38750  0.87406  0.06077  1.0000
  H   H1825     1.0  0.35075  0.59733  0.04373  1.0000
  C   C1031     1.0  0.45905  0.50897  0.98709  1.0000
  C   C1032     1.0  0.39454  0.98238  0.99881  1.0000
  H   H1826     1.0  0.43847  0.51370  0.14586  1.0000
  H   H1827     1.0  0.26450  0.88173  0.30809  1.0000
  H   H1828     1.0  0.32047  0.82943  0.24742  1.0000
  H   H1829     1.0  0.44446  0.57936  0.09725  1.0000
  C   C1033     1.0  0.24346  0.63498  0.13394  1.0000
  C   C1034     1.0  0.29749  0.82908  0.28019  1.0000
  C   C1035     1.0  0.36265  0.86428  0.09170  1.0000
  H   H1830     1.0  0.33436  0.87693  0.03096  1.0000
  C   C1036     1.0  0.30991  0.74260  0.16200  1.0000
  H   H1831     1.0  0.37233  0.59038  0.03008  1.0000
  H   H1832     1.0  0.36635  0.87214  0.10310  1.0000
  H   H1833     1.0  0.40692  0.49867  0.02648  1.0000
  C   C1037     1.0  0.27523  0.92878  0.29991  1.0000
  H   H1834     1.0  0.42370  0.59491  0.13263  1.0000
  S   S240      1.0  0.32514  0.93789  0.30417  1.0000
  C   C1038     1.0  0.35938  0.94078  0.17540  1.0000
  C   C1039     1.0  0.35954  0.87757  0.07415  1.0000
  C   C1040     1.0  0.36318  0.88459  0.02616  1.0000
  H   H1835     1.0  0.40597  0.93713  0.98941  1.0000
  H   H1836     1.0  0.46300  0.52100  0.12365  1.0000
  C   C1041     1.0  0.47673  0.84131  0.22400  1.0000
  H   H1837     1.0  0.41786  0.53743  0.08345  1.0000
  H   H1838     1.0  0.42710  0.85315  0.26201  1.0000
  H   H1839     1.0  0.45208  0.52882  0.08769  1.0000
  C   C1042     1.0  0.46478  0.89744  0.07673  1.0000
  C   C1043     1.0  0.46846  0.95763  0.01459  1.0000
  H   H1840     1.0  0.43182  0.88652  0.03008  1.0000
  C   C1044     1.0  0.44541  0.54263  0.09190  1.0000
  H   H1841     1.0  0.30000  0.68368  0.18688  1.0000
  H   H1842     1.0  0.36024  0.95163  0.14661  1.0000
  C   C1045     1.0  0.36071  0.90116  0.03871  1.0000
  C   C1046     1.0  0.26102  0.61556  0.11164  1.0000
  H   H1843     1.0  0.39828  0.84712  0.20651  1.0000
  C   C1047     1.0  0.35319  0.94470  0.07760  1.0000
  H   H1844     1.0  0.33506  0.51516  0.12927  1.0000
  H   H1845     1.0  0.34031  0.73633  0.98614  1.0000
  H   H1846     1.0  0.32551  0.71760  0.17298  1.0000
  H   H1847     1.0  0.38268  0.94773  0.15600  1.0000
  H   H1848     1.0  0.30132  0.81629  0.24356  1.0000
  S   S241      1.0  0.47169  0.95689  0.08166  1.0000
  H   H1849     1.0  0.44152  0.85971  0.22413  1.0000
  C   C1048     1.0  0.27507  0.69881  0.19812  1.0000
  H   H1850     1.0  0.27739  0.69321  0.21272  1.0000
  Fe  Fe121     1.0  0.44224  0.96758  0.07667  1.0000
  C   C1049     1.0  0.44106  0.84425  0.22722  1.0000
  H   H1851     1.0  0.44281  0.83852  0.21325  1.0000
  H   H1852     1.0  0.45952  0.84553  0.24951  1.0000
  C   C1050     1.0  0.29385  0.69847  0.18609  1.0000
  H   H1853     1.0  0.43687  0.96764  0.16305  1.0000
  H   H1854     1.0  0.35209  0.65507  0.99161  1.0000
  H   H1855     1.0  0.28694  0.83410  0.27021  1.0000
  H   H1856     1.0  0.31554  0.76924  0.17108  1.0000
  H   H1857     1.0  0.45365  0.90931  0.07603  1.0000
  C   C1051     1.0  0.29808  0.65553  0.99412  1.0000
  C   C1052     1.0  0.37800  0.88604  0.06593  1.0000
  H   H1858     1.0  0.25355  0.55986  0.13172  1.0000
  C   C1053     1.0  0.39454  0.90192  0.03810  1.0000
  H   H1859     1.0  0.32316  0.80983  0.27858  1.0000
  H   H1860     1.0  0.36890  0.87143  0.03378  1.0000
  C   C1054     1.0  0.35565  0.92447  0.07244  1.0000
  H   H1861     1.0  0.32741  0.74905  0.18322  1.0000
  C   C1055     1.0  0.46995  0.88753  0.13757  1.0000
  C   C1056     1.0  0.43874  0.87438  0.14870  1.0000
  H   H1862     1.0  0.38539  0.92221  0.06800  1.0000
  C   C1057     1.0  0.30395  0.81903  0.31234  1.0000
  C   C1058     1.0  0.24803  0.60193  0.11631  1.0000
  H   H1863     1.0  0.37311  0.92892  0.29259  1.0000
  H   H1864     1.0  0.44821  0.94764  0.99908  1.0000
  C   C1059     1.0  0.35932  0.60011  0.03028  1.0000
  H   H1865     1.0  0.34820  0.88842  0.07798  1.0000
  H   H1866     1.0  0.26351  0.93659  0.29267  1.0000
  H   H1867     1.0  0.34704  0.90048  0.04721  1.0000
  H   H1868     1.0  0.39666  0.51369  0.13972  1.0000
  C   C1060     1.0  0.40105  0.96345  0.00178  1.0000
  H   H1869     1.0  0.42797  0.95774  0.14406  1.0000
  H   H1870     1.0  0.34014  0.94695  0.08705  1.0000
  H   H1871     1.0  0.46008  0.88562  0.07015  1.0000
  H   H1872     1.0  0.34482  0.58236  0.01528  1.0000
  H   H1873     1.0  0.45368  0.57849  0.11980  1.0000
  H   H1874     1.0  0.35220  0.95471  0.06487  1.0000
  H   H1875     1.0  0.42082  0.53311  0.14806  1.0000
  H   H1876     1.0  0.48540  0.79589  0.20082  1.0000
  H   H1877     1.0  0.44519  0.86641  0.16083  1.0000
  C   C1061     1.0  0.40536  0.85878  0.21076  1.0000
  H   H1878     1.0  0.37919  0.87672  0.21437  1.0000
  H   H1879     1.0  0.48104  0.78927  0.13948  1.0000
  H   H1880     1.0  0.39082  0.87836  0.19105  1.0000
  H   H1881     1.0  0.41211  0.91898  0.05116  1.0000
  H   H1882     1.0  0.31537  0.82862  0.30965  1.0000
  H   H1883     1.0  0.41396  0.89466  0.06018  1.0000
  H   H1884     1.0  0.33430  0.60607  0.01643  1.0000
  H   H1885     1.0  0.36517  0.94763  0.08506  1.0000
  H   H1886     1.0  0.36862  0.56462  0.99939  1.0000
  C   C1062     1.0  0.24107  0.56507  0.07388  1.0000
  H   H1887     1.0  0.36075  0.92601  0.17180  1.0000
  C   C1063     1.0  0.46825  0.89117  0.09709  1.0000
  C   C1064     1.0  0.42546  0.52073  0.14026  1.0000
  H   H1888     1.0  0.44267  0.90373  0.04084  1.0000
  C   C1065     1.0  0.25622  0.87314  0.30066  1.0000
  H   H1889     1.0  0.37441  0.93255  0.04794  1.0000
  C   C1066     1.0  0.43013  0.90119  0.03396  1.0000
  C   C1067     1.0  0.41252  0.90445  0.04740  1.0000
  H   H1890     1.0  0.35894  0.91432  0.02918  1.0000
  H   H1891     1.0  0.28296  0.65569  0.99491  1.0000
  H   H1892     1.0  0.37312  0.88787  0.01369  1.0000
  H   H1893     1.0  0.25645  0.53845  0.12037  1.0000
  H   H1894     1.0  0.40814  0.50340  0.15992  1.0000
  H   H1895     1.0  0.34287  0.92216  0.06595  1.0000
  H   H1896     1.0  0.30244  0.79916  0.27460  1.0000
  C   C1068     1.0  0.46321  0.95057  0.99631  1.0000
  H   H1897     1.0  0.45576  0.55276  0.08661  1.0000
  S   S242      1.0  0.30877  0.88601  0.30689  1.0000
  H   H1898     1.0  0.41894  0.85962  0.20209  1.0000
  H   H1899     1.0  0.27304  0.91364  0.30187  1.0000
  C   C1069     1.0  0.35816  0.60336  0.99507  1.0000
  H   H1900     1.0  0.44615  0.90133  0.15409  1.0000
  H   H1901     1.0  0.43905  0.54386  0.01543  1.0000
  C   C1070     1.0  0.44084  0.57799  0.11259  1.0000
  H   H1902     1.0  0.38484  0.89031  0.07781  1.0000
  H   H1903     1.0  0.43386  0.98183  0.14132  1.0000
  H   H1904     1.0  0.42091  0.55286  0.05194  1.0000
  H   H1905     1.0  0.45493  0.88635  0.10414  1.0000
  H   H1906     1.0  0.47886  0.87894  0.09723  1.0000
  C   C1071     1.0  0.43372  0.54992  0.05957  1.0000
  C   C1072     1.0  0.43162  0.55970  0.11945  1.0000
  H   H1907     1.0  0.35814  0.61891  0.99446  1.0000
  H   H1908     1.0  0.28010  0.86460  0.28219  1.0000
  H   H1909     1.0  0.34424  0.94521  0.17859  1.0000
  C   C1073     1.0  0.42756  0.59520  0.11729  1.0000
  H   H1910     1.0  0.48674  0.96731  0.13110  1.0000
  H   H1911     1.0  0.40001  0.88925  0.20927  1.0000
  H   H1912     1.0  0.44140  0.53670  0.05512  1.0000
  H   H1913     1.0  0.42368  0.87818  0.15297  1.0000
  H   H1914     1.0  0.24153  0.64781  0.14082  1.0000
  H   H1915     1.0  0.26068  0.85080  0.28281  1.0000
  H   H1916     1.0  0.43460  0.51319  0.11228  1.0000
  S   S243      1.0  0.38940  0.97775  0.07154  1.0000
  C   C1074     1.0  0.33698  0.65515  0.99237  1.0000
  H   H1917     1.0  0.47444  0.95523  0.15110  1.0000
  C   C1075     1.0  0.48408  0.97603  0.08400  1.0000
  H   H1918     1.0  0.32446  0.80454  0.24574  1.0000
  C   C1076     1.0  0.39310  0.87693  0.20617  1.0000
  H   H1919     1.0  0.32187  0.59554  0.99189  1.0000
  H   H1920     1.0  0.48732  0.97977  0.98679  1.0000
  H   H1921     1.0  0.42076  0.56182  0.08423  1.0000
  H   H1922     1.0  0.47197  0.50202  0.03701  1.0000
  C   C1077     1.0  0.27507  0.81044  0.30171  1.0000
  H   H1923     1.0  0.28293  0.79647  0.30012  1.0000
  H   H1924     1.0  0.24705  0.57704  0.06514  1.0000
  H   H1925     1.0  0.46421  0.95944  0.12883  1.0000
  H   H1926     1.0  0.24522  0.86704  0.31074  1.0000
  H   H1927     1.0  0.45032  0.94006  0.03333  1.0000
  H   H1928     1.0  0.40289  0.96596  0.16926  1.0000
  H   H1929     1.0  0.26834  0.71339  0.19835  1.0000
  H   H1930     1.0  0.33862  0.89399  0.01107  1.0000
  H   H1931     1.0  0.28859  0.85187  0.31228  1.0000
  C   C1078     1.0  0.45545  0.52904  0.99356  1.0000
  C   C1079     1.0  0.48647  0.80508  0.18799  1.0000
  H   H1932     1.0  0.44446  0.51916  0.02186  1.0000
  C   C1080     1.0  0.44053  0.52972  0.01024  1.0000
  H   H1933     1.0  0.47275  0.49261  0.08926  1.0000
  H   H1934     1.0  0.28850  0.93048  0.29084  1.0000
  H   H1935     1.0  0.47704  0.83386  0.21121  1.0000
  H   H1936     1.0  0.47421  0.92971  0.02888  1.0000
  H   H1937     1.0  0.47192  0.87457  0.13018  1.0000
  H   H1938     1.0  0.25797  0.78313  0.28594  1.0000
  C   C1081     1.0  0.44855  0.89216  0.14240  1.0000
  C   C1082     1.0  0.32367  0.95802  0.31682  1.0000
  C   C1083     1.0  0.47787  0.54415  0.11218  1.0000
  C   C1084     1.0  0.36783  0.95326  0.15892  1.0000
  H   H1939     1.0  0.45794  0.54064  0.13686  1.0000
  H   H1940     1.0  0.37213  0.97474  0.17687  1.0000
  H   H1941     1.0  0.36689  0.94136  0.18804  1.0000
  C   C1085     1.0  0.42784  0.97070  0.15129  1.0000
  H   H1942     1.0  0.48340  0.96052  0.01353  1.0000
  H   H1943     1.0  0.27944  0.95126  0.31568  1.0000
  H   H1944     1.0  0.30679  0.84072  0.27951  1.0000
  H   H1945     1.0  0.24927  0.88248  0.28969  1.0000
  H   H1946     1.0  0.47718  0.85656  0.21986  1.0000
  C   C1086     1.0  0.24851  0.79547  0.29013  1.0000
  C   C1087     1.0  0.47746  0.95592  0.13564  1.0000
  C   C1088     1.0  0.47555  0.92054  0.13693  1.0000
  H   H1947     1.0  0.24227  0.79248  0.30475  1.0000
  H   H1948     1.0  0.47587  0.55921  0.10730  1.0000
  C   C1089     1.0  0.47440  0.90754  0.10688  1.0000
  C   C1090     1.0  0.26910  0.85770  0.29163  1.0000
  H   H1949     1.0  0.48257  0.53629  0.09976  1.0000
  H   H1950     1.0  0.43746  0.97618  0.98459  1.0000
  H   H1951     1.0  0.39494  0.93682  0.29766  1.0000
  H   H1952     1.0  0.44543  0.50298  0.98709  1.0000
  C   C1091     1.0  0.36609  0.97410  0.16334  1.0000
  C   C1092     1.0  0.30964  0.81220  0.27208  1.0000
  C   C1093     1.0  0.39487  0.98133  0.14269  1.0000
  C   C1094     1.0  0.25925  0.81297  0.28841  1.0000
  H   H1953     1.0  0.47617  0.88333  0.15111  1.0000
  C   C1095     1.0  0.31421  0.81588  0.25092  1.0000
  H   H1954     1.0  0.24982  0.58924  0.10925  1.0000
  H   H1955     1.0  0.31059  0.80498  0.30895  1.0000
  Fe  Fe122     1.0  0.33523  0.86666  0.30944  1.0000
  H   H1956     1.0  0.26475  0.81545  0.27354  1.0000
  C   C1096     1.0  0.38300  0.92872  0.30353  1.0000
  N   N58       1.0  0.28840  0.82561  0.29992  1.0000
  H   H1957     1.0  0.48448  0.76411  0.14314  1.0000
  N   N59       1.0  0.48013  0.90310  0.12662  1.0000
  H   H1958     1.0  0.47755  0.91729  0.15210  1.0000
  H   H1959     1.0  0.46859  0.53340  0.99801  1.0000
  H   H1960     1.0  0.36751  0.95197  0.31610  1.0000
  H   H1961     1.0  0.26775  0.80912  0.31605  1.0000
  H   H1962     1.0  0.24783  0.55180  0.06863  1.0000
  H   H1963     1.0  0.31876  0.75125  0.98445  1.0000
  S   S244      1.0  0.31444  0.89379  0.63286  1.0000
  S   S245      1.0  0.36483  0.87296  0.61797  1.0000
  Fe  Fe123     1.0  0.47190  0.89688  0.59436  1.0000
  H   H1964     1.0  0.36265  0.82848  0.63840  1.0000
  S   S246      1.0  0.44721  0.89893  0.61712  1.0000
  Fe  Fe124     1.0  0.30071  0.87676  0.33742  1.0000
  S   S247      1.0  0.26909  0.87357  0.34692  1.0000
  Fe  Fe125     1.0  0.34151  0.88022  0.34718  1.0000
  C   C1097     1.0  0.31844  0.97325  0.34580  1.0000
  S   S248      1.0  0.35830  0.88007  0.37242  1.0000
  H   H1965     1.0  0.28589  0.80973  0.33780  1.0000
  H   H1966     1.0  0.28626  0.89295  0.38316  1.0000
  S   S249      1.0  0.31520  0.89997  0.34738  1.0000
  S   S250      1.0  0.32649  0.85633  0.33955  1.0000
  Fe  Fe126     1.0  0.46286  0.89895  0.39354  1.0000
  S   S251      1.0  0.44496  0.89425  0.37013  1.0000
  S   S252      1.0  0.45409  0.90156  0.42416  1.0000
  H   H1967     1.0  0.29970  0.97784  0.64211  1.0000
  C   C1098     1.0  0.38242  0.88402  0.37155  1.0000
  C   C1099     1.0  0.39397  0.88479  0.35472  1.0000
  C   C1100     1.0  0.41303  0.88797  0.35461  1.0000
  C   C1101     1.0  0.42080  0.89041  0.37126  1.0000
  C   C1102     1.0  0.40919  0.88987  0.38806  1.0000
  C   C1103     1.0  0.39012  0.88665  0.38819  1.0000
  H   H1968     1.0  0.38828  0.88275  0.34183  1.0000
  H   H1969     1.0  0.42188  0.88836  0.34154  1.0000
  H   H1970     1.0  0.41497  0.89170  0.40098  1.0000
  H   H1971     1.0  0.38133  0.88605  0.40129  1.0000
  C   C1104     1.0  0.29830  0.81769  0.33377  1.0000
  H   H1972     1.0  0.34098  0.96237  0.59400  1.0000
  H   H1973     1.0  0.31526  0.97227  0.36084  1.0000
  H   H1974     1.0  0.31687  0.94363  0.34386  1.0000
  C   C1105     1.0  0.45980  0.97599  0.51856  1.0000
  C   C1106     1.0  0.26037  0.81526  0.58023  1.0000
  C   C1107     1.0  0.25250  0.85723  0.35699  1.0000
  C   C1108     1.0  0.25795  0.83885  0.36409  1.0000
  H   H1975     1.0  0.41440  0.92057  0.58094  1.0000
  H   H1976     1.0  0.48663  0.92793  0.48689  1.0000
  N   N60       1.0  0.47408  0.98293  0.50316  1.0000
  H   H1977     1.0  0.34946  0.93079  0.58527  1.0000
  H   H1978     1.0  0.28679  0.82129  0.56404  1.0000
  H   H1979     1.0  0.47812  0.93711  0.63594  1.0000
  H   H1980     1.0  0.24680  0.94359  0.32495  1.0000
  C   C1109     1.0  0.25394  0.85180  0.63072  1.0000
  H   H1981     1.0  0.42334  0.93186  0.38774  1.0000
  H   H1982     1.0  0.26473  0.93957  0.64202  1.0000
  C   C1110     1.0  0.38774  0.88005  0.61808  1.0000
  C   C1111     1.0  0.39297  0.88879  0.63297  1.0000
  C   C1112     1.0  0.41129  0.89428  0.63254  1.0000
  C   C1113     1.0  0.42454  0.89126  0.61712  1.0000
  C   C1114     1.0  0.41929  0.88256  0.60221  1.0000
  C   C1115     1.0  0.40099  0.87697  0.60272  1.0000
  Fe  Fe127     1.0  0.34077  0.87695  0.64068  1.0000
  H   H1983     1.0  0.42934  0.88013  0.59027  1.0000
  H   H1984     1.0  0.39709  0.87022  0.59111  1.0000
  C   C1116     1.0  0.26415  0.95847  0.35133  1.0000
  H   H1985     1.0  0.33943  0.91408  0.38913  1.0000
  C   C1117     1.0  0.27048  0.80420  0.53500  1.0000
  Fe  Fe128     1.0  0.47005  0.92713  0.42004  1.0000
  H   H1986     1.0  0.25592  0.91234  0.38588  1.0000
  H   H1987     1.0  0.38054  0.92131  0.58923  1.0000
  H   H1988     1.0  0.24567  0.90441  0.63563  1.0000
  H   H1989     1.0  0.48508  0.89471  0.47734  1.0000
  C   C1118     1.0  0.34220  0.92501  0.59859  1.0000
  C   C1119     1.0  0.47814  0.96825  0.42982  1.0000
  C   C1120     1.0  0.37079  0.96612  0.34975  1.0000
  H   H1990     1.0  0.44633  0.97448  0.51273  1.0000
  H   H1991     1.0  0.27268  0.83417  0.36417  1.0000
  H   H1992     1.0  0.34424  0.90947  0.59850  1.0000
  C   C1121     1.0  0.36092  0.93541  0.36198  1.0000
  H   H1993     1.0  0.36524  0.97252  0.36283  1.0000
  N   N61       1.0  0.25855  0.93872  0.35178  1.0000
  C   C1122     1.0  0.35164  0.94065  0.38141  1.0000
  H   H1994     1.0  0.27831  0.95967  0.34378  1.0000
  C   C1123     1.0  0.25129  0.91302  0.64541  1.0000
  H   H1995     1.0  0.36057  0.92916  0.32522  1.0000
  H   H1996     1.0  0.33113  0.96202  0.61777  1.0000
  H   H1997     1.0  0.36168  0.93768  0.39230  1.0000
  H   H1998     1.0  0.42673  0.97913  0.54301  1.0000
  H   H1999     1.0  0.25471  0.91972  0.33124  1.0000
  H   H2000     1.0  0.28690  0.92966  0.35839  1.0000
  H   H2001     1.0  0.46480  0.96164  0.52457  1.0000
  C   C1124     1.0  0.38837  0.93084  0.59606  1.0000
  H   H2002     1.0  0.25466  0.78321  0.55014  1.0000
  C   C1125     1.0  0.23946  0.85827  0.61915  1.0000
  H   H2003     1.0  0.41534  0.95637  0.35136  1.0000
  H   H2004     1.0  0.42538  0.97687  0.46484  1.0000
  H   H2005     1.0  0.48843  0.94210  0.46451  1.0000
  H   H2006     1.0  0.31445  0.92045  0.59130  1.0000
  H   H2007     1.0  0.25030  0.78293  0.60215  1.0000
  C   C1126     1.0  0.25423  0.83331  0.63900  1.0000
  H   H2008     1.0  0.37153  0.95495  0.58535  1.0000
  C   C1127     1.0  0.37274  0.93736  0.32065  1.0000
  C   C1128     1.0  0.25813  0.93442  0.33170  1.0000
  H   H2009     1.0  0.28193  0.91820  0.61952  1.0000
  H   H2010     1.0  0.29081  0.79777  0.51162  1.0000
  H   H2011     1.0  0.29753  0.78743  0.53405  1.0000
  C   C1129     1.0  0.25668  0.93141  0.63386  1.0000
  C   C1130     1.0  0.44009  0.97874  0.54959  1.0000
  C   C1131     1.0  0.41633  0.97989  0.45309  1.0000
  H   H2012     1.0  0.43846  0.96513  0.61392  1.0000
  H   H2013     1.0  0.24412  0.94041  0.62964  1.0000
  N   N62       1.0  0.37765  0.94576  0.35398  1.0000
  S   S253      1.0  0.48806  0.86358  0.45249  1.0000
  C   C1132     1.0  0.38589  0.93680  0.33654  1.0000
  H   H2014     1.0  0.41530  0.94285  0.58988  1.0000
  H   H2015     1.0  0.39537  0.98165  0.34999  1.0000
  C   C1133     1.0  0.27469  0.82909  0.57152  1.0000
  H   H2016     1.0  0.26729  0.93217  0.39045  1.0000
  H   H2017     1.0  0.39064  0.92181  0.34032  1.0000
  H   H2018     1.0  0.32743  0.81482  0.34071  1.0000
  H   H2019     1.0  0.27795  0.95867  0.37699  1.0000
  C   C1134     1.0  0.37618  0.94955  0.59933  1.0000
  C   C1135     1.0  0.39173  0.94338  0.36852  1.0000
  S   S254      1.0  0.27098  0.86751  0.63437  1.0000
  H   H2020     1.0  0.26460  0.90489  0.64917  1.0000
  H   H2021     1.0  0.27112  0.84814  0.59351  1.0000
  H   H2022     1.0  0.29831  0.91274  0.38763  1.0000
  H   H2023     1.0  0.32418  0.93215  0.37745  1.0000
  C   C1136     1.0  0.27262  0.92470  0.36109  1.0000
  H   H2024     1.0  0.36490  0.92001  0.36321  1.0000
  H   H2025     1.0  0.39113  0.92939  0.37672  1.0000
  H   H2026     1.0  0.27689  0.81723  0.53661  1.0000
  H   H2027     1.0  0.45870  0.94843  0.49747  1.0000
  H   H2028     1.0  0.40281  0.94133  0.56952  1.0000
  C   C1137     1.0  0.24027  0.82167  0.63588  1.0000
  C   C1138     1.0  0.34437  0.96376  0.60846  1.0000
  C   C1139     1.0  0.33488  0.92934  0.38771  1.0000
  H   H2029     1.0  0.41865  0.96778  0.44442  1.0000
  H   H2030     1.0  0.32836  0.93337  0.40154  1.0000
  S   S255      1.0  0.47688  0.92588  0.38921  1.0000
  H   H2031     1.0  0.25918  0.80776  0.52544  1.0000
  H   H2032     1.0  0.43987  0.94440  0.37216  1.0000
  H   H2033     1.0  0.25279  0.96434  0.38013  1.0000
  H   H2034     1.0  0.26868  0.80389  0.58824  1.0000
  C   C1140     1.0  0.28551  0.79092  0.52538  1.0000
  H   H2035     1.0  0.26782  0.84063  0.31852  1.0000
  H   H2036     1.0  0.24006  0.90699  0.36141  1.0000
  H   H2037     1.0  0.27959  0.77778  0.52294  1.0000
  H   H2038     1.0  0.41642  0.95550  0.62026  1.0000
  C   C1141     1.0  0.28240  0.83881  0.58664  1.0000
  H   H2039     1.0  0.37295  0.92435  0.64549  1.0000
  H   H2040     1.0  0.34632  0.95567  0.38092  1.0000
  C   C1142     1.0  0.35105  0.93020  0.61606  1.0000
  S   S256      1.0  0.45979  0.95367  0.43319  1.0000
  H   H2041     1.0  0.25500  0.76932  0.58223  1.0000
  H   H2042     1.0  0.44485  0.96396  0.55422  1.0000
  H   H2043     1.0  0.28866  0.92847  0.32530  1.0000
  H   H2044     1.0  0.31689  0.79293  0.34168  1.0000
  C   C1143     1.0  0.31940  0.95698  0.33623  1.0000
  C   C1144     1.0  0.47960  0.96450  0.58575  1.0000
  S   S257      1.0  0.47235  0.90445  0.56317  1.0000
  H   H2045     1.0  0.38282  0.89151  0.64467  1.0000
  H   H2046     1.0  0.24070  0.80748  0.64252  1.0000
  H   H2047     1.0  0.45438  0.98608  0.37459  1.0000
  H   H2048     1.0  0.31391  0.93091  0.61295  1.0000
  H   H2049     1.0  0.42088  0.95730  0.38503  1.0000
  C   C1145     1.0  0.26906  0.92715  0.61601  1.0000
  H   H2050     1.0  0.46021  0.96244  0.47534  1.0000
  C   C1146     1.0  0.37875  0.93814  0.64268  1.0000
  H   H2051     1.0  0.39256  0.92320  0.60921  1.0000
  N   N63       1.0  0.24938  0.80722  0.56667  1.0000
  H   H2052     1.0  0.36165  0.91842  0.61962  1.0000
  H   H2053     1.0  0.27412  0.78788  0.56163  1.0000
  H   H2054     1.0  0.38819  0.84392  0.64934  1.0000
  H   H2055     1.0  0.34961  0.93774  0.35240  1.0000
  Fe  Fe129     1.0  0.29765  0.87165  0.64888  1.0000
  H   H2056     1.0  0.31809  0.94465  0.59094  1.0000
  N   N64       1.0  0.35954  0.94874  0.61401  1.0000
  C   C1147     1.0  0.26221  0.79488  0.55401  1.0000
  H   H2057     1.0  0.41521  0.90107  0.64411  1.0000
  H   H2058     1.0  0.28835  0.82838  0.59742  1.0000
  H   H2059     1.0  0.37156  0.96623  0.63162  1.0000
  H   H2060     1.0  0.38805  0.95393  0.37891  1.0000
  H   H2061     1.0  0.46980  0.97343  0.61294  1.0000
  C   C1148     1.0  0.36492  0.95280  0.63283  1.0000
  C   C1149     1.0  0.28483  0.90623  0.39006  1.0000
  C   C1150     1.0  0.42486  0.94447  0.37764  1.0000
  Fe  Fe130     1.0  0.48241  0.88661  0.42935  1.0000
  C   C1151     1.0  0.31429  0.80788  0.34461  1.0000
  C   C1152     1.0  0.32099  0.93068  0.59857  1.0000
  C   C1153     1.0  0.41281  0.94404  0.36141  1.0000
  H   H2062     1.0  0.41792  0.93124  0.35427  1.0000
  H   H2063     1.0  0.39872  0.94318  0.33024  1.0000
  H   H2064     1.0  0.28179  0.90276  0.40537  1.0000
  H   H2065     1.0  0.25431  0.96842  0.34332  1.0000
  H   H2066     1.0  0.46834  0.92918  0.47137  1.0000
  H   H2067     1.0  0.35860  0.96737  0.34121  1.0000
  C   C1154     1.0  0.47675  0.98454  0.43911  1.0000
  C   C1155     1.0  0.26889  0.91962  0.38255  1.0000
  H   H2068     1.0  0.34038  0.92948  0.62838  1.0000
  H   H2069     1.0  0.38564  0.95991  0.60254  1.0000
  H   H2070     1.0  0.26838  0.84019  0.56167  1.0000
  H   H2071     1.0  0.25069  0.82210  0.59111  1.0000
  C   C1156     1.0  0.24404  0.77800  0.59027  1.0000
  C   C1157     1.0  0.34890  0.98435  0.60874  1.0000
  H   H2072     1.0  0.24887  0.81239  0.37700  1.0000
  C   C1158     1.0  0.41499  0.98578  0.62052  1.0000
  C   C1159     1.0  0.47873  0.93732  0.47664  1.0000
  C   C1160     1.0  0.47750  0.97701  0.59961  1.0000
  H   H2073     1.0  0.27372  0.91112  0.35473  1.0000
  H   H2074     1.0  0.39240  0.93670  0.63418  1.0000
  C   C1161     1.0  0.42535  0.96624  0.62346  1.0000
  H   H2075     1.0  0.42884  0.96311  0.63819  1.0000
  C   C1162     1.0  0.46854  0.95411  0.48592  1.0000
  H   H2076     1.0  0.31047  0.80847  0.35988  1.0000
  C   C1163     1.0  0.26559  0.96603  0.37044  1.0000
  C   C1164     1.0  0.40627  0.93423  0.58331  1.0000
  H   H2077     1.0  0.39311  0.97343  0.32746  1.0000
  H   H2078     1.0  0.26137  0.91979  0.60677  1.0000
  C   C1165     1.0  0.38533  0.97921  0.33996  1.0000
  H   H2079     1.0  0.24736  0.83074  0.54518  1.0000
  C   C1166     1.0  0.48265  0.96612  0.49319  1.0000
  H   H2080     1.0  0.27331  0.94043  0.60829  1.0000
  H   H2081     1.0  0.29500  0.83195  0.33848  1.0000
  H   H2082     1.0  0.40142  0.98138  0.45894  1.0000
  H   H2083     1.0  0.35206  0.95470  0.64271  1.0000
  H   H2084     1.0  0.26515  0.82800  0.64794  1.0000
  H   H2085     1.0  0.47279  0.95166  0.58809  1.0000
  C   C1167     1.0  0.24431  0.82651  0.37161  1.0000
  H   H2086     1.0  0.29366  0.84755  0.58023  1.0000
  C   C1168     1.0  0.48709  0.93126  0.64721  1.0000
  H   H2087     1.0  0.48469  0.91622  0.65058  1.0000
  H   H2088     1.0  0.40138  0.98556  0.62928  1.0000
  C   C1169     1.0  0.23885  0.93795  0.36112  1.0000
  H   H2089     1.0  0.23897  0.87249  0.61260  1.0000
  S   S258      1.0  0.35190  0.88907  0.31755  1.0000
  C   C1170     1.0  0.27657  0.93634  0.31876  1.0000
  Fe  Fe131     1.0  0.32458  0.86867  0.68068  1.0000
  H   H2090     1.0  0.41690  0.80084  0.73241  1.0000
  S   S259      1.0  0.33146  0.84845  0.70646  1.0000
  H   H2091     1.0  0.35888  0.86041  0.84476  1.0000
  H   H2092     1.0  0.28852  0.55800  0.92115  1.0000
  H   H2093     1.0  0.38895  0.89981  0.77524  1.0000
  H   H2094     1.0  0.29262  0.68775  0.83300  1.0000
  H   H2095     1.0  0.25381  0.54404  0.87690  1.0000
  S   S260      1.0  0.29680  0.88564  0.67576  1.0000
  C   C1171     1.0  0.33391  0.72697  0.80649  1.0000
  Fe  Fe132     1.0  0.42082  0.80295  0.82082  1.0000
  S   S261      1.0  0.40558  0.79823  0.84956  1.0000
  S   S262      1.0  0.45157  0.79268  0.81299  1.0000
  Fe  Fe133     1.0  0.38613  0.82439  0.80397  1.0000
  S   S263      1.0  0.36879  0.82118  0.83182  1.0000
  S   S264      1.0  0.37652  0.84520  0.77948  1.0000
  Fe  Fe134     1.0  0.39408  0.82855  0.84456  1.0000
  S   S265      1.0  0.39355  0.84744  0.86837  1.0000
  Fe  Fe135     1.0  0.38140  0.79090  0.83478  1.0000
  S   S266      1.0  0.36019  0.76902  0.84594  1.0000
  S   S267      1.0  0.41076  0.83353  0.81686  1.0000
  S   S268      1.0  0.39734  0.79383  0.80592  1.0000
  Fe  Fe136     1.0  0.38981  0.95629  0.88227  1.0000
  S   S269      1.0  0.37789  0.93653  0.86452  1.0000
  S   S270      1.0  0.40330  0.94904  0.90924  1.0000
  Fe  Fe137     1.0  0.30023  0.64141  0.88777  1.0000
  S   S271      1.0  0.33097  0.63602  0.87766  1.0000
  S   S272      1.0  0.27660  0.64084  0.86863  1.0000
  Fe  Fe138     1.0  0.30961  0.64994  0.92682  1.0000
  S   S273      1.0  0.34049  0.64494  0.91925  1.0000
  S   S274      1.0  0.29659  0.65643  0.95598  1.0000
  Fe  Fe139     1.0  0.33530  0.66191  0.89178  1.0000
  S   S275      1.0  0.35703  0.68288  0.88017  1.0000
  Fe  Fe140     1.0  0.33355  0.61977  0.90590  1.0000
  S   S276      1.0  0.34685  0.59116  0.91675  1.0000
  S   S277      1.0  0.30447  0.66831  0.90014  1.0000
  S   S278      1.0  0.30270  0.62389  0.91508  1.0000
  H   H2096     1.0  0.46331  0.53417  0.95299  1.0000
  H   H2097     1.0  0.42309  0.90596  0.83713  1.0000
  S   S279      1.0  0.38659  0.51886  0.88000  1.0000
  H   H2098     1.0  0.39353  0.93416  0.66777  1.0000
  Fe  Fe141     1.0  0.39311  0.49276  0.89968  1.0000
  H   H2099     1.0  0.38813  0.95836  0.65963  1.0000
  H   H2100     1.0  0.31868  0.85973  0.82071  1.0000
  C   C1172     1.0  0.31463  0.54493  0.90714  1.0000
  C   C1173     1.0  0.38046  0.90067  0.69348  1.0000
  H   H2101     1.0  0.42745  0.93977  0.80536  1.0000
  H   H2102     1.0  0.44503  0.94583  0.93113  1.0000
  H   H2103     1.0  0.33584  0.87059  0.78074  1.0000
  H   H2104     1.0  0.33719  0.84966  0.84617  1.0000
  H   H2105     1.0  0.32570  0.93568  0.79278  1.0000
  H   H2106     1.0  0.47461  0.91105  0.86105  1.0000
  C   C1174     1.0  0.26200  0.62283  0.86559  1.0000
  H   H2107     1.0  0.37505  0.54602  0.96233  1.0000
  C   C1175     1.0  0.26397  0.60498  0.87524  1.0000
  H   H2108     1.0  0.45658  0.84794  0.86139  1.0000
  H   H2109     1.0  0.27444  0.60190  0.88513  1.0000
  C   C1176     1.0  0.35885  0.57184  0.90589  1.0000
  C   C1177     1.0  0.36406  0.55558  0.91736  1.0000
  C   C1178     1.0  0.37269  0.53938  0.90957  1.0000
  C   C1179     1.0  0.37642  0.53933  0.89016  1.0000
  C   C1180     1.0  0.37156  0.55572  0.87865  1.0000
  C   C1181     1.0  0.36274  0.57193  0.88647  1.0000
  H   H2110     1.0  0.36114  0.55536  0.93238  1.0000
  H   H2111     1.0  0.37639  0.52687  0.91858  1.0000
  H   H2112     1.0  0.37449  0.55579  0.86362  1.0000
  H   H2113     1.0  0.35891  0.58440  0.87750  1.0000
  H   H2114     1.0  0.25208  0.89065  0.67617  1.0000
  C   C1182     1.0  0.33424  0.74731  0.81077  1.0000
  H   H2115     1.0  0.30765  0.54104  0.94590  1.0000
  H   H2116     1.0  0.33627  0.65623  0.96230  1.0000
  C   C1183     1.0  0.32482  0.86576  0.79132  1.0000
  H   H2117     1.0  0.33026  0.74873  0.82587  1.0000
  C   C1184     1.0  0.38912  0.97815  0.96650  1.0000
  C   C1185     1.0  0.35980  0.74518  0.85607  1.0000
  C   C1186     1.0  0.34239  0.73829  0.86269  1.0000
  C   C1187     1.0  0.34121  0.71946  0.87032  1.0000
  C   C1188     1.0  0.35749  0.70714  0.87152  1.0000
  C   C1189     1.0  0.37490  0.71409  0.86520  1.0000
  C   C1190     1.0  0.37607  0.73289  0.85751  1.0000
  H   H2118     1.0  0.32968  0.74761  0.86180  1.0000
  H   H2119     1.0  0.32768  0.71447  0.87503  1.0000
  H   H2120     1.0  0.38764  0.70483  0.86612  1.0000
  H   H2121     1.0  0.38958  0.73784  0.85260  1.0000
  C   C1191     1.0  0.47101  0.80150  0.82152  1.0000
  H   H2122     1.0  0.29614  0.68451  0.85755  1.0000
  C   C1192     1.0  0.46903  0.81041  0.83806  1.0000
  S   S280      1.0  0.32431  0.85350  0.65462  1.0000
  H   H2123     1.0  0.45540  0.81194  0.84589  1.0000
  C   C1193     1.0  0.39026  0.87230  0.86686  1.0000
  C   C1194     1.0  0.38903  0.88147  0.88335  1.0000
  C   C1195     1.0  0.38580  0.90117  0.88282  1.0000
  C   C1196     1.0  0.38363  0.91191  0.86576  1.0000
  C   C1197     1.0  0.38509  0.90276  0.84927  1.0000
  C   C1198     1.0  0.38871  0.88309  0.84976  1.0000
  H   H2124     1.0  0.39029  0.87325  0.89665  1.0000
  H   H2125     1.0  0.38449  0.90801  0.89565  1.0000
  H   H2126     1.0  0.38351  0.91100  0.83604  1.0000
  H   H2127     1.0  0.39019  0.87620  0.83697  1.0000
  H   H2128     1.0  0.33284  0.50227  0.85618  1.0000
  C   C1199     1.0  0.36374  0.89282  0.79269  1.0000
  C   C1200     1.0  0.34437  0.84786  0.72648  1.0000
  C   C1201     1.0  0.35175  0.86371  0.73152  1.0000
  C   C1202     1.0  0.36192  0.86246  0.74744  1.0000
  C   C1203     1.0  0.36462  0.84545  0.75882  1.0000
  C   C1204     1.0  0.35736  0.82956  0.75371  1.0000
  C   C1205     1.0  0.34732  0.83079  0.73767  1.0000
  H   H2129     1.0  0.34943  0.87697  0.72325  1.0000
  H   H2130     1.0  0.36758  0.87483  0.75106  1.0000
  H   H2131     1.0  0.35927  0.81638  0.76223  1.0000
  H   H2132     1.0  0.34167  0.81841  0.73398  1.0000
  H   H2133     1.0  0.26938  0.95449  0.68013  1.0000
  C   C1206     1.0  0.32767  0.95767  0.67521  1.0000
  C   C1207     1.0  0.28348  0.54374  0.86636  1.0000
  H   H2134     1.0  0.33237  0.94409  0.68183  1.0000
  H   H2135     1.0  0.38129  0.87180  0.67147  1.0000
  N   N65       1.0  0.46596  0.96368  0.97874  1.0000
  S   S281      1.0  0.45710  0.94970  0.89233  1.0000
  H   H2136     1.0  0.31144  0.53078  0.91365  1.0000
  C   C1208     1.0  0.34367  0.86223  0.84927  1.0000
  H   H2137     1.0  0.32113  0.61518  0.95229  1.0000
  N   N66       1.0  0.33998  0.71515  0.93333  1.0000
  C   C1209     1.0  0.32075  0.71641  0.92634  1.0000
  C   C1210     1.0  0.35224  0.72838  0.92114  1.0000
  C   C1211     1.0  0.34878  0.69535  0.93158  1.0000
  C   C1212     1.0  0.33911  0.71874  0.95370  1.0000
  C   C1213     1.0  0.30699  0.70281  0.93684  1.0000
  C   C1214     1.0  0.36974  0.69159  0.93553  1.0000
  C   C1215     1.0  0.34260  0.74728  0.91290  1.0000
  C   C1216     1.0  0.35711  0.76035  0.90381  1.0000
  C   C1217     1.0  0.28732  0.70709  0.93030  1.0000
  C   C1218     1.0  0.37699  0.67125  0.93297  1.0000
  H   H2138     1.0  0.32215  0.71365  0.91128  1.0000
  H   H2139     1.0  0.31361  0.73077  0.92671  1.0000
  H   H2140     1.0  0.36409  0.73153  0.92881  1.0000
  H   H2141     1.0  0.35892  0.72154  0.90858  1.0000
  H   H2142     1.0  0.34761  0.69126  0.91729  1.0000
  H   H2143     1.0  0.34107  0.68518  0.94135  1.0000
  H   H2144     1.0  0.33314  0.70692  0.96282  1.0000
  H   H2145     1.0  0.35349  0.71896  0.95802  1.0000
  H   H2146     1.0  0.31181  0.68818  0.93399  1.0000
  H   H2147     1.0  0.30576  0.70375  0.95218  1.0000
  H   H2148     1.0  0.37161  0.69408  0.95013  1.0000
  H   H2149     1.0  0.37877  0.70061  0.92586  1.0000
  H   H2150     1.0  0.33368  0.74467  0.90188  1.0000
  H   H2151     1.0  0.33353  0.75477  0.92358  1.0000
  H   H2152     1.0  0.34991  0.77310  0.89672  1.0000
  H   H2153     1.0  0.36542  0.76473  0.91454  1.0000
  H   H2154     1.0  0.36680  0.75332  0.89313  1.0000
  H   H2155     1.0  0.27807  0.69653  0.93740  1.0000
  H   H2156     1.0  0.28123  0.72122  0.93390  1.0000
  H   H2157     1.0  0.28771  0.70641  0.91494  1.0000
  H   H2158     1.0  0.37604  0.66810  0.91832  1.0000
  H   H2159     1.0  0.39192  0.66881  0.93599  1.0000
  H   H2160     1.0  0.36871  0.66158  0.94274  1.0000
  C   C1219     1.0  0.32822  0.73726  0.95939  1.0000
  C   C1220     1.0  0.42816  0.93468  0.83565  1.0000
  H   H2161     1.0  0.43614  0.84012  0.69162  1.0000
  H   H2162     1.0  0.37016  0.86574  0.69403  1.0000
  H   H2163     1.0  0.43257  0.91773  0.90755  1.0000
  C   C1221     1.0  0.43928  0.87258  0.85099  1.0000
  S   S282      1.0  0.41481  0.96902  0.86704  1.0000
  C   C1222     1.0  0.44200  0.93684  0.94426  1.0000
  H   H2164     1.0  0.32685  0.59970  0.86066  1.0000
  H   H2165     1.0  0.31666  0.84769  0.77173  1.0000
  H   H2166     1.0  0.32644  0.86398  0.87588  1.0000
  C   C1223     1.0  0.46098  0.51912  0.95290  1.0000
  C   C1224     1.0  0.43955  0.51794  0.95270  1.0000
  H   H2167     1.0  0.33257  0.83610  0.78787  1.0000
  H   H2168     1.0  0.30645  0.57388  0.91508  1.0000
  H   H2169     1.0  0.34352  0.91955  0.81868  1.0000
  C   C1225     1.0  0.35791  0.88371  0.81255  1.0000
  C   C1226     1.0  0.43193  0.53060  0.93632  1.0000
  H   H2170     1.0  0.29218  0.61694  0.97470  1.0000
  C   C1227     1.0  0.32026  0.84661  0.78646  1.0000
  H   H2171     1.0  0.26312  0.91308  0.69210  1.0000
  H   H2172     1.0  0.28056  0.55312  0.89368  1.0000
  H   H2173     1.0  0.40762  0.84955  0.71236  1.0000
  N   N67       1.0  0.39501  0.84763  0.68650  1.0000
  H   H2174     1.0  0.29978  0.57670  0.88291  1.0000
  H   H2175     1.0  0.24719  0.85762  0.67485  1.0000
  C   C1228     1.0  0.48821  0.49318  0.90743  1.0000
  H   H2176     1.0  0.39575  0.95014  0.95840  1.0000
  H   H2177     1.0  0.36360  0.89221  0.82230  1.0000
  H   H2178     1.0  0.43647  0.50337  0.95135  1.0000
  C   C1229     1.0  0.26294  0.92538  0.68147  1.0000
  H   H2179     1.0  0.42446  0.82411  0.73107  1.0000
  H   H2180     1.0  0.36758  0.89838  0.70297  1.0000
  H   H2181     1.0  0.32695  0.90121  0.79546  1.0000
  C   C1230     1.0  0.31906  0.57160  0.85831  1.0000
  C   C1231     1.0  0.31529  0.95889  0.66128  1.0000
  C   C1232     1.0  0.26420  0.53621  0.86741  1.0000
  H   H2182     1.0  0.34856  0.84986  0.87724  1.0000
  N   N68       1.0  0.47039  0.50729  0.96847  1.0000
  H   H2183     1.0  0.41649  0.53005  0.93678  1.0000
  H   H2184     1.0  0.43470  0.54540  0.93714  1.0000
  H   H2185     1.0  0.43848  0.52586  0.92276  1.0000
  H   H2186     1.0  0.31045  0.56506  0.84935  1.0000
  H   H2187     1.0  0.35563  0.81944  0.66206  1.0000
  C   C1233     1.0  0.30385  0.55920  0.92014  1.0000
  H   H2188     1.0  0.43335  0.92356  0.87257  1.0000
  H   H2189     1.0  0.28986  0.60423  0.95490  1.0000
  H   H2190     1.0  0.35172  0.60678  0.94848  1.0000
  H   H2191     1.0  0.28189  0.55850  0.86014  1.0000
  H   H2192     1.0  0.33659  0.72665  0.79109  1.0000
  H   H2193     1.0  0.45208  0.92410  0.94455  1.0000
  C   C1234     1.0  0.33101  0.86450  0.81145  1.0000
  H   H2194     1.0  0.47634  0.74686  0.84229  1.0000
  H   H2195     1.0  0.45631  0.85102  0.83610  1.0000
  Fe  Fe142     1.0  0.42748  0.96344  0.89416  1.0000
  S   S283      1.0  0.34228  0.89132  0.66660  1.0000
  C   C1235     1.0  0.38723  0.61648  0.93905  1.0000
  H   H2196     1.0  0.47503  0.97083  0.85805  1.0000
  C   C1236     1.0  0.34151  0.86289  0.87051  1.0000
  H   H2197     1.0  0.30389  0.93362  0.80753  1.0000
  H   H2198     1.0  0.32128  0.94773  0.81374  1.0000
  H   H2199     1.0  0.43159  0.52268  0.96563  1.0000
  H   H2200     1.0  0.34820  0.87501  0.87447  1.0000
  H   H2201     1.0  0.41709  0.81602  0.69977  1.0000
  H   H2202     1.0  0.31194  0.87551  0.79000  1.0000
  C   C1237     1.0  0.47181  0.96427  0.90073  1.0000
  H   H2203     1.0  0.44315  0.91107  0.82205  1.0000
  H   H2204     1.0  0.25903  0.53794  0.85326  1.0000
  H   H2205     1.0  0.43306  0.96045  0.95972  1.0000
  H   H2206     1.0  0.47915  0.85089  0.91019  1.0000
  H   H2207     1.0  0.41796  0.93664  0.84801  1.0000
  H   H2208     1.0  0.46749  0.51515  0.93900  1.0000
  H   H2209     1.0  0.31894  0.88103  0.84397  1.0000
  H   H2210     1.0  0.32259  0.59518  0.83739  1.0000
  C   C1238     1.0  0.37975  0.60355  0.95566  1.0000
  C   C1239     1.0  0.38502  0.89365  0.78969  1.0000
  C   C1240     1.0  0.44311  0.94780  0.96112  1.0000
  H   H2211     1.0  0.26510  0.52107  0.87243  1.0000
  H   H2212     1.0  0.32241  0.53541  0.86124  1.0000
  H   H2213     1.0  0.32403  0.75652  0.80263  1.0000
  C   C1241     1.0  0.26853  0.94204  0.69054  1.0000
  H   H2214     1.0  0.33393  0.56601  0.85529  1.0000
  C   C1242     1.0  0.39801  0.84095  0.70661  1.0000
  C   C1243     1.0  0.31778  0.59267  0.85248  1.0000
  H   H2215     1.0  0.32278  0.58994  0.95595  1.0000
  H   H2216     1.0  0.46221  0.88519  0.83479  1.0000
  H   H2217     1.0  0.32200  0.91796  0.83352  1.0000
  H   H2218     1.0  0.32512  0.55765  0.93989  1.0000
  C   C1244     1.0  0.31921  0.93468  0.80747  1.0000
  H   H2219     1.0  0.48206  0.90674  0.82674  1.0000
  C   C1245     1.0  0.39551  0.95919  0.96955  1.0000
  H   H2220     1.0  0.43856  0.93875  0.97377  1.0000
  C   C1246     1.0  0.38417  0.86672  0.68600  1.0000
  S   S284      1.0  0.38053  0.49155  0.96838  1.0000
  H   H2221     1.0  0.38188  0.58908  0.95123  1.0000
  H   H2222     1.0  0.46045  0.93196  0.85576  1.0000
  N   N69       1.0  0.34955  0.69333  0.81400  1.0000
  C   C1247     1.0  0.34897  0.71392  0.81664  1.0000
  C   C1248     1.0  0.36356  0.68265  0.82625  1.0000
  C   C1249     1.0  0.35501  0.69071  0.79359  1.0000
  C   C1250     1.0  0.33064  0.68595  0.81954  1.0000
  C   C1251     1.0  0.32137  0.68989  0.83935  1.0000
  C   C1252     1.0  0.44776  0.85244  0.84970  1.0000
  C   C1253     1.0  0.35950  0.67013  0.78869  1.0000
  C   C1254     1.0  0.38426  0.68719  0.82171  1.0000
  C   C1255     1.0  0.39719  0.67416  0.83388  1.0000
  H   H2223     1.0  0.33602  0.74933  0.95342  1.0000
  H   H2224     1.0  0.48741  0.50780  0.90202  1.0000
  C   C1256     1.0  0.36437  0.66931  0.76763  1.0000
  H   H2225     1.0  0.36270  0.71936  0.81151  1.0000
  H   H2226     1.0  0.34709  0.71616  0.83175  1.0000
  H   H2227     1.0  0.35985  0.68556  0.84101  1.0000
  H   H2228     1.0  0.36291  0.66724  0.82633  1.0000
  H   H2229     1.0  0.36729  0.69862  0.78819  1.0000
  H   H2230     1.0  0.34351  0.69690  0.78501  1.0000
  H   H2231     1.0  0.32048  0.69145  0.80918  1.0000
  H   H2232     1.0  0.33178  0.67045  0.81919  1.0000
  C   C1257     1.0  0.46475  0.91780  0.85092  1.0000
  H   H2233     1.0  0.33030  0.68347  0.85038  1.0000
  H   H2234     1.0  0.30434  0.66607  0.84284  1.0000
  C   C1258     1.0  0.43369  0.90255  0.90558  1.0000
  H   H2235     1.0  0.34729  0.66187  0.79288  1.0000
  H   H2236     1.0  0.37169  0.66315  0.79576  1.0000
  H   H2237     1.0  0.38933  0.68556  0.80688  1.0000
  H   H2238     1.0  0.38583  0.70179  0.82465  1.0000
  H   H2239     1.0  0.41181  0.67811  0.83096  1.0000
  H   H2240     1.0  0.39275  0.67529  0.84898  1.0000
  H   H2241     1.0  0.39696  0.65937  0.83080  1.0000
  C   C1259     1.0  0.33379  0.97413  0.68076  1.0000
  H   H2242     1.0  0.28809  0.52908  0.89362  1.0000
  H   H2243     1.0  0.39784  0.87900  0.70750  1.0000
  C   C1260     1.0  0.25239  0.59107  0.87203  1.0000
  H   H2244     1.0  0.31046  0.50807  0.88393  1.0000
  H   H2245     1.0  0.39239  0.87934  0.79148  1.0000
  H   H2246     1.0  0.36757  0.65446  0.76448  1.0000
  H   H2247     1.0  0.35237  0.67552  0.75978  1.0000
  H   H2248     1.0  0.37690  0.67696  0.76276  1.0000
  H   H2249     1.0  0.30174  0.56552  0.94911  1.0000
  C   C1261     1.0  0.43576  0.91379  0.83598  1.0000
  H   H2250     1.0  0.41202  0.95583  0.81881  1.0000
  H   H2251     1.0  0.25830  0.94555  0.70256  1.0000
  C   C1262     1.0  0.41306  0.84808  0.67375  1.0000
  H   H2252     1.0  0.37908  0.61602  0.92681  1.0000
  C   C1263     1.0  0.43090  0.85242  0.68242  1.0000
  Fe  Fe143     1.0  0.31476  0.90711  0.65964  1.0000
  C   C1264     1.0  0.43659  0.90849  0.87008  1.0000
  H   H2253     1.0  0.44021  0.89475  0.91772  1.0000
  H   H2254     1.0  0.32979  0.51039  0.89749  1.0000
  H   H2255     1.0  0.40587  0.93234  0.81784  1.0000
  H   H2256     1.0  0.31384  0.73906  0.95483  1.0000
  N   N70       1.0  0.44797  0.90663  0.85147  1.0000
  H   H2257     1.0  0.38307  0.57240  0.97903  1.0000
  H   H2258     1.0  0.43949  0.94401  0.83576  1.0000
  H   H2259     1.0  0.38760  0.91187  0.69864  1.0000
  H   H2260     1.0  0.46546  0.88115  0.85884  1.0000
  H   H2261     1.0  0.38457  0.84289  0.71562  1.0000
  H   H2262     1.0  0.44766  0.88329  0.88697  1.0000
  H   H2263     1.0  0.45060  0.53947  0.98230  1.0000
  H   H2264     1.0  0.34224  0.85269  0.81267  1.0000
  C   C1265     1.0  0.44583  0.89870  0.88750  1.0000
  H   H2265     1.0  0.45972  0.90377  0.88852  1.0000
  C   C1266     1.0  0.32908  0.60412  0.98012  1.0000
  C   C1267     1.0  0.32462  0.51306  0.88337  1.0000
  H   H2266     1.0  0.40089  0.81975  0.74076  1.0000
  H   H2267     1.0  0.30814  0.84167  0.79580  1.0000
  C   C1268     1.0  0.30249  0.68154  0.84333  1.0000
  N   N71       1.0  0.33723  0.88205  0.81808  1.0000
  H   H2268     1.0  0.43630  0.84300  0.85069  1.0000
  H   H2269     1.0  0.24618  0.64042  0.84559  1.0000
  H   H2270     1.0  0.42831  0.86446  0.69101  1.0000
  C   C1269     1.0  0.39368  0.88268  0.69311  1.0000
  C   C1270     1.0  0.32805  0.65589  0.97571  1.0000
  C   C1271     1.0  0.46323  0.95333  0.96215  1.0000
  H   H2271     1.0  0.39395  0.81096  0.70969  1.0000
  C   C1272     1.0  0.40545  0.82006  0.71032  1.0000
  H   H2272     1.0  0.31957  0.72282  0.81088  1.0000
  C   C1273     1.0  0.37253  0.54580  0.97781  1.0000
  C   C1274     1.0  0.45478  0.88643  0.84897  1.0000
  H   H2273     1.0  0.34320  0.97307  0.69171  1.0000
  C   C1275     1.0  0.38278  0.83440  0.67949  1.0000
  C   C1276     1.0  0.29046  0.54301  0.88606  1.0000
  H   H2274     1.0  0.46946  0.74887  0.86681  1.0000
  H   H2275     1.0  0.41941  0.89800  0.90529  1.0000
  C   C1277     1.0  0.31289  0.56759  0.87950  1.0000
  C   C1278     1.0  0.32442  0.53419  0.87636  1.0000
  H   H2276     1.0  0.39031  0.82014  0.67909  1.0000
  C   C1279     1.0  0.32512  0.89909  0.81101  1.0000
  H   H2277     1.0  0.40614  0.88605  0.68343  1.0000
  H   H2278     1.0  0.29339  0.59154  0.97733  1.0000
  C   C1280     1.0  0.33424  0.88032  0.83925  1.0000
  H   H2279     1.0  0.42985  0.87578  0.83960  1.0000
  C   C1281     1.0  0.32836  0.91775  0.81882  1.0000
  H   H2280     1.0  0.33889  0.53820  0.87700  1.0000
  H   H2281     1.0  0.35226  0.50539  0.86935  1.0000
  C   C1282     1.0  0.30930  0.97671  0.65288  1.0000
  H   H2282     1.0  0.32386  0.57319  0.88668  1.0000
  H   H2283     1.0  0.32992  0.54563  0.90807  1.0000
  H   H2284     1.0  0.45857  0.49080  0.90612  1.0000
  H   H2285     1.0  0.46757  0.96155  0.94877  1.0000
  H   H2286     1.0  0.45019  0.84483  0.65838  1.0000
  H   H2287     1.0  0.31879  0.70515  0.84078  1.0000
  H   H2288     1.0  0.48300  0.82388  0.85746  1.0000
  C   C1283     1.0  0.48546  0.97016  0.97608  1.0000
  N   N72       1.0  0.31044  0.54742  0.88685  1.0000
  H   H2289     1.0  0.37645  0.90548  0.67920  1.0000
  C   C1284     1.0  0.44664  0.85677  0.66715  1.0000
  H   H2290     1.0  0.38978  0.90249  0.79976  1.0000
  H   H2291     1.0  0.40214  0.61184  0.93493  1.0000
  H   H2292     1.0  0.31001  0.89683  0.81455  1.0000
  C   C1285     1.0  0.41234  0.81601  0.72984  1.0000
  C   C1286     1.0  0.37634  0.83994  0.65958  1.0000
  H   H2293     1.0  0.36989  0.83277  0.68932  1.0000
  H   H2294     1.0  0.30306  0.59897  0.85473  1.0000
  H   H2295     1.0  0.33971  0.89228  0.84502  1.0000
  S   S285      1.0  0.41262  0.49321  0.92199  1.0000
  C   C1287     1.0  0.30852  0.65593  0.97651  1.0000
  C   C1288     1.0  0.24795  0.62665  0.85308  1.0000
  H   H2296     1.0  0.42268  0.90310  0.86998  1.0000
  H   H2297     1.0  0.36604  0.86971  0.81409  1.0000
  H   H2298     1.0  0.35996  0.53821  0.98268  1.0000
  H   H2299     1.0  0.47318  0.85877  0.88669  1.0000
  H   H2300     1.0  0.34842  0.75222  0.80695  1.0000
  H   H2301     1.0  0.35981  0.88468  0.78182  1.0000
  C   C1289     1.0  0.31001  0.55556  0.93997  1.0000
  H   H2302     1.0  0.35726  0.90741  0.79046  1.0000
  H   H2303     1.0  0.48817  0.94607  0.83692  1.0000
  H   H2304     1.0  0.43064  0.87302  0.86459  1.0000
  H   H2305     1.0  0.29310  0.53524  0.85686  1.0000
  H   H2306     1.0  0.47259  0.94005  0.96213  1.0000
  H   H2307     1.0  0.36542  0.85195  0.65986  1.0000
  C   C1290     1.0  0.41778  0.94095  0.81829  1.0000
  H   H2308     1.0  0.38643  0.63109  0.94289  1.0000
  H   H2309     1.0  0.47918  0.83425  0.89306  1.0000
  H   H2310     1.0  0.48292  0.93877  0.65992  1.0000
  H   H2311     1.0  0.42760  0.93250  0.94436  1.0000
  H   H2312     1.0  0.45942  0.85928  0.67364  1.0000
  H   H2313     1.0  0.35638  0.62415  0.96256  1.0000
  C   C1291     1.0  0.47646  0.92047  0.83172  1.0000
  C   C1292     1.0  0.33778  0.50104  0.87040  1.0000
  H   H2314     1.0  0.41102  0.85838  0.66133  1.0000
  C   C1293     1.0  0.36773  0.82381  0.65233  1.0000
  H   H2315     1.0  0.46792  0.92825  0.82099  1.0000
  H   H2316     1.0  0.28263  0.93849  0.69570  1.0000
  H   H2317     1.0  0.41686  0.83436  0.66777  1.0000
  H   H2318     1.0  0.36975  0.94475  0.67128  1.0000
  C   C1294     1.0  0.35234  0.57703  0.97620  1.0000
  H   H2319     1.0  0.47641  0.76910  0.85192  1.0000
  Fe  Fe144     1.0  0.39214  0.97823  0.91615  1.0000
  C   C1295     1.0  0.35863  0.60879  0.96104  1.0000
  H   H2320     1.0  0.38827  0.60459  0.96743  1.0000
  C   C1296     1.0  0.48471  0.81709  0.84461  1.0000
  C   C1297     1.0  0.47211  0.48706  0.96414  1.0000
  H   H2321     1.0  0.44242  0.86956  0.65799  1.0000
  C   C1298     1.0  0.48234  0.84867  0.89513  1.0000
  C   C1299     1.0  0.38272  0.94429  0.66148  1.0000
  H   H2322     1.0  0.27379  0.92229  0.66994  1.0000
  H   H2323     1.0  0.24216  0.94381  0.66667  1.0000
  H   H2324     1.0  0.35224  0.57446  0.96120  1.0000
  C   C1300     1.0  0.46410  0.97831  0.91199  1.0000
  S   S286      1.0  0.30691  0.93871  0.65375  1.0000
  C   C1301     1.0  0.31836  0.60306  0.96268  1.0000
  H   H2325     1.0  0.45539  0.97232  0.84413  1.0000
  H   H2326     1.0  0.44946  0.97912  0.91686  1.0000
  C   C1302     1.0  0.24319  0.92956  0.67434  1.0000
  C   C1303     1.0  0.32628  0.73771  0.98068  1.0000
  H   H2327     1.0  0.25414  0.57735  0.87953  1.0000
  H   H2328     1.0  0.37835  0.81162  0.65072  1.0000
  C   C1304     1.0  0.47924  0.75365  0.85475  1.0000
  H   H2329     1.0  0.47610  0.98371  0.83512  1.0000
  H   H2330     1.0  0.48761  0.97870  0.96238  1.0000
  C   C1305     1.0  0.46681  0.98009  0.84797  1.0000
  C   C1306     1.0  0.29715  0.60398  0.96780  1.0000
  N   N73       1.0  0.34987  0.59793  0.97817  1.0000
  S   S287      1.0  0.37629  0.98460  0.89018  1.0000
  H   H2331     1.0  0.48797  0.52941  0.97081  1.0000
  H   H2332     1.0  0.34017  0.56998  0.98349  1.0000
  C   C1307     1.0  0.45184  0.98057  0.98044  1.0000
  H   H2333     1.0  0.38486  0.53790  0.98397  1.0000
  C   C1308     1.0  0.39799  0.48733  0.98386  1.0000
  C   C1309     1.0  0.37001  0.56575  0.98385  1.0000
  H   H2334     1.0  0.32661  0.61878  0.98398  1.0000
  C   C1310     1.0  0.63144  0.36226  0.14932  1.0000
  H   H2335     1.0  0.66512  0.14209  0.19736  1.0000
  Fe  Fe145     1.0  0.64831  0.08483  0.30785  1.0000
  S   S288      1.0  0.63172  0.09103  0.28175  1.0000
  Fe  Fe146     1.0  0.60191  0.15312  0.18505  1.0000
  S   S289      1.0  0.61345  0.15889  0.15473  1.0000
  S   S290      1.0  0.62245  0.14779  0.20795  1.0000
  Fe  Fe147     1.0  0.56108  0.16016  0.17519  1.0000
  S   S291      1.0  0.56979  0.16694  0.14473  1.0000
  S   S292      1.0  0.53109  0.15785  0.18887  1.0000
  Fe  Fe148     1.0  0.59070  0.14169  0.14818  1.0000
  S   S293      1.0  0.59333  0.12244  0.12456  1.0000
  Fe  Fe149     1.0  0.59187  0.18396  0.15336  1.0000
  S   S294      1.0  0.59476  0.21334  0.13692  1.0000
  S   S295      1.0  0.58107  0.13400  0.17832  1.0000
  S   S296      1.0  0.58133  0.17902  0.18402  1.0000
  Fe  Fe150     1.0  0.58421  0.01686  0.10400  1.0000
  S   S297      1.0  0.59380  0.03358  0.12614  1.0000
  S   S298      1.0  0.57415  0.02853  0.07629  1.0000
  Fe  Fe151     1.0  0.65573  0.30569  0.09554  1.0000
  S   S299      1.0  0.68045  0.31166  0.07413  1.0000
  S   S300      1.0  0.65303  0.27585  0.11054  1.0000
  Fe  Fe152     1.0  0.64003  0.34719  0.09225  1.0000
  S   S301      1.0  0.66326  0.35547  0.07108  1.0000
  S   S302      1.0  0.61464  0.36707  0.10109  1.0000
  Fe  Fe153     1.0  0.65923  0.32954  0.05747  1.0000
  S   S303      1.0  0.65437  0.33526  0.02642  1.0000
  Fe  Fe154     1.0  0.68280  0.33726  0.08949  1.0000
  S   S304      1.0  0.70994  0.35101  0.09244  1.0000
  S   S305      1.0  0.63466  0.32215  0.07784  1.0000
  S   S306      1.0  0.65947  0.33035  0.11170  1.0000
  C   C1311     1.0  0.72449  0.35377  0.11060  1.0000
  H   H2336     1.0  0.64446  0.12646  0.17810  1.0000
  H   H2337     1.0  0.70654  0.02378  0.29256  1.0000
  C   C1312     1.0  0.49266  0.09187  0.13559  1.0000
  C   C1313     1.0  0.65357  0.28271  0.15980  1.0000
  H   H2338     1.0  0.50207  0.02910  0.04875  1.0000
  H   H2339     1.0  0.53922  0.99818  0.02645  1.0000
  S   S307      1.0  0.61001  0.45435  0.07296  1.0000
  H   H2340     1.0  0.50738  0.98752  0.01885  1.0000
  N   N74       1.0  0.57087  0.11167  0.29751  1.0000
  Fe  Fe155     1.0  0.58676  0.47823  0.07645  1.0000
  H   H2341     1.0  0.49414  0.22367  0.13247  1.0000
  H   H2342     1.0  0.64150  0.36715  0.15808  1.0000
  H   H2343     1.0  0.73101  0.11106  0.30653  1.0000
  H   H2344     1.0  0.71399  0.29743  0.99116  1.0000
  H   H2345     1.0  0.53051  0.43479  0.07778  1.0000
  H   H2346     1.0  0.54913  0.07961  0.13281  1.0000
  H   H2347     1.0  0.63416  0.30478  0.13554  1.0000
  H   H2348     1.0  0.51779  0.09410  0.16214  1.0000
  C   C1314     1.0  0.66020  0.32227  0.00655  1.0000
  C   C1315     1.0  0.67067  0.30477  0.00747  1.0000
  H   H2349     1.0  0.60824  0.31653  0.17962  1.0000
  C   C1316     1.0  0.62136  0.39971  0.00644  1.0000
  H   H2350     1.0  0.67565  0.29878  0.02062  1.0000
  H   H2351     1.0  0.58755  0.32718  0.17055  1.0000
  C   C1317     1.0  0.61366  0.39156  0.09420  1.0000
  C   C1318     1.0  0.59663  0.40280  0.09709  1.0000
  C   C1319     1.0  0.59531  0.42219  0.09120  1.0000
  C   C1320     1.0  0.61102  0.43047  0.08223  1.0000
  C   C1321     1.0  0.62810  0.41927  0.07967  1.0000
  C   C1322     1.0  0.62945  0.39998  0.08570  1.0000
  H   H2352     1.0  0.58435  0.39648  0.10380  1.0000
  H   H2353     1.0  0.58211  0.43066  0.09335  1.0000
  H   H2354     1.0  0.64039  0.42557  0.07296  1.0000
  H   H2355     1.0  0.64274  0.39164  0.08377  1.0000
  H   H2356     1.0  0.57603  0.28245  0.20163  1.0000
  H   H2357     1.0  0.59631  0.28415  0.17169  1.0000
  H   H2358     1.0  0.53005  0.04287  0.03969  1.0000
  H   H2359     1.0  0.49687  0.07792  0.13042  1.0000
  H   H2360     1.0  0.58333  0.45378  0.01144  1.0000
  H   H2361     1.0  0.62305  0.34122  0.17076  1.0000
  H   H2362     1.0  0.51263  0.46636  0.07455  1.0000
  C   C1323     1.0  0.61125  0.23059  0.13001  1.0000
  C   C1324     1.0  0.62985  0.22821  0.13467  1.0000
  C   C1325     1.0  0.64229  0.24217  0.12865  1.0000
  C   C1326     1.0  0.63645  0.25882  0.11790  1.0000
  C   C1327     1.0  0.61792  0.26113  0.11306  1.0000
  C   C1328     1.0  0.60547  0.24718  0.11908  1.0000
  H   H2363     1.0  0.63466  0.21558  0.14295  1.0000
  H   H2364     1.0  0.65658  0.24002  0.13242  1.0000
  H   H2365     1.0  0.61325  0.27350  0.10443  1.0000
  H   H2366     1.0  0.59123  0.24919  0.11516  1.0000
  C   C1329     1.0  0.59201  0.09786  0.12554  1.0000
  C   C1330     1.0  0.59157  0.08649  0.14243  1.0000
  C   C1331     1.0  0.59186  0.06685  0.14245  1.0000
  C   C1332     1.0  0.59196  0.05844  0.12561  1.0000
  C   C1333     1.0  0.59151  0.06994  0.10879  1.0000
  C   C1334     1.0  0.59173  0.08951  0.10876  1.0000
  H   H2367     1.0  0.59124  0.09288  0.15541  1.0000
  H   H2368     1.0  0.59206  0.05808  0.15554  1.0000
  H   H2369     1.0  0.59164  0.06369  0.09573  1.0000
  H   H2370     1.0  0.59197  0.09821  0.09561  1.0000
  C   C1335     1.0  0.50971  0.16107  0.15838  1.0000
  C   C1336     1.0  0.51065  0.15574  0.17747  1.0000
  C   C1337     1.0  0.50450  0.45383  0.07653  1.0000
  H   H2371     1.0  0.52168  0.16670  0.15021  1.0000
  C   C1338     1.0  0.50530  0.00639  0.08486  1.0000
  C   C1339     1.0  0.62949  0.10721  0.26143  1.0000
  C   C1340     1.0  0.61630  0.10445  0.24901  1.0000
  C   C1341     1.0  0.61337  0.11712  0.23306  1.0000
  C   C1342     1.0  0.62409  0.13244  0.22891  1.0000
  C   C1343     1.0  0.63747  0.13507  0.24120  1.0000
  C   C1344     1.0  0.64004  0.12267  0.25744  1.0000
  H   H2372     1.0  0.60830  0.09237  0.25176  1.0000
  H   H2373     1.0  0.60304  0.11491  0.22381  1.0000
  H   H2374     1.0  0.64596  0.14679  0.23810  1.0000
  H   H2375     1.0  0.65027  0.12502  0.26678  1.0000
  C   C1345     1.0  0.56488  0.46401  0.99022  1.0000
  H   H2376     1.0  0.60142  0.34519  0.14350  1.0000
  H   H2377     1.0  0.54746  0.10944  0.28127  1.0000
  C   C1346     1.0  0.56936  0.11958  0.26162  1.0000
  C   C1347     1.0  0.67005  0.22939  0.03462  1.0000
  S   S308      1.0  0.59934  0.99050  0.09268  1.0000
  C   C1348     1.0  0.58653  0.12440  0.29638  1.0000
  H   H2378     1.0  0.62089  0.33542  0.12939  1.0000
  H   H2379     1.0  0.64187  0.33354  0.15377  1.0000
  C   C1349     1.0  0.61393  0.33469  0.14387  1.0000
  H   H2380     1.0  0.49759  0.19863  0.13829  1.0000
  C   C1350     1.0  0.59332  0.31194  0.13682  1.0000
  C   C1351     1.0  0.59962  0.31397  0.11554  1.0000
  C   C1352     1.0  0.58514  0.30730  0.10417  1.0000
  H   H2381     1.0  0.58042  0.32170  0.13917  1.0000
  H   H2382     1.0  0.58886  0.29749  0.13999  1.0000
  H   H2383     1.0  0.61324  0.30569  0.11246  1.0000
  H   H2384     1.0  0.60107  0.32888  0.11050  1.0000
  H   H2385     1.0  0.58290  0.29236  0.10844  1.0000
  H   H2386     1.0  0.57154  0.31600  0.10615  1.0000
  H   H2387     1.0  0.59021  0.30868  0.08906  1.0000
  N   N75       1.0  0.64995  0.25279  0.05556  1.0000
  C   C1353     1.0  0.64450  0.23719  0.07012  1.0000
  C   C1354     1.0  0.66604  0.26224  0.06149  1.0000
  C   C1355     1.0  0.63317  0.26720  0.05451  1.0000
  C   C1356     1.0  0.65477  0.24600  0.03635  1.0000
  C   C1357     1.0  0.62732  0.22699  0.06667  1.0000
  C   C1358     1.0  0.63633  0.28558  0.04180  1.0000
  C   C1359     1.0  0.68069  0.24971  0.07279  1.0000
  C   C1360     1.0  0.69743  0.26033  0.07552  1.0000
  C   C1361     1.0  0.62484  0.21005  0.08101  1.0000
  C   C1362     1.0  0.61805  0.29829  0.04081  1.0000
  H   H2388     1.0  0.64138  0.24280  0.08405  1.0000
  H   H2389     1.0  0.65632  0.22624  0.07196  1.0000
  H   H2390     1.0  0.67365  0.26962  0.04911  1.0000
  H   H2391     1.0  0.66060  0.27347  0.07074  1.0000
  H   H2392     1.0  0.62803  0.27125  0.06882  1.0000
  H   H2393     1.0  0.62130  0.26120  0.04916  1.0000
  H   H2394     1.0  0.64195  0.24223  0.03067  1.0000
  H   H2395     1.0  0.65994  0.25748  0.02624  1.0000
  H   H2396     1.0  0.61420  0.23648  0.06816  1.0000
  H   H2397     1.0  0.62893  0.22187  0.05255  1.0000
  H   H2398     1.0  0.64128  0.28271  0.02723  1.0000
  H   H2399     1.0  0.64678  0.29354  0.04718  1.0000
  H   H2400     1.0  0.67419  0.24521  0.08699  1.0000
  H   H2401     1.0  0.70424  0.26586  0.06182  1.0000
  H   H2402     1.0  0.69282  0.27210  0.08426  1.0000
  H   H2403     1.0  0.70793  0.25075  0.08291  1.0000
  H   H2404     1.0  0.61210  0.20336  0.07871  1.0000
  H   H2405     1.0  0.63715  0.19948  0.07966  1.0000
  H   H2406     1.0  0.62310  0.21443  0.09548  1.0000
  H   H2407     1.0  0.62083  0.31144  0.03196  1.0000
  H   H2408     1.0  0.60751  0.29133  0.03436  1.0000
  H   H2409     1.0  0.61219  0.30189  0.05498  1.0000
  H   H2410     1.0  0.55745  0.10165  0.18849  1.0000
  C   C1363     1.0  0.59821  0.31489  0.16932  1.0000
  C   C1364     1.0  0.67181  0.22270  0.01498  1.0000
  H   H2411     1.0  0.57430  0.29805  0.16993  1.0000
  H   H2412     1.0  0.68390  0.23391  0.03677  1.0000
  H   H2413     1.0  0.66337  0.03389  0.16163  1.0000
  H   H2414     1.0  0.58950  0.09387  0.20075  1.0000
  H   H2415     1.0  0.68611  0.23694  0.06596  1.0000
  H   H2416     1.0  0.49207  0.45735  0.08651  1.0000
  H   H2417     1.0  0.63752  0.36363  0.13450  1.0000
  C   C1365     1.0  0.62416  0.30046  0.14765  1.0000
  N   N76       1.0  0.60779  0.31530  0.14969  1.0000
  H   H2418     1.0  0.62717  0.28674  0.17604  1.0000
  H   H2419     1.0  0.61941  0.28710  0.14403  1.0000
  H   H2420     1.0  0.58971  0.06869  0.20370  1.0000
  C   C1366     1.0  0.58797  0.29706  0.17608  1.0000
  C   C1367     1.0  0.58390  0.29494  0.19737  1.0000
  H   H2421     1.0  0.62239  0.41514  0.00395  1.0000
  C   C1368     1.0  0.54989  0.47694  0.98539  1.0000
  Fe  Fe156     1.0  0.54915  0.01256  0.08544  1.0000
  H   H2422     1.0  0.66274  0.29034  0.14888  1.0000
  H   H2423     1.0  0.61833  0.10872  0.18957  1.0000
  H   H2424     1.0  0.68314  0.21107  0.01389  1.0000
  H   H2425     1.0  0.63221  0.11201  0.11802  1.0000
  H   H2426     1.0  0.66685  0.21720  0.04468  1.0000
  H   H2427     1.0  0.57964  0.13029  0.25986  1.0000
  H   H2428     1.0  0.58298  0.05221  0.30087  1.0000
  H   H2429     1.0  0.60699  0.40614  0.05273  1.0000
  Fe  Fe157     1.0  0.58685  0.00128  0.06550  1.0000
  H   H2430     1.0  0.59721  0.29297  0.20423  1.0000
  H   H2431     1.0  0.65847  0.21745  0.01206  1.0000
  C   C1369     1.0  0.62808  0.34184  0.15570  1.0000
  C   C1370     1.0  0.63553  0.29494  0.16493  1.0000
  H   H2432     1.0  0.57396  0.41962  0.06084  1.0000
  H   H2433     1.0  0.57528  0.30751  0.20227  1.0000
  H   H2434     1.0  0.67537  0.23429  0.00421  1.0000
  H   H2435     1.0  0.59219  0.39873  0.99908  1.0000
  C   C1371     1.0  0.57858  0.09160  0.29510  1.0000
  H   H2436     1.0  0.61812  0.37149  0.15066  1.0000
  H   H2437     1.0  0.63945  0.30726  0.17112  1.0000
  H   H2438     1.0  0.60768  0.10865  0.31317  1.0000
  H   H2439     1.0  0.64561  0.37847  0.02926  1.0000
  C   C1372     1.0  0.72582  0.34104  0.12654  1.0000
  H   H2440     1.0  0.56294  0.05343  0.03788  1.0000
  H   H2441     1.0  0.65027  0.26956  0.15451  1.0000
  H   H2442     1.0  0.55294  0.08773  0.15999  1.0000
  C   C1373     1.0  0.57158  0.46358  0.00781  1.0000
  H   H2443     1.0  0.50285  0.06031  0.02813  1.0000
  H   H2444     1.0  0.51023  0.42516  0.09049  1.0000
  C   C1374     1.0  0.50681  0.10629  0.12765  1.0000
  C   C1375     1.0  0.64465  0.10221  0.12108  1.0000
  H   H2445     1.0  0.66139  0.27895  0.17236  1.0000
  H   H2446     1.0  0.50589  0.20874  0.11544  1.0000
  H   H2447     1.0  0.63271  0.09390  0.20457  1.0000
  H   H2448     1.0  0.54540  0.11444  0.24705  1.0000
  H   H2449     1.0  0.56604  0.05443  0.01251  1.0000
  H   H2450     1.0  0.67329  0.09913  0.19921  1.0000
  H   H2451     1.0  0.56088  0.43063  0.04207  1.0000
  H   H2452     1.0  0.54168  0.14736  0.09592  1.0000
  H   H2453     1.0  0.58061  0.13935  0.29482  1.0000
  H   H2454     1.0  0.66481  0.09697  0.14147  1.0000
  H   H2455     1.0  0.72229  0.07852  0.31108  1.0000
  H   H2456     1.0  0.55514  0.11248  0.15503  1.0000
  H   H2457     1.0  0.61889  0.36455  0.02318  1.0000
  H   H2458     1.0  0.56935  0.47637  0.03371  1.0000
  H   H2459     1.0  0.50667  0.10801  0.11214  1.0000
  H   H2460     1.0  0.51952  0.11844  0.15694  1.0000
  C   C1376     1.0  0.49470  0.14903  0.18801  1.0000
  H   H2461     1.0  0.61095  0.07767  0.17653  1.0000
  H   H2462     1.0  0.52665  0.07189  0.13968  1.0000
  H   H2463     1.0  0.55412  0.11093  0.12320  1.0000
  H   H2464     1.0  0.54186  0.09044  0.31124  1.0000
  S   S309      1.0  0.60177  0.00132  0.03607  1.0000
  C   C1377     1.0  0.54582  0.10188  0.16183  1.0000
  N   N77       1.0  0.51944  0.02290  0.02358  1.0000
  C   C1378     1.0  0.59826  0.08061  0.20429  1.0000
  C   C1379     1.0  0.53417  0.08216  0.12980  1.0000
  H   H2465     1.0  0.58183  0.03926  0.02635  1.0000
  C   C1380     1.0  0.65125  0.10551  0.13988  1.0000
  C   C1381     1.0  0.64971  0.40770  0.03108  1.0000
  C   C1382     1.0  0.55443  0.02911  0.02617  1.0000
  C   C1383     1.0  0.53345  0.03669  0.02600  1.0000
  H   H2466     1.0  0.51425  0.03681  0.99629  1.0000
  H   H2467     1.0  0.68108  0.04744  0.16811  1.0000
  H   H2468     1.0  0.65711  0.06679  0.14988  1.0000
  H   H2469     1.0  0.57677  0.10576  0.25881  1.0000
  H   H2470     1.0  0.53705  0.11802  0.18573  1.0000
  C   C1384     1.0  0.63642  0.10092  0.15654  1.0000
  H   H2471     1.0  0.66660  0.39942  0.05456  1.0000
  H   H2472     1.0  0.73679  0.30568  0.99207  1.0000
  H   H2473     1.0  0.53594  0.99758  0.99658  1.0000
  C   C1385     1.0  0.51731  0.43816  0.08668  1.0000
  C   C1386     1.0  0.53907  0.11520  0.12137  1.0000
  H   H2474     1.0  0.52721  0.45227  0.04747  1.0000
  S   S310      1.0  0.55566  0.47728  0.07564  1.0000
  H   H2475     1.0  0.54545  0.01985  0.98970  1.0000
  H   H2476     1.0  0.63895  0.05967  0.16698  1.0000
  H   H2477     1.0  0.66250  0.04002  0.18535  1.0000
  C   C1387     1.0  0.54352  0.10382  0.18287  1.0000
  H   H2478     1.0  0.52726  0.44155  0.99676  1.0000
  C   C1388     1.0  0.63732  0.39098  0.03490  1.0000
  C   C1389     1.0  0.49312  0.15961  0.14993  1.0000
  H   H2479     1.0  0.60573  0.06133  0.29907  1.0000
  H   H2480     1.0  0.57857  0.40039  0.03432  1.0000
  C   C1390     1.0  0.51514  0.44455  0.04487  1.0000
  H   H2481     1.0  0.71601  0.31806  0.00278  1.0000
  N   N78       1.0  0.64404  0.09674  0.17545  1.0000
  C   C1391     1.0  0.61573  0.07874  0.19042  1.0000
  H   H2482     1.0  0.68616  0.12941  0.18725  1.0000
  H   H2483     1.0  0.52985  0.45729  0.10255  1.0000
  H   H2484     1.0  0.62249  0.13590  0.29742  1.0000
  C   C1392     1.0  0.67451  0.12886  0.19859  1.0000
  C   C1393     1.0  0.66345  0.11196  0.19761  1.0000
  C   C1394     1.0  0.51302  0.44865  0.02351  1.0000
  H   H2485     1.0  0.54806  0.13900  0.24865  1.0000
  C   C1395     1.0  0.57521  0.42660  0.04638  1.0000
  H   H2486     1.0  0.60411  0.33892  0.04520  1.0000
  C   C1396     1.0  0.58600  0.41328  0.03296  1.0000
  H   H2487     1.0  0.52023  0.14107  0.12443  1.0000
  C   C1397     1.0  0.50083  0.02967  0.03348  1.0000
  H   H2488     1.0  0.58243  0.43957  0.04631  1.0000
  C   C1398     1.0  0.72171  0.31010  0.99069  1.0000
  H   H2489     1.0  0.53961  0.13846  0.13878  1.0000
  H   H2490     1.0  0.62887  0.08921  0.15311  1.0000
  C   C1399     1.0  0.66863  0.40268  0.03912  1.0000
  C   C1400     1.0  0.56377  0.47649  0.02034  1.0000
  H   H2491     1.0  0.65393  0.12053  0.13925  1.0000
  C   C1401     1.0  0.49736  0.48274  0.13518  1.0000
  H   H2492     1.0  0.53205  0.43312  0.11186  1.0000
  H   H2493     1.0  0.58537  0.42026  0.01858  1.0000
  H   H2494     1.0  0.49928  0.44558  0.01955  1.0000
  H   H2495     1.0  0.67731  0.41474  0.03613  1.0000
  C   C1402     1.0  0.61283  0.13745  0.31034  1.0000
  H   H2496     1.0  0.56144  0.14462  0.10993  1.0000
  C   C1403     1.0  0.49610  0.48522  0.04787  1.0000
  H   H2497     1.0  0.52006  0.42946  0.04780  1.0000
  S   S311      1.0  0.51969  0.02487  0.08210  1.0000
  C   C1404     1.0  0.52645  0.10442  0.15371  1.0000
  C   C1405     1.0  0.60641  0.36749  0.05149  1.0000
  H   H2498     1.0  0.50355  0.01565  0.00180  1.0000
  H   H2499     1.0  0.62397  0.06543  0.19485  1.0000
  H   H2500     1.0  0.65286  0.11178  0.20984  1.0000
  H   H2501     1.0  0.56859  0.08423  0.28826  1.0000
  S   S312      1.0  0.55809  0.00261  0.11371  1.0000
  H   H2502     1.0  0.61189  0.00700  0.99636  1.0000
  C   C1406     1.0  0.53267  0.01229  0.99091  1.0000
  C   C1407     1.0  0.58305  0.07877  0.31307  1.0000
  C   C1408     1.0  0.62776  0.09541  0.19037  1.0000
  H   H2503     1.0  0.62552  0.11311  0.15674  1.0000
  H   H2504     1.0  0.60230  0.08040  0.21879  1.0000
  H   H2505     1.0  0.68053  0.12778  0.21230  1.0000
  H   H2506     1.0  0.59640  0.12232  0.28369  1.0000
  C   C1409     1.0  0.56699  0.04511  0.02569  1.0000
  C   C1410     1.0  0.53397  0.07675  0.10954  1.0000
  C   C1411     1.0  0.52253  0.44429  0.10505  1.0000
  H   H2507     1.0  0.63578  0.38782  0.05034  1.0000
  H   H2508     1.0  0.55659  0.01982  0.03921  1.0000
  C   C1412     1.0  0.60672  0.40917  0.03734  1.0000
  H   H2509     1.0  0.59153  0.09132  0.28525  1.0000
  H   H2510     1.0  0.55443  0.05242  0.11349  1.0000
  H   H2511     1.0  0.49256  0.16388  0.13516  1.0000
  H   H2512     1.0  0.63506  0.39306  0.00047  1.0000
  H   H2513     1.0  0.61299  0.42277  0.03408  1.0000
  H   H2514     1.0  0.52949  0.11344  0.30914  1.0000
  C   C1413     1.0  0.54036  0.05600  0.10832  1.0000
  C   C1414     1.0  0.54612  0.14859  0.11003  1.0000
  H   H2515     1.0  0.59788  0.37780  0.06002  1.0000
  H   H2516     1.0  0.49520  0.14502  0.20283  1.0000
  N   N79       1.0  0.52664  0.10200  0.13314  1.0000
  H   H2517     1.0  0.54332  0.16347  0.11315  1.0000
  H   H2518     1.0  0.48888  0.42064  0.03585  1.0000
  H   H2519     1.0  0.52774  0.00505  0.04779  1.0000
  C   C1415     1.0  0.65418  0.11335  0.17887  1.0000
  C   C1416     1.0  0.52816  0.43723  0.01191  1.0000
  H   H2520     1.0  0.53248  0.04878  0.01509  1.0000
  C   C1417     1.0  0.55864  0.11357  0.31563  1.0000
  H   H2521     1.0  0.54381  0.08482  0.09979  1.0000
  H   H2522     1.0  0.51979  0.07938  0.10452  1.0000
  C   C1418     1.0  0.60016  0.99846  0.99842  1.0000
  C   C1419     1.0  0.65374  0.06300  0.16507  1.0000
  H   H2523     1.0  0.58186  0.35304  0.04813  1.0000
  C   C1420     1.0  0.55569  0.12503  0.24663  1.0000
  H   H2524     1.0  0.61994  0.36350  0.05764  1.0000
  H   H2525     1.0  0.51446  0.46371  0.01912  1.0000
  C   C1421     1.0  0.59597  0.34983  0.05329  1.0000
  C   C1422     1.0  0.66597  0.04503  0.17042  1.0000
  H   H2526     1.0  0.65255  0.41166  0.01585  1.0000
  C   C1423     1.0  0.65748  0.07918  0.17660  1.0000
  H   H2527     1.0  0.59421  0.34428  0.06826  1.0000
  N   N80       1.0  0.61832  0.39393  0.02725  1.0000
  H   H2528     1.0  0.67208  0.08256  0.17175  1.0000
  H   H2529     1.0  0.55196  0.13290  0.28379  1.0000
  H   H2530     1.0  0.64591  0.34342  0.98834  1.0000
  C   C1424     1.0  0.60975  0.37541  0.03069  1.0000
  H   H2531     1.0  0.66579  0.11568  0.16773  1.0000
  H   H2532     1.0  0.64287  0.42017  0.03776  1.0000
  H   H2533     1.0  0.67632  0.39036  0.03274  1.0000
  H   H2534     1.0  0.59606  0.37623  0.02471  1.0000
  H   H2535     1.0  0.54233  0.43964  0.01545  1.0000
  H   H2536     1.0  0.65597  0.10483  0.10972  1.0000
  C   C1425     1.0  0.52544  0.00380  0.03291  1.0000
  H   H2537     1.0  0.65806  0.07345  0.19151  1.0000
  H   H2538     1.0  0.50975  0.44689  0.11481  1.0000
  S   S313      1.0  0.67895  0.07479  0.30978  1.0000
  H   H2539     1.0  0.53458  0.09318  0.19031  1.0000
  C   C1426     1.0  0.55896  0.11863  0.28161  1.0000
  H   H2540     1.0  0.71720  0.32938  0.12858  1.0000
  C   C1427     1.0  0.59209  0.99378  0.01668  1.0000
  H   H2541     1.0  0.56361  0.12585  0.23255  1.0000
  H   H2542     1.0  0.64104  0.08755  0.12106  1.0000
  H   H2543     1.0  0.53771  0.11439  0.10625  1.0000
  C   C1428     1.0  0.53525  0.13618  0.12491  1.0000
  H   H2544     1.0  0.52628  0.42203  0.01451  1.0000
  C   C1429     1.0  0.51660  0.02233  0.00317  1.0000
  H   H2545     1.0  0.55939  0.02097  0.01418  1.0000
  H   H2546     1.0  0.54131  0.05288  0.09348  1.0000
  C   C1430     1.0  0.49443  0.20977  0.12694  1.0000
  H   H2547     1.0  0.60814  0.37905  0.99291  1.0000
  H   H2548     1.0  0.60150  0.47971  0.98688  1.0000
  C   C1431     1.0  0.65402  0.32991  0.98924  1.0000
  C   C1432     1.0  0.59908  0.12229  0.31284  1.0000
  H   H2549     1.0  0.53017  0.04706  0.11658  1.0000
  C   C1433     1.0  0.59247  0.05965  0.30818  1.0000
  C   C1434     1.0  0.72179  0.01943  0.29287  1.0000
  H   H2550     1.0  0.50065  0.12001  0.13244  1.0000
  H   H2551     1.0  0.49895  0.99155  0.04269  1.0000
  C   C1435     1.0  0.49276  0.04986  0.02707  1.0000
  C   C1436     1.0  0.60680  0.39447  0.99376  1.0000
  C   C1437     1.0  0.51289  0.98815  0.08988  1.0000
  N   N81       1.0  0.49813  0.44964  0.05813  1.0000
  C   C1438     1.0  0.51169  0.98848  0.03304  1.0000
  H   H2552     1.0  0.68286  0.28154  0.99207  1.0000
  C   C1439     1.0  0.67478  0.29505  0.99124  1.0000
  H   H2553     1.0  0.72746  0.01551  0.27875  1.0000
  H   H2554     1.0  0.72364  0.00689  0.30307  1.0000
  H   H2555     1.0  0.72953  0.04742  0.28740  1.0000
  H   H2556     1.0  0.50398  0.48010  0.14814  1.0000
  H   H2557     1.0  0.49406  0.42092  0.06868  1.0000
  H   H2558     1.0  0.60520  0.15167  0.30951  1.0000
  H   H2559     1.0  0.51125  0.48262  0.04345  1.0000
  H   H2560     1.0  0.73302  0.36382  0.05822  1.0000
  H   H2561     1.0  0.73463  0.37904  0.09639  1.0000
  C   C1440     1.0  0.73594  0.36879  0.10830  1.0000
  H   H2562     1.0  0.48978  0.02036  0.03183  1.0000
  C   C1441     1.0  0.73202  0.03550  0.29815  1.0000
  H   H2563     1.0  0.49151  0.09022  0.15111  1.0000
  C   C1442     1.0  0.53989  0.10426  0.31711  1.0000
  C   C1443     1.0  0.73677  0.07194  0.31306  1.0000
  H   H2564     1.0  0.48918  0.05075  0.01237  1.0000
  H   H2565     1.0  0.70983  0.04737  0.31717  1.0000
  H   H2566     1.0  0.64940  0.00874  0.37530  1.0000
  H   H2567     1.0  0.51428  0.12068  0.48334  1.0000
  S   S314      1.0  0.71181  0.09740  0.62909  1.0000
  C   C1444     1.0  0.70926  0.14102  0.40269  1.0000
  S   S315      1.0  0.62365  0.09007  0.61812  1.0000
  Fe  Fe158     1.0  0.51742  0.06774  0.60615  1.0000
  S   S316      1.0  0.51941  0.04427  0.58749  1.0000
  S   S317      1.0  0.53827  0.07104  0.62734  1.0000
  H   H2568     1.0  0.72218  0.13668  0.46065  1.0000
  H   H2569     1.0  0.62137  0.13608  0.32249  1.0000
  Fe  Fe159     1.0  0.50217  0.06428  0.56818  1.0000
  S   S318      1.0  0.51255  0.06271  0.53716  1.0000
  Fe  Fe160     1.0  0.63872  0.07512  0.35000  1.0000
  S   S319      1.0  0.61634  0.06857  0.37388  1.0000
  Fe  Fe161     1.0  0.67717  0.09018  0.33605  1.0000
  S   S320      1.0  0.70118  0.10875  0.33999  1.0000
  C   C1445     1.0  0.52888  0.98934  0.63867  1.0000
  H   H2570     1.0  0.70175  0.12890  0.40008  1.0000
  H   H2571     1.0  0.54530  0.05267  0.36586  1.0000
  S   S321      1.0  0.66872  0.06491  0.35487  1.0000
  H   H2572     1.0  0.59622  0.04091  0.64008  1.0000
  H   H2573     1.0  0.63446  0.05031  0.61868  1.0000
  H   H2574     1.0  0.56632  0.10781  0.32785  1.0000
  Fe  Fe162     1.0  0.50528  0.03766  0.41384  1.0000
  S   S322      1.0  0.50366  0.05368  0.38576  1.0000
  H   H2575     1.0  0.58156  0.03115  0.58332  1.0000
  Fe  Fe163     1.0  0.50929  0.07818  0.40050  1.0000
  S   S323      1.0  0.53013  0.09852  0.38732  1.0000
  S   S324      1.0  0.51317  0.06151  0.42805  1.0000
  H   H2576     1.0  0.65220  0.03231  0.62367  1.0000
  H   H2577     1.0  0.68167  0.15328  0.60043  1.0000
  H   H2578     1.0  0.53747  0.13303  0.46385  1.0000
  C   C1446     1.0  0.54842  0.04566  0.35272  1.0000
  H   H2579     1.0  0.68926  0.16998  0.62644  1.0000
  C   C1447     1.0  0.53139  0.10135  0.33735  1.0000
  H   H2580     1.0  0.68558  0.13099  0.61389  1.0000
  Fe  Fe164     1.0  0.49148  0.03740  0.60168  1.0000
  H   H2581     1.0  0.71497  0.09115  0.37577  1.0000
  H   H2582     1.0  0.51238  0.10365  0.52047  1.0000
  H   H2583     1.0  0.67092  0.05604  0.57799  1.0000
  H   H2584     1.0  0.63470  0.03052  0.37448  1.0000
  C   C1448     1.0  0.59222  0.07669  0.37607  1.0000
  C   C1449     1.0  0.57990  0.06620  0.38832  1.0000
  C   C1450     1.0  0.56079  0.07253  0.39143  1.0000
  C   C1451     1.0  0.55390  0.08973  0.38277  1.0000
  C   C1452     1.0  0.56621  0.10030  0.37055  1.0000
  C   C1453     1.0  0.58525  0.09366  0.36694  1.0000
  H   H2585     1.0  0.58520  0.05318  0.39560  1.0000
  H   H2586     1.0  0.55146  0.06424  0.40081  1.0000
  H   H2587     1.0  0.56103  0.11373  0.36395  1.0000
  H   H2588     1.0  0.59468  0.10197  0.35772  1.0000
  C   C1454     1.0  0.49936  0.06474  0.51734  1.0000
  S   S325      1.0  0.64676  0.10168  0.33296  1.0000
  C   C1455     1.0  0.52165  0.10642  0.48222  1.0000
  N   N82       1.0  0.58442  0.00433  0.36976  1.0000
  H   H2589     1.0  0.59595  0.05094  0.32119  1.0000
  H   H2590     1.0  0.51268  0.98795  0.48875  1.0000
  C   C1456     1.0  0.64954  0.04022  0.59393  1.0000
  H   H2591     1.0  0.61790  0.04828  0.64618  1.0000
  H   H2592     1.0  0.65586  0.02711  0.58812  1.0000
  H   H2593     1.0  0.52990  0.01778  0.64598  1.0000
  C   C1457     1.0  0.62034  0.01941  0.63808  1.0000
  H   H2594     1.0  0.70743  0.03666  0.35443  1.0000
  H   H2595     1.0  0.55707  0.11627  0.46186  1.0000
  H   H2596     1.0  0.72519  0.16781  0.63763  1.0000
  C   C1458     1.0  0.66499  0.05351  0.59275  1.0000
  C   C1459     1.0  0.71954  0.11327  0.35394  1.0000
  C   C1460     1.0  0.65289  0.99538  0.61789  1.0000
  C   C1461     1.0  0.59986  0.08494  0.62092  1.0000
  C   C1462     1.0  0.59002  0.08529  0.60496  1.0000
  C   C1463     1.0  0.57115  0.08108  0.60659  1.0000
  C   C1464     1.0  0.56192  0.07660  0.62426  1.0000
  C   C1465     1.0  0.57174  0.07636  0.64021  1.0000
  C   C1466     1.0  0.59061  0.08046  0.63857  1.0000
  H   H2597     1.0  0.59704  0.08882  0.59124  1.0000
  H   H2598     1.0  0.56373  0.08138  0.59422  1.0000
  H   H2599     1.0  0.60541  0.01969  0.35260  1.0000
  C   C1467     1.0  0.58450  0.99232  0.35371  1.0000
  C   C1468     1.0  0.56736  0.03391  0.35269  1.0000
  H   H2600     1.0  0.69871  0.15293  0.40575  1.0000
  H   H2601     1.0  0.61759  0.00503  0.39162  1.0000
  H   H2602     1.0  0.63580  0.00476  0.59495  1.0000
  H   H2603     1.0  0.61085  0.13065  0.63739  1.0000
  C   C1469     1.0  0.71986  0.04263  0.35869  1.0000
  H   H2604     1.0  0.52700  0.99540  0.51668  1.0000
  H   H2605     1.0  0.54053  0.09094  0.34553  1.0000
  C   C1470     1.0  0.60163  0.01520  0.36765  1.0000
  H   H2606     1.0  0.55838  0.15240  0.43955  1.0000
  H   H2607     1.0  0.56503  0.02563  0.38243  1.0000
  H   H2608     1.0  0.56505  0.01873  0.59902  1.0000
  S   S326      1.0  0.52220  0.00979  0.41612  1.0000
  H   H2609     1.0  0.63880  0.04696  0.58478  1.0000
  H   H2610     1.0  0.49537  0.12490  0.42169  1.0000
  H   H2611     1.0  0.58696  0.01661  0.62431  1.0000
  C   C1471     1.0  0.49851  0.06051  0.48409  1.0000
  H   H2612     1.0  0.57827  0.04357  0.35369  1.0000
  C   C1472     1.0  0.56725  0.01835  0.36930  1.0000
  H   H2613     1.0  0.71973  0.16297  0.50259  1.0000
  H   H2614     1.0  0.51058  0.09655  0.48592  1.0000
  N   N83       1.0  0.53046  0.10453  0.46243  1.0000
  C   C1473     1.0  0.51462  0.10495  0.45010  1.0000
  C   C1474     1.0  0.54169  0.08563  0.46220  1.0000
  H   H2615     1.0  0.62297  0.99095  0.37235  1.0000
  C   C1475     1.0  0.54296  0.12025  0.45678  1.0000
  C   C1476     1.0  0.54574  0.12691  0.43553  1.0000
  H   H2616     1.0  0.48970  0.00951  0.44270  1.0000
  C   C1477     1.0  0.72353  0.10239  0.37058  1.0000
  C   C1478     1.0  0.55287  0.08104  0.44346  1.0000
  C   C1479     1.0  0.56127  0.06061  0.44454  1.0000
  H   H2617     1.0  0.71165  0.06793  0.34173  1.0000
  H   H2618     1.0  0.51420  0.98965  0.64521  1.0000
  H   H2619     1.0  0.55437  0.01110  0.36885  1.0000
  H   H2620     1.0  0.67014  0.15542  0.63359  1.0000
  H   H2621     1.0  0.51994  0.10412  0.43519  1.0000
  H   H2622     1.0  0.55249  0.08420  0.47236  1.0000
  H   H2623     1.0  0.53233  0.07429  0.46681  1.0000
  H   H2624     1.0  0.49057  0.12042  0.46476  1.0000
  H   H2625     1.0  0.59238  0.08493  0.32156  1.0000
  C   C1480     1.0  0.72923  0.19347  0.64859  1.0000
  H   H2626     1.0  0.50523  0.05519  0.47134  1.0000
  H   H2627     1.0  0.53275  0.13482  0.43081  1.0000
  H   H2628     1.0  0.54919  0.11520  0.42660  1.0000
  C   C1481     1.0  0.72116  0.13556  0.41915  1.0000
  H   H2629     1.0  0.52959  0.11476  0.34402  1.0000
  S   S327      1.0  0.66939  0.06606  0.63814  1.0000
  C   C1482     1.0  0.49539  0.99876  0.57901  1.0000
  H   H2630     1.0  0.54403  0.08329  0.43159  1.0000
  H   H2631     1.0  0.56478  0.08992  0.44039  1.0000
  H   H2632     1.0  0.57070  0.05772  0.45599  1.0000
  H   H2633     1.0  0.55000  0.05091  0.44699  1.0000
  H   H2634     1.0  0.56962  0.05780  0.43113  1.0000
  H   H2635     1.0  0.72410  0.16480  0.42059  1.0000
  S   S328      1.0  0.65951  0.10909  0.64851  1.0000
  H   H2636     1.0  0.71543  0.14112  0.49431  1.0000
  N   N84       1.0  0.62619  0.02244  0.61736  1.0000
  C   C1483     1.0  0.57657  0.02802  0.59830  1.0000
  H   H2637     1.0  0.70492  0.14518  0.60683  1.0000
  Fe  Fe165     1.0  0.64346  0.08607  0.64123  1.0000
  H   H2638     1.0  0.73032  0.12270  0.41598  1.0000
  H   H2639     1.0  0.71063  0.03635  0.38804  1.0000
  C   C1484     1.0  0.71477  0.04861  0.37845  1.0000
  H   H2640     1.0  0.71156  0.13216  0.43180  1.0000
  H   H2641     1.0  0.54805  0.11039  0.49402  1.0000
  C   C1485     1.0  0.68971  0.14558  0.61163  1.0000
  C   C1486     1.0  0.69636  0.14484  0.64553  1.0000
  H   H2642     1.0  0.67651  0.04732  0.60126  1.0000
  C   C1487     1.0  0.56147  0.13994  0.43143  1.0000
  H   H2643     1.0  0.57509  0.13239  0.43499  1.0000
  S   S329      1.0  0.50193  0.08857  0.58617  1.0000
  H   H2644     1.0  0.70276  0.05960  0.37856  1.0000
  H   H2645     1.0  0.50644  0.13537  0.45119  1.0000
  Fe  Fe166     1.0  0.66873  0.05018  0.32877  1.0000
  H   H2646     1.0  0.65167  0.99367  0.63337  1.0000
  C   C1488     1.0  0.73093  0.12799  0.34774  1.0000
  C   C1489     1.0  0.64071  0.03647  0.61438  1.0000
  H   H2647     1.0  0.66436  0.00444  0.61304  1.0000
  H   H2648     1.0  0.53909  0.08787  0.50095  1.0000
  H   H2649     1.0  0.73233  0.18781  0.44092  1.0000
  H   H2650     1.0  0.50616  0.98936  0.55221  1.0000
  H   H2651     1.0  0.52192  0.05099  0.50026  1.0000
  C   C1490     1.0  0.52569  0.11023  0.51625  1.0000
  C   C1491     1.0  0.50788  0.05801  0.50056  1.0000
  H   H2652     1.0  0.58652  0.00086  0.34006  1.0000
  C   C1492     1.0  0.63670  0.01628  0.36955  1.0000
  H   H2653     1.0  0.54869  0.05660  0.34074  1.0000
  H   H2654     1.0  0.58195  0.00243  0.39999  1.0000
  C   C1493     1.0  0.67175  0.99955  0.32631  1.0000
  H   H2655     1.0  0.61411  0.03097  0.59121  1.0000
  H   H2656     1.0  0.71120  0.14195  0.64000  1.0000
  H   H2657     1.0  0.51743  0.09588  0.33780  1.0000
  H   H2658     1.0  0.65921  0.06723  0.59775  1.0000
  S   S330      1.0  0.63858  0.05896  0.32508  1.0000
  H   H2659     1.0  0.56279  0.14482  0.41627  1.0000
  H   H2660     1.0  0.53696  0.03673  0.35140  1.0000
  C   C1494     1.0  0.73217  0.11021  0.62784  1.0000
  H   H2661     1.0  0.59625  0.00432  0.60436  1.0000
  C   C1495     1.0  0.50624  0.99299  0.42266  1.0000
  C   C1496     1.0  0.59249  0.01841  0.60938  1.0000
  H   H2662     1.0  0.57005  0.02788  0.33903  1.0000
  C   C1497     1.0  0.60977  0.03006  0.60650  1.0000
  H   H2663     1.0  0.71429  0.15953  0.45165  1.0000
  C   C1498     1.0  0.53512  0.10314  0.49798  1.0000
  H   H2664     1.0  0.60507  0.04479  0.60947  1.0000
  H   H2665     1.0  0.72696  0.05412  0.38369  1.0000
  H   H2666     1.0  0.57082  0.04129  0.60424  1.0000
  C   C1499     1.0  0.63401  0.00383  0.61053  1.0000
  C   C1500     1.0  0.49081  0.99689  0.43556  1.0000
  H   H2667     1.0  0.55238  0.98934  0.39171  1.0000
  H   H2668     1.0  0.63918  0.01756  0.35404  1.0000
  H   H2669     1.0  0.61199  0.00707  0.64123  1.0000
  H   H2670     1.0  0.51340  0.01798  0.51615  1.0000
  H   H2671     1.0  0.59859  0.02846  0.37464  1.0000
  C   C1501     1.0  0.71633  0.15634  0.49022  1.0000
  H   H2672     1.0  0.53512  0.10646  0.52760  1.0000
  C   C1502     1.0  0.72509  0.05946  0.34455  1.0000
  H   H2673     1.0  0.50684  0.09225  0.45380  1.0000
  H   H2674     1.0  0.53080  0.01275  0.49713  1.0000
  H   H2675     1.0  0.72017  0.20231  0.63891  1.0000
  C   C1503     1.0  0.68547  0.15538  0.62965  1.0000
  C   C1504     1.0  0.60915  0.03632  0.64705  1.0000
  H   H2676     1.0  0.73251  0.17466  0.47128  1.0000
  C   C1505     1.0  0.58283  0.99293  0.38855  1.0000
  H   H2677     1.0  0.50144  0.01204  0.57631  1.0000
  H   H2678     1.0  0.71827  0.14505  0.38975  1.0000
  C   C1506     1.0  0.49976  0.12211  0.45145  1.0000
  C   C1507     1.0  0.73161  0.15932  0.47415  1.0000
  H   H2679     1.0  0.52264  0.12571  0.51466  1.0000
  C   C1508     1.0  0.73859  0.10608  0.38060  1.0000
  H   H2680     1.0  0.70249  0.16282  0.48611  1.0000
  H   H2681     1.0  0.69095  0.13083  0.64809  1.0000
  H   H2682     1.0  0.54792  0.01060  0.62831  1.0000
  C   C1509     1.0  0.61959  0.00549  0.37608  1.0000
  C   C1510     1.0  0.72700  0.15085  0.45630  1.0000
  H   H2683     1.0  0.57001  0.07618  0.32212  1.0000
  H   H2684     1.0  0.72816  0.13658  0.33494  1.0000
  H   H2685     1.0  0.52394  0.01643  0.62256  1.0000
  H   H2686     1.0  0.73147  0.03128  0.35917  1.0000
  Fe  Fe167     1.0  0.68528  0.08854  0.64772  1.0000
  H   H2687     1.0  0.62384  0.99313  0.61467  1.0000
  C   C1511     1.0  0.53295  0.00975  0.63347  1.0000
  C   C1512     1.0  0.72458  0.04121  0.31796  1.0000
  C   C1513     1.0  0.73336  0.15148  0.42204  1.0000
  S   S331      1.0  0.49059  0.05900  0.62171  1.0000
  H   H2688     1.0  0.73486  0.11338  0.59766  1.0000
  C   C1514     1.0  0.51999  0.00672  0.50748  1.0000
  C   C1515     1.0  0.65371  0.00046  0.32041  1.0000
  C   C1516     1.0  0.50527  0.99894  0.49723  1.0000
  S   S332      1.0  0.68261  0.02009  0.32947  1.0000
  C   C1517     1.0  0.48970  0.99094  0.51139  1.0000
  H   H2689     1.0  0.63290  0.01588  0.64604  1.0000
  H   H2690     1.0  0.49934  0.01059  0.48766  1.0000
  H   H2691     1.0  0.59076  0.12367  0.32651  1.0000
  N   N85       1.0  0.73582  0.05438  0.32638  1.0000
  H   H2692     1.0  0.72369  0.02788  0.32716  1.0000
  H   H2693     1.0  0.73276  0.06880  0.35174  1.0000
  H   H2694     1.0  0.57054  0.98687  0.35371  1.0000
  H   H2695     1.0  0.55498  0.12869  0.31779  1.0000
  H   H2696     1.0  0.64592  0.01395  0.31770  1.0000
  Fe  Fe168     1.0  0.65363  0.09777  0.67867  1.0000
  H   H2697     1.0  0.55312  0.13818  0.74238  1.0000
  S   S333      1.0  0.64430  0.12143  0.69764  1.0000
  Fe  Fe169     1.0  0.66244  0.05704  0.66853  1.0000
  S   S334      1.0  0.65583  0.02736  0.67998  1.0000
  S   S335      1.0  0.68018  0.07798  0.67841  1.0000
  S   S336      1.0  0.63574  0.07628  0.67113  1.0000
  Fe  Fe170     1.0  0.59201  0.14102  0.80319  1.0000
  S   S337      1.0  0.60784  0.14205  0.82859  1.0000
  S   S338      1.0  0.60309  0.12088  0.78082  1.0000
  Fe  Fe171     1.0  0.55671  0.16234  0.82125  1.0000
  S   S339      1.0  0.57045  0.16483  0.84752  1.0000
  S   S340      1.0  0.52607  0.17463  0.82159  1.0000
  Fe  Fe172     1.0  0.59602  0.17250  0.82898  1.0000
  S   S341      1.0  0.61542  0.19534  0.83403  1.0000
  Fe  Fe173     1.0  0.58107  0.13456  0.84547  1.0000
  S   S342      1.0  0.57679  0.11565  0.87269  1.0000
  S   S343      1.0  0.58173  0.17189  0.80228  1.0000
  S   S344      1.0  0.56587  0.13178  0.82043  1.0000
  Fe  Fe174     1.0  0.57746  0.00451  0.89894  1.0000
  S   S345      1.0  0.56036  0.00894  0.92630  1.0000
  S   S346      1.0  0.59244  0.02641  0.87943  1.0000
  C   C1518     1.0  0.59244  0.12560  0.68433  1.0000
  C   C1519     1.0  0.56517  0.10607  0.69099  1.0000
  C   C1520     1.0  0.65677  0.98938  0.72861  1.0000
  H   H2698     1.0  0.50372  0.03533  0.85195  1.0000
  H   H2699     1.0  0.58638  0.14769  0.71376  1.0000
  H   H2700     1.0  0.71381  0.30143  0.95588  1.0000
  Fe  Fe175     1.0  0.64565  0.28466  0.89180  1.0000
  S   S347      1.0  0.67528  0.28260  0.90021  1.0000
  S   S348      1.0  0.62758  0.26090  0.88603  1.0000
  Fe  Fe176     1.0  0.63935  0.32650  0.90086  1.0000
  S   S349      1.0  0.66852  0.32720  0.90935  1.0000
  S   S350      1.0  0.61480  0.34847  0.90677  1.0000
  Fe  Fe177     1.0  0.67794  0.31113  0.88430  1.0000
  S   S351      1.0  0.70481  0.31464  0.86453  1.0000
  Fe  Fe178     1.0  0.66430  0.29901  0.92480  1.0000
  S   S352      1.0  0.67471  0.29026  0.95375  1.0000
  S   S353      1.0  0.64876  0.31244  0.87442  1.0000
  S   S354      1.0  0.63467  0.29902  0.91776  1.0000
  H   H2701     1.0  0.54177  0.15301  0.88477  1.0000
  C   C1521     1.0  0.55330  0.42432  0.83203  1.0000
  H   H2702     1.0  0.53400  0.07570  0.82775  1.0000
  C   C1522     1.0  0.52727  0.01179  0.97100  1.0000
  H   H2703     1.0  0.69425  0.18305  0.65144  1.0000
  H   H2704     1.0  0.50434  0.09131  0.87840  1.0000
  Fe  Fe179     1.0  0.59047  0.45807  0.90532  1.0000
  S   S355      1.0  0.60537  0.43704  0.88586  1.0000
  S   S356      1.0  0.56319  0.45343  0.92242  1.0000
  C   C1523     1.0  0.51770  0.04315  0.87471  1.0000
  C   C1524     1.0  0.57367  0.14007  0.71795  1.0000
  N   N86       1.0  0.58283  0.11143  0.69795  1.0000
  H   H2705     1.0  0.54345  0.43473  0.82476  1.0000
  H   H2706     1.0  0.56282  0.14573  0.70856  1.0000
  S   S357      1.0  0.57565  0.44866  0.97427  1.0000
  C   C1525     1.0  0.61391  0.37322  0.90177  1.0000
  C   C1526     1.0  0.60111  0.38465  0.91274  1.0000
  C   C1527     1.0  0.59894  0.40426  0.90852  1.0000
  C   C1528     1.0  0.60908  0.41264  0.89282  1.0000
  C   C1529     1.0  0.62185  0.40121  0.88181  1.0000
  C   C1530     1.0  0.62447  0.38164  0.88640  1.0000
  H   H2707     1.0  0.59284  0.37828  0.92463  1.0000
  H   H2708     1.0  0.58917  0.41285  0.91720  1.0000
  H   H2709     1.0  0.62978  0.40754  0.86966  1.0000
  H   H2710     1.0  0.63426  0.37303  0.87774  1.0000
  H   H2711     1.0  0.56868  0.09825  0.67832  1.0000
  H   H2712     1.0  0.65328  0.32630  0.95985  1.0000
  Fe  Fe180     1.0  0.57699  0.46370  0.94544  1.0000
  H   H2713     1.0  0.68563  0.12291  0.68960  1.0000
  H   H2714     1.0  0.63376  0.18590  0.67243  1.0000
  C   C1531     1.0  0.54984  0.41563  0.89449  1.0000
  C   C1532     1.0  0.54175  0.41069  0.91463  1.0000
  C   C1533     1.0  0.61801  0.21398  0.84834  1.0000
  C   C1534     1.0  0.63394  0.22424  0.84458  1.0000
  C   C1535     1.0  0.63716  0.23846  0.85587  1.0000
  C   C1536     1.0  0.62442  0.24289  0.87117  1.0000
  C   C1537     1.0  0.60840  0.23274  0.87486  1.0000
  C   C1538     1.0  0.60520  0.21848  0.86359  1.0000
  H   H2715     1.0  0.64399  0.22107  0.83287  1.0000
  H   H2716     1.0  0.64954  0.24599  0.85269  1.0000
  H   H2717     1.0  0.59835  0.23594  0.88656  1.0000
  H   H2718     1.0  0.59282  0.21096  0.86672  1.0000
  C   C1539     1.0  0.57990  0.09074  0.87386  1.0000
  C   C1540     1.0  0.57477  0.08022  0.89080  1.0000
  C   C1541     1.0  0.57760  0.06045  0.89246  1.0000
  C   C1542     1.0  0.58617  0.05102  0.87733  1.0000
  C   C1543     1.0  0.59115  0.06155  0.86035  1.0000
  C   C1544     1.0  0.58777  0.08127  0.85851  1.0000
  H   H2719     1.0  0.56886  0.08740  0.90280  1.0000
  H   H2720     1.0  0.57391  0.05255  0.90567  1.0000
  H   H2721     1.0  0.59788  0.05441  0.84859  1.0000
  H   H2722     1.0  0.59175  0.08913  0.84536  1.0000
  C   C1545     1.0  0.54371  0.08613  0.83011  1.0000
  C   C1546     1.0  0.50637  0.16352  0.81654  1.0000
  C   C1547     1.0  0.50834  0.14646  0.80847  1.0000
  C   C1548     1.0  0.71236  0.11192  0.69845  1.0000
  H   H2723     1.0  0.52223  0.13981  0.80487  1.0000
  S   S358      1.0  0.55452  0.99279  0.88612  1.0000
  H   H2724     1.0  0.67616  0.17594  0.86141  1.0000
  C   C1549     1.0  0.56645  0.14460  0.73784  1.0000
  C   C1550     1.0  0.63337  0.12096  0.72101  1.0000
  C   C1551     1.0  0.62718  0.13803  0.72861  1.0000
  C   C1552     1.0  0.61817  0.13837  0.74695  1.0000
  C   C1553     1.0  0.61510  0.12157  0.75790  1.0000
  C   C1554     1.0  0.62127  0.10450  0.75026  1.0000
  C   C1555     1.0  0.63047  0.10417  0.73201  1.0000
  H   H2725     1.0  0.62934  0.15113  0.72030  1.0000
  H   H2726     1.0  0.61347  0.15160  0.75258  1.0000
  H   H2727     1.0  0.61904  0.09142  0.75860  1.0000
  H   H2728     1.0  0.63538  0.09094  0.72653  1.0000
  C   C1556     1.0  0.66324  0.00564  0.67059  1.0000
  N   N87       1.0  0.72684  0.32224  0.93626  1.0000
  C   C1557     1.0  0.59099  0.07871  0.71582  1.0000
  C   C1558     1.0  0.60526  0.06147  0.71547  1.0000
  H   H2729     1.0  0.57702  0.07396  0.71458  1.0000
  H   H2730     1.0  0.59082  0.08409  0.72975  1.0000
  H   H2731     1.0  0.60558  0.05493  0.70212  1.0000
  H   H2732     1.0  0.61955  0.06534  0.71706  1.0000
  H   H2733     1.0  0.60138  0.05094  0.72722  1.0000
  H   H2734     1.0  0.66089  0.14255  0.89815  1.0000
  H   H2735     1.0  0.54042  0.11010  0.66283  1.0000
  H   H2736     1.0  0.51374  0.05838  0.87176  1.0000
  H   H2737     1.0  0.70424  0.32779  0.97261  1.0000
  H   H2738     1.0  0.63222  0.16562  0.91028  1.0000
  H   H2739     1.0  0.62431  0.39900  0.96741  1.0000
  H   H2740     1.0  0.53666  0.08427  0.85964  1.0000
  C   C1559     1.0  0.60759  0.13508  0.65179  1.0000
  C   C1560     1.0  0.67515  0.15570  0.67256  1.0000
  H   H2741     1.0  0.70757  0.09776  0.70262  1.0000
  N   N88       1.0  0.54349  0.43755  0.86431  1.0000
  H   H2742     1.0  0.53640  0.12803  0.86683  1.0000
  C   C1561     1.0  0.54699  0.42066  0.85315  1.0000
  H   H2743     1.0  0.52841  0.40409  0.91478  1.0000
  H   H2744     1.0  0.52336  0.07315  0.90218  1.0000
  H   H2745     1.0  0.53847  0.00334  0.96296  1.0000
  H   H2746     1.0  0.51768  0.11536  0.83322  1.0000
  C   C1562     1.0  0.65818  0.32023  0.97303  1.0000
  H   H2747     1.0  0.52578  0.02617  0.96377  1.0000
  H   H2748     1.0  0.73324  0.31574  0.90740  1.0000
  H   H2749     1.0  0.63963  0.09532  0.86040  1.0000
  C   C1563     1.0  0.56581  0.46250  0.84882  1.0000
  H   H2750     1.0  0.53180  0.47299  0.87435  1.0000
  H   H2751     1.0  0.53900  0.42335  0.92244  1.0000
  H   H2752     1.0  0.60558  0.12882  0.68984  1.0000
  H   H2753     1.0  0.65823  0.15430  0.92961  1.0000
  H   H2754     1.0  0.50267  0.15777  0.87018  1.0000
  C   C1564     1.0  0.71946  0.29255  0.92138  1.0000
  H   H2755     1.0  0.54463  0.09671  0.81780  1.0000
  H   H2756     1.0  0.73418  0.10912  0.65745  1.0000
  H   H2757     1.0  0.65872  0.18860  0.84730  1.0000
  S   S359      1.0  0.60483  0.46634  0.92901  1.0000
  C   C1565     1.0  0.70439  0.35309  0.93830  1.0000
  C   C1566     1.0  0.64889  0.13883  0.90825  1.0000
  H   H2758     1.0  0.71377  0.36276  0.92995  1.0000
  H   H2759     1.0  0.51974  0.45778  0.92219  1.0000
  C   C1567     1.0  0.52329  0.08677  0.90823  1.0000
  H   H2760     1.0  0.66765  0.14375  0.66936  1.0000
  Fe  Fe181     1.0  0.53861  0.99503  0.91410  1.0000
  H   H2761     1.0  0.55813  0.09606  0.70151  1.0000
  H   H2762     1.0  0.55838  0.41070  0.85870  1.0000
  H   H2763     1.0  0.56378  0.16003  0.73829  1.0000
  H   H2764     1.0  0.59952  0.39979  0.96504  1.0000
  H   H2765     1.0  0.57363  0.43597  0.86476  1.0000
  H   H2766     1.0  0.68170  0.37527  0.94071  1.0000
  C   C1568     1.0  0.50945  0.48286  0.85706  1.0000
  C   C1569     1.0  0.68423  0.36108  0.93564  1.0000
  H   H2767     1.0  0.56382  0.42079  0.89483  1.0000
  C   C1570     1.0  0.70707  0.14180  0.67690  1.0000
  H   H2768     1.0  0.53323  0.16978  0.86628  1.0000
  H   H2769     1.0  0.59499  0.04367  0.67362  1.0000
  H   H2770     1.0  0.51822  0.03968  0.89004  1.0000
  C   C1571     1.0  0.63085  0.15187  0.90494  1.0000
  N   N89       1.0  0.58327  0.31031  0.86852  1.0000
  C   C1572     1.0  0.58216  0.32967  0.85817  1.0000
  C   C1573     1.0  0.56659  0.30049  0.86480  1.0000
  C   C1574     1.0  0.58168  0.31277  0.88925  1.0000
  C   C1575     1.0  0.60138  0.29858  0.86343  1.0000
  C   C1576     1.0  0.61099  0.30234  0.84326  1.0000
  C   C1577     1.0  0.59612  0.34299  0.86342  1.0000
  C   C1578     1.0  0.58074  0.29461  0.90278  1.0000
  C   C1579     1.0  0.56501  0.29696  0.84420  1.0000
  C   C1580     1.0  0.54674  0.28843  0.84226  1.0000
  C   C1581     1.0  0.62617  0.28668  0.83852  1.0000
  C   C1582     1.0  0.59862  0.35944  0.84853  1.0000
  C   C1583     1.0  0.58104  0.29891  0.92309  1.0000
  H   H2771     1.0  0.56781  0.33688  0.86084  1.0000
  H   H2772     1.0  0.58410  0.32901  0.84281  1.0000
  H   H2773     1.0  0.56686  0.28631  0.87252  1.0000
  H   H2774     1.0  0.55332  0.30843  0.87010  1.0000
  H   H2775     1.0  0.56913  0.32249  0.89312  1.0000
  H   H2776     1.0  0.59402  0.31947  0.89279  1.0000
  H   H2777     1.0  0.61215  0.30037  0.87300  1.0000
  H   H2778     1.0  0.59917  0.28338  0.86584  1.0000
  H   H2779     1.0  0.61780  0.31564  0.84194  1.0000
  H   H2780     1.0  0.60096  0.30351  0.83245  1.0000
  H   H2781     1.0  0.59059  0.34896  0.87673  1.0000
  H   H2782     1.0  0.61011  0.33548  0.86547  1.0000
  H   H2783     1.0  0.59283  0.28428  0.89940  1.0000
  H   H2784     1.0  0.56754  0.28807  0.90209  1.0000
  H   H2785     1.0  0.56516  0.31008  0.83474  1.0000
  H   H2786     1.0  0.57668  0.28674  0.83943  1.0000
  H   H2787     1.0  0.53440  0.29817  0.84646  1.0000
  H   H2788     1.0  0.54608  0.28574  0.82744  1.0000
  H   H2789     1.0  0.54605  0.27487  0.85105  1.0000
  H   H2790     1.0  0.63345  0.29020  0.82446  1.0000
  H   H2791     1.0  0.63675  0.28480  0.84892  1.0000
  H   H2792     1.0  0.61981  0.27326  0.83833  1.0000
  H   H2793     1.0  0.60502  0.35434  0.83508  1.0000
  H   H2794     1.0  0.58491  0.36752  0.84638  1.0000
  H   H2795     1.0  0.60812  0.36896  0.85321  1.0000
  H   H2796     1.0  0.58124  0.28564  0.93242  1.0000
  H   H2797     1.0  0.59372  0.30596  0.92486  1.0000
  H   H2798     1.0  0.56838  0.30817  0.92746  1.0000
  H   H2799     1.0  0.58383  0.13923  0.68300  1.0000
  H   H2800     1.0  0.55790  0.07871  0.83144  1.0000
  C   C1584     1.0  0.70043  0.12208  0.68349  1.0000
  C   C1585     1.0  0.59754  0.11993  0.66410  1.0000
  H   H2801     1.0  0.57695  0.13930  0.74786  1.0000
  H   H2802     1.0  0.60876  0.41923  0.97372  1.0000
  H   H2803     1.0  0.70478  0.29852  0.92004  1.0000
  C   C1586     1.0  0.53660  0.43069  0.88412  1.0000
  H   H2804     1.0  0.55168  0.40233  0.88770  1.0000
  H   H2805     1.0  0.64334  0.13595  0.93871  1.0000
  C   C1587     1.0  0.65476  0.13990  0.92789  1.0000
  C   C1588     1.0  0.72320  0.32997  0.86250  1.0000
  H   H2806     1.0  0.64621  0.12406  0.90725  1.0000
  H   H2807     1.0  0.49555  0.47706  0.98155  1.0000
  H   H2808     1.0  0.70174  0.11319  0.67165  1.0000
  H   H2809     1.0  0.52673  0.11565  0.89934  1.0000
  C   C1589     1.0  0.52529  0.10270  0.89266  1.0000
  H   H2810     1.0  0.72738  0.11025  0.69300  1.0000
  H   H2811     1.0  0.55581  0.13384  0.67715  1.0000
  C   C1590     1.0  0.53456  0.11524  0.67646  1.0000
  C   C1591     1.0  0.50376  0.03169  0.86728  1.0000
  C   C1592     1.0  0.70838  0.33295  0.93186  1.0000
  C   C1593     1.0  0.66862  0.30275  0.97392  1.0000
  H   H2812     1.0  0.71085  0.11980  0.71110  1.0000
  C   C1594     1.0  0.49229  0.13808  0.80485  1.0000
  H   H2813     1.0  0.72168  0.13917  0.67050  1.0000
  H   H2814     1.0  0.54439  0.47699  0.97196  1.0000
  H   H2815     1.0  0.56471  0.07282  0.65392  1.0000
  H   H2816     1.0  0.59764  0.08671  0.68662  1.0000
  C   C1595     1.0  0.49467  0.98944  0.91223  1.0000
  H   H2817     1.0  0.51011  0.08934  0.91741  1.0000
  H   H2818     1.0  0.66782  0.18592  0.67408  1.0000
  H   H2819     1.0  0.56139  0.17487  0.90285  1.0000
  H   H2820     1.0  0.60006  0.99522  0.96885  1.0000
  H   H2821     1.0  0.53532  0.08580  0.91692  1.0000
  H   H2822     1.0  0.50904  0.01665  0.86969  1.0000
  H   H2823     1.0  0.56454  0.39541  0.82862  1.0000
  C   C1596     1.0  0.52214  0.13343  0.86314  1.0000
  H   H2824     1.0  0.70657  0.35355  0.95318  1.0000
  C   C1597     1.0  0.72345  0.17343  0.65154  1.0000
  H   H2825     1.0  0.67406  0.35198  0.94370  1.0000
  H   H2826     1.0  0.61547  0.02725  0.67571  1.0000
  H   H2827     1.0  0.61958  0.14561  0.91452  1.0000
  H   H2828     1.0  0.61680  0.10699  0.85700  1.0000
  H   H2829     1.0  0.54322  0.12759  0.69961  1.0000
  H   H2830     1.0  0.51393  0.00525  0.97102  1.0000
  N   N90       1.0  0.50981  0.11770  0.86266  1.0000
  H   H2831     1.0  0.67491  0.15446  0.68815  1.0000
  C   C1598     1.0  0.53707  0.09558  0.84799  1.0000
  H   H2832     1.0  0.52456  0.14083  0.84887  1.0000
  C   C1599     1.0  0.51425  0.14863  0.87644  1.0000
  H   H2833     1.0  0.68176  0.36237  0.92057  1.0000
  H   H2834     1.0  0.63867  0.99273  0.68321  1.0000
  H   H2835     1.0  0.69652  0.32471  0.93790  1.0000
  H   H2836     1.0  0.52359  0.12691  0.67368  1.0000
  H   H2837     1.0  0.63997  0.12995  0.85532  1.0000
  C   C1600     1.0  0.54998  0.12219  0.68644  1.0000
  H   H2838     1.0  0.70722  0.33456  0.91647  1.0000
  H   H2839     1.0  0.56771  0.11105  0.72560  1.0000
  H   H2840     1.0  0.57197  0.18510  0.88097  1.0000
  H   H2841     1.0  0.64759  0.12047  0.87750  1.0000
  C   C1601     1.0  0.57887  0.11868  0.71711  1.0000
  H   H2842     1.0  0.50803  0.09518  0.84516  1.0000
  H   H2843     1.0  0.55194  0.40062  0.92197  1.0000
  H   H2844     1.0  0.55719  0.47574  0.85181  1.0000
  H   H2845     1.0  0.54767  0.10511  0.85007  1.0000
  H   H2846     1.0  0.70801  0.14912  0.68966  1.0000
  H   H2847     1.0  0.59153  0.11575  0.72503  1.0000
  H   H2848     1.0  0.70973  0.34913  0.88181  1.0000
  H   H2849     1.0  0.53200  0.03978  0.86776  1.0000
  H   H2850     1.0  0.66849  0.20017  0.86460  1.0000
  C   C1602     1.0  0.71932  0.32251  0.97243  1.0000
  H   H2851     1.0  0.56273  0.45904  0.83493  1.0000
  H   H2852     1.0  0.71985  0.28268  0.93422  1.0000
  H   H2853     1.0  0.52341  0.17121  0.89008  1.0000
  C   C1603     1.0  0.50804  0.10542  0.88096  1.0000
  H   H2854     1.0  0.57889  0.19117  0.90284  1.0000
  H   H2855     1.0  0.67122  0.98783  0.73310  1.0000
  H   H2856     1.0  0.49612  0.11105  0.89053  1.0000
  H   H2857     1.0  0.53860  0.09951  0.88407  1.0000
  C   C1604     1.0  0.52918  0.16136  0.87958  1.0000
  H   H2858     1.0  0.52270  0.42498  0.88438  1.0000
  H   H2859     1.0  0.53427  0.44258  0.89310  1.0000
  C   C1605     1.0  0.65204  0.99055  0.67503  1.0000
  H   H2860     1.0  0.62245  0.09771  0.88024  1.0000
  C   C1606     1.0  0.52789  0.45069  0.85644  1.0000
  S   S360      1.0  0.50842  0.00564  0.91922  1.0000
  C   C1607     1.0  0.59624  0.09387  0.69971  1.0000
  C   C1608     1.0  0.72494  0.31120  0.95523  1.0000
  C   C1609     1.0  0.50649  0.46502  0.91865  1.0000
  H   H2861     1.0  0.53416  0.41290  0.85459  1.0000
  H   H2862     1.0  0.66741  0.13003  0.93011  1.0000
  H   H2863     1.0  0.61056  0.09757  0.70162  1.0000
  N   N91       1.0  0.62531  0.15477  0.88515  1.0000
  C   C1610     1.0  0.64070  0.16236  0.87151  1.0000
  C   C1611     1.0  0.61958  0.13678  0.87904  1.0000
  C   C1612     1.0  0.60852  0.16924  0.88473  1.0000
  C   C1613     1.0  0.64831  0.18062  0.87620  1.0000
  C   C1614     1.0  0.58991  0.16321  0.89550  1.0000
  C   C1615     1.0  0.63520  0.12347  0.86944  1.0000
  C   C1616     1.0  0.62803  0.10475  0.86668  1.0000
  C   C1617     1.0  0.66389  0.18662  0.86145  1.0000
  C   C1618     1.0  0.57465  0.17963  0.89550  1.0000
  H   H2864     1.0  0.63573  0.16497  0.85721  1.0000
  H   H2865     1.0  0.65310  0.15200  0.87001  1.0000
  H   H2866     1.0  0.61227  0.12857  0.89106  1.0000
  H   H2867     1.0  0.60902  0.14002  0.86862  1.0000
  H   H2868     1.0  0.60545  0.17359  0.86997  1.0000
  H   H2869     1.0  0.61154  0.18222  0.89059  1.0000
  H   H2870     1.0  0.63717  0.19239  0.87657  1.0000
  H   H2871     1.0  0.65428  0.17856  0.88994  1.0000
  H   H2872     1.0  0.59174  0.15834  0.91032  1.0000
  H   H2873     1.0  0.58460  0.15174  0.88891  1.0000
  H   H2874     1.0  0.52787  0.10370  0.68526  1.0000
  H   H2875     1.0  0.73348  0.16523  0.66062  1.0000
  C   C1619     1.0  0.51738  0.10622  0.84666  1.0000
  C   C1620     1.0  0.55442  0.40629  0.82225  1.0000
  H   H2876     1.0  0.56153  0.45339  0.87805  1.0000
  C   C1621     1.0  0.72210  0.34582  0.87249  1.0000
  C   C1622     1.0  0.68037  0.00272  0.65978  1.0000
  H   H2877     1.0  0.54039  0.40083  0.82324  1.0000
  H   H2878     1.0  0.73574  0.37002  0.87765  1.0000
  C   C1623     1.0  0.73689  0.35768  0.87005  1.0000
  H   H2879     1.0  0.59391  0.01956  0.66937  1.0000
  H   H2880     1.0  0.51045  0.46176  0.88013  1.0000
  H   H2881     1.0  0.51567  0.44279  0.85480  1.0000
  H   H2882     1.0  0.60718  0.10698  0.66395  1.0000
  H   H2883     1.0  0.64155  0.16948  0.69127  1.0000
  H   H2884     1.0  0.50863  0.14222  0.89023  1.0000
  H   H2885     1.0  0.70201  0.17931  0.67415  1.0000
  C   C1624     1.0  0.56142  0.44681  0.86470  1.0000
  H   H2886     1.0  0.49157  0.13751  0.84651  1.0000
  H   H2887     1.0  0.71641  0.26944  0.90504  1.0000
  C   C1625     1.0  0.60305  0.03130  0.66771  1.0000
  H   H2888     1.0  0.55927  0.40920  0.80721  1.0000
  C   C1626     1.0  0.52030  0.46705  0.86838  1.0000
  C   C1627     1.0  0.61012  0.40370  0.97380  1.0000
  C   C1628     1.0  0.64235  0.17251  0.67581  1.0000
  N   N92       1.0  0.69516  0.15408  0.66353  1.0000
  C   C1629     1.0  0.66269  0.17413  0.66778  1.0000
  C   C1630     1.0  0.72575  0.28085  0.90491  1.0000
  H   H2889     1.0  0.72788  0.33444  0.97254  1.0000
  H   H2890     1.0  0.56758  0.42921  0.83017  1.0000
  H   H2891     1.0  0.53213  0.45683  0.84212  1.0000
  H   H2892     1.0  0.65591  0.00107  0.71733  1.0000
  H   H2893     1.0  0.64656  0.99308  0.74059  1.0000
  H   H2894     1.0  0.68916  0.01415  0.65628  1.0000
  C   C1631     1.0  0.59341  0.99190  0.98278  1.0000
  C   C1632     1.0  0.73254  0.30836  0.92179  1.0000
  H   H2895     1.0  0.62102  0.13705  0.65739  1.0000
  H   H2896     1.0  0.49399  0.12493  0.79852  1.0000
  H   H2897     1.0  0.59565  0.45374  0.84343  1.0000
  H   H2898     1.0  0.63636  0.16111  0.66973  1.0000
  H   H2899     1.0  0.66275  0.17786  0.65252  1.0000
  H   H2900     1.0  0.72504  0.28967  0.89141  1.0000
  C   C1633     1.0  0.70288  0.17305  0.66052  1.0000
  H   H2901     1.0  0.72824  0.19976  0.66215  1.0000
  H   H2902     1.0  0.49645  0.45374  0.95905  1.0000
  C   C1634     1.0  0.58644  0.46640  0.84720  1.0000
  H   H2903     1.0  0.59029  0.47053  0.86062  1.0000
  H   H2904     1.0  0.58475  0.11773  0.65747  1.0000
  H   H2905     1.0  0.49742  0.47753  0.85135  1.0000
  H   H2906     1.0  0.49110  0.44058  0.92547  1.0000
  H   H2907     1.0  0.58899  0.47802  0.83617  1.0000
  Fe  Fe182     1.0  0.55510  0.48398  0.91482  1.0000
  C   C1635     1.0  0.49023  0.45532  0.92051  1.0000
  C   C1636     1.0  0.50562  0.48392  0.91172  1.0000
  C   C1637     1.0  0.49050  0.12659  0.85857  1.0000
  H   H2908     1.0  0.49106  0.44305  0.98236  1.0000
  H   H2909     1.0  0.73614  0.35023  0.90877  1.0000
  H   H2910     1.0  0.59862  0.14858  0.65104  1.0000
  H   H2911     1.0  0.73826  0.30228  0.95756  1.0000
  H   H2912     1.0  0.59802  0.07996  0.65092  1.0000
  C   C1638     1.0  0.52066  0.96920  0.03999  1.0000
  S   S361      1.0  0.67493  0.89506  0.30515  1.0000
  Fe  Fe183     1.0  0.65092  0.87890  0.29920  1.0000
  S   S362      1.0  0.64989  0.86567  0.27137  1.0000
  Fe  Fe184     1.0  0.58498  0.83479  0.19388  1.0000
  S   S363      1.0  0.60965  0.82760  0.17325  1.0000
  S   S364      1.0  0.58530  0.84729  0.22214  1.0000
  Fe  Fe185     1.0  0.55644  0.82898  0.16551  1.0000
  S   S365      1.0  0.57967  0.82220  0.14308  1.0000
  S   S366      1.0  0.52703  0.83245  0.15522  1.0000
  Fe  Fe186     1.0  0.59374  0.80406  0.16582  1.0000
  S   S367      1.0  0.60689  0.77345  0.16379  1.0000
  Fe  Fe187     1.0  0.59335  0.84615  0.15220  1.0000
  S   S368      1.0  0.60737  0.86888  0.13308  1.0000
  S   S369      1.0  0.56982  0.80998  0.18822  1.0000
  S   S370      1.0  0.56940  0.85414  0.17291  1.0000
  H   H2913     1.0  0.56352  0.70976  0.11187  1.0000
  H   H2914     1.0  0.51510  0.79168  0.13816  1.0000
  H   H2915     1.0  0.62747  0.63080  0.00442  1.0000
  H   H2916     1.0  0.61898  0.96977  0.05931  1.0000
  H   H2917     1.0  0.65846  0.58318  0.04496  1.0000
  C   C1639     1.0  0.48940  0.82873  0.15498  1.0000
  H   H2918     1.0  0.66673  0.74817  0.06595  1.0000
  S   S371      1.0  0.56385  0.94909  0.11469  1.0000
  C   C1640     1.0  0.57873  0.81115  0.26999  1.0000
  Fe  Fe188     1.0  0.64018  0.68241  0.09916  1.0000
  S   S372      1.0  0.66964  0.67949  0.08501  1.0000
  S   S373      1.0  0.62528  0.71213  0.10344  1.0000
  Fe  Fe189     1.0  0.63741  0.63988  0.09838  1.0000
  S   S374      1.0  0.66686  0.63431  0.08472  1.0000
  S   S375      1.0  0.61751  0.61743  0.10892  1.0000
  Fe  Fe190     1.0  0.67518  0.65350  0.10461  1.0000
  S   S376      1.0  0.70315  0.65184  0.11796  1.0000
  Fe  Fe191     1.0  0.65940  0.66046  0.06602  1.0000
  S   S377      1.0  0.67083  0.66426  0.03524  1.0000
  S   S378      1.0  0.64619  0.65738  0.11990  1.0000
  S   S379      1.0  0.62951  0.66506  0.07855  1.0000
  Fe  Fe192     1.0  0.58354  0.52180  0.07659  1.0000
  S   S380      1.0  0.60238  0.54587  0.06881  1.0000
  S   S381      1.0  0.55205  0.52403  0.07631  1.0000
  C   C1641     1.0  0.55537  0.76286  0.19906  1.0000
  H   H2919     1.0  0.53333  0.77762  0.17127  1.0000
  H   H2920     1.0  0.56802  0.70749  0.13619  1.0000
  C   C1642     1.0  0.71898  0.63275  0.12617  1.0000
  H   H2921     1.0  0.64884  0.94115  0.14596  1.0000
  H   H2922     1.0  0.56719  0.77497  0.17272  1.0000
  C   C1643     1.0  0.64011  0.63803  0.00268  1.0000
  H   H2923     1.0  0.61963  0.88016  0.07147  1.0000
  H   H2924     1.0  0.57396  0.92165  0.17790  1.0000
  H   H2925     1.0  0.56426  0.54110  0.98412  1.0000
  C   C1644     1.0  0.66267  0.65449  0.01622  1.0000
  C   C1645     1.0  0.67253  0.65684  0.99838  1.0000
  C   C1646     1.0  0.64646  0.64496  0.01832  1.0000
  H   H2926     1.0  0.68513  0.66413  0.99663  1.0000
  H   H2927     1.0  0.63871  0.64307  0.03194  1.0000
  C   C1647     1.0  0.61227  0.59835  0.09706  1.0000
  C   C1648     1.0  0.60127  0.58472  0.10678  1.0000
  C   C1649     1.0  0.59760  0.56883  0.09823  1.0000
  C   C1650     1.0  0.60497  0.56636  0.07984  1.0000
  C   C1651     1.0  0.61562  0.58019  0.07000  1.0000
  C   C1652     1.0  0.61926  0.59609  0.07853  1.0000
  H   H2928     1.0  0.59572  0.58637  0.12110  1.0000
  H   H2929     1.0  0.58935  0.55834  0.10597  1.0000
  H   H2930     1.0  0.62126  0.57850  0.05571  1.0000
  H   H2931     1.0  0.62749  0.60658  0.07077  1.0000
  H   H2932     1.0  0.49601  0.52665  0.13080  1.0000
  H   H2933     1.0  0.54844  0.75021  0.20509  1.0000
  C   C1653     1.0  0.54920  0.48979  0.01528  1.0000
  S   S382      1.0  0.64506  0.94580  0.31669  1.0000
  H   H2934     1.0  0.66423  0.75989  0.12377  1.0000
  H   H2935     1.0  0.64942  0.69053  0.16631  1.0000
  H   H2936     1.0  0.58063  0.72322  0.11943  1.0000
  H   H2937     1.0  0.58605  0.89538  0.29180  1.0000
  C   C1654     1.0  0.61121  0.75656  0.14676  1.0000
  C   C1655     1.0  0.60828  0.76098  0.12784  1.0000
  C   C1656     1.0  0.61239  0.74717  0.11495  1.0000
  C   C1657     1.0  0.61944  0.72869  0.12068  1.0000
  C   C1658     1.0  0.62201  0.72420  0.13966  1.0000
  C   C1659     1.0  0.61804  0.73803  0.15252  1.0000
  H   H2938     1.0  0.60314  0.77511  0.12307  1.0000
  H   H2939     1.0  0.61029  0.75091  0.10034  1.0000
  H   H2940     1.0  0.62702  0.71005  0.14446  1.0000
  H   H2941     1.0  0.62025  0.73431  0.16710  1.0000
  C   C1660     1.0  0.57312  0.91002  0.18918  1.0000
  H   H2942     1.0  0.61273  0.84821  0.29711  1.0000
  H   H2943     1.0  0.54289  0.91066  0.18917  1.0000
  C   C1661     1.0  0.49844  0.49414  0.10242  1.0000
  H   H2944     1.0  0.68474  0.55109  0.12212  1.0000
  C   C1662     1.0  0.57852  0.85815  0.30499  1.0000
  H   H2945     1.0  0.57674  0.79915  0.11204  1.0000
  H   H2946     1.0  0.51608  0.80796  0.18896  1.0000
  C   C1663     1.0  0.57670  0.92737  0.12064  1.0000
  C   C1664     1.0  0.59617  0.92441  0.11678  1.0000
  C   C1665     1.0  0.60543  0.90640  0.12065  1.0000
  C   C1666     1.0  0.59538  0.89139  0.12883  1.0000
  C   C1667     1.0  0.57601  0.89453  0.13317  1.0000
  C   C1668     1.0  0.56674  0.91240  0.12904  1.0000
  H   H2947     1.0  0.60406  0.93588  0.11064  1.0000
  H   H2948     1.0  0.62043  0.90406  0.11725  1.0000
  H   H2949     1.0  0.56810  0.88308  0.13935  1.0000
  H   H2950     1.0  0.55169  0.91459  0.13219  1.0000
  C   C1669     1.0  0.63174  0.86114  0.25760  1.0000
  C   C1670     1.0  0.63629  0.84989  0.24257  1.0000
  C   C1671     1.0  0.62240  0.84569  0.23144  1.0000
  C   C1672     1.0  0.60368  0.85275  0.23513  1.0000
  C   C1673     1.0  0.59917  0.86424  0.24997  1.0000
  C   C1674     1.0  0.61308  0.86847  0.26107  1.0000
  H   H2951     1.0  0.65067  0.84417  0.23965  1.0000
  H   H2952     1.0  0.62614  0.83670  0.22023  1.0000
  H   H2953     1.0  0.58480  0.86994  0.25292  1.0000
  H   H2954     1.0  0.60946  0.87747  0.27225  1.0000
  C   C1675     1.0  0.57041  0.97594  0.00355  1.0000
  C   C1676     1.0  0.50389  0.81190  0.18131  1.0000
  H   H2955     1.0  0.53260  0.96457  0.03001  1.0000
  H   H2956     1.0  0.66085  0.72020  0.14797  1.0000
  H   H2957     1.0  0.55093  0.74282  0.11400  1.0000
  H   H2958     1.0  0.50087  0.94466  0.98905  1.0000
  H   H2959     1.0  0.59080  0.88915  0.17461  1.0000
  C   C1677     1.0  0.72551  0.61481  0.07132  1.0000
  S   S383      1.0  0.58820  0.50215  0.05381  1.0000
  H   H2960     1.0  0.52417  0.75917  0.12629  1.0000
  H   H2961     1.0  0.66960  0.61350  0.13009  1.0000
  H   H2962     1.0  0.49389  0.51274  0.03257  1.0000
  H   H2963     1.0  0.64587  0.83082  0.29760  1.0000
  C   C1678     1.0  0.56230  0.79864  0.10803  1.0000
  C   C1679     1.0  0.64476  0.86065  0.17739  1.0000
  H   H2964     1.0  0.62289  0.92112  0.20504  1.0000
  H   H2965     1.0  0.66218  0.60323  0.15314  1.0000
  C   C1680     1.0  0.62542  0.95559  0.06387  1.0000
  C   C1681     1.0  0.63349  0.52470  0.11095  1.0000
  H   H2966     1.0  0.67610  0.59958  0.04179  1.0000
  N   N93       1.0  0.54312  0.76192  0.14739  1.0000
  H   H2967     1.0  0.72387  0.60286  0.06317  1.0000
  C   C1682     1.0  0.50104  0.89793  0.12656  1.0000
  H   H2968     1.0  0.68312  0.57473  0.04416  1.0000
  H   H2969     1.0  0.53044  0.49983  0.99438  1.0000
  H   H2970     1.0  0.50176  0.86749  0.12366  1.0000
  C   C1683     1.0  0.61911  0.81906  0.30564  1.0000
  C   C1684     1.0  0.63495  0.93536  0.14788  1.0000
  C   C1685     1.0  0.50237  0.97295  0.08923  1.0000
  H   H2971     1.0  0.58030  0.81452  0.25455  1.0000
  H   H2972     1.0  0.65779  0.72627  0.07521  1.0000
  H   H2973     1.0  0.49051  0.55049  0.13682  1.0000
  H   H2974     1.0  0.67850  0.57849  0.13541  1.0000
  C   C1686     1.0  0.60503  0.52772  0.98875  1.0000
  C   C1687     1.0  0.65113  0.55371  0.11036  1.0000
  H   H2975     1.0  0.57094  0.93538  0.99419  1.0000
  H   H2976     1.0  0.68902  0.77956  0.13018  1.0000
  H   H2977     1.0  0.54523  0.79193  0.14254  1.0000
  C   C1688     1.0  0.64990  0.64049  0.98481  1.0000
  H   H2978     1.0  0.59472  0.50472  0.00817  1.0000
  H   H2979     1.0  0.66268  0.75012  0.14774  1.0000
  H   H2980     1.0  0.67317  0.68019  0.16899  1.0000
  H   H2981     1.0  0.57673  0.91035  0.99831  1.0000
  H   H2982     1.0  0.53821  0.88685  0.11398  1.0000
  C   C1689     1.0  0.55544  0.90047  0.18730  1.0000
  C   C1690     1.0  0.66999  0.72537  0.11092  1.0000
  H   H2983     1.0  0.56440  0.80680  0.27415  1.0000
  H   H2984     1.0  0.58905  0.88433  0.19917  1.0000
  H   H2985     1.0  0.64719  0.85186  0.16540  1.0000
  C   C1691     1.0  0.56688  0.71751  0.12350  1.0000
  C   C1692     1.0  0.60894  0.91590  0.20450  1.0000
  C   C1693     1.0  0.60406  0.90584  0.22419  1.0000
  C   C1694     1.0  0.60200  0.91955  0.23929  1.0000
  H   H2986     1.0  0.62070  0.87839  0.20305  1.0000
  H   H2987     1.0  0.59910  0.92876  0.20250  1.0000
  H   H2988     1.0  0.63792  0.89337  0.19342  1.0000
  H   H2989     1.0  0.50513  0.89659  0.14121  1.0000
  H   H2990     1.0  0.59078  0.89909  0.22499  1.0000
  C   C1695     1.0  0.66427  0.58390  0.13156  1.0000
  C   C1696     1.0  0.60810  0.83832  0.30920  1.0000
  H   H2991     1.0  0.55313  0.81083  0.11308  1.0000
  H   H2992     1.0  0.55328  0.73324  0.15634  1.0000
  C   C1697     1.0  0.52987  0.87530  0.12048  1.0000
  C   C1698     1.0  0.55254  0.77861  0.13778  1.0000
  C   C1699     1.0  0.55456  0.78022  0.11612  1.0000
  S   S384      1.0  0.54043  0.50683  0.03026  1.0000
  C   C1700     1.0  0.67965  0.77313  0.14174  1.0000
  H   H2993     1.0  0.56705  0.77837  0.14199  1.0000
  H   H2994     1.0  0.54090  0.77982  0.11039  1.0000
  H   H2995     1.0  0.56466  0.76875  0.11103  1.0000
  H   H2996     1.0  0.53796  0.72706  0.12995  1.0000
  H   H2997     1.0  0.64418  0.91233  0.16694  1.0000
  H   H2998     1.0  0.63721  0.56181  0.10883  1.0000
  H   H2999     1.0  0.68739  0.76975  0.15442  1.0000
  C   C1701     1.0  0.58251  0.92423  0.99656  1.0000
  H   H3000     1.0  0.49327  0.77620  0.12119  1.0000
  H   H3001     1.0  0.57351  0.53125  0.01325  1.0000
  C   C1702     1.0  0.58273  0.54299  0.01152  1.0000
  H   H3002     1.0  0.70147  0.57991  0.10597  1.0000
  H   H3003     1.0  0.71856  0.55316  0.12392  1.0000
  C   C1703     1.0  0.63558  0.70426  0.01825  1.0000
  C   C1704     1.0  0.57046  0.56055  0.01815  1.0000
  H   H3004     1.0  0.56294  0.79970  0.09250  1.0000
  H   H3005     1.0  0.60269  0.92877  0.16964  1.0000
  H   H3006     1.0  0.73269  0.56299  0.10403  1.0000
  C   C1705     1.0  0.55155  0.73340  0.12706  1.0000
  C   C1706     1.0  0.55912  0.55599  0.03680  1.0000
  Fe  Fe193     1.0  0.57214  0.97726  0.10042  1.0000
  H   H3007     1.0  0.63177  0.95642  0.07715  1.0000
  H   H3008     1.0  0.72971  0.68242  0.11498  1.0000
  H   H3009     1.0  0.59036  0.93060  0.23679  1.0000
  H   H3010     1.0  0.59350  0.53906  0.02171  1.0000
  H   H3011     1.0  0.58153  0.50997  0.98821  1.0000
  N   N94       1.0  0.58688  0.83887  0.31192  1.0000
  C   C1707     1.0  0.70284  0.56583  0.10074  1.0000
  C   C1708     1.0  0.64311  0.70687  0.99763  1.0000
  H   H3012     1.0  0.66757  0.78353  0.14507  1.0000
  C   C1709     1.0  0.71535  0.61400  0.12619  1.0000
  H   H3013     1.0  0.65638  0.73229  0.11649  1.0000
  H   H3014     1.0  0.56049  0.56628  0.00777  1.0000
  H   H3015     1.0  0.57945  0.57165  0.02041  1.0000
  H   H3016     1.0  0.50606  0.77976  0.15995  1.0000
  H   H3017     1.0  0.50595  0.50055  0.09006  1.0000
  H   H3018     1.0  0.65673  0.69332  0.13157  1.0000
  C   C1710     1.0  0.50545  0.82373  0.16470  1.0000
  H   H3019     1.0  0.70863  0.69195  0.14297  1.0000
  C   C1711     1.0  0.54092  0.76384  0.16821  1.0000
  C   C1712     1.0  0.55940  0.76269  0.17785  1.0000
  H   H3020     1.0  0.72293  0.54103  0.10286  1.0000
  C   C1713     1.0  0.66169  0.68228  0.15956  1.0000
  C   C1714     1.0  0.66013  0.60362  0.13803  1.0000
  H   H3021     1.0  0.54623  0.77564  0.20262  1.0000
  H   H3022     1.0  0.54931  0.54532  0.03550  1.0000
  H   H3023     1.0  0.56871  0.55070  0.04766  1.0000
  H   H3024     1.0  0.55081  0.56886  0.04135  1.0000
  H   H3025     1.0  0.70541  0.56729  0.08526  1.0000
  H   H3026     1.0  0.66130  0.59820  0.07392  1.0000
  H   H3027     1.0  0.63391  0.52192  0.12635  1.0000
  H   H3028     1.0  0.59420  0.57497  0.99232  1.0000
  H   H3029     1.0  0.61763  0.81549  0.29129  1.0000
  H   H3030     1.0  0.55897  0.96708  0.00555  1.0000
  C   C1715     1.0  0.58182  0.82843  0.27959  1.0000
  H   H3031     1.0  0.65836  0.70218  0.99683  1.0000
  C   C1716     1.0  0.73290  0.69372  0.12329  1.0000
  H   H3032     1.0  0.66323  0.52508  0.10503  1.0000
  C   C1717     1.0  0.68892  0.74055  0.13112  1.0000
  H   H3033     1.0  0.67395  0.55600  0.07416  1.0000
  H   H3034     1.0  0.60014  0.94617  0.07831  1.0000
  H   H3035     1.0  0.56872  0.74983  0.17514  1.0000
  C   C1718     1.0  0.72028  0.55502  0.10837  1.0000
  H   H3036     1.0  0.51009  0.95878  0.04134  1.0000
  H   H3037     1.0  0.50848  0.95886  0.09263  1.0000
  H   H3038     1.0  0.63474  0.93318  0.17773  1.0000
  H   H3039     1.0  0.58372  0.86167  0.29014  1.0000
  C   C1719     1.0  0.63303  0.69511  0.98548  1.0000
  C   C1720     1.0  0.61311  0.91627  0.17030  1.0000
  C   C1721     1.0  0.57872  0.98027  0.98533  1.0000
  H   H3040     1.0  0.59570  0.95468  0.04394  1.0000
  H   H3041     1.0  0.63414  0.92640  0.13637  1.0000
  H   H3042     1.0  0.59609  0.83250  0.27480  1.0000
  C   C1722     1.0  0.67242  0.75549  0.13596  1.0000
  H   H3043     1.0  0.52580  0.96964  0.05396  1.0000
  H   H3044     1.0  0.64954  0.53637  0.08681  1.0000
  H   H3045     1.0  0.63338  0.51110  0.10492  1.0000
  C   C1723     1.0  0.52368  0.76119  0.14138  1.0000
  H   H3046     1.0  0.68300  0.71094  0.15493  1.0000
  H   H3047     1.0  0.72499  0.58503  0.13353  1.0000
  H   H3048     1.0  0.69716  0.73809  0.14353  1.0000
  H   H3049     1.0  0.61098  0.90874  0.15806  1.0000
  C   C1724     1.0  0.71484  0.70285  0.13290  1.0000
  H   H3050     1.0  0.64923  0.59096  0.10683  1.0000
  H   H3051     1.0  0.69852  0.74709  0.11978  1.0000
  C   C1725     1.0  0.67405  0.71204  0.14306  1.0000
  H   H3052     1.0  0.61551  0.89494  0.22773  1.0000
  C   C1726     1.0  0.50906  0.87984  0.11754  1.0000
  H   H3053     1.0  0.53533  0.86223  0.11400  1.0000
  N   N95       1.0  0.58608  0.92696  0.04996  1.0000
  C   C1727     1.0  0.57062  0.93283  0.06454  1.0000
  C   C1728     1.0  0.60132  0.94018  0.04881  1.0000
  C   C1729     1.0  0.57792  0.92929  0.03124  1.0000
  C   C1730     1.0  0.59402  0.90675  0.05360  1.0000
  C   C1731     1.0  0.59347  0.89825  0.07432  1.0000
  C   C1732     1.0  0.55206  0.92347  0.06464  1.0000
  C   C1733     1.0  0.59224  0.92726  0.01377  1.0000
  C   C1734     1.0  0.61063  0.94147  0.06700  1.0000
  H   H3054     1.0  0.61301  0.56019  0.00175  1.0000
  H   H3055     1.0  0.56296  0.85842  0.30523  1.0000
  C   C1735     1.0  0.53955  0.92587  0.08283  1.0000
  H   H3056     1.0  0.65109  0.56740  0.07742  1.0000
  H   H3057     1.0  0.56692  0.94825  0.06250  1.0000
  H   H3058     1.0  0.57536  0.93047  0.07884  1.0000
  H   H3059     1.0  0.61300  0.93620  0.03821  1.0000
  H   H3060     1.0  0.62384  0.94724  0.14699  1.0000
  H   H3061     1.0  0.56994  0.94330  0.02921  1.0000
  H   H3062     1.0  0.56752  0.91890  0.03085  1.0000
  H   H3063     1.0  0.58649  0.89721  0.04635  1.0000
  H   H3064     1.0  0.60885  0.90494  0.04737  1.0000
  H   H3065     1.0  0.57885  0.89643  0.08024  1.0000
  H   H3066     1.0  0.59939  0.90728  0.08324  1.0000
  H   H3067     1.0  0.54408  0.93019  0.05293  1.0000
  H   H3068     1.0  0.55477  0.90828  0.06284  1.0000
  H   H3069     1.0  0.60295  0.91526  0.01615  1.0000
  H   H3070     1.0  0.69719  0.69880  0.11123  1.0000
  C   C1736     1.0  0.54197  0.48977  0.99801  1.0000
  H   H3071     1.0  0.61803  0.92779  0.07155  1.0000
  H   H3072     1.0  0.57154  0.84001  0.27468  1.0000
  H   H3073     1.0  0.65383  0.57514  0.13956  1.0000
  H   H3074     1.0  0.67331  0.59415  0.10358  1.0000
  H   H3075     1.0  0.64765  0.80586  0.30365  1.0000
  H   H3076     1.0  0.60341  0.87309  0.09096  1.0000
  H   H3077     1.0  0.56370  0.82456  0.30515  1.0000
  H   H3078     1.0  0.53722  0.94093  0.08539  1.0000
  H   H3079     1.0  0.52574  0.92050  0.08193  1.0000
  H   H3080     1.0  0.54623  0.91797  0.09483  1.0000
  C   C1737     1.0  0.60455  0.87899  0.07608  1.0000
  H   H3081     1.0  0.62070  0.71011  0.02022  1.0000
  Fe  Fe194     1.0  0.55700  0.50286  0.05529  1.0000
  H   H3082     1.0  0.68069  0.75077  0.09522  1.0000
  H   H3083     1.0  0.71874  0.71405  0.14087  1.0000
  C   C1738     1.0  0.67179  0.58649  0.07016  1.0000
  H   H3084     1.0  0.57994  0.90498  0.31395  1.0000
  H   H3085     1.0  0.59889  0.86916  0.06760  1.0000
  C   C1739     1.0  0.67687  0.73680  0.09254  1.0000
  H   H3086     1.0  0.58931  0.79936  0.27366  1.0000
  H   H3087     1.0  0.61786  0.69660  0.99057  1.0000
  C   C1740     1.0  0.66576  0.56793  0.08087  1.0000
  H   H3088     1.0  0.63659  0.68915  0.02343  1.0000
  H   H3089     1.0  0.62027  0.53335  0.10795  1.0000
  C   C1741     1.0  0.57693  0.98275  0.01912  1.0000
  H   H3090     1.0  0.55594  0.89546  0.17317  1.0000
  H   H3091     1.0  0.52202  0.97017  0.98706  1.0000
  N   N96       1.0  0.60939  0.90404  0.18832  1.0000
  H   H3092     1.0  0.71808  0.61253  0.08552  1.0000
  C   C1742     1.0  0.50950  0.77853  0.14476  1.0000
  H   H3093     1.0  0.64127  0.72204  0.99287  1.0000
  Fe  Fe195     1.0  0.55270  0.49847  0.09682  1.0000
  C   C1743     1.0  0.67241  0.58585  0.04898  1.0000
  C   C1744     1.0  0.50733  0.49051  0.11909  1.0000
  C   C1745     1.0  0.59091  0.89590  0.18784  1.0000
  H   H3094     1.0  0.53186  0.87300  0.13567  1.0000
  N   N97       1.0  0.68347  0.72217  0.12586  1.0000
  H   H3095     1.0  0.51730  0.74867  0.14880  1.0000
  H   H3096     1.0  0.64400  0.71162  0.02682  1.0000
  C   C1746     1.0  0.66324  0.58420  0.11011  1.0000
  H   H3097     1.0  0.48945  0.83613  0.23121  1.0000
  H   H3098     1.0  0.68927  0.72915  0.08535  1.0000
  H   H3099     1.0  0.64537  0.60901  0.13613  1.0000
  C   C1747     1.0  0.57736  0.89364  0.30538  1.0000
  H   H3100     1.0  0.61526  0.92620  0.23955  1.0000
  H   H3101     1.0  0.64134  0.85143  0.19033  1.0000
  H   H3102     1.0  0.61606  0.86843  0.17234  1.0000
  C   C1748     1.0  0.62860  0.87569  0.17398  1.0000
  H   H3103     1.0  0.57038  0.74622  0.14279  1.0000
  H   H3104     1.0  0.68571  0.58981  0.07349  1.0000
  N   N98       1.0  0.66671  0.56549  0.10192  1.0000
  C   C1749     1.0  0.73570  0.63663  0.13306  1.0000
  H   H3105     1.0  0.68022  0.68317  0.13438  1.0000
  H   H3106     1.0  0.62225  0.49159  0.98749  1.0000
  H   H3107     1.0  0.59951  0.94030  0.01046  1.0000
  C   C1750     1.0  0.66840  0.69223  0.14068  1.0000
  H   H3108     1.0  0.50802  0.88179  0.10221  1.0000
  H   H3109     1.0  0.65197  0.55029  0.12565  1.0000
  C   C1751     1.0  0.57908  0.82482  0.30126  1.0000
  C   C1752     1.0  0.72813  0.59943  0.13325  1.0000
  C   C1753     1.0  0.68517  0.55526  0.10678  1.0000
  C   C1754     1.0  0.65053  0.53460  0.10216  1.0000
  H   H3110     1.0  0.55401  0.88842  0.19812  1.0000
  H   H3111     1.0  0.63675  0.95130  0.05307  1.0000
  H   H3112     1.0  0.50113  0.93520  0.13526  1.0000
  H   H3113     1.0  0.58506  0.81034  0.30520  1.0000
  H   H3114     1.0  0.57050  0.97913  0.03303  1.0000
  H   H3115     1.0  0.65787  0.86720  0.17868  1.0000
  C   C1755     1.0  0.55519  0.74382  0.14404  1.0000
  C   C1756     1.0  0.70091  0.71081  0.11835  1.0000
  H   H3116     1.0  0.64882  0.74774  0.08538  1.0000
  H   H3117     1.0  0.65743  0.66829  0.15744  1.0000
  H   H3118     1.0  0.57123  0.91604  0.20289  1.0000
  H   H3119     1.0  0.56879  0.76288  0.20547  1.0000
  H   H3120     1.0  0.63249  0.88400  0.16061  1.0000
  C   C1757     1.0  0.63274  0.92387  0.16687  1.0000
  H   H3121     1.0  0.70261  0.61075  0.12097  1.0000
  H   H3122     1.0  0.59881  0.91187  0.25323  1.0000
  C   C1758     1.0  0.59588  0.50888  0.99284  1.0000
  H   H3123     1.0  0.71877  0.62780  0.06418  1.0000
  H   H3124     1.0  0.50903  0.90925  0.11886  1.0000
  H   H3125     1.0  0.68766  0.54182  0.10016  1.0000
  C   C1759     1.0  0.66159  0.73992  0.07898  1.0000
  H   H3126     1.0  0.70893  0.71943  0.10724  1.0000
  C   C1760     1.0  0.62455  0.88811  0.19055  1.0000
  H   H3127     1.0  0.53222  0.75288  0.17561  1.0000
  H   H3128     1.0  0.66655  0.71177  0.10676  1.0000
  S   S385      1.0  0.58400  0.49779  0.09937  1.0000
  H   H3129     1.0  0.61681  0.52689  0.99784  1.0000
  C   C1761     1.0  0.64007  0.81940  0.30732  1.0000
  H   H3130     1.0  0.49487  0.49185  0.06123  1.0000
  H   H3131     1.0  0.63787  0.68011  0.98913  1.0000
  H   H3132     1.0  0.50704  0.54546  0.11701  1.0000
  H   H3133     1.0  0.56227  0.89513  0.30288  1.0000
  N   N99       1.0  0.59200  0.54517  0.99171  1.0000
  S   S386      1.0  0.53039  0.49615  0.12119  1.0000
  C   C1762     1.0  0.60346  0.56187  0.99029  1.0000
  C   C1763     1.0  0.49377  0.54151  0.12503  1.0000
  C   C1764     1.0  0.58260  0.87461  0.31586  1.0000
  S   S387      1.0  0.62870  0.89878  0.31250  1.0000
  H   H3134     1.0  0.49046  0.83775  0.14206  1.0000
  H   H3135     1.0  0.63196  0.98476  0.31286  1.0000
  H   H3136     1.0  0.61411  0.80745  0.31550  1.0000
  C   C1765     1.0  0.49099  0.77684  0.13659  1.0000
  H   H3137     1.0  0.52692  0.98567  0.09419  1.0000
  S   S388      1.0  0.56096  0.98636  0.07254  1.0000
  H   H3138     1.0  0.48988  0.49388  0.01928  1.0000
  H   H3139     1.0  0.48945  0.93865  0.11416  1.0000
  S   S389      1.0  0.67282  0.90266  0.63163  1.0000
  C   C1766     1.0  0.59976  0.97555  0.35270  1.0000
  S   S390      1.0  0.62425  0.89791  0.61945  1.0000
  H   H3140     1.0  0.56238  0.81563  0.36321  1.0000
  H   H3141     1.0  0.51923  0.92641  0.47451  1.0000
  Fe  Fe196     1.0  0.51569  0.89518  0.59396  1.0000
  S   S391      1.0  0.51947  0.90259  0.56276  1.0000
  S   S392      1.0  0.53611  0.89217  0.61696  1.0000
  C   C1767     1.0  0.50810  0.97628  0.41403  1.0000
  H   H3142     1.0  0.73077  0.87640  0.58628  1.0000
  H   H3143     1.0  0.67258  0.97059  0.61617  1.0000
  H   H3144     1.0  0.71702  0.89871  0.39227  1.0000
  H   H3145     1.0  0.70011  0.88094  0.60558  1.0000
  C   C1768     1.0  0.54174  0.95780  0.58892  1.0000
  Fe  Fe197     1.0  0.63210  0.88082  0.33942  1.0000
  S   S393      1.0  0.60744  0.86896  0.35785  1.0000
  Fe  Fe198     1.0  0.67584  0.87698  0.33285  1.0000
  S   S394      1.0  0.70009  0.85906  0.34752  1.0000
  H   H3146     1.0  0.51482  0.85099  0.41690  1.0000
  C   C1769     1.0  0.70091  0.88567  0.59048  1.0000
  S   S395      1.0  0.65452  0.89676  0.34843  1.0000
  H   H3147     1.0  0.56780  0.84225  0.48561  1.0000
  H   H3148     1.0  0.56456  0.83742  0.33437  1.0000
  N   N100      1.0  0.55470  0.88086  0.43868  1.0000
  H   H3149     1.0  0.55191  0.93205  0.57611  1.0000
  H   H3150     1.0  0.66278  0.88976  0.59749  1.0000
  H   H3151     1.0  0.54170  0.93178  0.46318  1.0000
  H   H3152     1.0  0.71225  0.87926  0.38020  1.0000
  Fe  Fe199     1.0  0.50348  0.90871  0.39668  1.0000
  S   S396      1.0  0.53138  0.91755  0.38211  1.0000
  C   C1770     1.0  0.73185  0.84019  0.36201  1.0000
  C   C1771     1.0  0.58061  0.94241  0.64057  1.0000
  H   H3153     1.0  0.57406  0.87425  0.32958  1.0000
  H   H3154     1.0  0.64841  0.96598  0.61665  1.0000
  H   H3155     1.0  0.58270  0.80053  0.36969  1.0000
  C   C1772     1.0  0.58607  0.88261  0.36359  1.0000
  C   C1773     1.0  0.58449  0.90217  0.36045  1.0000
  C   C1774     1.0  0.56755  0.91260  0.36598  1.0000
  C   C1775     1.0  0.55189  0.90361  0.37433  1.0000
  C   C1776     1.0  0.55323  0.88402  0.37684  1.0000
  C   C1777     1.0  0.57035  0.87359  0.37177  1.0000
  H   H3156     1.0  0.59645  0.90929  0.35412  1.0000
  H   H3157     1.0  0.56660  0.92775  0.36390  1.0000
  H   H3158     1.0  0.54118  0.87697  0.38298  1.0000
  H   H3159     1.0  0.57139  0.85848  0.37419  1.0000
  H   H3160     1.0  0.58232  0.82544  0.37078  1.0000
  H   H3161     1.0  0.59557  0.98322  0.39060  1.0000
  C   C1778     1.0  0.49033  0.96871  0.56886  1.0000
  H   H3162     1.0  0.58604  0.90514  0.42767  1.0000
  C   C1779     1.0  0.71761  0.88317  0.39307  1.0000
  H   H3163     1.0  0.50007  0.96138  0.62864  1.0000
  H   H3164     1.0  0.51990  0.98415  0.61219  1.0000
  H   H3165     1.0  0.55360  0.84426  0.43223  1.0000
  Fe  Fe200     1.0  0.49734  0.88304  0.56073  1.0000
  C   C1780     1.0  0.55498  0.85201  0.48792  1.0000
  C   C1781     1.0  0.60399  0.88675  0.41098  1.0000
  H   H3166     1.0  0.59957  0.89396  0.39756  1.0000
  C   C1782     1.0  0.64650  0.91293  0.57107  1.0000
  C   C1783     1.0  0.67376  0.96519  0.32690  1.0000
  H   H3167     1.0  0.69600  0.83440  0.56730  1.0000
  H   H3168     1.0  0.73297  0.87880  0.33086  1.0000
  C   C1784     1.0  0.58848  0.88977  0.42684  1.0000
  C   C1785     1.0  0.52896  0.92471  0.46172  1.0000
  H   H3169     1.0  0.60741  0.87157  0.40928  1.0000
  H   H3170     1.0  0.68619  0.84272  0.60380  1.0000
  C   C1786     1.0  0.73065  0.85366  0.62616  1.0000
  H   H3171     1.0  0.53569  0.93334  0.60791  1.0000
  C   C1787     1.0  0.49798  0.98598  0.56534  1.0000
  H   H3172     1.0  0.51592  0.94878  0.60211  1.0000
  C   C1788     1.0  0.59968  0.89629  0.61919  1.0000
  C   C1789     1.0  0.59162  0.89972  0.60200  1.0000
  C   C1790     1.0  0.57227  0.89847  0.60098  1.0000
  C   C1791     1.0  0.56066  0.89385  0.61721  1.0000
  C   C1792     1.0  0.56868  0.89058  0.63442  1.0000
  C   C1793     1.0  0.58806  0.89168  0.63542  1.0000
  H   H3173     1.0  0.60041  0.90321  0.58932  1.0000
  H   H3174     1.0  0.56639  0.90085  0.58764  1.0000
  C   C1794     1.0  0.53398  0.90380  0.45966  1.0000
  H   H3175     1.0  0.70828  0.87798  0.40532  1.0000
  H   H3176     1.0  0.70493  0.85822  0.58065  1.0000
  C   C1795     1.0  0.58682  0.81639  0.34257  1.0000
  C   C1796     1.0  0.54364  0.94559  0.57255  1.0000
  C   C1797     1.0  0.66993  0.85337  0.56961  1.0000
  H   H3177     1.0  0.53977  0.89773  0.47287  1.0000
  C   C1798     1.0  0.49400  0.96394  0.41757  1.0000
  H   H3178     1.0  0.52090  0.89738  0.45814  1.0000
  C   C1799     1.0  0.72126  0.88948  0.58436  1.0000
  H   H3179     1.0  0.67717  0.82466  0.58233  1.0000
  C   C1800     1.0  0.66010  0.89564  0.56761  1.0000
  H   H3180     1.0  0.66721  0.81813  0.62184  1.0000
  C   C1801     1.0  0.50101  0.84796  0.50537  1.0000
  H   H3181     1.0  0.54339  0.90911  0.43015  1.0000
  C   C1802     1.0  0.57795  0.81445  0.36278  1.0000
  H   H3182     1.0  0.57280  0.85809  0.45130  1.0000
  H   H3183     1.0  0.73612  0.87411  0.42420  1.0000
  H   H3184     1.0  0.69568  0.98092  0.33404  1.0000
  H   H3185     1.0  0.52960  0.94272  0.56905  1.0000
  H   H3186     1.0  0.73752  0.85903  0.39470  1.0000
  H   H3187     1.0  0.68298  0.80933  0.55311  1.0000
  H   H3188     1.0  0.69213  0.89918  0.58861  1.0000
  C   C1803     1.0  0.68171  0.98182  0.32953  1.0000
  C   C1804     1.0  0.67445  0.85406  0.60338  1.0000
  C   C1805     1.0  0.56622  0.94974  0.62672  1.0000
  H   H3189     1.0  0.56915  0.87823  0.46382  1.0000
  S   S397      1.0  0.49429  0.95239  0.55219  1.0000
  H   H3190     1.0  0.70011  0.98246  0.64637  1.0000
  C   C1806     1.0  0.49211  0.86501  0.47621  1.0000
  H   H3191     1.0  0.72279  0.89519  0.56945  1.0000
  C   C1807     1.0  0.49818  0.86435  0.51460  1.0000
  H   H3192     1.0  0.59765  0.87379  0.31824  1.0000
  H   H3193     1.0  0.64951  0.83914  0.59979  1.0000
  C   C1808     1.0  0.72494  0.85534  0.34980  1.0000
  H   H3194     1.0  0.49519  0.95144  0.41026  1.0000
  H   H3195     1.0  0.72967  0.82570  0.61821  1.0000
  C   C1809     1.0  0.69451  0.87067  0.57906  1.0000
  C   C1810     1.0  0.53116  0.97810  0.62114  1.0000
  H   H3196     1.0  0.56384  0.98012  0.42277  1.0000
  H   H3197     1.0  0.64626  0.92266  0.55811  1.0000
  H   H3198     1.0  0.72215  0.80462  0.33162  1.0000
  H   H3199     1.0  0.53282  0.88235  0.41984  1.0000
  S   S398      1.0  0.65317  0.85993  0.32581  1.0000
  H   H3200     1.0  0.56506  0.88982  0.41028  1.0000
  H   H3201     1.0  0.51996  0.97325  0.40397  1.0000
  H   H3202     1.0  0.59569  0.96976  0.32429  1.0000
  H   H3203     1.0  0.58298  0.80448  0.33557  1.0000
  H   H3204     1.0  0.54943  0.85481  0.40933  1.0000
  H   H3205     1.0  0.53406  0.86812  0.47255  1.0000
  C   C1811     1.0  0.66067  0.88182  0.58553  1.0000
  H   H3206     1.0  0.52022  0.83878  0.43918  1.0000
  H   H3207     1.0  0.63208  0.90879  0.57516  1.0000
  H   H3208     1.0  0.55363  0.96129  0.41399  1.0000
  C   C1812     1.0  0.52587  0.84245  0.42449  1.0000
  H   H3209     1.0  0.52204  0.93164  0.44940  1.0000
  H   H3210     1.0  0.57477  0.86719  0.41866  1.0000
  C   C1813     1.0  0.65570  0.84569  0.61068  1.0000
  H   H3211     1.0  0.65090  0.92043  0.58242  1.0000
  H   H3212     1.0  0.56090  0.90787  0.44611  1.0000
  H   H3213     1.0  0.49660  0.98001  0.52114  1.0000
  C   C1814     1.0  0.53847  0.87279  0.43154  1.0000
  H   H3214     1.0  0.59501  0.94225  0.63330  1.0000
  H   H3215     1.0  0.66577  0.83597  0.63792  1.0000
  C   C1815     1.0  0.54322  0.85314  0.42408  1.0000
  H   H3216     1.0  0.68161  0.95169  0.32935  1.0000
  H   H3217     1.0  0.55090  0.95294  0.56002  1.0000
  Fe  Fe201     1.0  0.64392  0.89499  0.64303  1.0000
  H   H3218     1.0  0.58518  0.84607  0.34054  1.0000
  H   H3219     1.0  0.59379  0.88312  0.44008  1.0000
  C   C1816     1.0  0.53047  0.94848  0.60631  1.0000
  N   N101      1.0  0.53031  0.95711  0.62468  1.0000
  H   H3220     1.0  0.52962  0.82924  0.41768  1.0000
  H   H3221     1.0  0.49990  0.83531  0.47978  1.0000
  S   S399      1.0  0.49017  0.88152  0.39889  1.0000
  H   H3222     1.0  0.64254  0.82145  0.32191  1.0000
  C   C1817     1.0  0.54874  0.90087  0.44281  1.0000
  C   C1818     1.0  0.54711  0.85910  0.46933  1.0000
  H   H3223     1.0  0.61690  0.89265  0.41410  1.0000
  H   H3224     1.0  0.55832  0.86396  0.49525  1.0000
  H   H3225     1.0  0.56871  0.96449  0.62210  1.0000
  H   H3226     1.0  0.72562  0.89988  0.59308  1.0000
  H   H3227     1.0  0.57881  0.96079  0.41331  1.0000
  C   C1819     1.0  0.68060  0.83355  0.56917  1.0000
  C   C1820     1.0  0.56185  0.86930  0.45564  1.0000
  H   H3228     1.0  0.54430  0.84441  0.49710  1.0000
  C   C1821     1.0  0.57027  0.88150  0.42290  1.0000
  H   H3229     1.0  0.52642  0.87210  0.44237  1.0000
  H   H3230     1.0  0.58205  0.95643  0.34262  1.0000
  H   H3231     1.0  0.54299  0.84677  0.46317  1.0000
  H   H3232     1.0  0.72206  0.83105  0.36960  1.0000
  H   H3233     1.0  0.61361  0.98074  0.34786  1.0000
  H   H3234     1.0  0.60224  0.81532  0.34326  1.0000
  H   H3235     1.0  0.67898  0.83146  0.53938  1.0000
  H   H3236     1.0  0.65459  0.85179  0.57091  1.0000
  H   H3237     1.0  0.64475  0.82624  0.63319  1.0000
  H   H3238     1.0  0.65995  0.82184  0.55458  1.0000
  H   H3239     1.0  0.49222  0.97050  0.48075  1.0000
  H   H3240     1.0  0.51140  0.92464  0.62855  1.0000
  C   C1822     1.0  0.65882  0.97604  0.61107  1.0000
  C   C1823     1.0  0.49794  0.84827  0.48646  1.0000
  Fe  Fe202     1.0  0.68461  0.87732  0.64897  1.0000
  H   H3241     1.0  0.56684  0.97012  0.38201  1.0000
  H   H3242     1.0  0.56902  0.94120  0.61455  1.0000
  S   S400      1.0  0.50205  0.86207  0.53876  1.0000
  H   H3243     1.0  0.65525  0.88883  0.55604  1.0000
  H   H3244     1.0  0.55986  0.88694  0.64707  1.0000
  S   S401      1.0  0.49757  0.91238  0.42735  1.0000
  H   H3245     1.0  0.50534  0.83478  0.51301  1.0000
  N   N102      1.0  0.67486  0.86500  0.58439  1.0000
  H   H3246     1.0  0.60068  0.96708  0.36632  1.0000
  H   H3247     1.0  0.67407  0.90057  0.56291  1.0000
  Fe  Fe203     1.0  0.49432  0.92336  0.56692  1.0000
  S   S402      1.0  0.70696  0.85475  0.63710  1.0000
  C   C1824     1.0  0.73776  0.87444  0.39440  1.0000
  H   H3248     1.0  0.72156  0.78157  0.34388  1.0000
  H   H3249     1.0  0.64624  0.87727  0.58878  1.0000
  S   S403      1.0  0.49531  0.87367  0.59188  1.0000
  H   H3250     1.0  0.67704  0.86322  0.61419  1.0000
  C   C1825     1.0  0.54597  0.94778  0.63573  1.0000
  H   H3251     1.0  0.67273  0.86078  0.55543  1.0000
  C   C1826     1.0  0.51189  0.95376  0.63601  1.0000
  H   H3252     1.0  0.64529  0.85695  0.61581  1.0000
  H   H3253     1.0  0.66031  0.97687  0.59553  1.0000
  H   H3254     1.0  0.54442  0.98164  0.61296  1.0000
  C   C1827     1.0  0.59575  0.96232  0.33856  1.0000
  C   C1828     1.0  0.67525  0.82350  0.55305  1.0000
  H   H3255     1.0  0.55604  0.96032  0.59184  1.0000
  C   C1829     1.0  0.58020  0.83552  0.33242  1.0000
  C   C1830     1.0  0.65857  0.83061  0.62691  1.0000
  H   H3256     1.0  0.69641  0.87590  0.56398  1.0000
  H   H3257     1.0  0.53428  0.97150  0.58426  1.0000
  C   C1831     1.0  0.56565  0.97009  0.41182  1.0000
  C   C1832     1.0  0.65577  0.96612  0.32084  1.0000
  C   C1833     1.0  0.72980  0.79041  0.33319  1.0000
  Fe  Fe204     1.0  0.65250  0.91388  0.32049  1.0000
  C   C1834     1.0  0.73830  0.83721  0.61800  1.0000
  C   C1835     1.0  0.73789  0.86708  0.34027  1.0000
  C   C1836     1.0  0.50780  0.93293  0.64069  1.0000
  C   C1837     1.0  0.49258  0.88139  0.50439  1.0000
  H   H3258     1.0  0.54482  0.93237  0.63806  1.0000
  H   H3259     1.0  0.60689  0.95045  0.33817  1.0000
  S   S404      1.0  0.49217  0.91772  0.59803  1.0000
  H   H3260     1.0  0.49149  0.95654  0.50263  1.0000
  C   C1838     1.0  0.56598  0.98069  0.39234  1.0000
  H   H3261     1.0  0.59399  0.88893  0.64874  1.0000
  H   H3262     1.0  0.73660  0.88115  0.63178  1.0000
  H   H3263     1.0  0.53852  0.98323  0.64919  1.0000
  H   H3264     1.0  0.57828  0.92788  0.64643  1.0000
  H   H3265     1.0  0.61352  0.84361  0.32146  1.0000
  C   C1839     1.0  0.48962  0.88172  0.48514  1.0000
  H   H3266     1.0  0.49039  0.89416  0.51135  1.0000
  H   H3267     1.0  0.51112  0.95952  0.64982  1.0000
  H   H3268     1.0  0.54463  0.95261  0.65002  1.0000
  H   H3269     1.0  0.73089  0.78431  0.31951  1.0000
  C   C1840     1.0  0.64582  0.98386  0.31766  1.0000
  Fe  Fe205     1.0  0.65583  0.88665  0.68300  1.0000
  H   H3270     1.0  0.62804  0.92244  0.78490  1.0000
  S   S405      1.0  0.65001  0.88054  0.71505  1.0000
  H   H3271     1.0  0.70071  0.90823  0.70528  1.0000
  H   H3272     1.0  0.59544  0.95087  0.70173  1.0000
  S   S406      1.0  0.64250  0.91276  0.66735  1.0000
  S   S407      1.0  0.68555  0.89378  0.67380  1.0000
  Fe  Fe206     1.0  0.58747  0.82854  0.80571  1.0000
  S   S408      1.0  0.60777  0.81949  0.82759  1.0000
  S   S409      1.0  0.59423  0.83451  0.77379  1.0000
  Fe  Fe207     1.0  0.55294  0.82200  0.83418  1.0000
  S   S410      1.0  0.57121  0.81279  0.85762  1.0000
  S   S411      1.0  0.52144  0.82457  0.84345  1.0000
  Fe  Fe208     1.0  0.58747  0.83738  0.84623  1.0000
  S   S412      1.0  0.59588  0.85626  0.86722  1.0000
  Fe  Fe209     1.0  0.58981  0.79560  0.83740  1.0000
  S   S413      1.0  0.59840  0.76347  0.84041  1.0000
  S   S414      1.0  0.56823  0.84750  0.82391  1.0000
  S   S415      1.0  0.57047  0.80373  0.81446  1.0000
  Fe  Fe210     1.0  0.56638  0.96417  0.89759  1.0000
  S   S416      1.0  0.54813  0.96581  0.92468  1.0000
  S   S417      1.0  0.56488  0.94173  0.87721  1.0000
  Fe  Fe211     1.0  0.68099  0.63290  0.90099  1.0000
  S   S418      1.0  0.66008  0.64189  0.87967  1.0000
  S   S419      1.0  0.71246  0.62255  0.89763  1.0000
  Fe  Fe212     1.0  0.65059  0.63723  0.93435  1.0000
  S   S420      1.0  0.62785  0.64598  0.91510  1.0000
  S   S421      1.0  0.64084  0.63212  0.96551  1.0000
  Fe  Fe213     1.0  0.64128  0.62271  0.89826  1.0000
  S   S422      1.0  0.62442  0.60164  0.88702  1.0000
  Fe  Fe214     1.0  0.64805  0.66471  0.89837  1.0000
  S   S423      1.0  0.63962  0.69689  0.89319  1.0000
  S   S424      1.0  0.66263  0.61290  0.91839  1.0000
  S   S425      1.0  0.67039  0.65678  0.91868  1.0000
  Fe  Fe215     1.0  0.59389  0.49621  0.92069  1.0000
  S   S426      1.0  0.61323  0.51870  0.92487  1.0000
  H   H3273     1.0  0.58366  0.66747  0.95563  1.0000
  C   C1841     1.0  0.63959  0.91161  0.78121  1.0000
  C   C1842     1.0  0.72561  0.61152  0.86203  1.0000
  H   H3274     1.0  0.67146  0.53262  0.89639  1.0000
  H   H3275     1.0  0.53322  0.88438  0.91076  1.0000
  H   H3276     1.0  0.71207  0.61704  0.85760  1.0000
  C   C1843     1.0  0.65173  0.51639  0.87494  1.0000
  C   C1844     1.0  0.62016  0.57912  0.89844  1.0000
  C   C1845     1.0  0.62747  0.57246  0.91538  1.0000
  C   C1846     1.0  0.62519  0.55395  0.92314  1.0000
  C   C1847     1.0  0.61490  0.54210  0.91459  1.0000
  C   C1848     1.0  0.60701  0.54895  0.89800  1.0000
  C   C1849     1.0  0.60982  0.56728  0.88988  1.0000
  H   H3277     1.0  0.63521  0.58143  0.92230  1.0000
  H   H3278     1.0  0.63159  0.54871  0.93579  1.0000
  H   H3279     1.0  0.59912  0.53999  0.89120  1.0000
  H   H3280     1.0  0.60403  0.57229  0.87682  1.0000
  H   H3281     1.0  0.66450  0.77836  0.80967  1.0000
  H   H3282     1.0  0.52281  0.91400  0.92470  1.0000
  H   H3283     1.0  0.53234  0.95093  0.97423  1.0000
  H   H3284     1.0  0.50194  0.94610  0.96388  1.0000
  H   H3285     1.0  0.51880  0.48918  0.84542  1.0000
  H   H3286     1.0  0.69852  0.57458  0.92993  1.0000
  C   C1850     1.0  0.72937  0.61265  0.88055  1.0000
  S   S427      1.0  0.57151  0.96910  0.96677  1.0000
  H   H3287     1.0  0.65641  0.60912  0.85453  1.0000
  H   H3288     1.0  0.63816  0.52026  0.88308  1.0000
  C   C1851     1.0  0.60970  0.74522  0.85556  1.0000
  C   C1852     1.0  0.61760  0.74875  0.87171  1.0000
  C   C1853     1.0  0.62665  0.73385  0.88290  1.0000
  C   C1854     1.0  0.62790  0.71510  0.87832  1.0000
  C   C1855     1.0  0.61993  0.71159  0.86220  1.0000
  C   C1856     1.0  0.61104  0.72650  0.85092  1.0000
  H   H3289     1.0  0.61693  0.76298  0.87552  1.0000
  H   H3290     1.0  0.63287  0.73692  0.89516  1.0000
  H   H3291     1.0  0.62077  0.69737  0.85832  1.0000
  H   H3292     1.0  0.60526  0.72347  0.83840  1.0000
  C   C1857     1.0  0.58819  0.88040  0.86935  1.0000
  C   C1858     1.0  0.59144  0.88868  0.88549  1.0000
  C   C1859     1.0  0.58486  0.90754  0.88803  1.0000
  C   C1860     1.0  0.57495  0.91839  0.87439  1.0000
  C   C1861     1.0  0.57196  0.91017  0.85814  1.0000
  C   C1862     1.0  0.57851  0.89134  0.85562  1.0000
  H   H3293     1.0  0.59900  0.88041  0.89618  1.0000
  H   H3294     1.0  0.58731  0.91362  0.90060  1.0000
  H   H3295     1.0  0.56440  0.91842  0.84745  1.0000
  H   H3296     1.0  0.57601  0.88528  0.84306  1.0000
  C   C1863     1.0  0.50467  0.80586  0.81831  1.0000
  C   C1864     1.0  0.50254  0.81509  0.83468  1.0000
  S   S428      1.0  0.65555  0.86849  0.65917  1.0000
  H   H3297     1.0  0.51830  0.80423  0.81049  1.0000
  H   H3298     1.0  0.71039  0.92896  0.69370  1.0000
  H   H3299     1.0  0.63005  0.77303  0.75885  1.0000
  H   H3300     1.0  0.68465  0.77456  0.73722  1.0000
  H   H3301     1.0  0.60618  0.65515  0.94994  1.0000
  C   C1865     1.0  0.63437  0.86744  0.73100  1.0000
  C   C1866     1.0  0.62135  0.85663  0.72507  1.0000
  C   C1867     1.0  0.60926  0.84668  0.73835  1.0000
  C   C1868     1.0  0.60981  0.84755  0.75775  1.0000
  C   C1869     1.0  0.62277  0.85843  0.76366  1.0000
  C   C1870     1.0  0.63510  0.86807  0.75040  1.0000
  H   H3302     1.0  0.62056  0.85593  0.71025  1.0000
  H   H3303     1.0  0.59928  0.83838  0.73354  1.0000
  H   H3304     1.0  0.62322  0.85952  0.77844  1.0000
  H   H3305     1.0  0.64526  0.87614  0.75521  1.0000
  H   H3306     1.0  0.73294  0.55736  0.85414  1.0000
  C   C1871     1.0  0.50298  0.85098  0.88888  1.0000
  H   H3307     1.0  0.61222  0.92917  0.72441  1.0000
  H   H3308     1.0  0.64931  0.96119  0.67246  1.0000
  H   H3309     1.0  0.63345  0.89890  0.77792  1.0000
  H   H3310     1.0  0.63318  0.76137  0.79283  1.0000
  H   H3311     1.0  0.49800  0.51460  0.93914  1.0000
  H   H3312     1.0  0.51144  0.84002  0.89717  1.0000
  H   H3313     1.0  0.68273  0.59881  0.87430  1.0000
  C   C1872     1.0  0.52691  0.88535  0.86427  1.0000
  H   H3314     1.0  0.66444  0.90826  0.76232  1.0000
  H   H3315     1.0  0.67658  0.93494  0.69633  1.0000
  C   C1873     1.0  0.53377  0.89001  0.89578  1.0000
  H   H3316     1.0  0.65607  0.57773  0.87167  1.0000
  C   C1874     1.0  0.62763  0.68483  0.95543  1.0000
  N   N103      1.0  0.67895  0.55929  0.88227  1.0000
  C   C1875     1.0  0.65271  0.95465  0.73672  1.0000
  H   H3317     1.0  0.56924  0.73023  0.83561  1.0000
  H   H3318     1.0  0.66556  0.81045  0.75329  1.0000
  H   H3319     1.0  0.67032  0.91075  0.72410  1.0000
  H   H3320     1.0  0.59567  0.54589  0.95208  1.0000
  H   H3321     1.0  0.63948  0.90963  0.74193  1.0000
  H   H3322     1.0  0.69951  0.54996  0.86029  1.0000
  H   H3323     1.0  0.65602  0.84186  0.78411  1.0000
  C   C1876     1.0  0.67072  0.60476  0.84818  1.0000
  H   H3324     1.0  0.64769  0.90782  0.79359  1.0000
  C   C1877     1.0  0.54738  0.85094  0.90370  1.0000
  H   H3325     1.0  0.53088  0.51899  0.94014  1.0000
  H   H3326     1.0  0.66520  0.75693  0.79890  1.0000
  H   H3327     1.0  0.65472  0.79512  0.74016  1.0000
  H   H3328     1.0  0.67835  0.61750  0.84452  1.0000
  H   H3329     1.0  0.66550  0.95501  0.74416  1.0000
  C   C1878     1.0  0.55821  0.83163  0.90299  1.0000
  H   H3330     1.0  0.64679  0.94429  0.70185  1.0000
  H   H3331     1.0  0.65037  0.80686  0.81151  1.0000
  C   C1879     1.0  0.63856  0.77439  0.79654  1.0000
  C   C1880     1.0  0.60625  0.78505  0.77561  1.0000
  C   C1881     1.0  0.59211  0.78751  0.76086  1.0000
  H   H3332     1.0  0.62625  0.79791  0.75517  1.0000
  H   H3333     1.0  0.63973  0.81793  0.77131  1.0000
  H   H3334     1.0  0.60243  0.79598  0.78539  1.0000
  H   H3335     1.0  0.60459  0.77128  0.78375  1.0000
  H   H3336     1.0  0.57764  0.78776  0.76785  1.0000
  H   H3337     1.0  0.59329  0.80103  0.75208  1.0000
  H   H3338     1.0  0.59445  0.77579  0.75173  1.0000
  H   H3339     1.0  0.56672  0.56459  0.94278  1.0000
  C   C1882     1.0  0.56073  0.72434  0.84811  1.0000
  H   H3340     1.0  0.50555  0.84800  0.87406  1.0000
  H   H3341     1.0  0.71338  0.57634  0.87682  1.0000
  C   C1883     1.0  0.66514  0.79565  0.75039  1.0000
  Fe  Fe216     1.0  0.57119  0.97943  0.93571  1.0000
  C   C1884     1.0  0.65254  0.91914  0.76459  1.0000
  H   H3342     1.0  0.68741  0.79842  0.72789  1.0000
  H   H3343     1.0  0.51680  0.89638  0.82806  1.0000
  H   H3344     1.0  0.69555  0.79005  0.75033  1.0000
  H   H3345     1.0  0.61824  0.59543  0.97605  1.0000
  H   H3346     1.0  0.55523  0.86331  0.87584  1.0000
  H   H3347     1.0  0.66029  0.50593  0.88372  1.0000
  C   C1885     1.0  0.61072  0.94697  0.69878  1.0000
  H   H3348     1.0  0.62796  0.93025  0.75095  1.0000
  H   H3349     1.0  0.71730  0.55854  0.89537  1.0000
  N   N104      1.0  0.64156  0.78794  0.77922  1.0000
  C   C1886     1.0  0.50263  0.97500  0.90148  1.0000
  H   H3350     1.0  0.54040  0.89148  0.85977  1.0000
  H   H3351     1.0  0.54876  0.89237  0.89158  1.0000
  H   H3352     1.0  0.63787  0.83987  0.80339  1.0000
  C   C1887     1.0  0.70247  0.92316  0.70669  1.0000
  C   C1888     1.0  0.61948  0.94119  0.71718  1.0000
  C   C1889     1.0  0.57689  0.54832  0.97826  1.0000
  H   H3353     1.0  0.66138  0.76826  0.76519  1.0000
  H   H3354     1.0  0.66289  0.75099  0.83316  1.0000
  C   C1890     1.0  0.56458  0.70300  0.84913  1.0000
  S   S429      1.0  0.52601  0.49623  0.90744  1.0000
  H   H3355     1.0  0.62529  0.55407  0.96788  1.0000
  C   C1891     1.0  0.67124  0.92571  0.72645  1.0000
  H   H3356     1.0  0.61194  0.52823  0.97426  1.0000
  H   H3357     1.0  0.59815  0.69416  0.96451  1.0000
  H   H3358     1.0  0.58296  0.52598  0.95916  1.0000
  C   C1892     1.0  0.68438  0.78920  0.74095  1.0000
  H   H3359     1.0  0.54109  0.88681  0.82651  1.0000
  C   C1893     1.0  0.63941  0.80798  0.78418  1.0000
  H   H3360     1.0  0.50224  0.92478  0.84382  1.0000
  C   C1894     1.0  0.64084  0.93527  0.71388  1.0000
  C   C1895     1.0  0.68342  0.93451  0.70950  1.0000
  H   H3361     1.0  0.52344  0.87411  0.81872  1.0000
  H   H3362     1.0  0.66218  0.83793  0.80790  1.0000
  C   C1896     1.0  0.52106  0.52151  0.95273  1.0000
  C   C1897     1.0  0.66041  0.78309  0.76874  1.0000
  C   C1898     1.0  0.52319  0.87302  0.84891  1.0000
  H   H3363     1.0  0.63569  0.73015  0.96120  1.0000
  H   H3364     1.0  0.49720  0.95167  0.88682  1.0000
  H   H3365     1.0  0.63652  0.67135  0.95742  1.0000
  C   C1899     1.0  0.65021  0.75679  0.82617  1.0000
  H   H3366     1.0  0.52032  0.93520  0.90924  1.0000
  H   H3367     1.0  0.64077  0.95825  0.74724  1.0000
  H   H3368     1.0  0.67207  0.78362  0.77755  1.0000
  H   H3369     1.0  0.65810  0.93191  0.76850  1.0000
  H   H3370     1.0  0.66298  0.70979  0.96594  1.0000
  C   C1900     1.0  0.65599  0.76706  0.80718  1.0000
  C   C1901     1.0  0.66256  0.70372  0.93779  1.0000
  H   H3371     1.0  0.62816  0.68784  0.93999  1.0000
  H   H3372     1.0  0.67407  0.65152  0.96916  1.0000
  H   H3373     1.0  0.62879  0.71887  0.92874  1.0000
  C   C1902     1.0  0.67563  0.96949  0.65914  1.0000
  N   N105      1.0  0.65178  0.93522  0.73069  1.0000
  H   H3374     1.0  0.67108  0.56673  0.85402  1.0000
  H   H3375     1.0  0.69435  0.54490  0.91510  1.0000
  H   H3376     1.0  0.73620  0.53828  0.87234  1.0000
  H   H3377     1.0  0.60627  0.57067  0.96018  1.0000
  H   H3378     1.0  0.53217  0.72376  0.86017  1.0000
  C   C1903     1.0  0.68136  0.59117  0.86197  1.0000
  H   H3379     1.0  0.56193  0.82617  0.91723  1.0000
  H   H3380     1.0  0.68641  0.94881  0.71195  1.0000
  H   H3381     1.0  0.71082  0.92392  0.71871  1.0000
  S   S430      1.0  0.58141  0.48824  0.89544  1.0000
  H   H3382     1.0  0.65321  0.54325  0.85959  1.0000
  H   H3383     1.0  0.64226  0.92100  0.70884  1.0000
  C   C1904     1.0  0.71532  0.56101  0.88022  1.0000
  C   C1905     1.0  0.65359  0.81336  0.79705  1.0000
  H   H3384     1.0  0.61664  0.95302  0.72613  1.0000
  H   H3385     1.0  0.62745  0.78059  0.80667  1.0000
  H   H3386     1.0  0.50717  0.90841  0.89689  1.0000
  H   H3387     1.0  0.73639  0.60271  0.83489  1.0000
  C   C1906     1.0  0.65648  0.69939  0.95885  1.0000
  H   H3388     1.0  0.50146  0.73311  0.86275  1.0000
  H   H3389     1.0  0.56589  0.72900  0.86072  1.0000
  S   S431      1.0  0.56701  0.49400  0.93935  1.0000
  H   H3390     1.0  0.66827  0.80895  0.79202  1.0000
  C   C1907     1.0  0.64208  0.92338  0.74661  1.0000
  H   H3391     1.0  0.63727  0.57898  0.98372  1.0000
  C   C1908     1.0  0.65230  0.97131  0.72121  1.0000
  H   H3392     1.0  0.69100  0.70997  0.94144  1.0000
  H   H3393     1.0  0.64175  0.76660  0.83538  1.0000
  H   H3394     1.0  0.62477  0.75243  0.93511  1.0000
  C   C1909     1.0  0.50817  0.87083  0.89196  1.0000
  H   H3395     1.0  0.49715  0.88131  0.88641  1.0000
  H   H3396     1.0  0.60830  0.49624  0.96764  1.0000
  H   H3397     1.0  0.61257  0.93515  0.68979  1.0000
  H   H3398     1.0  0.50389  0.49399  0.86632  1.0000
  H   H3399     1.0  0.50167  0.93295  0.81939  1.0000
  N   N106      1.0  0.53405  0.75130  0.84545  1.0000
  C   C1910     1.0  0.53832  0.75908  0.86306  1.0000
  C   C1911     1.0  0.53945  0.73044  0.84721  1.0000
  C   C1912     1.0  0.54503  0.76100  0.82896  1.0000
  C   C1913     1.0  0.51345  0.75472  0.84249  1.0000
  C   C1914     1.0  0.49954  0.74852  0.85931  1.0000
  C   C1915     1.0  0.53172  0.78005  0.86470  1.0000
  C   C1916     1.0  0.54451  0.75290  0.80987  1.0000
  H   H3400     1.0  0.57982  0.69902  0.85003  1.0000
  H   H3401     1.0  0.65856  0.71867  0.93333  1.0000
  H   H3402     1.0  0.56042  0.69756  0.83641  1.0000
  C   C1917     1.0  0.53490  0.78593  0.88382  1.0000
  C   C1918     1.0  0.55612  0.76378  0.79434  1.0000
  H   H3403     1.0  0.55375  0.75784  0.86413  1.0000
  H   H3404     1.0  0.53242  0.75069  0.87572  1.0000
  C   C1919     1.0  0.73355  0.55371  0.86944  1.0000
  H   H3405     1.0  0.53448  0.72375  0.83557  1.0000
  H   H3406     1.0  0.55997  0.76116  0.83170  1.0000
  H   H3407     1.0  0.53968  0.77606  0.82694  1.0000
  H   H3408     1.0  0.50960  0.76981  0.83821  1.0000
  H   H3409     1.0  0.51029  0.74724  0.83056  1.0000
  H   H3410     1.0  0.50140  0.75548  0.87195  1.0000
  H   H3411     1.0  0.55680  0.69634  0.86176  1.0000
  H   H3412     1.0  0.53985  0.78879  0.85392  1.0000
  H   H3413     1.0  0.51658  0.78327  0.86287  1.0000
  H   H3414     1.0  0.52995  0.75385  0.80581  1.0000
  H   H3415     1.0  0.55037  0.73803  0.81033  1.0000
  H   H3416     1.0  0.55324  0.54482  0.95079  1.0000
  C   C1920     1.0  0.61246  0.74412  0.93588  1.0000
  H   H3417     1.0  0.69544  0.58746  0.85484  1.0000
  H   H3418     1.0  0.66954  0.59815  0.83512  1.0000
  N   N107      1.0  0.63564  0.69993  0.96450  1.0000
  C   C1921     1.0  0.52743  0.92079  0.91070  1.0000
  H   H3419     1.0  0.52861  0.51707  0.96533  1.0000
  C   C1922     1.0  0.50405  0.51039  0.95263  1.0000
  H   H3420     1.0  0.53024  0.80108  0.88435  1.0000
  H   H3421     1.0  0.52664  0.77786  0.89516  1.0000
  H   H3422     1.0  0.55004  0.78368  0.88617  1.0000
  H   H3423     1.0  0.55597  0.75744  0.78093  1.0000
  H   H3424     1.0  0.55012  0.77862  0.79245  1.0000
  H   H3425     1.0  0.57091  0.76331  0.79772  1.0000
  H   H3426     1.0  0.50637  0.87161  0.90741  1.0000
  C   C1923     1.0  0.67848  0.56872  0.90012  1.0000
  C   C1924     1.0  0.67105  0.57327  0.86735  1.0000
  C   C1925     1.0  0.66594  0.54378  0.88601  1.0000
  H   H3427     1.0  0.57964  0.95153  0.65225  1.0000
  H   H3428     1.0  0.68780  0.70335  0.91856  1.0000
  C   C1926     1.0  0.68229  0.55542  0.91793  1.0000
  H   H3429     1.0  0.61720  0.95927  0.69117  1.0000
  H   H3430     1.0  0.64184  0.74501  0.82444  1.0000
  C   C1927     1.0  0.62605  0.71929  0.95980  1.0000
  H   H3431     1.0  0.65622  0.69472  0.92907  1.0000
  H   H3432     1.0  0.53285  0.86008  0.84894  1.0000
  H   H3433     1.0  0.66450  0.57649  0.90301  1.0000
  C   C1928     1.0  0.52253  0.90961  0.89518  1.0000
  H   H3434     1.0  0.68845  0.57970  0.89873  1.0000
  H   H3435     1.0  0.65200  0.54930  0.89241  1.0000
  H   H3436     1.0  0.50912  0.49526  0.95297  1.0000
  C   C1929     1.0  0.56727  0.54905  0.94510  1.0000
  H   H3437     1.0  0.60160  0.74916  0.94677  1.0000
  H   H3438     1.0  0.67964  0.92542  0.73862  1.0000
  C   C1930     1.0  0.68388  0.70048  0.93382  1.0000
  H   H3439     1.0  0.66974  0.54777  0.92279  1.0000
  C   C1931     1.0  0.49313  0.93173  0.83312  1.0000
  H   H3440     1.0  0.62530  0.81139  0.79135  1.0000
  H   H3441     1.0  0.57103  0.54321  0.93137  1.0000
  H   H3442     1.0  0.60726  0.67278  0.97692  1.0000
  H   H3443     1.0  0.52280  0.97201  0.96172  1.0000
  C   C1932     1.0  0.65808  0.97262  0.66915  1.0000
  C   C1933     1.0  0.66222  0.53379  0.86883  1.0000
  H   H3444     1.0  0.66244  0.96865  0.70901  1.0000
  C   C1934     1.0  0.59843  0.66928  0.95018  1.0000
  C   C1935     1.0  0.58203  0.54151  0.95845  1.0000
  C   C1936     1.0  0.65227  0.83456  0.79812  1.0000
  H   H3445     1.0  0.60648  0.74638  0.92212  1.0000
  H   H3446     1.0  0.64873  0.50977  0.86243  1.0000
  C   C1937     1.0  0.62666  0.78597  0.76630  1.0000
  C   C1938     1.0  0.68630  0.56626  0.93405  1.0000
  H   H3447     1.0  0.68888  0.68569  0.93807  1.0000
  C   C1939     1.0  0.69837  0.55094  0.87570  1.0000
  C   C1940     1.0  0.60724  0.68091  0.96296  1.0000
  H   H3448     1.0  0.57141  0.83257  0.89365  1.0000
  H   H3449     1.0  0.63558  0.58561  0.95913  1.0000
  H   H3450     1.0  0.70088  0.53619  0.88190  1.0000
  H   H3451     1.0  0.51755  0.97373  0.89731  1.0000
  C   C1941     1.0  0.52630  0.88331  0.82940  1.0000
  H   H3452     1.0  0.55660  0.86019  0.90924  1.0000
  H   H3453     1.0  0.60588  0.71554  0.93967  1.0000
  H   H3454     1.0  0.54281  0.92192  0.90977  1.0000
  H   H3455     1.0  0.49070  0.79196  0.79912  1.0000
  C   C1942     1.0  0.61840  0.72327  0.94020  1.0000
  H   H3456     1.0  0.53779  0.84786  0.87669  1.0000
  H   H3457     1.0  0.67383  0.57582  0.93828  1.0000
  C   C1943     1.0  0.54205  0.85935  0.88404  1.0000
  H   H3458     1.0  0.66342  0.68540  0.96353  1.0000
  H   H3459     1.0  0.50843  0.86944  0.85078  1.0000
  N   N108      1.0  0.52745  0.87600  0.88396  1.0000
  H   H3460     1.0  0.61377  0.72233  0.97011  1.0000
  Fe  Fe217     1.0  0.67202  0.91869  0.65695  1.0000
  H   H3461     1.0  0.53470  0.84965  0.91371  1.0000
  H   H3462     1.0  0.52615  0.91783  0.88161  1.0000
  C   C1944     1.0  0.52084  0.96245  0.97472  1.0000
  H   H3463     1.0  0.59857  0.67630  0.93572  1.0000
  H   H3464     1.0  0.54958  0.82161  0.89786  1.0000
  S   S432      1.0  0.59058  0.97565  0.90909  1.0000
  C   C1945     1.0  0.50186  0.95435  0.97611  1.0000
  H   H3465     1.0  0.51589  0.89733  0.86374  1.0000
  H   H3466     1.0  0.67555  0.52938  0.86063  1.0000
  H   H3467     1.0  0.63818  0.97401  0.71605  1.0000
  H   H3468     1.0  0.57183  0.56348  0.97649  1.0000
  H   H3469     1.0  0.68952  0.55628  0.94633  1.0000
  H   H3470     1.0  0.51672  0.53679  0.95225  1.0000
  C   C1946     1.0  0.68658  0.98470  0.65426  1.0000
  S   S433      1.0  0.68464  0.94694  0.65256  1.0000
  C   C1947     1.0  0.61547  0.56625  0.97159  1.0000
  C   C1948     1.0  0.49114  0.96247  0.89561  1.0000
  C   C1949     1.0  0.48898  0.79897  0.81186  1.0000
  C   C1950     1.0  0.62732  0.58253  0.97279  1.0000
  H   H3471     1.0  0.51621  0.92630  0.65211  1.0000
  C   C1951     1.0  0.66626  0.64978  0.98277  1.0000
  H   H3472     1.0  0.49571  0.50779  0.98251  1.0000
  C   C1952     1.0  0.48943  0.51403  0.96955  1.0000
  C   C1953     1.0  0.60776  0.49319  0.98311  1.0000
  H   H3473     1.0  0.59277  0.92474  0.98395  1.0000
  Fe  Fe218     1.0  0.78905  0.38009  0.15539  1.0000
  S   S434      1.0  0.81953  0.36957  0.14939  1.0000
  S   S435      1.0  0.76641  0.35980  0.15425  1.0000
  Fe  Fe219     1.0  0.79981  0.41883  0.16398  1.0000
  S   S436      1.0  0.83058  0.41056  0.15850  1.0000
  S   S437      1.0  0.78757  0.44877  0.16857  1.0000
  Fe  Fe220     1.0  0.82274  0.39778  0.13342  1.0000
  S   S438      1.0  0.83361  0.40810  0.10377  1.0000
  Fe  Fe221     1.0  0.82473  0.38305  0.17533  1.0000
  S   S439      1.0  0.84628  0.36815  0.19507  1.0000
  S   S440      1.0  0.79209  0.40744  0.13812  1.0000
  S   S441      1.0  0.79405  0.39210  0.18222  1.0000
  C   C1954     1.0  0.78107  0.40113  0.08544  1.0000
  H   H3474     1.0  0.76636  0.38259  0.04884  1.0000
  H   H3475     1.0  0.95768  0.41650  0.01840  1.0000
  H   H3476     1.0  0.78151  0.32665  0.18143  1.0000
  H   H3477     1.0  0.80819  0.33180  0.10787  1.0000
  Fe  Fe222     1.0  0.91666  0.31341  0.31334  1.0000
  Fe  Fe223     1.0  0.88831  0.38571  0.00851  1.0000
  S   S442      1.0  0.88312  0.36987  0.03724  1.0000
  S   S443      1.0  0.90730  0.40910  0.00321  1.0000
  H   H3478     1.0  0.87706  0.44831  0.02553  1.0000
  H   H3479     1.0  0.78673  0.37178  0.22120  1.0000
  S   S444      1.0  0.85419  0.33497  0.28097  1.0000
  H   H3480     1.0  0.80024  0.29528  0.17164  1.0000
  H   H3481     1.0  0.80871  0.27365  0.23309  1.0000
  H   H3482     1.0  0.97655  0.44242  0.01983  1.0000
  H   H3483     1.0  0.81443  0.37271  0.09388  1.0000
  H   H3484     1.0  0.95492  0.38473  0.00604  1.0000
  H   H3485     1.0  0.79743  0.28428  0.25338  1.0000
  H   H3486     1.0  0.80044  0.33847  0.16977  1.0000
  C   C1955     1.0  0.79153  0.35954  0.08344  1.0000
  H   H3487     1.0  0.73872  0.34175  0.04832  1.0000
  C   C1956     1.0  0.84842  0.36038  0.21938  1.0000
  C   C1957     1.0  0.83317  0.36123  0.23310  1.0000
  C   C1958     1.0  0.83527  0.35349  0.25173  1.0000
  C   C1959     1.0  0.85273  0.34516  0.25722  1.0000
  C   C1960     1.0  0.86809  0.34472  0.24360  1.0000
  C   C1961     1.0  0.86590  0.35215  0.22488  1.0000
  H   H3488     1.0  0.81970  0.36771  0.22934  1.0000
  H   H3489     1.0  0.82325  0.35405  0.26205  1.0000
  H   H3490     1.0  0.88162  0.33837  0.24741  1.0000
  H   H3491     1.0  0.87787  0.35136  0.21452  1.0000
  C   C1962     1.0  0.80051  0.46852  0.16890  1.0000
  H   H3492     1.0  0.78938  0.40157  0.05551  1.0000
  C   C1963     1.0  0.78455  0.42172  0.08548  1.0000
  H   H3493     1.0  0.78704  0.32537  0.14113  1.0000
  H   H3494     1.0  0.82639  0.45271  0.17535  1.0000
  C   C1964     1.0  0.86898  0.38031  0.05563  1.0000
  C   C1965     1.0  0.86706  0.37052  0.07353  1.0000
  C   C1966     1.0  0.85602  0.37861  0.08846  1.0000
  C   C1967     1.0  0.84679  0.39655  0.08554  1.0000
  C   C1968     1.0  0.84832  0.40611  0.06755  1.0000
  C   C1969     1.0  0.85940  0.39807  0.05267  1.0000
  H   H3495     1.0  0.87436  0.35671  0.07588  1.0000
  H   H3496     1.0  0.85492  0.37110  0.10225  1.0000
  H   H3497     1.0  0.84093  0.41984  0.06512  1.0000
  H   H3498     1.0  0.86052  0.40554  0.03886  1.0000
  H   H3499     1.0  0.86481  0.43809  0.04638  1.0000
  H   H3500     1.0  0.82915  0.37203  0.05688  1.0000
  H   H3501     1.0  0.84369  0.48092  0.17571  1.0000
  H   H3502     1.0  0.82256  0.47542  0.21643  1.0000
  H   H3503     1.0  0.77343  0.33389  0.21403  1.0000
  C   C1970     1.0  0.74868  0.37096  0.12150  1.0000
  C   C1971     1.0  0.75024  0.35806  0.13727  1.0000
  H   H3504     1.0  0.76369  0.36403  0.22749  1.0000
  H   H3505     1.0  0.75714  0.38272  0.11960  1.0000
  H   H3506     1.0  0.78596  0.46455  0.12355  1.0000
  C   C1972     1.0  0.82914  0.48261  0.17274  1.0000
  C   C1973     1.0  0.78194  0.34590  0.20977  1.0000
  H   H3507     1.0  0.78352  0.35210  0.23857  1.0000
  C   C1974     1.0  0.96824  0.44315  0.00760  1.0000
  H   H3508     1.0  0.84616  0.46837  0.05130  1.0000
  H   H3509     1.0  0.82514  0.34582  0.11506  1.0000
  H   H3510     1.0  0.79860  0.44777  0.10894  1.0000
  H   H3511     1.0  0.78945  0.34487  0.08108  1.0000
  H   H3512     1.0  0.78997  0.31387  0.23459  1.0000
  C   C1975     1.0  0.81940  0.46658  0.17247  1.0000
  C   C1976     1.0  0.86357  0.44910  0.03456  1.0000
  C   C1977     1.0  0.78646  0.31163  0.14957  1.0000
  H   H3513     1.0  0.80038  0.35222  0.12035  1.0000
  H   H3514     1.0  0.96617  0.47730  0.05779  1.0000
  H   H3515     1.0  0.78544  0.39368  0.09876  1.0000
  S   S445      1.0  0.86557  0.40068  0.99202  1.0000
  H   H3516     1.0  0.77677  0.42748  0.09806  1.0000
  C   C1978     1.0  0.76258  0.35321  0.05776  1.0000
  C   C1979     1.0  0.82093  0.37331  0.04458  1.0000
  H   H3517     1.0  0.83679  0.34845  0.03407  1.0000
  H   H3518     1.0  0.86884  0.48082  0.01424  1.0000
  H   H3519     1.0  0.74725  0.03092  0.29740  1.0000
  H   H3520     1.0  0.92229  0.37686  0.30441  1.0000
  H   H3521     1.0  0.84317  0.48405  0.13532  1.0000
  C   C1980     1.0  0.98493  0.38283  0.00818  1.0000
  C   C1981     1.0  0.76895  0.37247  0.06129  1.0000
  H   H3522     1.0  0.77286  0.34549  0.04812  1.0000
  H   H3523     1.0  0.75894  0.37740  0.07283  1.0000
  H   H3524     1.0  0.80887  0.29173  0.20205  1.0000
  C   C1982     1.0  0.83267  0.36325  0.02906  1.0000
  H   H3525     1.0  0.82482  0.36365  0.01649  1.0000
  H   H3526     1.0  0.78047  0.36334  0.09473  1.0000
  H   H3527     1.0  0.77645  0.35351  0.19696  1.0000
  C   C1983     1.0  0.79235  0.39233  0.06843  1.0000
  H   H3528     1.0  0.84565  0.37035  0.02482  1.0000
  Fe  Fe224     1.0  0.87626  0.32407  0.30191  1.0000
  C   C1984     1.0  0.96864  0.38544  0.99844  1.0000
  H   H3529     1.0  0.80729  0.39358  0.07032  1.0000
  H   H3530     1.0  0.76069  0.34434  0.07125  1.0000
  H   H3531     1.0  0.77201  0.31067  0.15649  1.0000
  C   C1985     1.0  0.95214  0.43078  0.01312  1.0000
  C   C1986     1.0  0.80165  0.36516  0.04941  1.0000
  H   H3532     1.0  0.95715  0.46981  0.03766  1.0000
  N   N109      1.0  0.80712  0.32181  0.19541  1.0000
  C   C1987     1.0  0.80306  0.33931  0.20559  1.0000
  C   C1988     1.0  0.82792  0.31929  0.18949  1.0000
  C   C1989     1.0  0.79698  0.32502  0.17781  1.0000
  C   C1990     1.0  0.80056  0.30452  0.20694  1.0000
  C   C1991     1.0  0.80104  0.30375  0.22855  1.0000
  C   C1992     1.0  0.98436  0.31850  0.30345  1.0000
  C   C1993     1.0  0.80081  0.30945  0.16409  1.0000
  C   C1994     1.0  0.84111  0.31467  0.20535  1.0000
  C   C1995     1.0  0.86170  0.31479  0.19762  1.0000
  H   H3533     1.0  0.78576  0.30271  0.20469  1.0000
  H   H3534     1.0  0.78364  0.28033  0.23483  1.0000
  N   N110      1.0  0.78903  0.37237  0.06584  1.0000
  H   H3535     1.0  0.80965  0.35128  0.19729  1.0000
  H   H3536     1.0  0.80973  0.33771  0.21891  1.0000
  H   H3537     1.0  0.83129  0.30753  0.18052  1.0000
  H   H3538     1.0  0.83235  0.33211  0.18079  1.0000
  H   H3539     1.0  0.81887  0.38839  0.03943  1.0000
  H   H3540     1.0  0.85211  0.44623  0.02629  1.0000
  S   S446      1.0  0.94743  0.31256  0.30127  1.0000
  C   C1996     1.0  0.77885  0.35925  0.22522  1.0000
  C   C1997     1.0  0.81089  0.35863  0.09123  1.0000
  H   H3541     1.0  0.81459  0.30727  0.23264  1.0000
  H   H3542     1.0  0.87091  0.46989  0.05094  1.0000
  H   H3543     1.0  0.81485  0.31033  0.15623  1.0000
  H   H3544     1.0  0.83846  0.32486  0.21601  1.0000
  H   H3545     1.0  0.83926  0.30038  0.21224  1.0000
  H   H3546     1.0  0.87081  0.31162  0.20931  1.0000
  H   H3547     1.0  0.86543  0.30408  0.18748  1.0000
  H   H3548     1.0  0.86452  0.32883  0.19058  1.0000
  C   C1998     1.0  0.96901  0.47625  0.04247  1.0000
  H   H3549     1.0  0.80434  0.34960  0.05137  1.0000
  H   H3550     1.0  0.82199  0.35233  0.08133  1.0000
  S   S447      1.0  0.89901  0.34086  0.30882  1.0000
  H   H3551     1.0  0.79459  0.36810  0.03620  1.0000
  C   C1999     1.0  0.81110  0.34633  0.10977  1.0000
  N   N111      1.0  0.85232  0.46329  0.11568  1.0000
  C   C2000     1.0  0.83389  0.46089  0.10834  1.0000
  C   C2001     1.0  0.86786  0.46063  0.10021  1.0000
  C   C2002     1.0  0.85508  0.44899  0.13222  1.0000
  C   C2003     1.0  0.79747  0.28428  0.23796  1.0000
  H   H3552     1.0  0.78958  0.30036  0.13996  1.0000
  C   C2004     1.0  0.81619  0.46436  0.12218  1.0000
  C   C2005     1.0  0.87485  0.44670  0.13945  1.0000
  C   C2006     1.0  0.87041  0.44098  0.09258  1.0000
  C   C2007     1.0  0.88911  0.43794  0.08069  1.0000
  C   C2008     1.0  0.85956  0.46831  0.04214  1.0000
  C   C2009     1.0  0.79831  0.46221  0.11318  1.0000
  C   C2010     1.0  0.87547  0.43278  0.15691  1.0000
  H   H3553     1.0  0.83376  0.44636  0.10451  1.0000
  H   H3554     1.0  0.83210  0.46983  0.09502  1.0000
  H   H3555     1.0  0.76574  0.40077  0.08535  1.0000
  C   C2011     1.0  0.96760  0.31320  0.31347  1.0000
  H   H3556     1.0  0.85158  0.43494  0.12919  1.0000
  H   H3557     1.0  0.84501  0.45262  0.14432  1.0000
  H   H3558     1.0  0.88963  0.43162  0.16203  1.0000
  H   H3559     1.0  0.77953  0.43003  0.07282  1.0000
  H   H3560     1.0  0.98360  0.38013  0.02328  1.0000
  S   S448      1.0  0.89461  0.29644  0.30446  1.0000
  H   H3561     1.0  0.81663  0.45389  0.13455  1.0000
  H   H3562     1.0  0.94249  0.43681  0.02445  1.0000
  H   H3563     1.0  0.87877  0.46026  0.14321  1.0000
  H   H3564     1.0  0.88563  0.44125  0.12872  1.0000
  H   H3565     1.0  0.87009  0.42938  0.10390  1.0000
  H   H3566     1.0  0.85899  0.43967  0.08366  1.0000
  H   H3567     1.0  0.88983  0.42432  0.07448  1.0000
  H   H3568     1.0  0.89063  0.44926  0.06916  1.0000
  H   H3569     1.0  0.90099  0.43746  0.08952  1.0000
  H   H3570     1.0  0.75040  0.10252  0.29063  1.0000
  H   H3571     1.0  0.79973  0.42316  0.08588  1.0000
  H   H3572     1.0  0.79675  0.47254  0.10080  1.0000
  H   H3573     1.0  0.81496  0.47861  0.12703  1.0000
  H   H3574     1.0  0.86500  0.43753  0.16828  1.0000
  H   H3575     1.0  0.87255  0.41865  0.15362  1.0000
  H   H3576     1.0  0.88146  0.46384  0.10471  1.0000
  C   C2012     1.0  0.85810  0.48418  0.02598  1.0000
  H   H3577     1.0  0.98460  0.32246  0.28855  1.0000
  H   H3578     1.0  0.74316  0.06860  0.29899  1.0000
  H   H3579     1.0  0.89553  0.48073  0.02931  1.0000
  H   H3580     1.0  0.86534  0.47086  0.08792  1.0000
  C   C2013     1.0  0.85242  0.48263  0.12211  1.0000
  H   H3581     1.0  0.92960  0.39520  0.31656  1.0000
  H   H3582     1.0  0.94399  0.42983  0.00101  1.0000
  C   C2014     1.0  0.98085  0.43656  0.99025  1.0000
  H   H3583     1.0  0.96209  0.45777  0.00512  1.0000
  H   H3584     1.0  0.84445  0.48319  0.02032  1.0000
  H   H3585     1.0  0.98209  0.46702  0.03975  1.0000
  C   C2015     1.0  0.74374  0.35570  0.04929  1.0000
  H   H3586     1.0  0.74518  0.36314  0.03502  1.0000
  C   C2016     1.0  0.74593  0.10519  0.30540  1.0000
  H   H3587     1.0  0.73954  0.33314  0.15190  1.0000
  Fe  Fe225     1.0  0.88559  0.42276  0.98458  1.0000
  H   H3588     1.0  0.75456  0.11581  0.30950  1.0000
  S   S449      1.0  0.90190  0.37024  0.98414  1.0000
  H   H3589     1.0  0.98799  0.42262  0.99464  1.0000
  H   H3590     1.0  0.86664  0.48484  0.12579  1.0000
  C   C2017     1.0  0.73862  0.34316  0.13972  1.0000
  H   H3591     1.0  0.93999  0.46561  0.98453  1.0000
  H   H3592     1.0  0.80694  0.48624  0.23424  1.0000
  H   H3593     1.0  0.76447  0.04676  0.31572  1.0000
  H   H3594     1.0  0.76367  0.08219  0.31693  1.0000
  Fe  Fe226     1.0  0.82842  0.15754  0.56139  1.0000
  S   S450      1.0  0.82633  0.13349  0.58384  1.0000
  S   S451      1.0  0.83144  0.14855  0.53152  1.0000
  Fe  Fe227     1.0  0.83572  0.18497  0.58998  1.0000
  S   S452      1.0  0.83361  0.16259  0.61397  1.0000
  S   S453      1.0  0.84598  0.21435  0.59014  1.0000
  Fe  Fe228     1.0  0.85123  0.14382  0.59463  1.0000
  S   S454      1.0  0.87508  0.12370  0.60516  1.0000
  Fe  Fe229     1.0  0.80844  0.15384  0.60141  1.0000
  S   S455      1.0  0.78405  0.14486  0.62307  1.0000
  S   S456      1.0  0.85464  0.16639  0.57130  1.0000
  S   S457      1.0  0.80925  0.17784  0.57832  1.0000
  Fe  Fe230     1.0  0.81006  0.16098  0.42339  1.0000
  S   S458      1.0  0.80905  0.13099  0.41780  1.0000
  S   S459      1.0  0.80051  0.17258  0.45162  1.0000
  Fe  Fe231     1.0  0.82216  0.17303  0.38241  1.0000
  S   S460      1.0  0.82132  0.14360  0.37412  1.0000
  S   S461      1.0  0.83129  0.19545  0.35912  1.0000
  Fe  Fe232     1.0  0.79391  0.14195  0.39223  1.0000
  S   S462      1.0  0.76834  0.12530  0.38836  1.0000
  Fe  Fe233     1.0  0.83631  0.13468  0.39998  1.0000
  S   S463      1.0  0.86022  0.11129  0.39806  1.0000
  S   S464      1.0  0.79364  0.17216  0.39876  1.0000
  S   S465      1.0  0.83838  0.16399  0.40738  1.0000
  C   C2018     1.0  0.90970  0.21117  0.61206  1.0000
  H   H3595     1.0  0.93653  0.18678  0.59863  1.0000
  H   H3596     1.0  0.92822  0.08055  0.44078  1.0000
  H   H3597     1.0  0.81733  0.35686  0.37944  1.0000
  H   H3598     1.0  0.90971  0.21138  0.57462  1.0000
  Fe  Fe234     1.0  0.96808  0.08342  0.41219  1.0000
  S   S466      1.0  0.94679  0.10932  0.41205  1.0000
  S   S467      1.0  0.96099  0.05485  0.42483  1.0000
  Fe  Fe235     1.0  0.98125  0.09933  0.56760  1.0000
  H   H3599     1.0  0.92060  0.21615  0.60112  1.0000
  S   S468      1.0  0.95656  0.12061  0.56090  1.0000
  H   H3600     1.0  0.84666  0.30213  0.41514  1.0000
  H   H3601     1.0  0.96283  0.02847  0.50286  1.0000
  C   C2019     1.0  0.93559  0.09438  0.51978  1.0000
  C   C2020     1.0  0.93019  0.08958  0.48743  1.0000
  H   H3602     1.0  0.83903  0.11174  0.64102  1.0000
  Fe  Fe236     1.0  0.89789  0.32732  0.63242  1.0000
  S   S469      1.0  0.91230  0.29905  0.62651  1.0000
  S   S470      1.0  0.88985  0.35166  0.61099  1.0000
  Fe  Fe237     1.0  0.88848  0.33540  0.33916  1.0000
  S   S471      1.0  0.90736  0.30903  0.34397  1.0000
  S   S472      1.0  0.88675  0.36051  0.35649  1.0000
  Fe  Fe238     1.0  0.88390  0.29391  0.33517  1.0000
  S   S473      1.0  0.87658  0.26847  0.35586  1.0000
  S   S474      1.0  0.86437  0.32042  0.33235  1.0000
  Fe  Fe239     1.0  0.92909  0.40438  0.46516  1.0000
  S   S475      1.0  0.92225  0.37498  0.47317  1.0000
  S   S476      1.0  0.95716  0.41131  0.45109  1.0000
  Fe  Fe240     1.0  0.89132  0.42079  0.47996  1.0000
  S   S477      1.0  0.88088  0.39220  0.48920  1.0000
  S   S478      1.0  0.87473  0.44944  0.48080  1.0000
  Fe  Fe241     1.0  0.90917  0.38502  0.50046  1.0000
  S   S479      1.0  0.91884  0.36380  0.52421  1.0000
  Fe  Fe242     1.0  0.89483  0.38380  0.46133  1.0000
  S   S480      1.0  0.88571  0.36130  0.44484  1.0000
  S   S481      1.0  0.91846  0.41416  0.49318  1.0000
  S   S482      1.0  0.90277  0.41275  0.45125  1.0000
  C   C2021     1.0  0.97287  0.40671  0.46826  1.0000
  H   H3603     1.0  0.95353  0.39223  0.48806  1.0000
  C   C2022     1.0  0.88731  0.36052  0.38098  1.0000
  C   C2023     1.0  0.88976  0.34388  0.39256  1.0000
  C   C2024     1.0  0.88957  0.34440  0.41207  1.0000
  C   C2025     1.0  0.88738  0.36157  0.42013  1.0000
  C   C2026     1.0  0.88544  0.37827  0.40848  1.0000
  C   C2027     1.0  0.88526  0.37771  0.38900  1.0000
  H   H3604     1.0  0.89162  0.33067  0.38644  1.0000
  H   H3605     1.0  0.89111  0.33146  0.42103  1.0000
  H   H3606     1.0  0.88355  0.39157  0.41454  1.0000
  H   H3607     1.0  0.88337  0.39069  0.38012  1.0000
  C   C2028     1.0  0.89592  0.18351  0.62855  1.0000
  H   H3608     1.0  0.90465  0.17997  0.64056  1.0000
  C   C2029     1.0  0.89758  0.35447  0.58672  1.0000
  C   C2030     1.0  0.90932  0.34066  0.57785  1.0000
  C   C2031     1.0  0.91548  0.34370  0.55868  1.0000
  C   C2032     1.0  0.90974  0.36041  0.54804  1.0000
  C   C2033     1.0  0.89781  0.37411  0.55682  1.0000
  C   C2034     1.0  0.89183  0.37116  0.57606  1.0000
  H   H3609     1.0  0.91357  0.32762  0.58576  1.0000
  H   H3610     1.0  0.92458  0.33295  0.55200  1.0000
  H   H3611     1.0  0.89334  0.38705  0.54885  1.0000
  H   H3612     1.0  0.88267  0.38188  0.58274  1.0000
  C   C2035     1.0  0.90020  0.46718  0.43621  1.0000
  C   C2036     1.0  0.88438  0.16668  0.62690  1.0000
  H   H3613     1.0  0.98244  0.48274  0.42819  1.0000
  H   H3614     1.0  0.89471  0.15397  0.53604  1.0000
  H   H3615     1.0  0.90445  0.19904  0.54530  1.0000
  C   C2037     1.0  0.83745  0.36699  0.35788  1.0000
  C   C2038     1.0  0.84314  0.21620  0.35879  1.0000
  C   C2039     1.0  0.84662  0.22710  0.34165  1.0000
  C   C2040     1.0  0.85644  0.24331  0.34050  1.0000
  C   C2041     1.0  0.86314  0.24877  0.35649  1.0000
  C   C2042     1.0  0.85957  0.23794  0.37368  1.0000
  C   C2043     1.0  0.84953  0.22186  0.37487  1.0000
  H   H3616     1.0  0.97233  0.38126  0.33407  1.0000
  H   H3617     1.0  0.74454  0.09083  0.33285  1.0000
  H   H3618     1.0  0.86462  0.24201  0.38617  1.0000
  H   H3619     1.0  0.84682  0.21379  0.38817  1.0000
  C   C2044     1.0  0.88403  0.11087  0.40287  1.0000
  C   C2045     1.0  0.89644  0.09511  0.39880  1.0000
  C   C2046     1.0  0.91557  0.09428  0.40186  1.0000
  C   C2047     1.0  0.92260  0.10934  0.40887  1.0000
  C   C2048     1.0  0.91017  0.12506  0.41312  1.0000
  C   C2049     1.0  0.89095  0.12575  0.41034  1.0000
  H   H3620     1.0  0.89122  0.08349  0.39311  1.0000
  H   H3621     1.0  0.92494  0.08211  0.39852  1.0000
  H   H3622     1.0  0.91545  0.13671  0.41867  1.0000
  H   H3623     1.0  0.88150  0.13778  0.41387  1.0000
  C   C2050     1.0  0.85450  0.22672  0.60751  1.0000
  C   C2051     1.0  0.86197  0.24403  0.60201  1.0000
  C   C2052     1.0  0.86901  0.25432  0.61511  1.0000
  C   C2053     1.0  0.86862  0.24751  0.63403  1.0000
  C   C2054     1.0  0.85417  0.21986  0.62642  1.0000
  H   H3624     1.0  0.86227  0.24961  0.58749  1.0000
  H   H3625     1.0  0.87463  0.26759  0.61055  1.0000
  C   C2055     1.0  0.80881  0.16522  0.47385  1.0000
  C   C2056     1.0  0.82359  0.15124  0.47608  1.0000
  C   C2057     1.0  0.83013  0.14628  0.49387  1.0000
  C   C2058     1.0  0.82202  0.15518  0.50966  1.0000
  C   C2059     1.0  0.80714  0.16907  0.50747  1.0000
  C   C2060     1.0  0.80057  0.17403  0.48966  1.0000
  H   H3626     1.0  0.83004  0.14431  0.46408  1.0000
  H   H3627     1.0  0.84160  0.13546  0.49541  1.0000
  H   H3628     1.0  0.80070  0.17600  0.51947  1.0000
  H   H3629     1.0  0.78913  0.18486  0.48809  1.0000
  C   C2061     1.0  0.89768  0.12284  0.59271  1.0000
  C   C2062     1.0  0.91218  0.11008  0.59930  1.0000
  C   C2063     1.0  0.93032  0.10919  0.58975  1.0000
  C   C2064     1.0  0.93414  0.12122  0.57362  1.0000
  C   C2065     1.0  0.91968  0.13406  0.56712  1.0000
  C   C2066     1.0  0.90152  0.13477  0.57652  1.0000
  H   H3630     1.0  0.95197  0.03278  0.52603  1.0000
  C   C2067     1.0  0.74592  0.13175  0.35782  1.0000
  H   H3631     1.0  0.92255  0.14340  0.55467  1.0000
  H   H3632     1.0  0.89051  0.14455  0.57126  1.0000
  C   C2068     1.0  0.82791  0.30864  0.38091  1.0000
  C   C2069     1.0  0.96752  0.30797  0.33269  1.0000
  C   C2070     1.0  0.74993  0.12086  0.37444  1.0000
  C   C2071     1.0  0.94940  0.03239  0.51112  1.0000
  H   H3633     1.0  0.85032  0.12997  0.34199  1.0000
  H   H3634     1.0  0.92728  0.45190  0.43603  1.0000
  H   H3635     1.0  0.90737  0.08437  0.51990  1.0000
  C   C2072     1.0  0.83299  0.08154  0.62336  1.0000
  H   H3636     1.0  0.82878  0.35679  0.40977  1.0000
  H   H3637     1.0  0.95551  0.45614  0.50982  1.0000
  H   H3638     1.0  0.90548  0.45377  0.50304  1.0000
  C   C2073     1.0  0.76406  0.13158  0.62429  1.0000
  C   C2074     1.0  0.75644  0.12711  0.60835  1.0000
  H   H3639     1.0  0.76260  0.13194  0.59461  1.0000
  C   C2075     1.0  0.96790  0.34600  0.59330  1.0000
  H   H3640     1.0  0.89308  0.28211  0.39312  1.0000
  N   N112      1.0  0.94967  0.35943  0.36161  1.0000
  C   C2076     1.0  0.94011  0.34155  0.36615  1.0000
  C   C2077     1.0  0.75873  0.20007  0.43805  1.0000
  C   C2078     1.0  0.95201  0.36852  0.37911  1.0000
  C   C2079     1.0  0.93374  0.37291  0.39194  1.0000
  C   C2080     1.0  0.94817  0.32747  0.38174  1.0000
  C   C2081     1.0  0.86670  0.07098  0.62967  1.0000
  C   C2082     1.0  0.93806  0.37949  0.41044  1.0000
  C   C2083     1.0  0.93770  0.30978  0.38472  1.0000
  H   H3641     1.0  0.94070  0.33385  0.35344  1.0000
  H   H3642     1.0  0.92485  0.34470  0.37009  1.0000
  H   H3643     1.0  0.96240  0.35986  0.38755  1.0000
  H   H3644     1.0  0.95801  0.38221  0.37543  1.0000
  H   H3645     1.0  0.92573  0.36047  0.39542  1.0000
  H   H3646     1.0  0.92457  0.38426  0.38496  1.0000
  H   H3647     1.0  0.96320  0.32313  0.37808  1.0000
  H   H3648     1.0  0.94681  0.33365  0.39535  1.0000
  C   C2084     1.0  0.85199  0.31138  0.40285  1.0000
  C   C2085     1.0  0.90570  0.18307  0.35225  1.0000
  H   H3649     1.0  0.94563  0.39235  0.40796  1.0000
  H   H3650     1.0  0.92472  0.38275  0.41922  1.0000
  H   H3651     1.0  0.94662  0.36828  0.41834  1.0000
  H   H3652     1.0  0.92259  0.31335  0.38893  1.0000
  H   H3653     1.0  0.93910  0.30247  0.37174  1.0000
  H   H3654     1.0  0.94366  0.30002  0.39600  1.0000
  H   H3655     1.0  0.93946  0.11769  0.34366  1.0000
  H   H3656     1.0  0.80806  0.05718  0.62939  1.0000
  H   H3657     1.0  0.95352  0.46937  0.42438  1.0000
  C   C2086     1.0  0.96880  0.33887  0.53315  1.0000
  C   C2087     1.0  0.94829  0.46252  0.47187  1.0000
  H   H3658     1.0  0.87966  0.21406  0.51745  1.0000
  H   H3659     1.0  0.83103  0.28287  0.40059  1.0000
  H   H3660     1.0  0.88074  0.13251  0.35352  1.0000
  H   H3661     1.0  0.95484  0.30347  0.34043  1.0000
  H   H3662     1.0  0.94424  0.37135  0.56257  1.0000
  H   H3663     1.0  0.95602  0.34258  0.56773  1.0000
  H   H3664     1.0  0.87289  0.18378  0.53097  1.0000
  C   C2088     1.0  0.75570  0.12509  0.64201  1.0000
  C   C2089     1.0  0.87074  0.17982  0.51691  1.0000
  C   C2090     1.0  0.88282  0.29057  0.40220  1.0000
  H   H3665     1.0  0.85413  0.33242  0.36921  1.0000
  N   N113      1.0  0.94842  0.47489  0.45368  1.0000
  H   H3666     1.0  0.85193  0.22238  0.53297  1.0000
  H   H3667     1.0  0.94761  0.40423  0.56829  1.0000
  H   H3668     1.0  0.85989  0.19899  0.44647  1.0000
  H   H3669     1.0  0.84171  0.22294  0.32911  1.0000
  N   N114      1.0  0.83598  0.32148  0.39270  1.0000
  H   H3670     1.0  0.95330  0.33545  0.61955  1.0000
  C   C2091     1.0  0.96885  0.35465  0.35177  1.0000
  H   H3671     1.0  0.78740  0.10002  0.62030  1.0000
  H   H3672     1.0  0.86539  0.14179  0.32407  1.0000
  H   H3673     1.0  0.87131  0.08521  0.62542  1.0000
  H   H3674     1.0  0.91287  0.17937  0.33852  1.0000
  C   C2092     1.0  0.92342  0.38152  0.31845  1.0000
  C   C2093     1.0  0.95429  0.37934  0.55304  1.0000
  H   H3675     1.0  0.82916  0.27275  0.36873  1.0000
  H   H3676     1.0  0.83458  0.19106  0.51566  1.0000
  C   C2094     1.0  0.96552  0.35719  0.45784  1.0000
  H   H3677     1.0  0.91065  0.13858  0.33841  1.0000
  C   C2095     1.0  0.97032  0.34210  0.57236  1.0000
  H   H3678     1.0  0.95627  0.31915  0.60199  1.0000
  H   H3679     1.0  0.89270  0.45460  0.43520  1.0000
  H   H3680     1.0  0.93978  0.02142  0.51030  1.0000
  H   H3681     1.0  0.78885  0.08606  0.57186  1.0000
  H   H3682     1.0  0.95507  0.34668  0.53645  1.0000
  H   H3683     1.0  0.95036  0.13572  0.60636  1.0000
  H   H3684     1.0  0.81756  0.22884  0.53162  1.0000
  H   H3685     1.0  0.88389  0.20142  0.33815  1.0000
  H   H3686     1.0  0.90568  0.99084  0.41695  1.0000
  S   S483      1.0  0.98616  0.07232  0.38748  1.0000
  C   C2096     1.0  0.95325  0.33422  0.60435  1.0000
  H   H3687     1.0  0.84464  0.37519  0.36683  1.0000
  H   H3688     1.0  0.91268  0.01753  0.39458  1.0000
  H   H3689     1.0  0.90230  0.21675  0.64155  1.0000
  H   H3690     1.0  0.98220  0.08670  0.51109  1.0000
  H   H3691     1.0  0.96693  0.98769  0.51514  1.0000
  H   H3692     1.0  0.81407  0.35995  0.44160  1.0000
  C   C2097     1.0  0.82079  0.32834  0.40706  1.0000
  H   H3693     1.0  0.92096  0.11284  0.36178  1.0000
  H   H3694     1.0  0.85905  0.25142  0.32717  1.0000
  C   C2098     1.0  0.90695  0.48366  0.50289  1.0000
  H   H3695     1.0  0.95654  0.34534  0.45935  1.0000
  H   H3696     1.0  0.83372  0.07139  0.61259  1.0000
  H   H3697     1.0  0.75878  0.04540  0.35893  1.0000
  H   H3698     1.0  0.87295  0.17117  0.61770  1.0000
  C   C2099     1.0  0.82598  0.34375  0.41877  1.0000
  H   H3699     1.0  0.92356  0.15207  0.62321  1.0000
  N   N115      1.0  0.89446  0.16737  0.36116  1.0000
  C   C2100     1.0  0.88317  0.17268  0.37897  1.0000
  C   C2101     1.0  0.88105  0.16332  0.34756  1.0000
  C   C2102     1.0  0.90777  0.15038  0.36592  1.0000
  C   C2103     1.0  0.89433  0.20233  0.34829  1.0000
  C   C2104     1.0  0.84627  0.07235  0.63806  1.0000
  C   C2105     1.0  0.89428  0.18025  0.39357  1.0000
  S   S484      1.0  0.96217  0.29680  0.64205  1.0000
  H   H3700     1.0  0.95351  0.37626  0.53842  1.0000
  C   C2106     1.0  0.88154  0.18494  0.41107  1.0000
  S   S485      1.0  0.97443  0.01989  0.38550  1.0000
  H   H3701     1.0  0.87647  0.16032  0.38619  1.0000
  H   H3702     1.0  0.87119  0.18323  0.37582  1.0000
  H   H3703     1.0  0.78657  0.10713  0.44526  1.0000
  H   H3704     1.0  0.81589  0.08338  0.59000  1.0000
  H   H3705     1.0  0.90005  0.13916  0.37410  1.0000
  H   H3706     1.0  0.91808  0.15376  0.37528  1.0000
  N   N116      1.0  0.74233  0.14968  0.44032  1.0000
  H   H3707     1.0  0.78517  0.10460  0.47044  1.0000
  H   H3708     1.0  0.90561  0.16972  0.39817  1.0000
  H   H3709     1.0  0.90065  0.19326  0.38777  1.0000
  C   C2107     1.0  0.91957  0.14176  0.34915  1.0000
  H   H3710     1.0  0.95695  0.40891  0.54408  1.0000
  H   H3711     1.0  0.87589  0.06390  0.64024  1.0000
  H   H3712     1.0  0.79099  0.10851  0.58013  1.0000
  H   H3713     1.0  0.88973  0.19097  0.42089  1.0000
  H   H3714     1.0  0.86974  0.19537  0.40736  1.0000
  H   H3715     1.0  0.87585  0.17208  0.41833  1.0000
  C   C2108     1.0  0.98397  0.30820  0.34176  1.0000
  C   C2109     1.0  0.76551  0.05068  0.34514  1.0000
  C   C2110     1.0  0.82069  0.29050  0.39152  1.0000
  H   H3716     1.0  0.83863  0.33894  0.42618  1.0000
  C   C2111     1.0  0.82852  0.35072  0.36954  1.0000
  H   H3717     1.0  0.94002  0.12578  0.36647  1.0000
  H   H3718     1.0  0.89302  0.15478  0.62089  1.0000
  H   H3719     1.0  0.89634  0.21959  0.60882  1.0000
  S   S486      1.0  0.98174  0.03048  0.57982  1.0000
  C   C2112     1.0  0.86674  0.29927  0.39091  1.0000
  C   C2113     1.0  0.87077  0.14530  0.35273  1.0000
  H   H3720     1.0  0.78026  0.04013  0.64580  1.0000
  H   H3721     1.0  0.90131  0.17909  0.51001  1.0000
  H   H3722     1.0  0.84776  0.36166  0.34666  1.0000
  H   H3723     1.0  0.76159  0.16518  0.45272  1.0000
  H   H3724     1.0  0.96781  0.34614  0.33992  1.0000
  H   H3725     1.0  0.90857  0.14509  0.51603  1.0000
  H   H3726     1.0  0.76383  0.12966  0.42893  1.0000
  H   H3727     1.0  0.92913  0.35341  0.33072  1.0000
  H   H3728     1.0  0.88676  0.20733  0.36126  1.0000
  H   H3729     1.0  0.85801  0.17490  0.48712  1.0000
  H   H3730     1.0  0.91178  0.09530  0.45454  1.0000
  H   H3731     1.0  0.87435  0.19069  0.47669  1.0000
  H   H3732     1.0  0.96676  0.36148  0.47198  1.0000
  C   C2114     1.0  0.92452  0.00893  0.40092  1.0000
  H   H3733     1.0  0.92632  0.20791  0.63682  1.0000
  C   C2115     1.0  0.84335  0.33765  0.38005  1.0000
  C   C2116     1.0  0.96738  0.39703  0.48540  1.0000
  H   H3734     1.0  0.97784  0.34553  0.36132  1.0000
  C   C2117     1.0  0.78601  0.04254  0.34396  1.0000
  H   H3735     1.0  0.98417  0.45858  0.40590  1.0000
  H   H3736     1.0  0.84840  0.20666  0.63097  1.0000
  Fe  Fe243     1.0  0.98084  0.04366  0.40163  1.0000
  C   C2118     1.0  0.96718  0.45821  0.48061  1.0000
  H   H3737     1.0  0.75433  0.14318  0.35274  1.0000
  C   C2119     1.0  0.91467  0.21715  0.63100  1.0000
  H   H3738     1.0  0.76739  0.09592  0.45850  1.0000
  H   H3739     1.0  0.86055  0.16904  0.51937  1.0000
  H   H3740     1.0  0.74514  0.15320  0.47914  1.0000
  C   C2120     1.0  0.74067  0.11652  0.61014  1.0000
  C   C2121     1.0  0.88329  0.24520  0.49466  1.0000
  H   H3741     1.0  0.97831  0.44354  0.50555  1.0000
  C   C2122     1.0  0.78301  0.07020  0.64402  1.0000
  H   H3742     1.0  0.98326  0.37945  0.35568  1.0000
  C   C2123     1.0  0.81630  0.27702  0.37779  1.0000
  H   H3743     1.0  0.97617  0.32720  0.57181  1.0000
  H   H3744     1.0  0.89591  0.17822  0.55793  1.0000
  Fe  Fe244     1.0  0.98693  0.05473  0.43970  1.0000
  H   H3745     1.0  0.97134  0.35198  0.50459  1.0000
  H   H3746     1.0  0.83631  0.21415  0.50525  1.0000
  H   H3747     1.0  0.80781  0.10911  0.60963  1.0000
  H   H3748     1.0  0.87012  0.22881  0.47753  1.0000
  H   H3749     1.0  0.91743  0.21940  0.34995  1.0000
  H   H3750     1.0  0.97502  0.37938  0.64171  1.0000
  H   H3751     1.0  0.95849  0.44962  0.44034  1.0000
  H   H3752     1.0  0.80702  0.33646  0.44345  1.0000
  C   C2124     1.0  0.78788  0.09380  0.58455  1.0000
  S   S487      1.0  0.98746  0.04135  0.46915  1.0000
  C   C2125     1.0  0.89970  0.46757  0.49793  1.0000
  H   H3753     1.0  0.94343  0.44865  0.47005  1.0000
  H   H3754     1.0  0.91489  0.45305  0.45883  1.0000
  H   H3755     1.0  0.91724  0.18500  0.36088  1.0000
  H   H3756     1.0  0.80776  0.33365  0.40036  1.0000
  H   H3757     1.0  0.92321  0.37508  0.35620  1.0000
  C   C2126     1.0  0.87517  0.15947  0.64594  1.0000
  H   H3758     1.0  0.98129  0.34217  0.59979  1.0000
  C   C2127     1.0  0.97138  0.33767  0.51199  1.0000
  H   H3759     1.0  0.96794  0.99598  0.57362  1.0000
  C   C2128     1.0  0.88984  0.17000  0.50934  1.0000
  H   H3760     1.0  0.89781  0.24055  0.48911  1.0000
  H   H3761     1.0  0.76533  0.06606  0.34510  1.0000
  H   H3762     1.0  0.98510  0.12731  0.49378  1.0000
  N   N117      1.0  0.98253  0.35467  0.55940  1.0000
  H   H3763     1.0  0.97923  0.00086  0.47122  1.0000
  C   C2129     1.0  0.97558  0.10092  0.50713  1.0000
  H   H3764     1.0  0.83903  0.09421  0.61585  1.0000
  C   C2130     1.0  0.84686  0.19426  0.45433  1.0000
  H   H3765     1.0  0.88325  0.24790  0.50958  1.0000
  H   H3766     1.0  0.96720  0.09505  0.48088  1.0000
  C   C2131     1.0  0.82337  0.21688  0.54094  1.0000
  Fe  Fe245     1.0  0.89195  0.28734  0.64958  1.0000
  H   H3767     1.0  0.89716  0.08710  0.55277  1.0000
  H   H3768     1.0  0.95781  0.43429  0.49902  1.0000
  H   H3769     1.0  0.89081  0.47691  0.44473  1.0000
  C   C2132     1.0  0.80183  0.08432  0.59797  1.0000
  C   C2133     1.0  0.89716  0.19337  0.55868  1.0000
  H   H3770     1.0  0.86025  0.28749  0.38616  1.0000
  C   C2134     1.0  0.93067  0.12342  0.35571  1.0000
  H   H3771     1.0  0.90905  0.38335  0.32569  1.0000
  H   H3772     1.0  0.94912  0.36021  0.64064  1.0000
  C   C2135     1.0  0.95985  0.09988  0.49413  1.0000
  N   N118      1.0  0.94456  0.08735  0.50159  1.0000
  H   H3773     1.0  0.92837  0.01608  0.41277  1.0000
  C   C2136     1.0  0.86087  0.18998  0.48571  1.0000
  H   H3774     1.0  0.95366  0.11449  0.49057  1.0000
  H   H3775     1.0  0.90938  0.10078  0.61181  1.0000
  H   H3776     1.0  0.95905  0.06513  0.51870  1.0000
  H   H3777     1.0  0.96329  0.36096  0.59499  1.0000
  H   H3778     1.0  0.77279  0.19838  0.43014  1.0000
  H   H3779     1.0  0.93901  0.33926  0.60031  1.0000
  H   H3780     1.0  0.79782  0.06994  0.60225  1.0000
  H   H3781     1.0  0.81415  0.20525  0.54189  1.0000
  H   H3782     1.0  0.94589  0.09286  0.53049  1.0000
  C   C2137     1.0  0.88463  0.46937  0.48686  1.0000
  H   H3783     1.0  0.80759  0.29402  0.40050  1.0000
  H   H3784     1.0  0.86237  0.14592  0.36646  1.0000
  H   H3785     1.0  0.83465  0.20075  0.44693  1.0000
  H   H3786     1.0  0.81111  0.26417  0.38562  1.0000
  H   H3787     1.0  0.92319  0.06984  0.53463  1.0000
  C   C2138     1.0  0.91845  0.46132  0.44530  1.0000
  H   H3788     1.0  0.77525  0.13702  0.45971  1.0000
  H   H3789     1.0  0.97006  0.10766  0.52000  1.0000
  H   H3790     1.0  0.96561  0.06488  0.49452  1.0000
  C   C2139     1.0  0.90837  0.19612  0.57497  1.0000
  C   C2140     1.0  0.81164  0.09957  0.64599  1.0000
  C   C2141     1.0  0.90720  0.21731  0.33996  1.0000
  C   C2142     1.0  0.95325  0.06740  0.50479  1.0000
  H   H3791     1.0  0.85567  0.23602  0.49808  1.0000
  H   H3792     1.0  0.95536  0.15666  0.59169  1.0000
  C   C2143     1.0  0.93796  0.08605  0.46704  1.0000
  H   H3793     1.0  0.87870  0.25858  0.48661  1.0000
  H   H3794     1.0  0.89020  0.30158  0.40734  1.0000
  H   H3795     1.0  0.93117  0.10969  0.51761  1.0000
  H   H3796     1.0  0.92251  0.18863  0.57241  1.0000
  H   H3797     1.0  0.84261  0.05791  0.64285  1.0000
  H   H3798     1.0  0.96802  0.32440  0.54006  1.0000
  H   H3799     1.0  0.84708  0.17879  0.45442  1.0000
  H   H3800     1.0  0.97696  0.44921  0.47174  1.0000
  H   H3801     1.0  0.88988  0.20654  0.49586  1.0000
  C   C2144     1.0  0.84372  0.20284  0.51407  1.0000
  H   H3802     1.0  0.93391  0.23804  0.61978  1.0000
  H   H3803     1.0  0.90518  0.10909  0.54251  1.0000
  H   H3804     1.0  0.94482  0.09847  0.46018  1.0000
  H   H3805     1.0  0.88395  0.14152  0.52003  1.0000
  C   C2145     1.0  0.92046  0.23721  0.62874  1.0000
  H   H3806     1.0  0.74432  0.15234  0.40993  1.0000
  C   C2146     1.0  0.87622  0.21144  0.50327  1.0000
  H   H3807     1.0  0.91884  0.08028  0.49165  1.0000
  C   C2147     1.0  0.89453  0.15153  0.52110  1.0000
  H   H3808     1.0  0.86684  0.14768  0.64414  1.0000
  C   C2148     1.0  0.96448  0.44741  0.49993  1.0000
  H   H3809     1.0  0.97540  0.38083  0.57210  1.0000
  H   H3810     1.0  0.78696  0.02699  0.34460  1.0000
  C   C2149     1.0  0.94061  0.05139  0.50318  1.0000
  H   H3811     1.0  0.93872  0.05022  0.48827  1.0000
  H   H3812     1.0  0.88976  0.16667  0.49466  1.0000
  H   H3813     1.0  0.79685  0.10560  0.64888  1.0000
  C   C2150     1.0  0.74655  0.18513  0.43365  1.0000
  H   H3814     1.0  0.93434  0.18267  0.62316  1.0000
  H   H3815     1.0  0.82338  0.22158  0.55516  1.0000
  H   H3816     1.0  0.92648  0.05377  0.51054  1.0000
  H   H3817     1.0  0.92233  0.24173  0.64267  1.0000
  H   H3818     1.0  0.92296  0.10405  0.48688  1.0000
  H   H3819     1.0  0.89640  0.17362  0.59244  1.0000
  H   H3820     1.0  0.84482  0.21554  0.47343  1.0000
  C   C2151     1.0  0.90968  0.09411  0.54647  1.0000
  H   H3821     1.0  0.91835  0.48209  0.51180  1.0000
  C   C2152     1.0  0.95959  0.46498  0.43796  1.0000
  H   H3822     1.0  0.92130  0.15515  0.59832  1.0000
  C   C2153     1.0  0.92903  0.15905  0.60961  1.0000
  C   C2154     1.0  0.91854  0.08442  0.52940  1.0000
  H   H3823     1.0  0.77332  0.09374  0.59135  1.0000
  H   H3824     1.0  0.79707  0.35434  0.42677  1.0000
  C   C2155     1.0  0.92224  0.08285  0.45525  1.0000
  N   N119      1.0  0.86276  0.19648  0.50477  1.0000
  H   H3825     1.0  0.94857  0.07374  0.46666  1.0000
  H   H3826     1.0  0.91985  0.09312  0.55720  1.0000
  H   H3827     1.0  0.94295  0.38706  0.34759  1.0000
  C   C2156     1.0  0.93773  0.37289  0.34932  1.0000
  H   H3828     1.0  0.88289  0.20086  0.56045  1.0000
  H   H3829     1.0  0.88393  0.19577  0.59513  1.0000
  C   C2157     1.0  0.89839  0.18849  0.59387  1.0000
  H   H3830     1.0  0.91515  0.07025  0.46114  1.0000
  H   H3831     1.0  0.95817  0.15505  0.61656  1.0000
  C   C2158     1.0  0.94950  0.15126  0.60584  1.0000
  C   C2159     1.0  0.86990  0.23044  0.49269  1.0000
  N   N120      1.0  0.90789  0.19049  0.61124  1.0000
  C   C2160     1.0  0.92743  0.18053  0.61056  1.0000
  H   H3832     1.0  0.75469  0.02931  0.33173  1.0000
  C   C2161     1.0  0.84498  0.20010  0.47430  1.0000
  H   H3833     1.0  0.88832  0.16255  0.33324  1.0000
  H   H3834     1.0  0.94134  0.09922  0.59488  1.0000
  H   H3835     1.0  0.93782  0.46859  0.48251  1.0000
  H   H3836     1.0  0.79370  0.04813  0.33075  1.0000
  H   H3837     1.0  0.83828  0.30479  0.36902  1.0000
  H   H3838     1.0  0.93664  0.00810  0.39010  1.0000
  C   C2162     1.0  0.76528  0.12636  0.45895  1.0000
  H   H3839     1.0  0.77551  0.07292  0.63114  1.0000
  H   H3840     1.0  0.92981  0.15151  0.34244  1.0000
  H   H3841     1.0  0.81565  0.31600  0.37416  1.0000
  H   H3842     1.0  0.85095  0.34649  0.38798  1.0000
  C   C2163     1.0  0.84339  0.21029  0.53360  1.0000
  C   C2164     1.0  0.82382  0.11644  0.64191  1.0000
  H   H3843     1.0  0.82092  0.12459  0.62851  1.0000
  H   H3844     1.0  0.91485  0.21331  0.32657  1.0000
  S   S488      1.0  0.98737  0.07488  0.55041  1.0000
  H   H3845     1.0  0.83114  0.19627  0.48104  1.0000
  H   H3846     1.0  0.95953  0.33086  0.50761  1.0000
  H   H3847     1.0  0.87744  0.28118  0.41431  1.0000
  H   H3848     1.0  0.82198  0.34300  0.35972  1.0000
  H   H3849     1.0  0.84867  0.19923  0.54407  1.0000
  C   C2165     1.0  0.98481  0.35119  0.44843  1.0000
  H   H3850     1.0  0.95858  0.36912  0.44933  1.0000
  C   C2166     1.0  0.81000  0.34887  0.43352  1.0000
  H   H3851     1.0  0.86986  0.17513  0.34610  1.0000
  C   C2167     1.0  0.98850  0.22486  0.33183  1.0000
  H   H3852     1.0  0.80537  0.28369  0.36879  1.0000
  H   H3853     1.0  0.90950  0.24709  0.62235  1.0000
  H   H3854     1.0  0.81663  0.31645  0.41723  1.0000
  H   H3855     1.0  0.74530  0.18693  0.41831  1.0000
  H   H3856     1.0  0.85973  0.32161  0.40889  1.0000
  H   H3857     1.0  0.97368  0.47116  0.48240  1.0000
  C   C2168     1.0  0.80210  0.09573  0.61509  1.0000
  C   C2169     1.0  0.85749  0.14296  0.33803  1.0000
  H   H3858     1.0  0.93319  0.40278  0.54952  1.0000
  H   H3859     1.0  0.89867  0.23086  0.33708  1.0000
  H   H3860     1.0  0.75202  0.21424  0.43386  1.0000
  C   C2170     1.0  0.86114  0.23018  0.63953  1.0000
  H   H3861     1.0  0.75572  0.12535  0.47199  1.0000
  C   C2171     1.0  0.94771  0.40013  0.55383  1.0000
  H   H3862     1.0  0.87275  0.30760  0.37836  1.0000
  S   S489      1.0  0.98778  0.08224  0.59437  1.0000
  H   H3863     1.0  0.91927  0.48539  0.46015  1.0000
  H   H3864     1.0  0.90316  0.47412  0.42190  1.0000
  C   C2172     1.0  0.75520  0.04479  0.32899  1.0000
  H   H3865     1.0  0.82646  0.37650  0.35112  1.0000
  H   H3866     1.0  0.79287  0.04658  0.35591  1.0000
  H   H3867     1.0  0.76046  0.19902  0.45327  1.0000
  C   C2173     1.0  0.92836  0.47875  0.44875  1.0000
  H   H3868     1.0  0.86846  0.06278  0.61724  1.0000
  H   H3869     1.0  0.98422  0.00574  0.63055  1.0000
  H   H3870     1.0  0.88514  0.19482  0.63292  1.0000
  H   H3871     1.0  0.74471  0.11925  0.44219  1.0000
  N   N121      1.0  0.81290  0.08629  0.63085  1.0000
  H   H3872     1.0  0.98377  0.30402  0.35660  1.0000
  C   C2174     1.0  0.74007  0.11433  0.64377  1.0000
  C   C2175     1.0  0.74852  0.08716  0.31839  1.0000
  C   C2176     1.0  0.97464  0.37497  0.55852  1.0000
  C   C2177     1.0  0.75383  0.13091  0.44174  1.0000
  H   H3873     1.0  0.74138  0.09745  0.39336  1.0000
  C   C2178     1.0  0.97802  0.36399  0.64451  1.0000
  H   H3874     1.0  0.87873  0.47490  0.54347  1.0000
  H   H3875     1.0  0.84664  0.15508  0.33714  1.0000
  C   C2179     1.0  0.98206  0.99265  0.57768  1.0000
  C   C2180     1.0  0.98536  0.34784  0.54001  1.0000
  C   C2181     1.0  0.97994  0.39312  0.49914  1.0000
  H   H3876     1.0  0.97552  0.38572  0.51235  1.0000
  C   C2182     1.0  0.77677  0.10734  0.45818  1.0000
  H   H3877     1.0  0.97138  0.99412  0.53765  1.0000
  H   H3878     1.0  0.76764  0.16211  0.42904  1.0000
  C   C2183     1.0  0.93574  0.36681  0.32960  1.0000
  C   C2184     1.0  0.75534  0.16502  0.43932  1.0000
  H   H3879     1.0  0.98253  0.34607  0.43491  1.0000
  H   H3880     1.0  0.98341  0.38363  0.54809  1.0000
  H   H3881     1.0  0.74400  0.19331  0.64229  1.0000
  H   H3882     1.0  0.98830  0.46525  0.44674  1.0000
  C   C2185     1.0  0.98012  0.37154  0.34412  1.0000
  H   H3883     1.0  0.98337  0.35809  0.63116  1.0000
  H   H3884     1.0  0.97355  0.22927  0.32968  1.0000
  C   C2186     1.0  0.98129  0.99624  0.39291  1.0000
  H   H3885     1.0  0.98476  0.32937  0.50789  1.0000
  C   C2187     1.0  0.98076  0.46803  0.43397  1.0000
  Fe  Fe246     1.0  0.93049  0.30337  0.64932  1.0000
  C   C2188     1.0  0.80460  0.06846  0.63901  1.0000
  H   H3886     1.0  0.94953  0.36495  0.32130  1.0000
  C   C2189     1.0  0.91883  0.98929  0.40754  1.0000
  H   H3887     1.0  0.84538  0.08035  0.65052  1.0000
  Fe  Fe247     1.0  0.79940  0.37209  0.83739  1.0000
  S   S490      1.0  0.82605  0.35260  0.83367  1.0000
  S   S491      1.0  0.77145  0.36917  0.85583  1.0000
  Fe  Fe248     1.0  0.81873  0.40583  0.81621  1.0000
  S   S492      1.0  0.84619  0.38865  0.81078  1.0000
  S   S493      1.0  0.81208  0.43635  0.80487  1.0000
  Fe  Fe249     1.0  0.82940  0.36591  0.80356  1.0000
  S   S494      1.0  0.83311  0.35038  0.77632  1.0000
  Fe  Fe250     1.0  0.84105  0.37680  0.84097  1.0000
  S   S495      1.0  0.86488  0.37841  0.85940  1.0000
  S   S496      1.0  0.80187  0.38412  0.80726  1.0000
  S   S497      1.0  0.81455  0.39519  0.84643  1.0000
  Fe  Fe251     1.0  0.88039  0.38724  0.96703  1.0000
  S   S498      1.0  0.86131  0.37528  0.94854  1.0000
  S   S499      1.0  0.89897  0.41046  0.95863  1.0000
  Fe  Fe252     1.0  0.89641  0.31853  0.67558  1.0000
  S   S500      1.0  0.91128  0.28960  0.67210  1.0000
  S   S501      1.0  0.89094  0.33030  0.70484  1.0000
  H   H3888     1.0  0.76151  0.12825  0.65448  1.0000
  H   H3889     1.0  0.79556  0.39762  0.73396  1.0000
  H   H3890     1.0  0.80357  0.47431  0.87352  1.0000
  N   N122      1.0  0.85109  0.27532  0.71249  1.0000
  H   H3891     1.0  0.79383  0.46509  0.74894  1.0000
  H   H3892     1.0  0.86504  0.48207  0.90755  1.0000
  H   H3893     1.0  0.83797  0.30037  0.65953  1.0000
  H   H3894     1.0  0.75172  0.43610  0.82881  1.0000
  H   H3895     1.0  0.97478  0.47447  0.98157  1.0000
  H   H3896     1.0  0.78287  0.04905  0.66796  1.0000
  C   C2190     1.0  0.87101  0.28072  0.71002  1.0000
  H   H3897     1.0  0.96452  0.30728  0.68011  1.0000
  H   H3898     1.0  0.85158  0.27621  0.68223  1.0000
  C   C2191     1.0  0.81029  0.43912  0.74259  1.0000
  H   H3899     1.0  0.83537  0.25106  0.71810  1.0000
  H   H3900     1.0  0.85150  0.46934  0.84070  1.0000
  S   S502      1.0  0.87744  0.25978  0.65130  1.0000
  C   C2192     1.0  0.84952  0.34564  0.75640  1.0000
  C   C2193     1.0  0.84281  0.33995  0.74031  1.0000
  C   C2194     1.0  0.85510  0.33573  0.72434  1.0000
  C   C2195     1.0  0.87449  0.33660  0.72426  1.0000
  C   C2196     1.0  0.88117  0.34252  0.74026  1.0000
  C   C2197     1.0  0.86884  0.34708  0.75613  1.0000
  H   H3901     1.0  0.82793  0.33886  0.74019  1.0000
  H   H3902     1.0  0.84956  0.33174  0.71210  1.0000
  H   H3903     1.0  0.89608  0.34337  0.74048  1.0000
  H   H3904     1.0  0.87436  0.35127  0.76833  1.0000
  C   C2198     1.0  0.81242  0.47434  0.80694  1.0000
  C   C2199     1.0  0.82041  0.45631  0.81284  1.0000
  C   C2200     1.0  0.83457  0.45464  0.82500  1.0000
  C   C2201     1.0  0.74261  0.33474  0.93566  1.0000
  H   H3905     1.0  0.84096  0.44089  0.82955  1.0000
  C   C2202     1.0  0.86242  0.37912  0.88413  1.0000
  C   C2203     1.0  0.87558  0.38791  0.89260  1.0000
  C   C2204     1.0  0.87492  0.38759  0.91228  1.0000
  C   C2205     1.0  0.86153  0.37786  0.92371  1.0000
  C   C2206     1.0  0.84817  0.36938  0.91523  1.0000
  C   C2207     1.0  0.84846  0.37018  0.89556  1.0000
  H   H3906     1.0  0.88632  0.39501  0.88387  1.0000
  H   H3907     1.0  0.88482  0.39472  0.91862  1.0000
  H   H3908     1.0  0.83768  0.36189  0.92393  1.0000
  H   H3909     1.0  0.83830  0.36328  0.88926  1.0000
  H   H3910     1.0  0.95336  0.36120  0.66466  1.0000
  H   H3911     1.0  0.82883  0.27492  0.69439  1.0000
  C   C2208     1.0  0.75308  0.35383  0.85780  1.0000
  C   C2209     1.0  0.75418  0.33796  0.84785  1.0000
  H   H3912     1.0  0.96745  0.35817  0.86990  1.0000
  H   H3913     1.0  0.85282  0.41082  0.77128  1.0000
  H   H3914     1.0  0.76646  0.33476  0.83835  1.0000
  H   H3915     1.0  0.88001  0.46080  0.94136  1.0000
  C   C2210     1.0  0.80445  0.43729  0.86778  1.0000
  H   H3916     1.0  0.84908  0.42928  0.88436  1.0000
  C   C2211     1.0  0.77461  0.45008  0.88454  1.0000
  H   H3917     1.0  0.81881  0.44794  0.88999  1.0000
  H   H3918     1.0  0.84107  0.41977  0.86474  1.0000
  Fe  Fe253     1.0  0.91944  0.39480  0.97779  1.0000
  C   C2212     1.0  0.96200  0.34047  0.96430  1.0000
  C   C2213     1.0  0.82919  0.41073  0.72018  1.0000
  H   H3919     1.0  0.90569  0.29226  0.71575  1.0000
  H   H3920     1.0  0.83839  0.43357  0.75000  1.0000
  H   H3921     1.0  0.82703  0.32219  0.66738  1.0000
  H   H3922     1.0  0.74692  0.30151  0.92365  1.0000
  H   H3923     1.0  0.83787  0.42215  0.71381  1.0000
  H   H3924     1.0  0.91479  0.44482  0.98360  1.0000
  H   H3925     1.0  0.77357  0.35514  0.92431  1.0000
  H   H3926     1.0  0.85224  0.38594  0.77055  1.0000
  H   H3927     1.0  0.88566  0.40885  0.75697  1.0000
  H   H3928     1.0  0.81457  0.41592  0.71757  1.0000
  C   C2214     1.0  0.82898  0.30680  0.67109  1.0000
  H   H3929     1.0  0.87117  0.29616  0.70705  1.0000
  N   N123      1.0  0.78777  0.45192  0.86694  1.0000
  C   C2215     1.0  0.73933  0.32619  0.85016  1.0000
  H   H3930     1.0  0.80335  0.47214  0.84942  1.0000
  C   C2216     1.0  0.80392  0.45445  0.75568  1.0000
  H   H3931     1.0  0.96907  0.32670  0.96926  1.0000
  H   H3932     1.0  0.84957  0.38883  0.70840  1.0000
  H   H3933     1.0  0.88301  0.39298  0.77788  1.0000
  H   H3934     1.0  0.77463  0.37817  0.75503  1.0000
  H   H3935     1.0  0.83066  0.28187  0.77685  1.0000
  H   H3936     1.0  0.94418  0.32778  0.94805  1.0000
  H   H3937     1.0  0.78001  0.41724  0.85569  1.0000
  H   H3938     1.0  0.82611  0.37813  0.74497  1.0000
  H   H3939     1.0  0.78825  0.46840  0.90099  1.0000
  H   H3940     1.0  0.82204  0.42173  0.76576  1.0000
  C   C2217     1.0  0.90360  0.27765  0.72152  1.0000
  C   C2218     1.0  0.89262  0.47735  0.91717  1.0000
  H   H3941     1.0  0.86080  0.41205  0.73474  1.0000
  S   S503      1.0  0.91704  0.33229  0.65392  1.0000
  H   H3942     1.0  0.94979  0.35097  0.85677  1.0000
  H   H3943     1.0  0.86558  0.17077  0.65215  1.0000
  H   H3944     1.0  0.90056  0.47438  0.90363  1.0000
  N   N124      1.0  0.93368  0.35816  0.92134  1.0000
  C   C2219     1.0  0.92381  0.37745  0.91734  1.0000
  C   C2220     1.0  0.91914  0.34412  0.92404  1.0000
  C   C2221     1.0  0.94383  0.35810  0.93864  1.0000
  C   C2222     1.0  0.94777  0.35304  0.90529  1.0000
  C   C2223     1.0  0.94020  0.35519  0.88568  1.0000
  C   C2224     1.0  0.93659  0.39370  0.91209  1.0000
  C   C2225     1.0  0.95386  0.33901  0.94575  1.0000
  C   C2226     1.0  0.90576  0.34467  0.94229  1.0000
  H   H3945     1.0  0.77220  0.45852  0.93170  1.0000
  C   C2227     1.0  0.95557  0.34928  0.87063  1.0000
  C   C2228     1.0  0.92497  0.41198  0.90635  1.0000
  H   H3946     1.0  0.86070  0.22471  0.65409  1.0000
  H   H3947     1.0  0.91446  0.38151  0.92980  1.0000
  H   H3948     1.0  0.91434  0.37744  0.90606  1.0000
  H   H3949     1.0  0.91006  0.34625  0.91222  1.0000
  H   H3950     1.0  0.92588  0.32954  0.92359  1.0000
  H   H3951     1.0  0.93407  0.36345  0.95032  1.0000
  H   H3952     1.0  0.95491  0.36803  0.93614  1.0000
  H   H3953     1.0  0.96017  0.36130  0.90457  1.0000
  H   H3954     1.0  0.95355  0.33815  0.90771  1.0000
  H   H3955     1.0  0.93506  0.36994  0.88161  1.0000
  H   H3956     1.0  0.92850  0.34630  0.88546  1.0000
  H   H3957     1.0  0.94404  0.39617  0.92425  1.0000
  H   H3958     1.0  0.94716  0.39078  0.90023  1.0000
  H   H3959     1.0  0.97473  0.46175  0.96200  1.0000
  H   H3960     1.0  0.88183  0.26065  0.73270  1.0000
  H   H3961     1.0  0.91343  0.34003  0.95478  1.0000
  H   H3962     1.0  0.89908  0.35899  0.94392  1.0000
  H   H3963     1.0  0.88135  0.33646  0.93052  1.0000
  H   H3964     1.0  0.82316  0.12226  0.67113  1.0000
  H   H3965     1.0  0.79584  0.36442  0.74723  1.0000
  C   C2229     1.0  0.84055  0.47082  0.83127  1.0000
  C   C2230     1.0  0.77720  0.44838  0.85070  1.0000
  H   H3966     1.0  0.80016  0.42399  0.87557  1.0000
  H   H3967     1.0  0.91434  0.41586  0.91791  1.0000
  H   H3968     1.0  0.93432  0.42348  0.90305  1.0000
  H   H3969     1.0  0.91772  0.41051  0.89374  1.0000
  C   C2231     1.0  0.83440  0.39358  0.70855  1.0000
  C   C2232     1.0  0.83967  0.28532  0.72796  1.0000
  C   C2233     1.0  0.79439  0.47133  0.86293  1.0000
  C   C2234     1.0  0.85957  0.22139  0.70669  1.0000
  H   H3970     1.0  0.79275  0.37184  0.77063  1.0000
  C   C2235     1.0  0.89011  0.33179  0.94228  1.0000
  H   H3971     1.0  0.83094  0.26358  0.74975  1.0000
  C   C2236     1.0  0.83029  0.39852  0.68816  1.0000
  H   H3972     1.0  0.82621  0.38165  0.71418  1.0000
  C   C2237     1.0  0.97017  0.38908  0.97895  1.0000
  H   H3973     1.0  0.85643  0.38791  0.73698  1.0000
  H   H3974     1.0  0.90946  0.26785  0.71101  1.0000
  C   C2238     1.0  0.88280  0.27539  0.72692  1.0000
  H   H3975     1.0  0.87875  0.27497  0.69740  1.0000
  H   H3976     1.0  0.85408  0.24545  0.68751  1.0000
  H   H3977     1.0  0.85120  0.30994  0.68798  1.0000
  C   C2239     1.0  0.74858  0.34447  0.91605  1.0000
  H   H3978     1.0  0.84415  0.29967  0.72803  1.0000
  C   C2240     1.0  0.79896  0.39411  0.74862  1.0000
  H   H3979     1.0  0.80509  0.13568  0.65830  1.0000
  H   H3980     1.0  0.82455  0.28732  0.72530  1.0000
  H   H3981     1.0  0.83047  0.41396  0.88819  1.0000
  N   N125      1.0  0.83146  0.40734  0.74090  1.0000
  C   C2241     1.0  0.82036  0.39172  0.75022  1.0000
  H   H3982     1.0  0.87800  0.28489  0.73803  1.0000
  H   H3983     1.0  0.85382  0.27033  0.75202  1.0000
  H   H3984     1.0  0.97248  0.35102  0.96253  1.0000
  C   C2242     1.0  0.78210  0.45475  0.90275  1.0000
  C   C2243     1.0  0.88815  0.45857  0.92771  1.0000
  S   S504      1.0  0.95021  0.39346  0.96598  1.0000
  C   C2244     1.0  0.83964  0.27567  0.74823  1.0000
  H   H3985     1.0  0.86683  0.21319  0.69538  1.0000
  H   H3986     1.0  0.81675  0.29485  0.75960  1.0000
  C   C2245     1.0  0.83813  0.30280  0.68951  1.0000
  H   H3987     1.0  0.75718  0.42811  0.86252  1.0000
  C   C2246     1.0  0.79005  0.37602  0.75582  1.0000
  C   C2247     1.0  0.85202  0.40155  0.74288  1.0000
  H   H3988     1.0  0.76479  0.45871  0.84922  1.0000
  H   H3989     1.0  0.90141  0.44989  0.93051  1.0000
  H   H3990     1.0  0.75990  0.44217  0.92129  1.0000
  H   H3991     1.0  0.82198  0.38985  0.76550  1.0000
  H   H3992     1.0  0.87566  0.24481  0.69843  1.0000
  H   H3993     1.0  0.79676  0.44834  0.76894  1.0000
  H   H3994     1.0  0.80971  0.43367  0.85338  1.0000
  C   C2248     1.0  0.89318  0.46757  0.98038  1.0000
  H   H3995     1.0  0.75276  0.37166  0.92509  1.0000
  H   H3996     1.0  0.84472  0.21801  0.70895  1.0000
  H   H3997     1.0  0.81559  0.44609  0.72888  1.0000
  H   H3998     1.0  0.95069  0.34465  0.97519  1.0000
  C   C2249     1.0  0.76281  0.42513  0.83318  1.0000
  C   C2250     1.0  0.85791  0.39872  0.76316  1.0000
  C   C2251     1.0  0.85030  0.25436  0.71623  1.0000
  H   H3999     1.0  0.87996  0.45075  0.91933  1.0000
  C   C2252     1.0  0.87926  0.39597  0.76323  1.0000
  H   H4000     1.0  0.81606  0.46156  0.75896  1.0000
  H   H4001     1.0  0.82913  0.45321  0.86670  1.0000
  H   H4002     1.0  0.97145  0.43359  0.97974  1.0000
  H   H4003     1.0  0.81504  0.30116  0.67245  1.0000
  H   H4004     1.0  0.79231  0.40525  0.75736  1.0000
  H   H4005     1.0  0.83846  0.41019  0.68164  1.0000
  H   H4006     1.0  0.75694  0.33423  0.90722  1.0000
  H   H4007     1.0  0.77476  0.42480  0.82214  1.0000
  H   H4008     1.0  0.76518  0.36656  0.90292  1.0000
  C   C2253     1.0  0.82215  0.44237  0.87620  1.0000
  H   H4009     1.0  0.88087  0.33240  0.95558  1.0000
  H   H4010     1.0  0.80149  0.47579  0.79749  1.0000
  H   H4011     1.0  0.84002  0.30117  0.76224  1.0000
  H   H4012     1.0  0.85609  0.24890  0.72958  1.0000
  H   H4013     1.0  0.96082  0.33432  0.87361  1.0000
  H   H4014     1.0  0.75539  0.32649  0.94070  1.0000
  C   C2254     1.0  0.83123  0.28925  0.76254  1.0000
  H   H4015     1.0  0.78629  0.45032  0.83728  1.0000
  C   C2255     1.0  0.98430  0.46649  0.97145  1.0000
  H   H4016     1.0  0.88516  0.38395  0.75525  1.0000
  C   C2256     1.0  0.97861  0.30488  0.67341  1.0000
  H   H4017     1.0  0.75540  0.46718  0.91523  1.0000
  H   H4018     1.0  0.74035  0.31404  0.84228  1.0000
  H   H4019     1.0  0.83439  0.38611  0.68013  1.0000
  H   H4020     1.0  0.79280  0.44346  0.90729  1.0000
  C   C2257     1.0  0.86060  0.24232  0.70092  1.0000
  H   H4021     1.0  0.82902  0.14151  0.65425  1.0000
  H   H4022     1.0  0.86658  0.21716  0.71970  1.0000
  H   H4023     1.0  0.77067  0.43542  0.88742  1.0000
  C   C2258     1.0  0.91161  0.45985  0.98216  1.0000
  C   C2259     1.0  0.83650  0.42529  0.87849  1.0000
  H   H4024     1.0  0.89603  0.31706  0.94108  1.0000
  C   C2260     1.0  0.76076  0.36043  0.91729  1.0000
  H   H4025     1.0  0.79779  0.43207  0.74045  1.0000
  H   H4026     1.0  0.96569  0.33466  0.93552  1.0000
  H   H4027     1.0  0.91148  0.27447  0.73412  1.0000
  H   H4028     1.0  0.81507  0.40261  0.68722  1.0000
  C   C2261     1.0  0.82609  0.42517  0.75053  1.0000
  H   H4029     1.0  0.88601  0.15425  0.65562  1.0000
  C   C2262     1.0  0.84232  0.28135  0.69436  1.0000
  C   C2263     1.0  0.76942  0.42884  0.85185  1.0000
  H   H4030     1.0  0.82835  0.30931  0.70044  1.0000
  S   S505      1.0  0.87469  0.45320  0.98277  1.0000
  H   H4031     1.0  0.73913  0.34580  0.94541  1.0000
  H   H4032     1.0  0.75700  0.41125  0.83463  1.0000
  H   H4033     1.0  0.81542  0.09199  0.65952  1.0000
  C   C2264     1.0  0.81999  0.12973  0.65740  1.0000
  C   C2265     1.0  0.98814  0.38951  0.96930  1.0000
  C   C2266     1.0  0.77647  0.05212  0.65446  1.0000
  H   H4034     1.0  0.76112  0.45876  0.88258  1.0000
  H   H4035     1.0  0.90193  0.48379  0.92560  1.0000
  C   C2267     1.0  0.95938  0.35592  0.65116  1.0000
  S   S506      1.0  0.87620  0.31558  0.65426  1.0000
  H   H4036     1.0  0.76095  0.05369  0.65750  1.0000
  H   H4037     1.0  0.74035  0.27440  0.90589  1.0000
  C   C2268     1.0  0.92590  0.47162  0.98270  1.0000
  H   H4038     1.0  0.77856  0.08178  0.65302  1.0000
  C   C2269     1.0  0.98124  0.29977  0.65504  1.0000
  H   H4039     1.0  0.98519  0.36471  0.67259  1.0000
  C   C2270     1.0  0.76638  0.45570  0.91867  1.0000
  H   H4040     1.0  0.96133  0.34034  0.65297  1.0000
  H   H4041     1.0  0.81113  0.06290  0.65205  1.0000
  H   H4042     1.0  0.85755  0.70131  0.20512  1.0000
  H   H4043     1.0  0.83913  0.69828  0.27406  1.0000
  H   H4044     1.0  0.82973  0.50634  0.04001  1.0000
  C   C2271     1.0  0.96896  0.55643  0.04588  1.0000
  Fe  Fe254     1.0  0.88718  0.63994  0.29287  1.0000
  S   S507      1.0  0.88091  0.62745  0.26565  1.0000
  S   S508      1.0  0.89763  0.66871  0.29097  1.0000
  Fe  Fe255     1.0  0.79087  0.58249  0.15647  1.0000
  S   S509      1.0  0.81019  0.60523  0.15654  1.0000
  S   S510      1.0  0.76040  0.58427  0.14880  1.0000
  Fe  Fe256     1.0  0.82243  0.55134  0.16499  1.0000
  S   S511      1.0  0.84401  0.57212  0.16512  1.0000
  S   S512      1.0  0.83309  0.52042  0.17008  1.0000
  Fe  Fe257     1.0  0.82171  0.58905  0.18228  1.0000
  S   S513      1.0  0.82456  0.60196  0.21019  1.0000
  Fe  Fe258     1.0  0.83109  0.58647  0.13956  1.0000
  S   S514      1.0  0.84527  0.59890  0.11196  1.0000
  S   S515      1.0  0.80063  0.56735  0.18331  1.0000
  S   S516      1.0  0.81131  0.56462  0.13838  1.0000
  C   C2272     1.0  0.97097  0.53470  0.04626  1.0000
  H   H4045     1.0  0.95725  0.53102  0.04268  1.0000
  H   H4046     1.0  0.91352  0.68774  0.24197  1.0000
  Fe  Fe259     1.0  0.90575  0.56019  0.01963  1.0000
  S   S517      1.0  0.89344  0.55245  0.04971  1.0000
  S   S518      1.0  0.93600  0.55009  0.01233  1.0000
  Fe  Fe260     1.0  0.92609  0.53488  0.99022  1.0000
  H   H4047     1.0  0.85295  0.73805  0.22423  1.0000
  H   H4048     1.0  0.82448  0.54746  0.06926  1.0000
  C   C2273     1.0  0.85776  0.58565  0.09439  1.0000
  C   C2274     1.0  0.86210  0.56627  0.09748  1.0000
  C   C2275     1.0  0.87279  0.55636  0.08353  1.0000
  C   C2276     1.0  0.87921  0.56566  0.06629  1.0000
  C   C2277     1.0  0.87447  0.58496  0.06300  1.0000
  C   C2278     1.0  0.86385  0.59489  0.07701  1.0000
  H   H4049     1.0  0.85765  0.55906  0.11084  1.0000
  H   H4050     1.0  0.87645  0.54146  0.08626  1.0000
  H   H4051     1.0  0.87930  0.59231  0.04983  1.0000
  H   H4052     1.0  0.86058  0.60988  0.07448  1.0000
  C   C2279     1.0  0.80127  0.50272  0.16579  1.0000
  C   C2280     1.0  0.82015  0.50076  0.16939  1.0000
  H   H4053     1.0  0.78090  0.54691  0.11684  1.0000
  H   H4054     1.0  0.79413  0.51658  0.16329  1.0000
  H   H4055     1.0  0.73867  0.65103  0.13325  1.0000
  H   H4056     1.0  0.76615  0.56113  0.08808  1.0000
  C   C2281     1.0  0.89245  0.67309  0.23087  1.0000
  H   H4057     1.0  0.74797  0.59617  0.09634  1.0000
  C   C2282     1.0  0.85102  0.72929  0.21283  1.0000
  H   H4058     1.0  0.83460  0.68131  0.30552  1.0000
  C   C2283     1.0  0.86507  0.61928  0.25099  1.0000
  C   C2284     1.0  0.84561  0.62006  0.25562  1.0000
  C   C2285     1.0  0.83361  0.61464  0.24305  1.0000
  C   C2286     1.0  0.84073  0.60807  0.22569  1.0000
  C   C2287     1.0  0.86023  0.60701  0.22117  1.0000
  C   C2288     1.0  0.87222  0.61263  0.23366  1.0000
  H   H4059     1.0  0.83973  0.62497  0.26885  1.0000
  H   H4060     1.0  0.81862  0.61565  0.24681  1.0000
  H   H4061     1.0  0.86608  0.60214  0.20791  1.0000
  H   H4062     1.0  0.88718  0.61196  0.22976  1.0000
  H   H4063     1.0  0.82592  0.65862  0.23126  1.0000
  H   H4064     1.0  0.83225  0.49852  0.10386  1.0000
  C   C2289     1.0  0.91179  0.67361  0.23777  1.0000
  C   C2290     1.0  0.98430  0.58461  0.99388  1.0000
  H   H4065     1.0  0.89748  0.50238  0.01490  1.0000
  H   H4066     1.0  0.80375  0.54725  0.10371  1.0000
  H   H4067     1.0  0.80506  0.49388  0.20972  1.0000
  C   C2291     1.0  0.98444  0.58996  0.01198  1.0000
  C   C2292     1.0  0.89575  0.49610  0.02950  1.0000
  H   H4068     1.0  0.91248  0.49313  0.05343  1.0000
  H   H4069     1.0  0.81150  0.53198  0.05839  1.0000
  S   S519      1.0  0.93882  0.50548  0.98601  1.0000
  H   H4070     1.0  0.87846  0.66635  0.25763  1.0000
  H   H4071     1.0  0.87487  0.55208  0.18990  1.0000
  H   H4072     1.0  0.89167  0.65863  0.22699  1.0000
  H   H4073     1.0  0.81829  0.67516  0.29018  1.0000
  H   H4074     1.0  0.86350  0.67148  0.21293  1.0000
  H   H4075     1.0  0.87089  0.51256  0.00327  1.0000
  H   H4076     1.0  0.76121  0.62531  0.14542  1.0000
  H   H4077     1.0  0.95586  0.55764  0.07449  1.0000
  C   C2293     1.0  0.83333  0.67415  0.29280  1.0000
  H   H4078     1.0  0.83467  0.70215  0.23516  1.0000
  C   C2294     1.0  0.74855  0.62205  0.13999  1.0000
  H   H4079     1.0  0.84243  0.64294  0.20362  1.0000
  H   H4080     1.0  0.96995  0.52746  0.01057  1.0000
  H   H4081     1.0  0.85977  0.65284  0.23022  1.0000
  H   H4082     1.0  0.89155  0.68287  0.21807  1.0000
  H   H4083     1.0  0.96545  0.56289  0.03195  1.0000
  C   C2295     1.0  0.95301  0.56316  0.06001  1.0000
  H   H4084     1.0  0.84158  0.66552  0.19010  1.0000
  H   H4085     1.0  0.82577  0.50842  0.29412  1.0000
  C   C2296     1.0  0.91242  0.71989  0.29427  1.0000
  H   H4086     1.0  0.74230  0.68741  0.13401  1.0000
  S   S520      1.0  0.95135  0.66370  0.29646  1.0000
  S   S521      1.0  0.89600  0.54294  0.99898  1.0000
  H   H4087     1.0  0.74039  0.70429  0.11387  1.0000
  H   H4088     1.0  0.91977  0.73239  0.28858  1.0000
  H   H4089     1.0  0.97252  0.49420  0.01682  1.0000
  C   C2297     1.0  0.87760  0.50499  0.03993  1.0000
  C   C2298     1.0  0.83435  0.66680  0.22013  1.0000
  H   H4090     1.0  0.97213  0.52897  0.06111  1.0000
  H   H4091     1.0  0.97152  0.59559  0.01925  1.0000
  H   H4092     1.0  0.84918  0.51024  0.28291  1.0000
  C   C2299     1.0  0.97069  0.66521  0.30958  1.0000
  N   N126      1.0  0.85646  0.67992  0.24112  1.0000
  C   C2300     1.0  0.78851  0.54668  0.10264  1.0000
  C   C2301     1.0  0.91320  0.49943  0.03870  1.0000
  S   S522      1.0  0.91267  0.62729  0.30715  1.0000
  H   H4093     1.0  0.86238  0.53127  0.01679  1.0000
  H   H4094     1.0  0.82015  0.65541  0.19917  1.0000
  H   H4095     1.0  0.83581  0.72956  0.21113  1.0000
  C   C2302     1.0  0.84176  0.52919  0.05101  1.0000
  H   H4096     1.0  0.80024  0.58745  0.24531  1.0000
  H   H4097     1.0  0.84412  0.49936  0.05840  1.0000
  H   H4098     1.0  0.95166  0.57873  0.05918  1.0000
  C   C2303     1.0  0.98751  0.50504  0.03797  1.0000
  H   H4099     1.0  0.81579  0.58332  0.04170  1.0000
  H   H4100     1.0  0.80453  0.81835  0.30795  1.0000
  H   H4101     1.0  0.83830  0.50598  0.99868  1.0000
  C   C2304     1.0  0.87653  0.67790  0.24635  1.0000
  H   H4102     1.0  0.82893  0.52469  0.01283  1.0000
  H   H4103     1.0  0.78653  0.53326  0.09704  1.0000
  C   C2305     1.0  0.98358  0.53193  0.01363  1.0000
  H   H4104     1.0  0.83751  0.50439  0.20750  1.0000
  H   H4105     1.0  0.85949  0.68311  0.27995  1.0000
  H   H4106     1.0  0.84035  0.53968  0.03875  1.0000
  H   H4107     1.0  0.84760  0.65799  0.26183  1.0000
  H   H4108     1.0  0.85812  0.73551  0.19958  1.0000
  H   H4109     1.0  0.82708  0.68102  0.21764  1.0000
  C   C2306     1.0  0.84658  0.49936  0.10791  1.0000
  H   H4110     1.0  0.85295  0.70907  0.24674  1.0000
  C   C2307     1.0  0.85951  0.70916  0.21715  1.0000
  H   H4111     1.0  0.83579  0.51874  0.12867  1.0000
  C   C2308     1.0  0.82907  0.50327  0.22126  1.0000
  H   H4112     1.0  0.87469  0.70980  0.21823  1.0000
  H   H4113     1.0  0.82521  0.52300  0.07762  1.0000
  N   N127      1.0  0.77666  0.59964  0.08529  1.0000
  C   C2309     1.0  0.78251  0.58216  0.09756  1.0000
  C   C2310     1.0  0.77845  0.61705  0.09495  1.0000
  H   H4114     1.0  0.85652  0.49978  0.09509  1.0000
  C   C2311     1.0  0.78770  0.60041  0.06632  1.0000
  C   C2312     1.0  0.80938  0.59921  0.06617  1.0000
  C   C2313     1.0  0.78098  0.56318  0.08958  1.0000
  H   H4115     1.0  0.91658  0.70853  0.28490  1.0000
  C   C2314     1.0  0.79467  0.61641  0.10770  1.0000
  C   C2315     1.0  0.79713  0.63590  0.11324  1.0000
  C   C2316     1.0  0.81896  0.59674  0.04654  1.0000
  H   H4116     1.0  0.82903  0.67488  0.25531  1.0000
  C   C2317     1.0  0.85015  0.70020  0.23572  1.0000
  H   H4117     1.0  0.77390  0.58207  0.11128  1.0000
  H   H4118     1.0  0.79717  0.58202  0.10110  1.0000
  H   H4119     1.0  0.77950  0.62947  0.08446  1.0000
  C   C2318     1.0  0.75615  0.59906  0.08252  1.0000
  H   H4120     1.0  0.98225  0.54744  0.01093  1.0000
  H   H4121     1.0  0.75424  0.58740  0.07407  1.0000
  H   H4122     1.0  0.78402  0.58925  0.05808  1.0000
  H   H4123     1.0  0.78367  0.61375  0.05789  1.0000
  H   H4124     1.0  0.81498  0.58726  0.07554  1.0000
  H   H4125     1.0  0.81365  0.61244  0.07043  1.0000
  C   C2319     1.0  0.84492  0.68342  0.27610  1.0000
  H   H4126     1.0  0.89701  0.72342  0.29440  1.0000
  C   C2320     1.0  0.74484  0.60332  0.14013  1.0000
  H   H4127     1.0  0.91464  0.51470  0.03835  1.0000
  H   H4128     1.0  0.79149  0.60723  0.12075  1.0000
  H   H4129     1.0  0.80821  0.61082  0.10088  1.0000
  H   H4130     1.0  0.78405  0.64185  0.12090  1.0000
  H   H4131     1.0  0.80870  0.63491  0.12250  1.0000
  H   H4132     1.0  0.80085  0.64547  0.10064  1.0000
  C   C2321     1.0  0.85448  0.66753  0.22584  1.0000
  H   H4133     1.0  0.81430  0.60859  0.03646  1.0000
  H   H4134     1.0  0.83442  0.59642  0.04681  1.0000
  C   C2322     1.0  0.81499  0.48887  0.22040  1.0000
  H   H4135     1.0  0.87984  0.51992  0.04075  1.0000
  C   C2323     1.0  0.84404  0.67327  0.25819  1.0000
  C   C2324     1.0  0.83472  0.65709  0.20216  1.0000
  H   H4136     1.0  0.92288  0.67024  0.22643  1.0000
  H   H4137     1.0  0.91373  0.66301  0.24992  1.0000
  N   N128      1.0  0.83130  0.53652  0.23126  1.0000
  C   C2325     1.0  0.81898  0.52273  0.22544  1.0000
  C   C2326     1.0  0.82038  0.55555  0.23186  1.0000
  C   C2327     1.0  0.84738  0.53841  0.21613  1.0000
  C   C2328     1.0  0.83923  0.53031  0.24977  1.0000
  C   C2329     1.0  0.82675  0.51890  0.26475  1.0000
  C   C2330     1.0  0.74628  0.61702  0.07259  1.0000
  C   C2331     1.0  0.86034  0.55405  0.21780  1.0000
  C   C2332     1.0  0.80222  0.55699  0.24533  1.0000
  C   C2333     1.0  0.79150  0.57636  0.24246  1.0000
  H   H4138     1.0  0.85437  0.53167  0.05780  1.0000
  H   H4139     1.0  0.82621  0.50449  0.26074  1.0000
  C   C2334     1.0  0.87829  0.55194  0.20461  1.0000
  H   H4140     1.0  0.81232  0.52867  0.21252  1.0000
  H   H4141     1.0  0.80708  0.52026  0.23612  1.0000
  H   H4142     1.0  0.82917  0.56599  0.23610  1.0000
  H   H4143     1.0  0.81667  0.56088  0.21757  1.0000
  H   H4144     1.0  0.84193  0.54114  0.20205  1.0000
  H   H4145     1.0  0.85654  0.52502  0.21573  1.0000
  H   H4146     1.0  0.85272  0.52137  0.24764  1.0000
  H   H4147     1.0  0.84301  0.54272  0.25620  1.0000
  H   H4148     1.0  0.78919  0.56240  0.07577  1.0000
  H   H4149     1.0  0.81212  0.52524  0.26650  1.0000
  H   H4150     1.0  0.77685  0.48834  0.16302  1.0000
  Fe  Fe261     1.0  0.92175  0.65621  0.30704  1.0000
  H   H4151     1.0  0.86437  0.55387  0.23228  1.0000
  H   H4152     1.0  0.85305  0.56800  0.21380  1.0000
  H   H4153     1.0  0.79250  0.54658  0.24314  1.0000
  H   H4154     1.0  0.80580  0.55521  0.26005  1.0000
  H   H4155     1.0  0.83881  0.49778  0.23191  1.0000
  H   H4156     1.0  0.74690  0.62951  0.08030  1.0000
  H   H4157     1.0  0.78748  0.57915  0.22788  1.0000
  H   H4158     1.0  0.93943  0.55859  0.05684  1.0000
  C   C2335     1.0  0.84324  0.50880  0.04525  1.0000
  H   H4159     1.0  0.87977  0.69069  0.25248  1.0000
  H   H4160     1.0  0.87681  0.49882  0.05475  1.0000
  H   H4161     1.0  0.76555  0.62042  0.10435  1.0000
  C   C2336     1.0  0.98843  0.66753  0.29994  1.0000
  H   H4162     1.0  0.88681  0.56383  0.20551  1.0000
  H   H4163     1.0  0.88679  0.53864  0.20855  1.0000
  H   H4164     1.0  0.86038  0.51994  0.12071  1.0000
  H   H4165     1.0  0.83456  0.53115  0.28902  1.0000
  H   H4166     1.0  0.84251  0.52979  0.10582  1.0000
  N   N129      1.0  0.85953  0.50371  0.03126  1.0000
  C   C2337     1.0  0.84636  0.51805  0.11634  1.0000
  C   C2338     1.0  0.82465  0.53304  0.06492  1.0000
  H   H4167     1.0  0.84548  0.54761  0.99040  1.0000
  H   H4168     1.0  0.83851  0.65914  0.29550  1.0000
  H   H4169     1.0  0.92582  0.49286  0.03082  1.0000
  C   C2339     1.0  0.85938  0.51708  0.01376  1.0000
  H   H4170     1.0  0.98197  0.56195  0.04923  1.0000
  C   C2340     1.0  0.97063  0.49570  0.03212  1.0000
  Fe  Fe262     1.0  0.93664  0.57430  0.99032  1.0000
  S   S523      1.0  0.90672  0.58595  0.99891  1.0000
  C   C2341     1.0  0.83461  0.51711  0.28384  1.0000
  H   H4171     1.0  0.77851  0.57709  0.25221  1.0000
  C   C2342     1.0  0.84311  0.53359  0.98631  1.0000
  H   H4172     1.0  0.75285  0.61990  0.05812  1.0000
  N   N130      1.0  0.98707  0.52608  0.03373  1.0000
  C   C2343     1.0  0.84119  0.51944  0.00358  1.0000
  H   H4173     1.0  0.95697  0.50385  0.03497  1.0000
  H   H4174     1.0  0.93311  0.70919  0.31283  1.0000
  C   C2344     1.0  0.91777  0.71319  0.31398  1.0000
  H   H4175     1.0  0.78630  0.79107  0.31663  1.0000
  C   C2345     1.0  0.79150  0.48668  0.16566  1.0000
  Fe  Fe263     1.0  0.91224  0.63095  0.63614  1.0000
  S   S524      1.0  0.92149  0.61555  0.60998  1.0000
  S   S525      1.0  0.93055  0.65353  0.64002  1.0000
  H   H4176     1.0  0.94800  0.97799  0.40899  1.0000
  H   H4177     1.0  0.76255  0.82268  0.60345  1.0000
  Fe  Fe264     1.0  0.89606  0.63334  0.33447  1.0000
  S   S526      1.0  0.90193  0.60982  0.35739  1.0000
  S   S527      1.0  0.90662  0.66168  0.33492  1.0000
  Fe  Fe265     1.0  0.90506  0.55226  0.49276  1.0000
  S   S528      1.0  0.87981  0.57356  0.49470  1.0000
  S   S529      1.0  0.90942  0.52128  0.50326  1.0000
  Fe  Fe266     1.0  0.93176  0.58245  0.48204  1.0000
  S   S530      1.0  0.90897  0.60599  0.48359  1.0000
  S   S531      1.0  0.96123  0.58847  0.47133  1.0000
  Fe  Fe267     1.0  0.89743  0.59020  0.51000  1.0000
  S   S532      1.0  0.88391  0.60450  0.53566  1.0000
  Fe  Fe268     1.0  0.89326  0.58804  0.46805  1.0000
  S   S533      1.0  0.87738  0.60490  0.44517  1.0000
  S   S534      1.0  0.92164  0.56816  0.50973  1.0000
  S   S535      1.0  0.91697  0.56533  0.46488  1.0000
  Fe  Fe269     1.0  0.82024  0.81481  0.41452  1.0000
  S   S536      1.0  0.82857  0.83756  0.39250  1.0000
  S   S537      1.0  0.81166  0.82779  0.44211  1.0000
  Fe  Fe270     1.0  0.82691  0.78518  0.38548  1.0000
  S   S538      1.0  0.83508  0.80661  0.36201  1.0000
  S   S539      1.0  0.82725  0.75365  0.38271  1.0000
  Fe  Fe271     1.0  0.85216  0.81702  0.38293  1.0000
  S   S540      1.0  0.88387  0.81840  0.38011  1.0000
  Fe  Fe272     1.0  0.81018  0.82521  0.37416  1.0000
  S   S541      1.0  0.78886  0.84539  0.35809  1.0000
  S   S542      1.0  0.84478  0.79481  0.40590  1.0000
  S   S543      1.0  0.80114  0.80311  0.39647  1.0000
  Fe  Fe273     1.0  0.81660  0.82820  0.58638  1.0000
  S   S544      1.0  0.81399  0.79920  0.57842  1.0000
  S   S545      1.0  0.79304  0.84802  0.60065  1.0000
  Fe  Fe274     1.0  0.85918  0.82594  0.57270  1.0000
  S   S546      1.0  0.85888  0.79650  0.56449  1.0000
  S   S547      1.0  0.88647  0.83983  0.56277  1.0000
  Fe  Fe275     1.0  0.83202  0.80696  0.55182  1.0000
  S   S548      1.0  0.82936  0.79409  0.52449  1.0000
  Fe  Fe276     1.0  0.84115  0.79049  0.59145  1.0000
  S   S549      1.0  0.84002  0.76200  0.60904  1.0000
  S   S550      1.0  0.83295  0.83670  0.55864  1.0000
  S   S551      1.0  0.84314  0.81932  0.60089  1.0000
  Fe  Fe277     1.0  0.96327  0.88333  0.39296  1.0000
  S   S552      1.0  0.96450  0.89983  0.41767  1.0000
  S   S553      1.0  0.93424  0.88614  0.38228  1.0000
  Fe  Fe278     1.0  0.97620  0.89273  0.57845  1.0000
  H   H4178     1.0  0.98206  0.72669  0.33104  1.0000
  S   S554      1.0  0.94960  0.88196  0.59431  1.0000
  C   C2346     1.0  0.96038  0.80673  0.58976  1.0000
  C   C2347     1.0  0.79590  0.79456  0.32662  1.0000
  H   H4179     1.0  0.91839  0.74163  0.32149  1.0000
  H   H4180     1.0  0.79069  0.80695  0.62074  1.0000
  C   C2348     1.0  0.76937  0.85153  0.41409  1.0000
  H   H4181     1.0  0.88256  0.52414  0.58400  1.0000
  C   C2349     1.0  0.90340  0.85206  0.57196  1.0000
  C   C2350     1.0  0.91806  0.85910  0.55961  1.0000
  C   C2351     1.0  0.93214  0.86844  0.56615  1.0000
  C   C2352     1.0  0.93184  0.87080  0.58521  1.0000
  C   C2353     1.0  0.91715  0.86385  0.59757  1.0000
  C   C2354     1.0  0.90301  0.85456  0.59102  1.0000
  H   H4182     1.0  0.91852  0.85730  0.54485  1.0000
  H   H4183     1.0  0.94322  0.87381  0.55642  1.0000
  H   H4184     1.0  0.91671  0.86561  0.61234  1.0000
  H   H4185     1.0  0.89187  0.84923  0.60071  1.0000
  C   C2355     1.0  0.76414  0.84862  0.35514  1.0000
  C   C2356     1.0  0.75727  0.86372  0.34291  1.0000
  H   H4186     1.0  0.97450  0.63039  0.40763  1.0000
  C   C2357     1.0  0.75121  0.83689  0.36470  1.0000
  S   S555      1.0  0.88541  0.64689  0.64713  1.0000
  H   H4187     1.0  0.85208  0.65002  0.62260  1.0000
  H   H4188     1.0  0.75606  0.82546  0.37439  1.0000
  C   C2358     1.0  0.81800  0.81855  0.46461  1.0000
  C   C2359     1.0  0.82461  0.79974  0.46831  1.0000
  C   C2360     1.0  0.82814  0.79261  0.48669  1.0000
  C   C2361     1.0  0.82547  0.80423  0.50151  1.0000
  C   C2362     1.0  0.81953  0.82323  0.49766  1.0000
  C   C2363     1.0  0.81565  0.83029  0.47933  1.0000
  H   H4189     1.0  0.82645  0.79053  0.45716  1.0000
  H   H4190     1.0  0.83277  0.77791  0.48952  1.0000
  H   H4191     1.0  0.81745  0.83232  0.50891  1.0000
  H   H4192     1.0  0.81056  0.84487  0.47661  1.0000
  C   C2364     1.0  0.89715  0.83749  0.38208  1.0000
  C   C2365     1.0  0.88923  0.85610  0.38110  1.0000
  C   C2366     1.0  0.90073  0.87085  0.38135  1.0000
  C   C2367     1.0  0.92012  0.86714  0.38300  1.0000
  C   C2368     1.0  0.92788  0.84850  0.38464  1.0000
  C   C2369     1.0  0.91647  0.83380  0.38400  1.0000
  H   H4193     1.0  0.87441  0.85915  0.37949  1.0000
  H   H4194     1.0  0.89462  0.88523  0.38000  1.0000
  H   H4195     1.0  0.94276  0.84544  0.38585  1.0000
  H   H4196     1.0  0.92273  0.81946  0.38473  1.0000
  C   C2370     1.0  0.97854  0.57865  0.48578  1.0000
  C   C2371     1.0  0.97409  0.56618  0.50138  1.0000
  H   H4197     1.0  0.84577  0.58807  0.55375  1.0000
  C   C2372     1.0  0.95572  0.97018  0.53848  1.0000
  H   H4198     1.0  0.96007  0.56202  0.50436  1.0000
  H   H4199     1.0  0.77592  0.86820  0.47080  1.0000
  C   C2373     1.0  0.89960  0.50171  0.49642  1.0000
  C   C2374     1.0  0.88464  0.50357  0.48521  1.0000
  C   C2375     1.0  0.95524  0.95555  0.44862  1.0000
  H   H4200     1.0  0.85765  0.65868  0.56427  1.0000
  H   H4201     1.0  0.80637  0.82764  0.63617  1.0000
  H   H4202     1.0  0.87872  0.51739  0.48029  1.0000
  H   H4203     1.0  0.93085  0.51019  0.46713  1.0000
  H   H4204     1.0  0.85290  0.53617  0.61202  1.0000
  C   C2376     1.0  0.85687  0.71647  0.33770  1.0000
  C   C2377     1.0  0.85030  0.70854  0.35537  1.0000
  C   C2378     1.0  0.84155  0.72014  0.36903  1.0000
  C   C2379     1.0  0.83960  0.73981  0.36541  1.0000
  C   C2380     1.0  0.84650  0.74775  0.34786  1.0000
  C   C2381     1.0  0.85486  0.73614  0.33405  1.0000
  H   H4205     1.0  0.85160  0.69345  0.35840  1.0000
  H   H4206     1.0  0.83615  0.71380  0.38250  1.0000
  H   H4207     1.0  0.84504  0.76283  0.34477  1.0000
  C   C2382     1.0  0.89491  0.60898  0.38173  1.0000
  C   C2383     1.0  0.88424  0.62388  0.38991  1.0000
  C   C2384     1.0  0.87910  0.62251  0.40939  1.0000
  C   C2385     1.0  0.88474  0.60636  0.42087  1.0000
  C   C2386     1.0  0.89546  0.59152  0.41268  1.0000
  C   C2387     1.0  0.90052  0.59284  0.39322  1.0000
  H   H4208     1.0  0.87974  0.63634  0.38123  1.0000
  H   H4209     1.0  0.87059  0.63396  0.41559  1.0000
  H   H4210     1.0  0.89945  0.57886  0.42130  1.0000
  H   H4211     1.0  0.90861  0.58117  0.38700  1.0000
  C   C2388     1.0  0.88462  0.71683  0.63178  1.0000
  C   C2389     1.0  0.86564  0.71359  0.63324  1.0000
  C   C2390     1.0  0.85227  0.72749  0.62602  1.0000
  C   C2391     1.0  0.85767  0.74474  0.61716  1.0000
  C   C2392     1.0  0.87669  0.74785  0.61544  1.0000
  C   C2393     1.0  0.89002  0.73402  0.62277  1.0000
  C   C2394     1.0  0.75691  0.87917  0.44973  1.0000
  H   H4212     1.0  0.88109  0.76103  0.60873  1.0000
  H   H4213     1.0  0.87929  0.56109  0.58672  1.0000
  C   C2395     1.0  0.91069  0.61317  0.58934  1.0000
  C   C2396     1.0  0.89159  0.61827  0.58772  1.0000
  C   C2397     1.0  0.88362  0.61554  0.57119  1.0000
  C   C2398     1.0  0.89467  0.60783  0.55607  1.0000
  C   C2399     1.0  0.91377  0.60286  0.55765  1.0000
  C   C2400     1.0  0.92168  0.60541  0.57424  1.0000
  H   H4214     1.0  0.88293  0.62394  0.59935  1.0000
  H   H4215     1.0  0.86880  0.61933  0.57013  1.0000
  H   H4216     1.0  0.92246  0.59697  0.54615  1.0000
  H   H4217     1.0  0.93646  0.60138  0.57536  1.0000
  C   C2401     1.0  0.96457  0.94353  0.62110  1.0000
  C   C2402     1.0  0.76864  0.84998  0.60948  1.0000
  C   C2403     1.0  0.76090  0.86651  0.61742  1.0000
  H   H4218     1.0  0.89690  0.50163  0.54317  1.0000
  H   H4219     1.0  0.76960  0.87794  0.61743  1.0000
  H   H4220     1.0  0.84964  0.75354  0.56088  1.0000
  C   C2404     1.0  0.95190  0.72802  0.33826  1.0000
  H   H4221     1.0  0.93755  0.53483  0.56507  1.0000
  H   H4222     1.0  0.91585  0.98281  0.39496  1.0000
  H   H4223     1.0  0.88395  0.74011  0.36894  1.0000
  H   H4224     1.0  0.86337  0.64405  0.53485  1.0000
  H   H4225     1.0  0.88254  0.65518  0.55703  1.0000
  H   H4226     1.0  0.93930  0.82737  0.57706  1.0000
  C   C2405     1.0  0.91373  0.74125  0.35774  1.0000
  C   C2406     1.0  0.86021  0.72421  0.56487  1.0000
  H   H4227     1.0  0.87756  0.53755  0.61455  1.0000
  H   H4228     1.0  0.85982  0.74246  0.32042  1.0000
  H   H4229     1.0  0.96248  0.51120  0.51196  1.0000
  H   H4230     1.0  0.87621  0.66310  0.52400  1.0000
  H   H4231     1.0  0.85030  0.58646  0.52876  1.0000
  N   N131      1.0  0.94971  0.61565  0.41541  1.0000
  H   H4232     1.0  0.78518  0.82405  0.32490  1.0000
  C   C2407     1.0  0.94007  0.62245  0.39804  1.0000
  C   C2408     1.0  0.94380  0.62820  0.43095  1.0000
  C   C2409     1.0  0.94429  0.59622  0.42204  1.0000
  C   C2410     1.0  0.97476  0.83020  0.60463  1.0000
  H   H4233     1.0  0.96385  0.85008  0.53715  1.0000
  C   C2411     1.0  0.92232  0.63209  0.43586  1.0000
  C   C2412     1.0  0.94225  0.64312  0.39038  1.0000
  C   C2413     1.0  0.93073  0.64871  0.37371  1.0000
  H   H4234     1.0  0.77274  0.89655  0.39514  1.0000
  C   C2414     1.0  0.87701  0.48746  0.48071  1.0000
  C   C2415     1.0  0.91812  0.64612  0.45064  1.0000
  H   H4235     1.0  0.75143  0.76209  0.34852  1.0000
  H   H4236     1.0  0.95324  0.55792  0.43071  1.0000
  H   H4237     1.0  0.94547  0.61379  0.38636  1.0000
  H   H4238     1.0  0.92484  0.62042  0.40034  1.0000
  H   H4239     1.0  0.94995  0.64188  0.42784  1.0000
  H   H4240     1.0  0.94957  0.62192  0.44418  1.0000
  H   H4241     1.0  0.94940  0.59151  0.43590  1.0000
  H   H4242     1.0  0.92881  0.59632  0.42462  1.0000
  H   H4243     1.0  0.79763  0.72610  0.31955  1.0000
  H   H4244     1.0  0.94358  0.58358  0.39557  1.0000
  H   H4245     1.0  0.98141  0.96275  0.57696  1.0000
  H   H4246     1.0  0.84263  0.55316  0.55798  1.0000
  H   H4247     1.0  0.91614  0.61897  0.44163  1.0000
  H   H4248     1.0  0.91495  0.63802  0.42352  1.0000
  H   H4249     1.0  0.93734  0.65295  0.40111  1.0000
  H   H4250     1.0  0.95714  0.64508  0.38555  1.0000
  H   H4251     1.0  0.93287  0.66335  0.36808  1.0000
  H   H4252     1.0  0.93503  0.63934  0.36238  1.0000
  H   H4253     1.0  0.91555  0.64781  0.37805  1.0000
  H   H4254     1.0  0.77155  0.83294  0.64543  1.0000
  H   H4255     1.0  0.93657  0.98512  0.43013  1.0000
  C   C2416     1.0  0.86466  0.54529  0.60937  1.0000
  H   H4256     1.0  0.97210  0.82107  0.61785  1.0000
  H   H4257     1.0  0.76700  0.87297  0.33539  1.0000
  H   H4258     1.0  0.77895  0.80139  0.35230  1.0000
  H   H4259     1.0  0.92530  0.64105  0.46339  1.0000
  H   H4260     1.0  0.92279  0.66001  0.44502  1.0000
  H   H4261     1.0  0.90275  0.64780  0.45466  1.0000
  C   C2417     1.0  0.76041  0.77318  0.40352  1.0000
  H   H4262     1.0  0.78452  0.86951  0.43681  1.0000
  C   C2418     1.0  0.87356  0.52369  0.54517  1.0000
  H   H4263     1.0  0.80655  0.75637  0.34795  1.0000
  H   H4264     1.0  0.79156  0.85943  0.64445  1.0000
  C   C2419     1.0  0.86360  0.68698  0.58928  1.0000
  H   H4265     1.0  0.90279  0.71568  0.38610  1.0000
  H   H4266     1.0  0.76939  0.75237  0.37416  1.0000
  C   C2420     1.0  0.91206  0.72864  0.32762  1.0000
  H   H4267     1.0  0.84762  0.67482  0.62487  1.0000
  C   C2421     1.0  0.78362  0.77859  0.62911  1.0000
  H   H4268     1.0  0.92571  0.79345  0.60237  1.0000
  H   H4269     1.0  0.82799  0.58103  0.54063  1.0000
  H   H4270     1.0  0.80173  0.89146  0.41007  1.0000
  H   H4271     1.0  0.97005  0.86391  0.49949  1.0000
  H   H4272     1.0  0.91588  0.96781  0.44952  1.0000
  H   H4273     1.0  0.87359  0.74866  0.55139  1.0000
  H   H4274     1.0  0.90536  0.56580  0.55943  1.0000
  H   H4275     1.0  0.95204  0.60693  0.34197  1.0000
  C   C2422     1.0  0.94547  0.50568  0.47033  1.0000
  H   H4276     1.0  0.97594  0.86223  0.62359  1.0000
  H   H4277     1.0  0.80881  0.81940  0.33196  1.0000
  C   C2423     1.0  0.89095  0.68967  0.38534  1.0000
  C   C2424     1.0  0.97477  0.50743  0.52021  1.0000
  H   H4278     1.0  0.90688  0.52296  0.55964  1.0000
  H   H4279     1.0  0.77387  0.89353  0.46629  1.0000
  H   H4280     1.0  0.87684  0.52744  0.52986  1.0000
  H   H4281     1.0  0.93067  0.56134  0.42121  1.0000
  C   C2425     1.0  0.87217  0.55730  0.54786  1.0000
  H   H4282     1.0  0.93715  0.82519  0.60221  1.0000
  S   S556      1.0  0.97519  0.86306  0.45965  1.0000
  H   H4283     1.0  0.75017  0.78286  0.41128  1.0000
  H   H4284     1.0  0.94031  0.71301  0.36320  1.0000
  H   H4285     1.0  0.89256  0.67718  0.37723  1.0000
  H   H4286     1.0  0.87959  0.56048  0.53376  1.0000
  H   H4287     1.0  0.78440  0.84679  0.41546  1.0000
  H   H4288     1.0  0.96198  0.91521  0.61306  1.0000
  S   S557      1.0  0.97950  0.92194  0.56440  1.0000
  H   H4289     1.0  0.74664  0.89165  0.44760  1.0000
  C   C2426     1.0  0.89310  0.75000  0.36055  1.0000
  H   H4290     1.0  0.90595  0.53855  0.53893  1.0000
  H   H4291     1.0  0.95248  0.74059  0.34588  1.0000
  H   H4292     1.0  0.75741  0.81668  0.41173  1.0000
  H   H4293     1.0  0.97510  0.71181  0.35170  1.0000
  N   N132      1.0  0.97649  0.81892  0.58789  1.0000
  H   H4294     1.0  0.97304  0.83203  0.52225  1.0000
  C   C2427     1.0  0.76155  0.77963  0.38258  1.0000
  H   H4295     1.0  0.97306  0.49361  0.52823  1.0000
  H   H4296     1.0  0.96506  0.62555  0.64043  1.0000
  C   C2428     1.0  0.93168  0.54902  0.55981  1.0000
  H   H4297     1.0  0.94201  0.97880  0.53916  1.0000
  H   H4298     1.0  0.97491  0.51823  0.53016  1.0000
  H   H4299     1.0  0.97938  0.88595  0.52039  1.0000
  C   C2429     1.0  0.90089  0.53702  0.55410  1.0000
  H   H4300     1.0  0.98827  0.78268  0.60729  1.0000
  H   H4301     1.0  0.97517  0.60893  0.39758  1.0000
  H   H4302     1.0  0.76961  0.76484  0.60971  1.0000
  H   H4303     1.0  0.97560  0.94842  0.46910  1.0000
  C   C2430     1.0  0.86312  0.74509  0.56330  1.0000
  C   C2431     1.0  0.95276  0.92736  0.61806  1.0000
  H   H4304     1.0  0.94380  0.95802  0.45983  1.0000
  H   H4305     1.0  0.85129  0.66709  0.53103  1.0000
  C   C2432     1.0  0.86472  0.65931  0.53480  1.0000
  N   N133      1.0  0.93079  0.95743  0.42432  1.0000
  C   C2433     1.0  0.91446  0.95758  0.43925  1.0000
  H   H4306     1.0  0.86101  0.55779  0.61734  1.0000
  C   C2434     1.0  0.92579  0.94727  0.40842  1.0000
  C   C2435     1.0  0.94828  0.94734  0.43174  1.0000
  H   H4307     1.0  0.77431  0.77313  0.40902  1.0000
  C   C2436     1.0  0.91113  0.93842  0.45045  1.0000
  C   C2437     1.0  0.93987  0.94769  0.39060  1.0000
  H   H4308     1.0  0.74283  0.84383  0.42982  1.0000
  H   H4309     1.0  0.94344  0.96207  0.38561  1.0000
  C   C2438     1.0  0.81864  0.79177  0.64204  1.0000
  C   C2439     1.0  0.89334  0.93999  0.46394  1.0000
  C   C2440     1.0  0.93174  0.94001  0.37446  1.0000
  H   H4310     1.0  0.97183  0.70534  0.32868  1.0000
  H   H4311     1.0  0.90119  0.96272  0.43290  1.0000
  C   C2441     1.0  0.90543  0.70339  0.37777  1.0000
  H   H4312     1.0  0.77550  0.81314  0.42795  1.0000
  H   H4313     1.0  0.91161  0.95265  0.40424  1.0000
  H   H4314     1.0  0.92464  0.93216  0.41300  1.0000
  H   H4315     1.0  0.94642  0.93223  0.43550  1.0000
  H   H4316     1.0  0.96017  0.94741  0.42063  1.0000
  H   H4317     1.0  0.96499  0.92868  0.46265  1.0000
  H   H4318     1.0  0.78896  0.73058  0.36159  1.0000
  H   H4319     1.0  0.90956  0.92756  0.44098  1.0000
  H   H4320     1.0  0.92298  0.93345  0.45898  1.0000
  H   H4321     1.0  0.95301  0.93884  0.39345  1.0000
  H   H4322     1.0  0.88210  0.49950  0.56491  1.0000
  H   H4323     1.0  0.89283  0.68489  0.40023  1.0000
  C   C2442     1.0  0.76607  0.88081  0.46767  1.0000
  C   C2443     1.0  0.97759  0.87575  0.49367  1.0000
  C   C2444     1.0  0.93684  0.71560  0.34842  1.0000
  C   C2445     1.0  0.77181  0.87853  0.43255  1.0000
  H   H4324     1.0  0.95077  0.55071  0.40787  1.0000
  N   N134      1.0  0.91672  0.72368  0.34761  1.0000
  C   C2446     1.0  0.88218  0.50326  0.54959  1.0000
  H   H4325     1.0  0.89440  0.95042  0.47407  1.0000
  H   H4326     1.0  0.88081  0.94421  0.45612  1.0000
  H   H4327     1.0  0.89145  0.92618  0.47193  1.0000
  H   H4328     1.0  0.91959  0.94948  0.36981  1.0000
  H   H4329     1.0  0.88734  0.75401  0.34687  1.0000
  H   H4330     1.0  0.92708  0.92586  0.37878  1.0000
  C   C2447     1.0  0.97058  0.94222  0.45724  1.0000
  H   H4331     1.0  0.95529  0.66270  0.33673  1.0000
  H   H4332     1.0  0.82548  0.88568  0.38395  1.0000
  H   H4333     1.0  0.90574  0.68336  0.56102  1.0000
  N   N135      1.0  0.88144  0.83139  0.44919  1.0000
  C   C2448     1.0  0.89643  0.84422  0.45086  1.0000
  C   C2449     1.0  0.87186  0.82662  0.46846  1.0000
  C   C2450     1.0  0.89058  0.81401  0.44067  1.0000
  C   C2451     1.0  0.86691  0.84058  0.43661  1.0000
  C   C2452     1.0  0.85760  0.86009  0.44155  1.0000
  C   C2453     1.0  0.90638  0.85236  0.43215  1.0000
  C   C2454     1.0  0.87844  0.79715  0.44232  1.0000
  C   C2455     1.0  0.88489  0.81688  0.48317  1.0000
  C   C2456     1.0  0.87358  0.80930  0.50090  1.0000
  C   C2457     1.0  0.84461  0.86865  0.42679  1.0000
  C   C2458     1.0  0.92151  0.86475  0.43572  1.0000
  C   C2459     1.0  0.88748  0.78188  0.43013  1.0000
  H   H4334     1.0  0.90776  0.83662  0.45888  1.0000
  H   H4335     1.0  0.89073  0.85604  0.45925  1.0000
  H   H4336     1.0  0.86512  0.83952  0.47452  1.0000
  H   H4337     1.0  0.86005  0.81791  0.46771  1.0000
  H   H4338     1.0  0.90397  0.80894  0.44682  1.0000
  H   H4339     1.0  0.89478  0.81735  0.42547  1.0000
  H   H4340     1.0  0.87297  0.84197  0.42173  1.0000
  H   H4341     1.0  0.85523  0.83152  0.43673  1.0000
  H   H4342     1.0  0.86816  0.87014  0.44224  1.0000
  H   H4343     1.0  0.84896  0.85886  0.45520  1.0000
  H   H4344     1.0  0.91335  0.84092  0.42401  1.0000
  H   H4345     1.0  0.89633  0.86103  0.42343  1.0000
  H   H4346     1.0  0.86423  0.80152  0.43794  1.0000
  H   H4347     1.0  0.87684  0.79079  0.45701  1.0000
  H   H4348     1.0  0.89411  0.80499  0.47770  1.0000
  H   H4349     1.0  0.89393  0.82711  0.48734  1.0000
  H   H4350     1.0  0.86578  0.79757  0.49786  1.0000
  H   H4351     1.0  0.88316  0.80389  0.51177  1.0000
  H   H4352     1.0  0.86349  0.82049  0.50666  1.0000
  H   H4353     1.0  0.85257  0.87038  0.41277  1.0000
  H   H4354     1.0  0.83315  0.85956  0.42613  1.0000
  H   H4355     1.0  0.83821  0.88262  0.43052  1.0000
  H   H4356     1.0  0.92860  0.87024  0.42218  1.0000
  H   H4357     1.0  0.91522  0.87685  0.44335  1.0000
  H   H4358     1.0  0.93234  0.85657  0.44395  1.0000
  H   H4359     1.0  0.88870  0.78739  0.41512  1.0000
  H   H4360     1.0  0.90163  0.77668  0.43438  1.0000
  H   H4361     1.0  0.87859  0.76995  0.43174  1.0000
  Fe  Fe279     1.0  0.98057  0.87404  0.42962  1.0000
  C   C2460     1.0  0.91034  0.55117  0.56402  1.0000
  C   C2461     1.0  0.93911  0.93361  0.60322  1.0000
  H   H4362     1.0  0.87903  0.66671  0.60839  1.0000
  H   H4363     1.0  0.85804  0.52332  0.54726  1.0000
  C   C2462     1.0  0.86798  0.55155  0.58850  1.0000
  H   H4364     1.0  0.97796  0.59308  0.32178  1.0000
  H   H4365     1.0  0.96123  0.96908  0.44396  1.0000
  H   H4366     1.0  0.77786  0.78692  0.60014  1.0000
  C   C2463     1.0  0.98473  0.66549  0.33891  1.0000
  C   C2464     1.0  0.98302  0.88813  0.50551  1.0000
  H   H4367     1.0  0.96951  0.62678  0.61533  1.0000
  H   H4368     1.0  0.93134  0.92161  0.60079  1.0000
  H   H4369     1.0  0.96991  0.52020  0.47429  1.0000
  H   H4370     1.0  0.80542  0.89999  0.37555  1.0000
  C   C2465     1.0  0.90409  0.70915  0.35659  1.0000
  S   S558      1.0  0.86972  0.64428  0.32039  1.0000
  H   H4371     1.0  0.90711  0.69607  0.34953  1.0000
  H   H4372     1.0  0.76683  0.84739  0.40015  1.0000
  H   H4373     1.0  0.93898  0.70152  0.34293  1.0000
  N   N136      1.0  0.77884  0.77133  0.35055  1.0000
  C   C2466     1.0  0.97507  0.83847  0.53519  1.0000
  H   H4374     1.0  0.89666  0.73211  0.32720  1.0000
  H   H4375     1.0  0.85921  0.52736  0.57794  1.0000
  H   H4376     1.0  0.94898  0.73281  0.32367  1.0000
  H   H4377     1.0  0.97079  0.49172  0.45809  1.0000
  H   H4378     1.0  0.79722  0.77085  0.62477  1.0000
  H   H4379     1.0  0.76598  0.79402  0.38076  1.0000
  C   C2467     1.0  0.86645  0.66750  0.60052  1.0000
  C   C2468     1.0  0.98117  0.60426  0.33021  1.0000
  C   C2469     1.0  0.97624  0.83235  0.57042  1.0000
  C   C2470     1.0  0.76080  0.81876  0.42603  1.0000
  H   H4380     1.0  0.96496  0.62649  0.34477  1.0000
  H   H4381     1.0  0.74740  0.79878  0.35247  1.0000
  H   H4382     1.0  0.75511  0.88185  0.47963  1.0000
  C   C2471     1.0  0.86920  0.66356  0.55414  1.0000
  H   H4383     1.0  0.82226  0.79681  0.62716  1.0000
  H   H4384     1.0  0.80972  0.78651  0.32356  1.0000
  H   H4385     1.0  0.75566  0.75885  0.40617  1.0000
  H   H4386     1.0  0.83665  0.66415  0.60752  1.0000
  H   H4387     1.0  0.93184  0.68158  0.60487  1.0000
  H   H4388     1.0  0.93797  0.55961  0.56686  1.0000
  S   S559      1.0  0.90210  0.70032  0.64139  1.0000
  H   H4389     1.0  0.98652  0.84184  0.63687  1.0000
  H   H4390     1.0  0.87530  0.56874  0.55594  1.0000
  C   C2472     1.0  0.87036  0.68486  0.55489  1.0000
  H   H4391     1.0  0.95872  0.96484  0.55296  1.0000
  H   H4392     1.0  0.78890  0.76444  0.37787  1.0000
  H   H4393     1.0  0.88920  0.71375  0.35445  1.0000
  H   H4394     1.0  0.74719  0.77973  0.37819  1.0000
  C   C2473     1.0  0.74929  0.79195  0.33927  1.0000
  H   H4395     1.0  0.80477  0.86714  0.40650  1.0000
  H   H4396     1.0  0.93573  0.55131  0.54455  1.0000
  H   H4397     1.0  0.90465  0.73672  0.62161  1.0000
  H   H4398     1.0  0.86124  0.70055  0.64026  1.0000
  H   H4399     1.0  0.90750  0.54858  0.57942  1.0000
  C   C2474     1.0  0.97413  0.82367  0.55195  1.0000
  S   S560      1.0  0.86733  0.70261  0.31956  1.0000
  C   C2475     1.0  0.97372  0.61918  0.62866  1.0000
  H   H4400     1.0  0.84893  0.68896  0.58524  1.0000
  H   H4401     1.0  0.92760  0.79609  0.57696  1.0000
  N   N137      1.0  0.87723  0.69096  0.57228  1.0000
  C   C2476     1.0  0.95510  0.52358  0.47114  1.0000
  H   H4402     1.0  0.89665  0.66627  0.57779  1.0000
  H   H4403     1.0  0.85591  0.69131  0.55295  1.0000
  C   C2477     1.0  0.94605  0.56152  0.41771  1.0000
  C   C2478     1.0  0.89171  0.76770  0.37089  1.0000
  H   H4404     1.0  0.86406  0.69740  0.59961  1.0000
  H   H4405     1.0  0.88953  0.71522  0.55748  1.0000
  H   H4406     1.0  0.84808  0.55229  0.53319  1.0000
  C   C2479     1.0  0.74211  0.86839  0.62563  1.0000
  H   H4407     1.0  0.97070  0.60429  0.62914  1.0000
  H   H4408     1.0  0.94524  0.49788  0.48442  1.0000
  N   N138      1.0  0.87968  0.53834  0.55636  1.0000
  H   H4409     1.0  0.98491  0.97121  0.49106  1.0000
  H   H4410     1.0  0.89805  0.69071  0.60272  1.0000
  C   C2480     1.0  0.92450  0.67577  0.59422  1.0000
  C   C2481     1.0  0.85080  0.55949  0.54546  1.0000
  H   H4411     1.0  0.74889  0.86671  0.45208  1.0000
  H   H4412     1.0  0.87942  0.68994  0.54228  1.0000
  H   H4413     1.0  0.95469  0.53246  0.45764  1.0000
  C   C2482     1.0  0.95077  0.58080  0.40861  1.0000
  H   H4414     1.0  0.77172  0.80465  0.63846  1.0000
  C   C2483     1.0  0.84332  0.58004  0.54197  1.0000
  C   C2484     1.0  0.89676  0.68166  0.57452  1.0000
  C   C2485     1.0  0.87246  0.53441  0.57670  1.0000
  H   H4415     1.0  0.77648  0.87474  0.38523  1.0000
  H   H4416     1.0  0.96614  0.57996  0.40485  1.0000
  H   H4417     1.0  0.94678  0.93851  0.58975  1.0000
  H   H4418     1.0  0.96044  0.81768  0.55247  1.0000
  C   C2486     1.0  0.77536  0.76613  0.37135  1.0000
  H   H4419     1.0  0.95463  0.95809  0.53031  1.0000
  C   C2487     1.0  0.90730  0.68903  0.58963  1.0000
  H   H4420     1.0  0.96491  0.84396  0.57209  1.0000
  C   C2488     1.0  0.81039  0.88583  0.38178  1.0000
  H   H4421     1.0  0.91137  0.81164  0.59005  1.0000
  C   C2489     1.0  0.93450  0.97744  0.41794  1.0000
  H   H4422     1.0  0.87681  0.77361  0.37268  1.0000
  H   H4423     1.0  0.93439  0.67414  0.58150  1.0000
  N   N139      1.0  0.76592  0.87254  0.41461  1.0000
  H   H4424     1.0  0.92023  0.66175  0.59999  1.0000
  C   C2490     1.0  0.78830  0.78935  0.34728  1.0000
  C   C2491     1.0  0.79913  0.88103  0.40050  1.0000
  H   H4425     1.0  0.91231  0.70291  0.58451  1.0000
  C   C2492     1.0  0.97064  0.61572  0.41071  1.0000
  H   H4426     1.0  0.96027  0.79762  0.60318  1.0000
  H   H4427     1.0  0.84882  0.72159  0.57615  1.0000
  C   C2493     1.0  0.87859  0.71193  0.56913  1.0000
  C   C2494     1.0  0.77781  0.88151  0.39822  1.0000
  H   H4428     1.0  0.98006  0.61379  0.43910  1.0000
  H   H4429     1.0  0.86523  0.48899  0.47228  1.0000
  H   H4430     1.0  0.94262  0.93890  0.36244  1.0000
  H   H4431     1.0  0.83761  0.72492  0.62749  1.0000
  H   H4432     1.0  0.85550  0.72144  0.55131  1.0000
  H   H4433     1.0  0.88315  0.71726  0.58179  1.0000
  C   C2495     1.0  0.75808  0.83950  0.42940  1.0000
  H   H4434     1.0  0.77603  0.89313  0.43022  1.0000
  C   C2496     1.0  0.94050  0.81733  0.58964  1.0000
  H   H4435     1.0  0.96217  0.79686  0.57863  1.0000
  H   H4436     1.0  0.80047  0.78842  0.35586  1.0000
  H   H4437     1.0  0.98269  0.93955  0.44671  1.0000
  H   H4438     1.0  0.96223  0.84063  0.60422  1.0000
  H   H4439     1.0  0.80902  0.87534  0.37181  1.0000
  H   H4440     1.0  0.85770  0.78492  0.63388  1.0000
  S   S561      1.0  0.97747  0.85682  0.40617  1.0000
  H   H4441     1.0  0.94765  0.53181  0.48234  1.0000
  H   H4442     1.0  0.75716  0.78645  0.61665  1.0000
  H   H4443     1.0  0.81898  0.77636  0.64187  1.0000
  H   H4444     1.0  0.85504  0.55998  0.58432  1.0000
  H   H4445     1.0  0.90000  0.77855  0.36283  1.0000
  H   H4446     1.0  0.95547  0.50221  0.44147  1.0000
  C   C2497     1.0  0.96888  0.66430  0.32915  1.0000
  C   C2498     1.0  0.78610  0.79859  0.63403  1.0000
  C   C2499     1.0  0.95584  0.49355  0.45519  1.0000
  C   C2500     1.0  0.92546  0.80371  0.58978  1.0000
  H   H4447     1.0  0.89680  0.76444  0.38501  1.0000
  H   H4448     1.0  0.92192  0.75239  0.34998  1.0000
  C   C2501     1.0  0.75703  0.83542  0.60962  1.0000
  C   C2502     1.0  0.84962  0.66399  0.61472  1.0000
  C   C2503     1.0  0.98164  0.87883  0.47429  1.0000
  H   H4449     1.0  0.91937  0.73875  0.37169  1.0000
  C   C2504     1.0  0.97137  0.71726  0.33744  1.0000
  H   H4450     1.0  0.87650  0.69662  0.38458  1.0000
  C   C2505     1.0  0.77129  0.77932  0.61292  1.0000
  C   C2506     1.0  0.97110  0.98214  0.52918  1.0000
  H   H4451     1.0  0.86852  0.65586  0.59145  1.0000
  H   H4452     1.0  0.86798  0.74902  0.57638  1.0000
  H   H4453     1.0  0.92875  0.94509  0.60793  1.0000
  H   H4454     1.0  0.91950  0.69629  0.38025  1.0000
  H   H4455     1.0  0.98618  0.59753  0.34353  1.0000
  C   C2507     1.0  0.98822  0.95662  0.63768  1.0000
  H   H4456     1.0  0.91052  0.70045  0.31869  1.0000
  H   H4457     1.0  0.94003  0.95402  0.65050  1.0000
  H   H4458     1.0  0.76316  0.84056  0.44325  1.0000
  H   H4459     1.0  0.95462  0.95620  0.62260  1.0000
  H   H4460     1.0  0.94434  0.92263  0.63110  1.0000
  C   C2508     1.0  0.96277  0.61608  0.33503  1.0000
  H   H4461     1.0  0.98321  0.66479  0.35404  1.0000
  C   C2509     1.0  0.74568  0.87950  0.41229  1.0000
  H   H4462     1.0  0.98072  0.59148  0.42970  1.0000
  H   H4463     1.0  0.97340  0.94664  0.60775  1.0000
  H   H4464     1.0  0.98422  0.55004  0.52573  1.0000
  H   H4465     1.0  0.92765  0.48902  0.43612  1.0000
  H   H4466     1.0  0.75144  0.81075  0.43638  1.0000
  C   C2510     1.0  0.79875  0.81537  0.32271  1.0000
  H   H4467     1.0  0.83862  0.81044  0.64927  1.0000
  C   C2511     1.0  0.98306  0.60648  0.42615  1.0000
  C   C2512     1.0  0.98848  0.85188  0.62424  1.0000
  C   C2513     1.0  0.97872  0.98212  0.38154  1.0000
  C   C2514     1.0  0.79256  0.75611  0.34264  1.0000
  C   C2515     1.0  0.78704  0.73570  0.34678  1.0000
  H   H4468     1.0  0.77222  0.73479  0.34418  1.0000
  H   H4469     1.0  0.74617  0.87956  0.38149  1.0000
  C   C2516     1.0  0.80049  0.82095  0.64988  1.0000
  H   H4470     1.0  0.77640  0.77065  0.64124  1.0000
  N   N140      1.0  0.79935  0.80023  0.64867  1.0000
  C   C2517     1.0  0.76082  0.77244  0.34113  1.0000
  H   H4471     1.0  0.98311  0.95253  0.37756  1.0000
  H   H4472     1.0  0.98548  0.81242  0.54920  1.0000
  C   C2518     1.0  0.98477  0.96324  0.38663  1.0000
  H   H4473     1.0  0.97223  0.98584  0.36861  1.0000
  H   H4474     1.0  0.87036  0.49285  0.52627  1.0000
  H   H4475     1.0  0.97711  0.97810  0.61680  1.0000
  H   H4476     1.0  0.74384  0.89506  0.41242  1.0000
  Fe  Fe280     1.0  0.88162  0.67254  0.31912  1.0000
  H   H4477     1.0  0.75650  0.80163  0.32857  1.0000
  C   C2519     1.0  0.98783  0.55923  0.51336  1.0000
  C   C2520     1.0  0.87135  0.48918  0.54151  1.0000
  H   H4478     1.0  0.96466  0.97916  0.63942  1.0000
  C   C2521     1.0  0.97874  0.97648  0.63202  1.0000
  H   H4479     1.0  0.79585  0.70775  0.33844  1.0000
  H   H4480     1.0  0.81455  0.72286  0.33683  1.0000
  H   H4481     1.0  0.85696  0.48893  0.54869  1.0000
  C   C2522     1.0  0.85264  0.78282  0.64896  1.0000
  N   N141      1.0  0.97692  0.94002  0.63708  1.0000
  C   C2523     1.0  0.79955  0.72235  0.33460  1.0000
  H   H4482     1.0  0.98297  0.91024  0.63386  1.0000
  H   H4483     1.0  0.76364  0.76814  0.32661  1.0000
  H   H4484     1.0  0.79494  0.75873  0.32714  1.0000
  H   H4485     1.0  0.95725  0.62354  0.32217  1.0000
  H   H4486     1.0  0.91041  0.56121  0.70661  1.0000
  C   C2524     1.0  0.92486  0.60138  0.75789  1.0000
  S   S562      1.0  0.96086  0.62994  0.68266  1.0000
  C   C2525     1.0  0.78733  0.76261  0.69046  1.0000
  H   H4487     1.0  0.93006  0.59294  0.79583  1.0000
  H   H4488     1.0  0.77773  0.62463  0.80957  1.0000
  Fe  Fe281     1.0  0.89175  0.63362  0.67622  1.0000
  S   S563      1.0  0.87003  0.61852  0.69697  1.0000
  S   S564      1.0  0.90867  0.65689  0.68187  1.0000
  Fe  Fe282     1.0  0.84181  0.57894  0.81013  1.0000
  S   S565      1.0  0.81721  0.56138  0.81129  1.0000
  S   S566      1.0  0.85717  0.59753  0.78628  1.0000
  Fe  Fe283     1.0  0.84429  0.57078  0.85339  1.0000
  S   S567      1.0  0.81948  0.55349  0.85717  1.0000
  S   S568      1.0  0.86665  0.57322  0.87339  1.0000
  Fe  Fe284     1.0  0.83246  0.54029  0.83129  1.0000
  S   S569      1.0  0.83953  0.50841  0.83538  1.0000
  Fe  Fe285     1.0  0.80577  0.57579  0.83726  1.0000
  S   S570      1.0  0.77460  0.58719  0.83732  1.0000
  S   S571      1.0  0.85772  0.55683  0.82822  1.0000
  S   S572      1.0  0.82977  0.59413  0.83526  1.0000
  H   H4489     1.0  0.83907  0.50011  0.90268  1.0000
  H   H4490     1.0  0.86085  0.53568  0.89796  1.0000
  H   H4491     1.0  0.86703  0.49269  0.92820  1.0000
  C   C2526     1.0  0.94969  0.95019  0.66159  1.0000
  S   S573      1.0  0.87222  0.57242  0.96156  1.0000
  H   H4492     1.0  0.77149  0.86099  0.66149  1.0000
  H   H4493     1.0  0.90200  0.59195  0.73613  1.0000
  H   H4494     1.0  0.79248  0.74771  0.69396  1.0000
  C   C2527     1.0  0.87089  0.57279  0.93700  1.0000
  C   C2528     1.0  0.88679  0.57375  0.92418  1.0000
  C   C2529     1.0  0.88513  0.57395  0.90483  1.0000
  C   C2530     1.0  0.86758  0.57328  0.89798  1.0000
  C   C2531     1.0  0.85164  0.57232  0.91078  1.0000
  C   C2532     1.0  0.85332  0.57209  0.93017  1.0000
  H   H4495     1.0  0.90036  0.57453  0.92918  1.0000
  H   H4496     1.0  0.89755  0.57476  0.89507  1.0000
  H   H4497     1.0  0.83804  0.57193  0.90575  1.0000
  H   H4498     1.0  0.84090  0.57149  0.93994  1.0000
  H   H4499     1.0  0.79631  0.50834  0.87045  1.0000
  H   H4500     1.0  0.91309  0.54069  0.92541  1.0000
  H   H4501     1.0  0.79645  0.65108  0.83146  1.0000
  H   H4502     1.0  0.81186  0.50428  0.80890  1.0000
  S   S574      1.0  0.91708  0.61605  0.66440  1.0000
  H   H4503     1.0  0.92076  0.57392  0.73426  1.0000
  Fe  Fe286     1.0  0.93377  0.63973  0.66887  1.0000
  H   H4504     1.0  0.91880  0.63916  0.75054  1.0000
  C   C2533     1.0  0.75746  0.59664  0.85446  1.0000
  H   H4505     1.0  0.91458  0.65965  0.72156  1.0000
  C   C2534     1.0  0.76126  0.59785  0.87294  1.0000
  H   H4506     1.0  0.82032  0.52626  0.91721  1.0000
  H   H4507     1.0  0.77496  0.59279  0.87729  1.0000
  C   C2535     1.0  0.86655  0.61298  0.72189  1.0000
  C   C2536     1.0  0.87356  0.62331  0.73467  1.0000
  C   C2537     1.0  0.87076  0.61817  0.75415  1.0000
  C   C2538     1.0  0.86041  0.60297  0.76136  1.0000
  C   C2539     1.0  0.85291  0.59296  0.74863  1.0000
  C   C2540     1.0  0.85597  0.59793  0.72910  1.0000
  H   H4508     1.0  0.88084  0.63550  0.72953  1.0000
  H   H4509     1.0  0.87645  0.62623  0.76376  1.0000
  H   H4510     1.0  0.84486  0.58129  0.75380  1.0000
  H   H4511     1.0  0.85019  0.58995  0.71947  1.0000
  H   H4512     1.0  0.86905  0.53043  0.86718  1.0000
  H   H4513     1.0  0.77216  0.76326  0.68841  1.0000
  H   H4514     1.0  0.90052  0.51373  0.97639  1.0000
  C   C2541     1.0  0.89005  0.52256  0.92996  1.0000
  H   H4515     1.0  0.93394  0.61017  0.76414  1.0000
  H   H4516     1.0  0.92161  0.56999  0.79823  1.0000
  H   H4517     1.0  0.78918  0.77067  0.70241  1.0000
  H   H4518     1.0  0.87849  0.53371  0.93239  1.0000
  C   C2542     1.0  0.90395  0.57559  0.70284  1.0000
  H   H4519     1.0  0.77898  0.65949  0.81554  1.0000
  H   H4520     1.0  0.92673  0.95351  0.68333  1.0000
  H   H4521     1.0  0.81199  0.52300  0.89508  1.0000
  C   C2543     1.0  0.83491  0.79584  0.65322  1.0000
  H   H4522     1.0  0.79768  0.61891  0.82228  1.0000
  H   H4523     1.0  0.75047  0.60665  0.90008  1.0000
  C   C2544     1.0  0.90366  0.49876  0.97810  1.0000
  C   C2545     1.0  0.81829  0.49053  0.81335  1.0000
  H   H4524     1.0  0.89595  0.49678  0.88093  1.0000
  H   H4525     1.0  0.77472  0.63079  0.84996  1.0000
  C   C2546     1.0  0.79209  0.79144  0.66763  1.0000
  H   H4526     1.0  0.90364  0.50872  0.84808  1.0000
  C   C2547     1.0  0.92885  0.65622  0.72628  1.0000
  H   H4527     1.0  0.76950  0.48803  0.87507  1.0000
  H   H4528     1.0  0.90496  0.53498  0.94949  1.0000
  H   H4529     1.0  0.96561  0.61802  0.72923  1.0000
  C   C2548     1.0  0.90796  0.52932  0.93564  1.0000
  H   H4530     1.0  0.98726  0.59126  0.71887  1.0000
  C   C2549     1.0  0.78182  0.83252  0.65592  1.0000
  C   C2550     1.0  0.89234  0.51862  0.90904  1.0000
  H   H4531     1.0  0.74550  0.56037  0.87381  1.0000
  H   H4532     1.0  0.85474  0.52322  0.91974  1.0000
  H   H4533     1.0  0.78723  0.59670  0.79619  1.0000
  H   H4534     1.0  0.79445  0.85361  0.66911  1.0000
  C   C2551     1.0  0.96527  0.60430  0.73778  1.0000
  C   C2552     1.0  0.78759  0.50676  0.85894  1.0000
  H   H4535     1.0  0.93430  0.62237  0.71361  1.0000
  H   H4536     1.0  0.81348  0.76858  0.67518  1.0000
  C   C2553     1.0  0.88298  0.52237  0.86789  1.0000
  H   H4537     1.0  0.93126  0.93005  0.67625  1.0000
  H   H4538     1.0  0.76487  0.65480  0.84796  1.0000
  S   S575      1.0  0.96356  0.58864  0.98208  1.0000
  N   N142      1.0  0.87689  0.50882  0.90259  1.0000
  H   H4539     1.0  0.94066  0.57508  0.76801  1.0000
  H   H4540     1.0  0.89305  0.53193  0.87128  1.0000
  H   H4541     1.0  0.83008  0.53505  0.97903  1.0000
  H   H4542     1.0  0.88951  0.57727  0.70994  1.0000
  H   H4543     1.0  0.90586  0.59031  0.79241  1.0000
  H   H4544     1.0  0.93198  0.66769  0.73438  1.0000
  H   H4545     1.0  0.91641  0.57261  0.76497  1.0000
  H   H4546     1.0  0.84989  0.76790  0.65254  1.0000
  H   H4547     1.0  0.90292  0.57744  0.68748  1.0000
  H   H4548     1.0  0.98541  0.57989  0.74252  1.0000
  H   H4549     1.0  0.77645  0.79327  0.66922  1.0000
  H   H4550     1.0  0.96338  0.60655  0.75286  1.0000
  H   H4551     1.0  0.92994  0.58817  0.70069  1.0000
  H   H4552     1.0  0.97534  0.93389  0.66715  1.0000
  C   C2554     1.0  0.76927  0.64239  0.84003  1.0000
  H   H4553     1.0  0.89335  0.53262  0.90110  1.0000
  C   C2555     1.0  0.88199  0.50493  0.88243  1.0000
  H   H4554     1.0  0.91914  0.51753  0.93667  1.0000
  C   C2556     1.0  0.83234  0.48883  0.82567  1.0000
  H   H4555     1.0  0.95171  0.57861  0.73790  1.0000
  C   C2557     1.0  0.82391  0.52727  0.90181  1.0000
  C   C2558     1.0  0.73950  0.60345  0.84915  1.0000
  H   H4556     1.0  0.95238  0.59309  0.71666  1.0000
  C   C2559     1.0  0.98483  0.49470  0.94732  1.0000
  H   H4557     1.0  0.79653  0.79894  0.67902  1.0000
  C   C2560     1.0  0.78456  0.64714  0.82446  1.0000
  H   H4558     1.0  0.94356  0.63569  0.74437  1.0000
  C   C2561     1.0  0.84167  0.51455  0.89681  1.0000
  H   H4559     1.0  0.78694  0.58209  0.76704  1.0000
  H   H4560     1.0  0.97236  0.50137  0.95535  1.0000
  Fe  Fe287     1.0  0.89842  0.56774  0.97768  1.0000
  C   C2562     1.0  0.92614  0.58197  0.76943  1.0000
  H   H4561     1.0  0.75676  0.63822  0.83417  1.0000
  H   H4562     1.0  0.82595  0.54211  0.89681  1.0000
  H   H4563     1.0  0.90626  0.51075  0.90590  1.0000
  C   C2563     1.0  0.92060  0.58402  0.79022  1.0000
  H   H4564     1.0  0.85507  0.52890  0.97632  1.0000
  C   C2564     1.0  0.91669  0.58892  0.72985  1.0000
  C   C2565     1.0  0.85885  0.52133  0.90469  1.0000
  N   N143      1.0  0.80353  0.63408  0.79507  1.0000
  C   C2566     1.0  0.80901  0.61565  0.78680  1.0000
  C   C2567     1.0  0.82099  0.64136  0.80060  1.0000
  C   C2568     1.0  0.79083  0.63017  0.81281  1.0000
  C   C2569     1.0  0.79328  0.64841  0.78200  1.0000
  C   C2570     1.0  0.79887  0.64774  0.76063  1.0000
  C   C2571     1.0  0.79249  0.60465  0.78299  1.0000
  C   C2572     1.0  0.94954  0.59348  0.73207  1.0000
  C   C2573     1.0  0.83576  0.64730  0.78455  1.0000
  C   C2574     1.0  0.85389  0.65127  0.79222  1.0000
  C   C2575     1.0  0.78996  0.66491  0.74943  1.0000
  C   C2576     1.0  0.79870  0.59055  0.76856  1.0000
  C   C2577     1.0  0.92615  0.62108  0.72757  1.0000
  H   H4565     1.0  0.81763  0.60608  0.79636  1.0000
  H   H4566     1.0  0.81835  0.61747  0.77366  1.0000
  H   H4567     1.0  0.81742  0.65411  0.80817  1.0000
  H   H4568     1.0  0.82806  0.63070  0.81054  1.0000
  C   C2578     1.0  0.92976  0.63767  0.73861  1.0000
  C   C2579     1.0  0.91584  0.59028  0.70831  1.0000
  H   H4569     1.0  0.77788  0.64704  0.78399  1.0000
  H   H4570     1.0  0.79486  0.66282  0.78564  1.0000
  H   H4571     1.0  0.79396  0.63516  0.75561  1.0000
  H   H4572     1.0  0.81421  0.64714  0.75703  1.0000
  N   N144      1.0  0.92962  0.60141  0.73698  1.0000
  H   H4573     1.0  0.78057  0.61413  0.77792  1.0000
  H   H4574     1.0  0.90928  0.60420  0.70328  1.0000
  H   H4575     1.0  0.91127  0.62399  0.72456  1.0000
  H   H4576     1.0  0.83950  0.63633  0.77481  1.0000
  H   H4577     1.0  0.83032  0.66040  0.77660  1.0000
  H   H4578     1.0  0.86400  0.65610  0.78048  1.0000
  H   H4579     1.0  0.85108  0.66235  0.80208  1.0000
  H   H4580     1.0  0.86042  0.63828  0.79957  1.0000
  H   H4581     1.0  0.79381  0.66381  0.73423  1.0000
  H   H4582     1.0  0.77441  0.66578  0.75207  1.0000
  H   H4583     1.0  0.79512  0.67794  0.75324  1.0000
  H   H4584     1.0  0.96015  0.92171  0.65609  1.0000
  H   H4585     1.0  0.80288  0.59795  0.75471  1.0000
  H   H4586     1.0  0.81079  0.58092  0.77308  1.0000
  H   H4587     1.0  0.91025  0.60792  0.76075  1.0000
  H   H4588     1.0  0.77631  0.51850  0.85857  1.0000
  H   H4589     1.0  0.95550  0.96295  0.66517  1.0000
  H   H4590     1.0  0.83087  0.79426  0.66853  1.0000
  C   C2580     1.0  0.79841  0.77038  0.67264  1.0000
  C   C2581     1.0  0.88948  0.51647  0.84832  1.0000
  S   S576      1.0  0.92817  0.55835  0.96759  1.0000
  H   H4591     1.0  0.87944  0.50747  0.84374  1.0000
  H   H4592     1.0  0.97999  0.48717  0.93624  1.0000
  H   H4593     1.0  0.93934  0.65548  0.71387  1.0000
  C   C2582     1.0  0.98311  0.63845  0.67570  1.0000
  H   H4594     1.0  0.79666  0.76154  0.66137  1.0000
  H   H4595     1.0  0.79649  0.50785  0.84543  1.0000
  C   C2583     1.0  0.98453  0.59362  0.73395  1.0000
  H   H4596     1.0  0.77534  0.82655  0.66956  1.0000
  H   H4597     1.0  0.89024  0.52912  0.83819  1.0000
  H   H4598     1.0  0.84375  0.51476  0.88132  1.0000
  H   H4599     1.0  0.94687  0.93882  0.69089  1.0000
  H   H4600     1.0  0.88680  0.51002  0.93950  1.0000
  H   H4601     1.0  0.86390  0.78599  0.65730  1.0000
  H   H4602     1.0  0.77043  0.48745  0.85000  1.0000
  C   C2584     1.0  0.93798  0.94260  0.67909  1.0000
  H   H4603     1.0  0.97980  0.52130  0.97791  1.0000
  C   C2585     1.0  0.98498  0.65496  0.66393  1.0000
  H   H4604     1.0  0.87198  0.49585  0.87782  1.0000
  C   C2586     1.0  0.74731  0.60577  0.88585  1.0000
  C   C2587     1.0  0.92177  0.49109  0.98153  1.0000
  C   C2588     1.0  0.96590  0.93556  0.65567  1.0000
  H   H4605     1.0  0.87519  0.49301  0.97568  1.0000
  C   C2589     1.0  0.87439  0.49037  0.91415  1.0000
  H   H4606     1.0  0.97264  0.66278  0.65870  1.0000
  H   H4607     1.0  0.81029  0.82316  0.66027  1.0000
  C   C2590     1.0  0.77893  0.48798  0.86191  1.0000
  Fe  Fe288     1.0  0.90399  0.66905  0.65218  1.0000
  C   C2591     1.0  0.78512  0.85286  0.65788  1.0000
  H   H4608     1.0  0.98786  0.54434  0.97621  1.0000
  C   C2592     1.0  0.88934  0.48702  0.97763  1.0000
