data_image0
_chemical_formula_structural       SFeS2FeS2FeSFeS3FeSH4FeS2H2C6H4C6H4FeHC6H2C6H5NC10HCH26SHNC4HC4H2CH7CH3FeH4CHSH3CH5CH8CH2C2H3CH5CHC4H6CH2CHCHSH3CH3C3H4CH2CHNSH4CSCH4SC2HCH3C2H3CH2CH6SFeS2FeS2FeSFeS3FeSCHC4H2CH4C6H7C3HC7H4CHC2H8C7HCH5CHCH5NC11H16CH6CH2C3H8CH2N2H4CH6CHCH2CH4CHCFeCH3C2H2SH3C2H7CH2C2H2CH2C2H2CH3CHCHNH10CH2CHSCHSFeS2FeS2FeSFeS3HCH4FeS2HCH3C7H4C6H5CHC2SHC7H4NCH2C2HCH2CH2CH2NCH5CH4CNHCH4C3HCHCH4C4H2C2HCHCH4C2H2CH2CH2CH2C2H3C2H5CH3NH2CH3NCHCH13C2H2CH2C3H5C3H7CHCH3CFeNHC2H2C2H3C2H4CH8C2H6C2H4C2HCH4CH2SH2C5FeS2FeS2FeS2FeSFeS3CHC3H2CH5CHC6H4C3H4C6H10CH5CHCHFeHC2H3C2H3CHSHCH3CH7CHCH5CH8SH2C2SHCH2NC5HC3HC3H9CSH5FeCH7CH2CNCH2CH3C3HCH2CHCH5CHCNSH2CHCH7C4H4CHCHCHCH2CH3CHNFeHSHCSFeSFeH3CSCFeS2FeS2Fe2S3NS2C6H9C5HC7H4C6H4C2H2CFeCNCH2C2SC2HCHFeH4CH9C3HSH2CH9NHC3HC5HCHCH20SH4SH2CHCHC3H3C3H2C4HCH3CH12NH2CH3CHCH5CHCH2CH6NSC2H3CNCH3C2H5C3H4CHCH4C2HC2H4FeHSC2H4SH2SHFeS2FeS2Fe2S3CSC2HC6H9C2H3C6H5CSH2C6H12CHNCHCFeCHNCH7CH8CH5SCNH2CH3CHFeHCHCHCH4SH2CFeCSHCH3C3SH4CHC3H2CFeH12C3H2CHC2HCNHCH2FeH2C2H4C4HCH6CH2CHC2H9CNHC6H2SH5CHC2H2C2HCH3CH6SCH6C2SCFeS2CSFeSFeS2CHSH2SHFeS2FeS2FeS2FeSFeS2HSCH2C6H4CHC6H4C6H4CHSC3H4CH3C3H9CH4SH3CHC3NHC2HNCH2CHCHCHC3HSHCH11CH2CHFeCH5C2H2CH3CH2CHCH4CHFeCNCHSH10CH2C2H2CHC2HFeH2SH2CH10CH2CH3C2FeH2CH4CHCSH4FeHSFeCSCHS2HCSH2CFeS2FeHFeS2FeSFeHS2FeS2H3CHC6H7SC6H2CHC2SHNC6H4CH2CH2C3HSHC3H3CH3CHCH3SHNH4C2H5CH3SH2FeHC2HFeH2C2H2C2HNH7CH3CH7CHCH2CH2CH3SH2SH4CH11CHCHNC5HC6H2C2H3C2H4CH4CHC2H3C2H3CHCH6CFeHSH3C2HCHCH6CH2CSHCFeSCNHSHFeS2FeSHFeS4CHSHFeS2C6H4NH2C2H3C2HC4H4C6H6C3H4C2H3CHSHC5H3CH3FeH2CHCH4CH3C3HCSHCNCH3CHC2H4CH10CH2FeHCH2NHCSH4FeCHCHC2H10CHCHCHCH7CH7CH3C4HCH3C2HCH2C3HCH2C2HSFeCH5CHC2H4SH2CHCH3CFeSFeSHCSCH2SFeCSFeHCFeS2FeS2FeSHFeS2CH2C6H6CHCSCHFeSHC7H5C7H4CSCHCHCH2FeH2CH7CH2CHCNC2H11CHS2HSHC2H2CH2CHSH3NCH5CHSH3SHCHCH3CH3SC2H3CH3CHC2HCH7CH2CH2CH2CH5SCH4C2HCH3C3H3CHNHCFeC4H2SH3C3HCHCH3CH4NH3C2H3CHCH2C2H2CH3FeC4HFeS2CSHSFeSFeHFeS2FeS2FeS2H2SFeS2FeS2H2C8H7C7H2CH3C6H4CHC3HC2HNHCH3CH2CH2C2H2NCHCH5SH4SCSNCH8CH6CH2CH3CFeCH3CH2CFeCHC2HC2H2CH2C2FeHCHCHCH2C2H2CHSH2CH3CH2CHCHCHCNHSH3CNC3HSH2CH6CH2C2H5CHNH2CHCH3C2HFeH13CH9C2FeH2C2HFeS2H2CH4SCHFeSFeSHFeS2HCHSCHFeS2FeSFeHS2CH3CHC7H4C6H2SH6CH3S2C7H7CHCHFeH4SFeH2CHCH3CH2CNH2C3H11NCH2CH8C5H3CH3SFeHCH12CHSCHC2H2NSCHCH3CH2CH8C3HCHCH2C2HC2H4NC3HC2HC4H3C2H2CH4CH2C2HFeH2CH2CHCHCH3CH3CH2C2SHCHNHCHCFeCHCH2C2FeSH2FeS2FeS2FeSFeS3FeS2C2H3CHNHCH7C6H9C6H5C7H5CHC2FeCH6SH2C4H8NH2NC8HCH2CH11CH5NC7H2CHCH3SH9CH2C2H6CH5CH2CH3CH3CHCH6SCHNC3H2C2HCHC2H5CH2CHC2H3CSHCFeH3CHCH2SFeHCH3C2HCH4SFeS2FeS2FeSFeS3FeS2H5CH2C6H4CH4C6H4C6H7CH2CHCH2C5HC2H3CHCH5CH2CH3CH4CH5SHCH9CHC4HC2HCSH2NCH3CH10CH2C2H3NCHC2H2CHNHC4FeC2HCHCH6CH2CHNHCH7SH5CHCH3NH3C3HC2SH5FeH4SH2FeS2FeS2FeSFeS3HCHFeSCFeS2HSH2CSC7H4C3H2C6H5CH2C6H5CH8CH12CNCHC2HC2H9CH2SC2HCH2SH6NH5C2HCHCHC2HCH9CH2SHC2HC2H13C3H4CH4CHNC12H7C2HFeH6CHCHCSHSH2SCFeS2FeS2FeSFeS3H3C7H5C2H4C6H7C6H7NC2H4C3HCH9CHCHCH6C3HCNCH3CHC7H3NH9FeH5CH4SH2CH3CSHFeH4CH3C4NH2C4HNH2CH4SH4CH2C2H3C2HCHC2H3CH5CH2CH4C4H6CHCH4CHCH2C2H8
_chemical_formula_sum              "S288 Fe144 H2304 C1296 N72"
_cell_length_a       54.62
_cell_length_b       54.4798
_cell_length_c       54.6549
_cell_angle_alpha    89.8065
_cell_angle_beta     89.2093
_cell_angle_gamma    89.8978

_space_group_name_H-M_alt    "P 1"
_space_group_IT_number       1

loop_
  _space_group_symop_operation_xyz
  'x, y, z'

loop_
  _atom_site_type_symbol
  _atom_site_label
  _atom_site_symmetry_multiplicity
  _atom_site_fract_x
  _atom_site_fract_y
  _atom_site_fract_z
  _atom_site_occupancy
  S   S1        1.0  0.21859  0.35470  0.15261  1.0000
  Fe  Fe1       1.0  0.16289  0.31579  0.27733  1.0000
  S   S2        1.0  0.13878  0.29493  0.25189  1.0000
  S   S3        1.0  0.19854  0.33359  0.26528  1.0000
  Fe  Fe2       1.0  0.13451  0.29825  0.32294  1.0000
  S   S4        1.0  0.10959  0.27462  0.30069  1.0000
  S   S5        1.0  0.12347  0.29870  0.36301  1.0000
  Fe  Fe3       1.0  0.14345  0.26428  0.27918  1.0000
  S   S6        1.0  0.15354  0.22666  0.26455  1.0000
  Fe  Fe4       1.0  0.10714  0.30738  0.27601  1.0000
  S   S7        1.0  0.07065  0.32507  0.26610  1.0000
  S   S8        1.0  0.16858  0.28474  0.30384  1.0000
  S   S9        1.0  0.13115  0.33145  0.29898  1.0000
  Fe  Fe5       1.0  0.09100  0.41266  0.47091  1.0000
  S   S10       1.0  0.10772  0.37884  0.48731  1.0000
  H   H1        1.0  0.03447  0.39855  0.40109  1.0000
  H   H2        1.0  0.00539  0.42536  0.46902  1.0000
  H   H3        1.0  0.12133  0.20061  0.35876  1.0000
  H   H4        1.0  0.21272  0.22174  0.36579  1.0000
  Fe  Fe6       1.0  0.14181  0.39130  0.46735  1.0000
  S   S11       1.0  0.16717  0.36709  0.44491  1.0000
  S   S12       1.0  0.12399  0.42313  0.44873  1.0000
  H   H5        1.0  0.07768  0.36746  0.30217  1.0000
  H   H6        1.0  0.04292  0.32380  0.36922  1.0000
  C   C1        1.0  0.13497  0.32033  0.38379  1.0000
  C   C2        1.0  0.15918  0.32855  0.38212  1.0000
  C   C3        1.0  0.16884  0.34310  0.40087  1.0000
  C   C4        1.0  0.15416  0.35016  0.42095  1.0000
  C   C5        1.0  0.12974  0.34254  0.42220  1.0000
  C   C6        1.0  0.12035  0.32725  0.40393  1.0000
  H   H7        1.0  0.17065  0.32319  0.36676  1.0000
  H   H8        1.0  0.18775  0.34895  0.39985  1.0000
  H   H9        1.0  0.11838  0.34772  0.43772  1.0000
  H   H10       1.0  0.10177  0.32055  0.40561  1.0000
  C   C7        1.0  0.17909  0.21144  0.27706  1.0000
  C   C8        1.0  0.18928  0.19103  0.26500  1.0000
  C   C9        1.0  0.20978  0.17880  0.27461  1.0000
  C   C10       1.0  0.21966  0.18649  0.29678  1.0000
  C   C11       1.0  0.20924  0.20662  0.30895  1.0000
  C   C12       1.0  0.18927  0.21926  0.29901  1.0000
  H   H11       1.0  0.18133  0.18467  0.24816  1.0000
  H   H12       1.0  0.21751  0.16306  0.26525  1.0000
  H   H13       1.0  0.05293  0.28026  0.36472  1.0000
  H   H14       1.0  0.18146  0.23472  0.30855  1.0000
  Fe  Fe7       1.0  0.13452  0.44529  0.48144  1.0000
  H   H15       1.0  0.02944  0.39364  0.31784  1.0000
  C   C13       1.0  0.09317  0.36154  0.34959  1.0000
  C   C14       1.0  0.03285  0.39691  0.46853  1.0000
  C   C15       1.0  0.23767  0.21720  0.23074  1.0000
  C   C16       1.0  0.04122  0.28433  0.27422  1.0000
  C   C17       1.0  0.04230  0.30969  0.27041  1.0000
  C   C18       1.0  0.02030  0.32306  0.26897  1.0000
  H   H16       1.0  0.05796  0.27375  0.27512  1.0000
  H   H17       1.0  0.02092  0.34260  0.26552  1.0000
  C   C19       1.0  0.21342  0.34721  0.18366  1.0000
  C   C20       1.0  0.23272  0.34171  0.19932  1.0000
  C   C21       1.0  0.22799  0.33749  0.22437  1.0000
  C   C22       1.0  0.20388  0.33774  0.23365  1.0000
  C   C23       1.0  0.18457  0.34266  0.21785  1.0000
  C   C24       1.0  0.18943  0.34800  0.19309  1.0000
  H   H18       1.0  0.21693  0.21263  0.32592  1.0000
  H   H19       1.0  0.24301  0.33392  0.23656  1.0000
  H   H20       1.0  0.16598  0.34335  0.22493  1.0000
  H   H21       1.0  0.17454  0.35300  0.18124  1.0000
  H   H22       1.0  0.10288  0.34503  0.34238  1.0000
  N   N1        1.0  0.19212  0.26732  0.15831  1.0000
  C   C25       1.0  0.21827  0.27058  0.16638  1.0000
  C   C26       1.0  0.19137  0.26049  0.13146  1.0000
  C   C27       1.0  0.17933  0.29182  0.16129  1.0000
  C   C28       1.0  0.17850  0.24880  0.17389  1.0000
  C   C29       1.0  0.18989  0.22286  0.17554  1.0000
  C   C30       1.0  0.22184  0.27689  0.19373  1.0000
  C   C31       1.0  0.15294  0.29351  0.15104  1.0000
  C   C32       1.0  0.21244  0.24426  0.12111  1.0000
  C   C33       1.0  0.20688  0.23524  0.09534  1.0000
  C   C34       1.0  0.17604  0.20712  0.19435  1.0000
  H   H23       1.0  0.23001  0.39470  0.24201  1.0000
  C   C35       1.0  0.14231  0.31924  0.15450  1.0000
  H   H24       1.0  0.22727  0.28523  0.15517  1.0000
  H   H25       1.0  0.22940  0.25386  0.16299  1.0000
  H   H26       1.0  0.17367  0.25141  0.12723  1.0000
  H   H27       1.0  0.19204  0.27737  0.11981  1.0000
  H   H28       1.0  0.19039  0.30663  0.15232  1.0000
  H   H29       1.0  0.17768  0.29692  0.18092  1.0000
  H   H30       1.0  0.17580  0.25592  0.19285  1.0000
  H   H31       1.0  0.15969  0.24602  0.16694  1.0000
  H   H32       1.0  0.20932  0.22347  0.18103  1.0000
  H   H33       1.0  0.18846  0.21343  0.15767  1.0000
  H   H34       1.0  0.21233  0.29409  0.19877  1.0000
  H   H35       1.0  0.21471  0.26200  0.20571  1.0000
  H   H36       1.0  0.14046  0.28057  0.16069  1.0000
  H   H37       1.0  0.15261  0.28944  0.13118  1.0000
  H   H38       1.0  0.22943  0.25531  0.11977  1.0000
  H   H39       1.0  0.21628  0.22807  0.13270  1.0000
  H   H40       1.0  0.22270  0.22448  0.08816  1.0000
  H   H41       1.0  0.19044  0.22327  0.09557  1.0000
  H   H42       1.0  0.20383  0.25105  0.08282  1.0000
  H   H43       1.0  0.17613  0.21592  0.21267  1.0000
  H   H44       1.0  0.15673  0.20448  0.18879  1.0000
  H   H45       1.0  0.18490  0.18882  0.19586  1.0000
  H   H46       1.0  0.20478  0.41579  0.23863  1.0000
  H   H47       1.0  0.24934  0.24295  0.30441  1.0000
  H   H48       1.0  0.21766  0.21510  0.22845  1.0000
  H   H49       1.0  0.04774  0.30114  0.42437  1.0000
  S   S13       1.0  0.15559  0.41421  0.49858  1.0000
  H   H50       1.0  0.15403  0.33312  0.14507  1.0000
  N   N2        1.0  0.17355  0.24830  0.38923  1.0000
  C   C36       1.0  0.18523  0.26302  0.36872  1.0000
  C   C37       1.0  0.14938  0.23753  0.38102  1.0000
  C   C38       1.0  0.16817  0.26575  0.41006  1.0000
  C   C39       1.0  0.19033  0.22849  0.39871  1.0000
  H   H51       1.0  0.18758  0.20043  0.37015  1.0000
  C   C40       1.0  0.20951  0.27630  0.37464  1.0000
  C   C41       1.0  0.15427  0.25476  0.43251  1.0000
  C   C42       1.0  0.14686  0.23101  0.35349  1.0000
  C   C43       1.0  0.04041  0.38155  0.30558  1.0000
  H   H52       1.0  0.02374  0.39741  0.27334  1.0000
  H   H53       1.0  0.14080  0.32374  0.17428  1.0000
  C   C44       1.0  0.14742  0.27487  0.45085  1.0000
  H   H54       1.0  0.17216  0.27729  0.36230  1.0000
  H   H55       1.0  0.18896  0.25136  0.35248  1.0000
  H   H56       1.0  0.16596  0.24121  0.44210  1.0000
  H   H57       1.0  0.13408  0.25067  0.38464  1.0000
  H   H58       1.0  0.15729  0.28156  0.40334  1.0000
  H   H59       1.0  0.18532  0.27368  0.41737  1.0000
  H   H60       1.0  0.20553  0.23673  0.40928  1.0000
  C   C45       1.0  0.01296  0.31913  0.41751  1.0000
  H   H61       1.0  0.22313  0.26340  0.38235  1.0000
  H   H62       1.0  0.22471  0.27362  0.33754  1.0000
  H   H63       1.0  0.20625  0.29142  0.38787  1.0000
  Fe  Fe8       1.0  0.25102  0.33910  0.13164  1.0000
  H   H64       1.0  0.23380  0.22752  0.26833  1.0000
  H   H65       1.0  0.05617  0.36508  0.47035  1.0000
  H   H66       1.0  0.14716  0.24800  0.34219  1.0000
  H   H67       1.0  0.10695  0.23026  0.35383  1.0000
  C   C46       1.0  0.12258  0.21822  0.34852  1.0000
  H   H68       1.0  0.24798  0.38989  0.19246  1.0000
  S   S14       1.0  0.09996  0.43716  0.50236  1.0000
  H   H69       1.0  0.23466  0.20253  0.40020  1.0000
  H   H70       1.0  0.01273  0.35711  0.40720  1.0000
  H   H71       1.0  0.07543  0.31958  0.36742  1.0000
  C   C47       1.0  0.03924  0.31953  0.42681  1.0000
  H   H72       1.0  0.13795  0.26660  0.46698  1.0000
  H   H73       1.0  0.16405  0.28455  0.45722  1.0000
  H   H74       1.0  0.13490  0.28848  0.44239  1.0000
  H   H75       1.0  0.07121  0.32868  0.32026  1.0000
  H   H76       1.0  0.05139  0.36276  0.37664  1.0000
  C   C48       1.0  0.05017  0.37343  0.35931  1.0000
  H   H77       1.0  0.03011  0.36436  0.30286  1.0000
  H   H78       1.0  0.22237  0.43045  0.19898  1.0000
  H   H79       1.0  0.14468  0.22084  0.39192  1.0000
  H   H80       1.0  0.02425  0.33881  0.48995  1.0000
  H   H81       1.0  0.14489  0.36464  0.34988  1.0000
  H   H82       1.0  0.03713  0.29103  0.33790  1.0000
  H   H83       1.0  0.03937  0.42903  0.38944  1.0000
  H   H84       1.0  0.01779  0.25261  0.27760  1.0000
  C   C49       1.0  0.03832  0.37260  0.47472  1.0000
  H   H85       1.0  0.07425  0.39551  0.31814  1.0000
  H   H86       1.0  0.04035  0.33638  0.32718  1.0000
  C   C50       1.0  0.11045  0.38341  0.34337  1.0000
  C   C51       1.0  0.05515  0.40033  0.36668  1.0000
  H   H87       1.0  0.13199  0.37993  0.37659  1.0000
  H   H88       1.0  0.09307  0.35896  0.36983  1.0000
  H   H89       1.0  0.11462  0.38376  0.32340  1.0000
  C   C52       1.0  0.05834  0.31896  0.35682  1.0000
  H   H90       1.0  0.13709  0.24553  0.42714  1.0000
  H   H91       1.0  0.22099  0.41404  0.16179  1.0000
  H   H92       1.0  0.12128  0.21423  0.32864  1.0000
  H   H93       1.0  0.03592  0.27416  0.19267  1.0000
  H   H94       1.0  0.20818  0.30178  0.34378  1.0000
  C   C53       1.0  0.20189  0.21120  0.37940  1.0000
  H   H95       1.0  0.14634  0.39749  0.35240  1.0000
  C   C54       1.0  0.22040  0.02375  0.30416  1.0000
  C   C55       1.0  0.06621  0.37697  0.31633  1.0000
  C   C56       1.0  0.05908  0.33685  0.33471  1.0000
  C   C57       1.0  0.22080  0.28786  0.35158  1.0000
  H   H96       1.0  0.19076  0.04355  0.32270  1.0000
  H   H97       1.0  0.01367  0.31258  0.39835  1.0000
  H   H98       1.0  0.24047  0.31902  0.29506  1.0000
  H   H99       1.0  0.05261  0.38237  0.26743  1.0000
  H   H100      1.0  0.22166  0.45654  0.45753  1.0000
  H   H101      1.0  0.18038  0.21653  0.41206  1.0000
  C   C58       1.0  0.00965  0.40654  0.47382  1.0000
  H   H102      1.0  0.05582  0.41270  0.35054  1.0000
  H   H103      1.0  0.06991  0.28628  0.33694  1.0000
  C   C59       1.0  0.13486  0.38113  0.35645  1.0000
  H   H104      1.0  0.25098  0.28621  0.21859  1.0000
  C   C60       1.0  0.05428  0.29254  0.34851  1.0000
  H   H105      1.0  0.24563  0.22413  0.21329  1.0000
  S   S15       1.0  0.05440  0.41500  0.45303  1.0000
  H   H106      1.0  0.22737  0.18073  0.37671  1.0000
  H   H107      1.0  0.23822  0.29713  0.35619  1.0000
  H   H108      1.0  0.20893  0.39132  0.21700  1.0000
  C   C61       1.0  0.03521  0.40982  0.38412  1.0000
  H   H109      1.0  0.07272  0.40150  0.37657  1.0000
  H   H110      1.0  0.05181  0.41214  0.28215  1.0000
  H   H111      1.0  0.22839  0.40008  0.11918  1.0000
  C   C62       1.0  0.02033  0.35779  0.48579  1.0000
  C   C63       1.0  0.02217  0.28744  0.19986  1.0000
  C   C64       1.0  0.24246  0.23508  0.25159  1.0000
  H   H112      1.0  0.23313  0.25262  0.24716  1.0000
  H   H113      1.0  0.10223  0.40127  0.34851  1.0000
  H   H114      1.0  0.16176  0.21885  0.34696  1.0000
  H   H115      1.0  0.03080  0.37173  0.35353  1.0000
  C   C65       1.0  0.04236  0.39418  0.28062  1.0000
  H   H116      1.0  0.10958  0.32027  0.48969  1.0000
  H   H117      1.0  0.12371  0.32013  0.14659  1.0000
  C   C66       1.0  0.01839  0.27238  0.27566  1.0000
  H   H118      1.0  0.24016  0.43012  0.11104  1.0000
  N   N3        1.0  0.06717  0.36279  0.34013  1.0000
  S   S16       1.0  0.15051  0.48297  0.47346  1.0000
  H   H119      1.0  0.02524  0.28976  0.21979  1.0000
  H   H120      1.0  0.20956  0.18116  0.40473  1.0000
  H   H121      1.0  0.23261  0.44421  0.15385  1.0000
  H   H122      1.0  0.23200  0.02692  0.28763  1.0000
  C   C67       1.0  0.23441  0.42429  0.15026  1.0000
  S   S17       1.0  0.24519  0.30713  0.10677  1.0000
  C   C68       1.0  0.21915  0.47342  0.46865  1.0000
  H   H123      1.0  0.19072  0.04612  0.28962  1.0000
  H   H124      1.0  0.01711  0.40954  0.37515  1.0000
  H   H125      1.0  0.05046  0.33319  0.41652  1.0000
  H   H126      1.0  0.03942  0.32415  0.44657  1.0000
  S   S18       1.0  0.24410  0.17079  0.31063  1.0000
  C   C69       1.0  0.22757  0.41997  0.12358  1.0000
  C   C70       1.0  0.23452  0.42158  0.21244  1.0000
  H   H127      1.0  0.02504  0.30534  0.19048  1.0000
  C   C71       1.0  0.21869  0.40476  0.22851  1.0000
  H   H128      1.0  0.19237  0.50043  0.50099  1.0000
  H   H129      1.0  0.20858  0.42648  0.12048  1.0000
  H   H130      1.0  0.24212  0.43608  0.22439  1.0000
  C   C72       1.0  0.20249  0.04528  0.30602  1.0000
  C   C73       1.0  0.24896  0.28034  0.19933  1.0000
  H   H131      1.0  0.21287  0.06276  0.30713  1.0000
  H   H132      1.0  0.19412  0.45545  0.49311  1.0000
  H   H133      1.0  0.24557  0.19889  0.23492  1.0000
  C   C74       1.0  0.21941  0.19284  0.39111  1.0000
  H   H134      1.0  0.23214  0.02441  0.32054  1.0000
  H   H135      1.0  0.24525  0.27591  0.27829  1.0000
  C   C75       1.0  0.21110  0.46640  0.49464  1.0000
  H   H136      1.0  0.20498  0.48496  0.45980  1.0000
  H   H137      1.0  0.00362  0.35202  0.43792  1.0000
  H   H138      1.0  0.23675  0.48359  0.46883  1.0000
  H   H139      1.0  0.22557  0.45443  0.50230  1.0000
  H   H140      1.0  0.25130  0.34134  0.19227  1.0000
  H   H141      1.0  0.04473  0.48004  0.49383  1.0000
  S   S19       1.0  0.19006  0.28383  0.84287  1.0000
  Fe  Fe9       1.0  0.13924  0.29998  0.71100  1.0000
  S   S20       1.0  0.11779  0.26534  0.71723  1.0000
  S   S21       1.0  0.15237  0.32467  0.74132  1.0000
  Fe  Fe10      1.0  0.14162  0.29378  0.65560  1.0000
  S   S22       1.0  0.12129  0.25801  0.65784  1.0000
  S   S23       1.0  0.15561  0.30646  0.61820  1.0000
  Fe  Fe11      1.0  0.09609  0.27719  0.68453  1.0000
  S   S24       1.0  0.05566  0.27187  0.67617  1.0000
  Fe  Fe12      1.0  0.14477  0.24923  0.69010  1.0000
  S   S25       1.0  0.16001  0.21156  0.69901  1.0000
  S   S26       1.0  0.11523  0.31361  0.68041  1.0000
  S   S27       1.0  0.16737  0.28329  0.68585  1.0000
  Fe  Fe13      1.0  0.11998  0.40417  0.51724  1.0000
  S   S28       1.0  0.11409  0.39732  0.55800  1.0000
  C   C76       1.0  0.13383  0.36013  0.82903  1.0000
  H   H142      1.0  0.03807  0.33197  0.77114  1.0000
  C   C77       1.0  0.04605  0.37005  0.54141  1.0000
  C   C78       1.0  0.19096  0.20434  0.69215  1.0000
  C   C79       1.0  0.20027  0.18136  0.69915  1.0000
  C   C80       1.0  0.22490  0.17514  0.69433  1.0000
  H   H143      1.0  0.12484  0.47804  0.55435  1.0000
  H   H144      1.0  0.11374  0.30422  0.54348  1.0000
  C   C81       1.0  0.20641  0.22100  0.68003  1.0000
  H   H145      1.0  0.18838  0.16829  0.70831  1.0000
  H   H146      1.0  0.20497  0.34057  0.73540  1.0000
  H   H147      1.0  0.13465  0.34645  0.84413  1.0000
  H   H148      1.0  0.19938  0.23862  0.67429  1.0000
  C   C82       1.0  0.14460  0.33238  0.60210  1.0000
  C   C83       1.0  0.12844  0.34920  0.61294  1.0000
  C   C84       1.0  0.11967  0.36927  0.59930  1.0000
  C   C85       1.0  0.12689  0.37268  0.57474  1.0000
  C   C86       1.0  0.14324  0.35602  0.56397  1.0000
  C   C87       1.0  0.15206  0.33597  0.57762  1.0000
  H   H149      1.0  0.12270  0.34671  0.63179  1.0000
  H   H150      1.0  0.10708  0.38213  0.60778  1.0000
  H   H151      1.0  0.14903  0.35853  0.54512  1.0000
  H   H152      1.0  0.16464  0.32309  0.56915  1.0000
  H   H153      1.0  0.17194  0.45307  0.57176  1.0000
  H   H154      1.0  0.05508  0.40592  0.55631  1.0000
  H   H155      1.0  0.21425  0.21344  0.76135  1.0000
  C   C88       1.0  0.03120  0.28192  0.71996  1.0000
  C   C89       1.0  0.02958  0.27584  0.69520  1.0000
  C   C90       1.0  0.22403  0.18482  0.85559  1.0000
  H   H156      1.0  0.04898  0.28428  0.72807  1.0000
  C   C91       1.0  0.00642  0.27249  0.68493  1.0000
  C   C92       1.0  0.18194  0.29435  0.81344  1.0000
  C   C93       1.0  0.18839  0.31787  0.80535  1.0000
  C   C94       1.0  0.18001  0.32663  0.78272  1.0000
  C   C95       1.0  0.16587  0.31167  0.76758  1.0000
  C   C96       1.0  0.16047  0.28767  0.77509  1.0000
  C   C97       1.0  0.16801  0.27926  0.79819  1.0000
  H   H157      1.0  0.19892  0.32973  0.81704  1.0000
  H   H158      1.0  0.18401  0.34531  0.77723  1.0000
  H   H159      1.0  0.14966  0.27596  0.76355  1.0000
  H   H160      1.0  0.16303  0.26102  0.80432  1.0000
  C   C98       1.0  0.14279  0.21002  0.76787  1.0000
  H   H161      1.0  0.00515  0.26744  0.66589  1.0000
  C   C99       1.0  0.16598  0.19460  0.76462  1.0000
  C   C100      1.0  0.02410  0.33756  0.67175  1.0000
  H   H162      1.0  0.21357  0.44870  0.54382  1.0000
  H   H163      1.0  0.23706  0.34407  0.99138  1.0000
  H   H164      1.0  0.24491  0.24581  0.79611  1.0000
  H   H165      1.0  0.09986  0.36456  0.71928  1.0000
  H   H166      1.0  0.13184  0.20918  0.75090  1.0000
  H   H167      1.0  0.23660  0.47140  0.53965  1.0000
  H   H168      1.0  0.23816  0.14249  0.79692  1.0000
  H   H169      1.0  0.17028  0.18620  0.80264  1.0000
  C   C101      1.0  0.05066  0.21320  0.73549  1.0000
  C   C102      1.0  0.02494  0.30894  0.56129  1.0000
  C   C103      1.0  0.03864  0.39545  0.55068  1.0000
  C   C104      1.0  0.24827  0.19517  0.76567  1.0000
  C   C105      1.0  0.05838  0.35470  0.56177  1.0000
  C   C106      1.0  0.10235  0.31001  0.52780  1.0000
  C   C107      1.0  0.20765  0.17966  0.83374  1.0000
  H   H170      1.0  0.19892  0.33030  0.70483  1.0000
  C   C108      1.0  0.21960  0.11243  0.78033  1.0000
  H   H171      1.0  0.09083  0.29427  0.52240  1.0000
  H   H172      1.0  0.24131  0.45089  0.60518  1.0000
  H   H173      1.0  0.05209  0.23238  0.72862  1.0000
  H   H174      1.0  0.17607  0.20214  0.74858  1.0000
  H   H175      1.0  0.06345  0.21090  0.75095  1.0000
  C   C109      1.0  0.11989  0.31556  0.50646  1.0000
  H   H176      1.0  0.02919  0.36079  0.53523  1.0000
  C   C110      1.0  0.23004  0.25885  0.79160  1.0000
  H   H177      1.0  0.24133  0.17415  0.85410  1.0000
  H   H178      1.0  0.20801  0.10836  0.76430  1.0000
  H   H179      1.0  0.23241  0.48732  0.58015  1.0000
  H   H180      1.0  0.01427  0.20220  0.70664  1.0000
  H   H181      1.0  0.03283  0.35521  0.66637  1.0000
  N   N4        1.0  0.08886  0.32518  0.78609  1.0000
  C   C111      1.0  0.09245  0.29946  0.77644  1.0000
  C   C112      1.0  0.09046  0.34366  0.76529  1.0000
  C   C113      1.0  0.10955  0.33029  0.80342  1.0000
  C   C114      1.0  0.06508  0.32798  0.80020  1.0000
  C   C115      1.0  0.04158  0.31985  0.78702  1.0000
  C   C116      1.0  0.09295  0.27860  0.79581  1.0000
  C   C117      1.0  0.11067  0.35666  0.81403  1.0000
  C   C118      1.0  0.08151  0.33535  0.73973  1.0000
  C   C119      1.0  0.23550  0.27210  0.76745  1.0000
  C   C120      1.0  0.09201  0.25343  0.78361  1.0000
  C   C121      1.0  0.13564  0.46202  0.56070  1.0000
  H   H182      1.0  0.11000  0.29844  0.76586  1.0000
  H   H183      1.0  0.07819  0.29465  0.76306  1.0000
  H   H184      1.0  0.08059  0.36088  0.77024  1.0000
  H   H185      1.0  0.10985  0.34936  0.76201  1.0000
  H   H186      1.0  0.12740  0.32656  0.79417  1.0000
  H   H187      1.0  0.10878  0.31774  0.81952  1.0000
  H   H188      1.0  0.06592  0.31797  0.81796  1.0000
  H   H189      1.0  0.06213  0.34752  0.80534  1.0000
  H   H190      1.0  0.04286  0.30052  0.78093  1.0000
  H   H191      1.0  0.11016  0.27935  0.80639  1.0000
  H   H192      1.0  0.07715  0.27982  0.80869  1.0000
  H   H193      1.0  0.09472  0.36014  0.82634  1.0000
  H   H194      1.0  0.11086  0.37079  0.79937  1.0000
  H   H195      1.0  0.09416  0.32125  0.73209  1.0000
  H   H196      1.0  0.06294  0.32735  0.74050  1.0000
  H   H197      1.0  0.22844  0.20471  0.85666  1.0000
  C   C122      1.0  0.22002  0.19404  0.76439  1.0000
  H   H198      1.0  0.04044  0.32191  0.52691  1.0000
  H   H199      1.0  0.13144  0.29921  0.50257  1.0000
  H   H200      1.0  0.10751  0.25132  0.77045  1.0000
  H   H201      1.0  0.09338  0.23878  0.79771  1.0000
  H   H202      1.0  0.07452  0.25113  0.77376  1.0000
  H   H203      1.0  0.23599  0.25823  0.75266  1.0000
  C   C123      1.0  0.17436  0.47370  0.53749  1.0000
  H   H204      1.0  0.15042  0.35811  0.81721  1.0000
  H   H205      1.0  0.04496  0.35382  0.57711  1.0000
  C   C124      1.0  0.07943  0.31692  0.57596  1.0000
  C   C125      1.0  0.06849  0.32184  0.60189  1.0000
  C   C126      1.0  0.07891  0.30403  0.62075  1.0000
  H   H206      1.0  0.09884  0.32293  0.57732  1.0000
  H   H207      1.0  0.09932  0.34786  0.53917  1.0000
  H   H208      1.0  0.07329  0.34075  0.60772  1.0000
  H   H209      1.0  0.04834  0.32026  0.60265  1.0000
  H   H210      1.0  0.07265  0.30944  0.63937  1.0000
  H   H211      1.0  0.07257  0.28502  0.61722  1.0000
  H   H212      1.0  0.09923  0.30429  0.62031  1.0000
  H   H213      1.0  0.21521  0.18414  0.74735  1.0000
  C   C127      1.0  0.08647  0.33286  0.53436  1.0000
  H   H214      1.0  0.08023  0.29670  0.57302  1.0000
  H   H215      1.0  0.00566  0.23117  0.71873  1.0000
  N   N5        1.0  0.20656  0.18297  0.78620  1.0000
  N   N6        1.0  0.06739  0.32948  0.55446  1.0000
  H   H216      1.0  0.22302  0.20851  0.81121  1.0000
  H   H217      1.0  0.06840  0.37134  0.72803  1.0000
  H   H218      1.0  0.14767  0.22950  0.77117  1.0000
  H   H219      1.0  0.04088  0.47651  0.52642  1.0000
  C   C128      1.0  0.18169  0.19508  0.78813  1.0000
  H   H220      1.0  0.02014  0.22036  0.75939  1.0000
  H   H221      1.0  0.07497  0.35017  0.70352  1.0000
  H   H222      1.0  0.05857  0.37298  0.52554  1.0000
  H   H223      1.0  0.01036  0.27890  0.53953  1.0000
  H   H224      1.0  0.07389  0.36561  0.56897  1.0000
  H   H225      1.0  0.01654  0.34088  0.81040  1.0000
  C   C129      1.0  0.22606  0.13970  0.78107  1.0000
  H   H226      1.0  0.16026  0.17561  0.76024  1.0000
  C   C130      1.0  0.08117  0.35676  0.72161  1.0000
  H   H227      1.0  0.22021  0.28514  0.76454  1.0000
  H   H228      1.0  0.18377  0.21465  0.79368  1.0000
  C   C131      1.0  0.02448  0.20759  0.74411  1.0000
  H   H229      1.0  0.13145  0.20303  0.78339  1.0000
  H   H230      1.0  0.05437  0.29545  0.53907  1.0000
  H   H231      1.0  0.06962  0.48742  0.51404  1.0000
  H   H232      1.0  0.23187  0.15737  0.69977  1.0000
  C   C132      1.0  0.24036  0.19179  0.68218  1.0000
  H   H233      1.0  0.12821  0.45605  0.57878  1.0000
  C   C133      1.0  0.04722  0.31384  0.54427  1.0000
  Fe  Fe14      1.0  0.22623  0.29713  0.85810  1.0000
  C   C134      1.0  0.16263  0.46885  0.56295  1.0000
  H   H234      1.0  0.02669  0.33466  0.69168  1.0000
  H   H235      1.0  0.17481  0.45560  0.52824  1.0000
  H   H236      1.0  0.13395  0.37881  0.83711  1.0000
  C   C135      1.0  0.23095  0.21465  0.67491  1.0000
  C   C136      1.0  0.00421  0.29672  0.54731  1.0000
  H   H237      1.0  0.23630  0.14382  0.76389  1.0000
  H   H238      1.0  0.19018  0.18958  0.83709  1.0000
  S   S29       1.0  0.23394  0.32136  0.89058  1.0000
  H   H239      1.0  0.22364  0.35145  0.71004  1.0000
  H   H240      1.0  0.05643  0.20047  0.72064  1.0000
  H   H241      1.0  0.20406  0.15964  0.83342  1.0000
  C   C137      1.0  0.00968  0.28450  0.73427  1.0000
  C   C138      1.0  0.20271  0.15581  0.78259  1.0000
  H   H242      1.0  0.01760  0.32614  0.56917  1.0000
  H   H243      1.0  0.00579  0.33110  0.62792  1.0000
  H   H244      1.0  0.23866  0.18023  0.80925  1.0000
  H   H245      1.0  0.21245  0.24887  0.79044  1.0000
  H   H246      1.0  0.20983  0.10681  0.79740  1.0000
  H   H247      1.0  0.02563  0.39396  0.56640  1.0000
  H   H248      1.0  0.02119  0.30937  0.82007  1.0000
  C   C139      1.0  0.01917  0.32170  0.80399  1.0000
  H   H249      1.0  0.13219  0.33106  0.51106  1.0000
  H   H250      1.0  0.02956  0.40578  0.53574  1.0000
  C   C140      1.0  0.04944  0.48803  0.51185  1.0000
  C   C141      1.0  0.00603  0.21120  0.72306  1.0000
  H   H251      1.0  0.22859  0.27225  0.80678  1.0000
  H   H252      1.0  0.19296  0.15246  0.76518  1.0000
  C   C142      1.0  0.22242  0.47007  0.57608  1.0000
  H   H253      1.0  0.03334  0.32227  0.66188  1.0000
  H   H254      1.0  0.19042  0.14825  0.79713  1.0000
  C   C143      1.0  0.21817  0.46815  0.54811  1.0000
  C   C144      1.0  0.22005  0.18837  0.80955  1.0000
  H   H255      1.0  0.07775  0.33886  0.51705  1.0000
  H   H256      1.0  0.21444  0.17935  0.87281  1.0000
  C   C145      1.0  0.21365  0.33537  0.71769  1.0000
  H   H257      1.0  0.21995  0.29754  0.72676  1.0000
  H   H258      1.0  0.01088  0.28877  0.75349  1.0000
  H   H259      1.0  0.13343  0.44668  0.54759  1.0000
  C   C146      1.0  0.23100  0.31363  0.72107  1.0000
  H   H260      1.0  0.20512  0.47021  0.58681  1.0000
  C   C147      1.0  0.24925  0.32842  0.99037  1.0000
  H   H261      1.0  0.23669  0.10141  0.77866  1.0000
  N   N7        1.0  0.19943  0.48526  0.53703  1.0000
  H   H262      1.0  0.24346  0.36962  0.94934  1.0000
  H   H263      1.0  0.02401  0.18848  0.75117  1.0000
  H   H264      1.0  0.03020  0.29622  0.57623  1.0000
  H   H265      1.0  0.24233  0.32758  0.75640  1.0000
  H   H266      1.0  0.16146  0.48480  0.52654  1.0000
  H   H267      1.0  0.24270  0.22753  0.66531  1.0000
  H   H268      1.0  0.24153  0.38276  0.91915  1.0000
  H   H269      1.0  0.16352  0.48509  0.57503  1.0000
  H   H270      1.0  0.11563  0.49242  0.51309  1.0000
  H   H271      1.0  0.23921  0.30958  0.70280  1.0000
  C   C148      1.0  0.20669  0.48966  0.51055  1.0000
  H   H272      1.0  0.24422  0.32325  0.95145  1.0000
  H   H273      1.0  0.22826  0.43097  0.58259  1.0000
  C   C149      1.0  0.23795  0.44866  0.58531  1.0000
  H   H274      1.0  0.25037  0.21738  0.73240  1.0000
  S   S30       1.0  0.25230  0.31687  0.83306  1.0000
  C   C150      1.0  0.25136  0.31980  0.73970  1.0000
  H   H275      1.0  0.22367  0.50096  0.50944  1.0000
  S   S31       1.0  0.20367  0.75147  0.14830  1.0000
  Fe  Fe15      1.0  0.14521  0.74897  0.27954  1.0000
  S   S32       1.0  0.12107  0.77697  0.26205  1.0000
  S   S33       1.0  0.17591  0.72888  0.25946  1.0000
  Fe  Fe16      1.0  0.12660  0.76211  0.33123  1.0000
  S   S34       1.0  0.10188  0.79201  0.31709  1.0000
  S   S35       1.0  0.12811  0.75817  0.37266  1.0000
  Fe  Fe17      1.0  0.09156  0.76422  0.28865  1.0000
  S   S36       1.0  0.05332  0.75317  0.27586  1.0000
  Fe  Fe18      1.0  0.13370  0.80192  0.29209  1.0000
  S   S37       1.0  0.15014  0.83907  0.28210  1.0000
  S   S38       1.0  0.11508  0.73380  0.30400  1.0000
  S   S39       1.0  0.15888  0.77439  0.30840  1.0000
  H   H276      1.0  0.15034  0.79517  0.40558  1.0000
  C   C151      1.0  0.07578  0.73187  0.46628  1.0000
  H   H277      1.0  0.24713  0.86093  0.21696  1.0000
  H   H278      1.0  0.18023  0.70467  0.13391  1.0000
  H   H279      1.0  0.21374  0.82332  0.25540  1.0000
  H   H280      1.0  0.07464  0.64190  0.38875  1.0000
  Fe  Fe19      1.0  0.13731  0.65726  0.47282  1.0000
  S   S40       1.0  0.14963  0.66082  0.43311  1.0000
  S   S41       1.0  0.10458  0.63308  0.47979  1.0000
  H   H281      1.0  0.25165  0.96093  0.27906  1.0000
  C   C152      1.0  0.23787  0.97523  0.32362  1.0000
  H   H282      1.0  0.17694  0.75417  0.35052  1.0000
  H   H283      1.0  0.04282  0.75207  0.35762  1.0000
  H   H284      1.0  0.01635  0.68779  0.35020  1.0000
  C   C153      1.0  0.23277  0.66375  0.07580  1.0000
  C   C154      1.0  0.17948  0.84679  0.29314  1.0000
  C   C155      1.0  0.18934  0.83518  0.31366  1.0000
  C   C156      1.0  0.21249  0.84212  0.32226  1.0000
  C   C157      1.0  0.22619  0.86040  0.31021  1.0000
  C   C158      1.0  0.21640  0.87199  0.28968  1.0000
  C   C159      1.0  0.19302  0.86538  0.28135  1.0000
  H   H285      1.0  0.17883  0.82135  0.32330  1.0000
  H   H286      1.0  0.21979  0.83339  0.33837  1.0000
  H   H287      1.0  0.22673  0.88623  0.28046  1.0000
  H   H288      1.0  0.18542  0.87450  0.26559  1.0000
  C   C160      1.0  0.13366  0.73072  0.38891  1.0000
  C   C161      1.0  0.13594  0.70807  0.37716  1.0000
  C   C162      1.0  0.14096  0.68676  0.39088  1.0000
  C   C163      1.0  0.14300  0.68784  0.41647  1.0000
  C   C164      1.0  0.14032  0.71048  0.42820  1.0000
  C   C165      1.0  0.13590  0.73183  0.41443  1.0000
  H   H289      1.0  0.13397  0.70699  0.35753  1.0000
  H   H290      1.0  0.14305  0.66931  0.38169  1.0000
  H   H291      1.0  0.14220  0.71159  0.44783  1.0000
  H   H292      1.0  0.13429  0.74935  0.42358  1.0000
  H   H293      1.0  0.05864  0.75540  0.43946  1.0000
  C   C166      1.0  0.04071  0.64633  0.47085  1.0000
  H   H294      1.0  0.05885  0.64906  0.46346  1.0000
  C   C167      1.0  0.02055  0.77869  0.30616  1.0000
  C   C168      1.0  0.02379  0.76251  0.28655  1.0000
  S   S42       1.0  0.12267  0.68889  0.49462  1.0000
  H   H295      1.0  0.03639  0.78629  0.31505  1.0000
  C   C169      1.0  0.19714  0.67702  0.17236  1.0000
  C   C170      1.0  0.19622  0.74769  0.17976  1.0000
  C   C171      1.0  0.21434  0.74603  0.19755  1.0000
  C   C172      1.0  0.20791  0.74109  0.22212  1.0000
  C   C173      1.0  0.18327  0.73856  0.22929  1.0000
  C   C174      1.0  0.16508  0.74136  0.21173  1.0000
  C   C175      1.0  0.17154  0.74586  0.18707  1.0000
  H   H296      1.0  0.23335  0.74823  0.19238  1.0000
  H   H297      1.0  0.22211  0.73908  0.23559  1.0000
  H   H298      1.0  0.14602  0.73931  0.21700  1.0000
  H   H299      1.0  0.15735  0.74743  0.17353  1.0000
  N   N8        1.0  0.21755  0.83625  0.20802  1.0000
  C   C176      1.0  0.06386  0.67767  0.40271  1.0000
  H   H300      1.0  0.17824  0.69552  0.34353  1.0000
  H   H301      1.0  0.25012  0.82118  0.28075  1.0000
  C   C177      1.0  0.19024  0.83450  0.21271  1.0000
  C   C178      1.0  0.17913  0.80836  0.21507  1.0000
  H   H302      1.0  0.22674  0.79773  0.17224  1.0000
  C   C179      1.0  0.21625  0.88400  0.20786  1.0000
  H   H303      1.0  0.22322  0.69760  0.14904  1.0000
  H   H304      1.0  0.19436  0.00058  0.28653  1.0000
  C   C180      1.0  0.15133  0.80907  0.21250  1.0000
  H   H305      1.0  0.25172  0.99293  0.28008  1.0000
  H   H306      1.0  0.03609  0.71440  0.39163  1.0000
  C   C181      1.0  0.17038  0.92962  0.28372  1.0000
  H   H307      1.0  0.21706  0.65085  0.07589  1.0000
  H   H308      1.0  0.21316  0.85246  0.17210  1.0000
  N   N9        1.0  0.05372  0.71800  0.42685  1.0000
  C   C182      1.0  0.23923  0.97694  0.27902  1.0000
  H   H309      1.0  0.04638  0.58807  0.46820  1.0000
  H   H310      1.0  0.18491  0.84402  0.23001  1.0000
  H   H311      1.0  0.18021  0.84455  0.19816  1.0000
  H   H312      1.0  0.18321  0.80039  0.23330  1.0000
  H   H313      1.0  0.18646  0.79558  0.20117  1.0000
  C   C183      1.0  0.06714  0.73849  0.38610  1.0000
  H   H314      1.0  0.20148  0.69440  0.11073  1.0000
  H   H315      1.0  0.19595  0.88348  0.20750  1.0000
  H   H316      1.0  0.08899  0.69979  0.42253  1.0000
  H   H317      1.0  0.20837  0.66118  0.23188  1.0000
  C   C184      1.0  0.01570  0.55914  0.48997  1.0000
  N   N10       1.0  0.04308  0.55728  0.49306  1.0000
  H   H318      1.0  0.24317  0.84109  0.17790  1.0000
  C   C185      1.0  0.14149  0.55497  0.49019  1.0000
  H   H319      1.0  0.14622  0.81645  0.19430  1.0000
  H   H320      1.0  0.14387  0.79021  0.21412  1.0000
  H   H321      1.0  0.14291  0.82058  0.22712  1.0000
  H   H322      1.0  0.18155  0.66459  0.16842  1.0000
  C   C186      1.0  0.13924  0.51030  0.48684  1.0000
  C   C187      1.0  0.21747  0.72769  0.40588  1.0000
  C   C188      1.0  0.06923  0.69504  0.42447  1.0000
  H   H323      1.0  0.03647  0.70531  0.46060  1.0000
  C   C189      1.0  0.05183  0.53098  0.49387  1.0000
  H   H324      1.0  0.24360  0.65421  0.03934  1.0000
  C   C190      1.0  0.18019  0.79700  0.37863  1.0000
  H   H325      1.0  0.22287  0.86051  0.23877  1.0000
  H   H326      1.0  0.05685  0.72239  0.35146  1.0000
  H   H327      1.0  0.09771  0.65671  0.40669  1.0000
  H   H328      1.0  0.07126  0.64307  0.42152  1.0000
  C   C191      1.0  0.21693  0.81427  0.16569  1.0000
  C   C192      1.0  0.02142  0.70469  0.31487  1.0000
  C   C193      1.0  0.07773  0.65340  0.40515  1.0000
  C   C194      1.0  0.09519  0.74979  0.47523  1.0000
  H   H329      1.0  0.04898  0.52155  0.47621  1.0000
  H   H330      1.0  0.23779  0.93555  0.33317  1.0000
  C   C195      1.0  0.20637  0.95335  0.30069  1.0000
  C   C196      1.0  0.18145  0.95506  0.28740  1.0000
  H   H331      1.0  0.21869  0.95900  0.25011  1.0000
  C   C197      1.0  0.23179  0.81548  0.21942  1.0000
  H   H332      1.0  0.17166  0.65009  0.25641  1.0000
  C   C198      1.0  0.14839  0.53296  0.47853  1.0000
  H   H333      1.0  0.05959  0.73364  0.47868  1.0000
  H   H334      1.0  0.03264  0.74355  0.40518  1.0000
  H   H335      1.0  0.03850  0.69397  0.31189  1.0000
  H   H336      1.0  0.08316  0.71301  0.46806  1.0000
  C   C199      1.0  0.24654  0.76755  0.34115  1.0000
  C   C200      1.0  0.02413  0.63147  0.45842  1.0000
  H   H337      1.0  0.21622  0.92330  0.21415  1.0000
  H   H338      1.0  0.21698  0.93754  0.29303  1.0000
  C   C201      1.0  0.22384  0.90643  0.22261  1.0000
  H   H339      1.0  0.16829  0.96596  0.29866  1.0000
  H   H340      1.0  0.22596  0.68225  0.07060  1.0000
  C   C202      1.0  0.19173  0.68893  0.12782  1.0000
  H   H341      1.0  0.22951  0.63961  0.16852  1.0000
  H   H342      1.0  0.00860  0.55736  0.45079  1.0000
  C   C203      1.0  0.20652  0.99894  0.30252  1.0000
  H   H343      1.0  0.07254  0.75702  0.39255  1.0000
  H   H344      1.0  0.22339  0.88694  0.18897  1.0000
  C   C204      1.0  0.03125  0.71337  0.44266  1.0000
  C   C205      1.0  0.19796  0.66823  0.21607  1.0000
  H   H345      1.0  0.22599  0.79749  0.21210  1.0000
  H   H346      1.0  0.24440  0.59673  0.17869  1.0000
  H   H347      1.0  0.21682  0.90512  0.24171  1.0000
  C   C206      1.0  0.22422  0.81816  0.13885  1.0000
  C   C207      1.0  0.06861  0.73751  0.43945  1.0000
  H   H348      1.0  0.22070  0.66595  0.14068  1.0000
  H   H349      1.0  0.21829  0.71623  0.34385  1.0000
  H   H350      1.0  0.18208  0.73122  0.37196  1.0000
  H   H351      1.0  0.04418  0.67342  0.40114  1.0000
  H   H352      1.0  0.06811  0.68410  0.44165  1.0000
  C   C208      1.0  0.03346  0.65826  0.49237  1.0000
  H   H353      1.0  0.21421  0.83403  0.13098  1.0000
  H   H354      1.0  0.16856  0.91964  0.30144  1.0000
  H   H355      1.0  0.24977  0.72836  0.42894  1.0000
  N   N11       1.0  0.20962  0.75974  0.37147  1.0000
  H   H356      1.0  0.21343  0.99185  0.25196  1.0000
  H   H357      1.0  0.19692  0.81097  0.16608  1.0000
  C   C209      1.0  0.19507  0.77521  0.38953  1.0000
  H   H358      1.0  0.07202  0.53057  0.49635  1.0000
  H   H359      1.0  0.23773  0.98005  0.21518  1.0000
  H   H360      1.0  0.25146  0.81660  0.21380  1.0000
  N   N12       1.0  0.21270  0.66646  0.19254  1.0000
  C   C210      1.0  0.16359  0.80877  0.39806  1.0000
  H   H361      1.0  0.01179  0.70609  0.29715  1.0000
  C   C211      1.0  0.21870  0.64025  0.18589  1.0000
  H   H362      1.0  0.17971  0.67309  0.12377  1.0000
  H   H363      1.0  0.22699  0.79375  0.25287  1.0000
  H   H364      1.0  0.20741  0.78328  0.40345  1.0000
  H   H365      1.0  0.18170  0.76356  0.39988  1.0000
  H   H366      1.0  0.20117  0.94787  0.31975  1.0000
  H   H367      1.0  0.20591  0.71314  0.39783  1.0000
  H   H368      1.0  0.19251  0.81165  0.37161  1.0000
  H   H369      1.0  0.02948  0.62283  0.44138  1.0000
  H   H370      1.0  0.02640  0.72343  0.32090  1.0000
  H   H371      1.0  0.18208  0.91872  0.27103  1.0000
  H   H372      1.0  0.18879  0.69477  0.17829  1.0000
  H   H373      1.0  0.15191  0.93136  0.27563  1.0000
  H   H374      1.0  0.08342  0.72641  0.38686  1.0000
  C   C212      1.0  0.24811  0.68331  0.21974  1.0000
  C   C213      1.0  0.23579  0.68166  0.19429  1.0000
  H   H375      1.0  0.17464  0.81627  0.41321  1.0000
  H   H376      1.0  0.15306  0.82403  0.38969  1.0000
  C   C214      1.0  0.06314  0.55734  0.44917  1.0000
  H   H377      1.0  0.01893  0.67674  0.43206  1.0000
  H   H378      1.0  0.24932  0.70349  0.40698  1.0000
  C   C215      1.0  0.05973  0.74086  0.35937  1.0000
  C   C216      1.0  0.22982  0.81336  0.24782  1.0000
  C   C217      1.0  0.23390  0.62548  0.20452  1.0000
  H   H379      1.0  0.24241  0.74594  0.04007  1.0000
  H   H380      1.0  0.24411  0.90804  0.22265  1.0000
  H   H381      1.0  0.24031  0.66436  0.09456  1.0000
  H   H382      1.0  0.22826  0.79391  0.36308  1.0000
  H   H383      1.0  0.07828  0.56453  0.41292  1.0000
  C   C218      1.0  0.04601  0.72827  0.40244  1.0000
  C   C219      1.0  0.23796  0.71476  0.41969  1.0000
  C   C220      1.0  0.20226  0.72703  0.33779  1.0000
  H   H384      1.0  0.08604  0.74087  0.42919  1.0000
  H   H385      1.0  0.08942  0.58480  0.43626  1.0000
  H   H386      1.0  0.20634  0.73793  0.41958  1.0000
  H   H387      1.0  0.22986  0.70240  0.43384  1.0000
  H   H388      1.0  0.22660  0.97964  0.34020  1.0000
  H   H389      1.0  0.07465  0.74996  0.34874  1.0000
  H   H390      1.0  0.04717  0.54768  0.44162  1.0000
  C   C221      1.0  0.18316  0.70881  0.32882  1.0000
  H   H391      1.0  0.23934  0.73326  0.37342  1.0000
  C   C222      1.0  0.05671  0.57123  0.47315  1.0000
  H   H392      1.0  0.19067  0.69847  0.31291  1.0000
  H   H393      1.0  0.06994  0.68627  0.38522  1.0000
  H   H394      1.0  0.16861  0.79112  0.36327  1.0000
  C   C223      1.0  0.19181  0.74323  0.35863  1.0000
  Fe  Fe20      1.0  0.24243  0.74427  0.13443  1.0000
  N   N13       1.0  0.22222  0.97613  0.30096  1.0000
  H   H395      1.0  0.02198  0.73115  0.44692  1.0000
  C   C224      1.0  0.07299  0.57499  0.42958  1.0000
  C   C225      1.0  0.16024  0.65784  0.24159  1.0000
  H   H396      1.0  0.05875  0.58863  0.42458  1.0000
  H   H397      1.0  0.08844  0.76899  0.47401  1.0000
  C   C226      1.0  0.17296  0.65478  0.21668  1.0000
  C   C227      1.0  0.21027  0.68207  0.14742  1.0000
  H   H398      1.0  0.14888  0.57231  0.48385  1.0000
  H   H399      1.0  0.07772  0.54353  0.45269  1.0000
  H   H400      1.0  0.16040  0.66244  0.20281  1.0000
  C   C228      1.0  0.22330  0.83719  0.18092  1.0000
  C   C229      1.0  0.22684  0.85992  0.21884  1.0000
  H   H401      1.0  0.00519  0.74024  0.26013  1.0000
  H   H402      1.0  0.14240  0.64810  0.24166  1.0000
  H   H403      1.0  0.24120  0.75772  0.39458  1.0000
  H   H404      1.0  0.20957  0.78276  0.33908  1.0000
  C   C230      1.0  0.22728  0.97708  0.25357  1.0000
  H   H405      1.0  0.19428  0.68792  0.22032  1.0000
  H   H406      1.0  0.19402  0.99760  0.31878  1.0000
  H   H407      1.0  0.16113  0.53349  0.46321  1.0000
  H   H408      1.0  0.15671  0.67758  0.24538  1.0000
  H   H409      1.0  0.20749  0.73873  0.32189  1.0000
  H   H410      1.0  0.23183  0.70104  0.18944  1.0000
  H   H411      1.0  0.07478  0.57768  0.47999  1.0000
  H   H412      1.0  0.20169  0.62985  0.18203  1.0000
  C   C231      1.0  0.22251  0.77682  0.35359  1.0000
  C   C232      1.0  0.22806  0.74500  0.38570  1.0000
  H   H413      1.0  0.21949  0.80156  0.12816  1.0000
  H   H414      1.0  0.18291  0.96399  0.26926  1.0000
  H   H415      1.0  0.00997  0.57866  0.48838  1.0000
  H   H416      1.0  0.17541  0.63485  0.21339  1.0000
  H   H417      1.0  0.16642  0.71859  0.32283  1.0000
  H   H418      1.0  0.24506  0.74873  0.33391  1.0000
  C   C233      1.0  0.00507  0.69201  0.33392  1.0000
  C   C234      1.0  0.24649  0.98117  0.23335  1.0000
  H   H419      1.0  0.11233  0.74790  0.46425  1.0000
  H   H420      1.0  0.01194  0.52744  0.46480  1.0000
  H   H421      1.0  0.21730  0.58991  0.19700  1.0000
  H   H422      1.0  0.23992  0.78416  0.30553  1.0000
  C   C235      1.0  0.00472  0.54624  0.46747  1.0000
  C   C236      1.0  0.01172  0.69575  0.43247  1.0000
  H   H423      1.0  0.22573  0.62615  0.22316  1.0000
  C   C237      1.0  0.23574  0.59849  0.19713  1.0000
  H   H424      1.0  0.24424  0.82142  0.13703  1.0000
  H   H425      1.0  0.00587  0.70125  0.41397  1.0000
  H   H426      1.0  0.23635  0.69407  0.23256  1.0000
  H   H427      1.0  0.09952  0.74568  0.49459  1.0000
  C   C238      1.0  0.25106  0.95045  0.32899  1.0000
  H   H428      1.0  0.25111  0.66508  0.22809  1.0000
  H   H429      1.0  0.25252  0.98943  0.32253  1.0000
  S   S43       1.0  0.25190  0.71875  0.10328  1.0000
  H   H430      1.0  0.24722  0.58841  0.21046  1.0000
  H   H431      1.0  0.24972  0.67537  0.18055  1.0000
  C   C239      1.0  0.25229  0.65505  0.05753  1.0000
  C   C240      1.0  0.00290  0.75279  0.27528  1.0000
  C   C241      1.0  0.00995  0.65465  0.50199  1.0000
  C   C242      1.0  0.20974  0.79457  0.62889  1.0000
  C   C243      1.0  0.23441  0.79801  0.91625  1.0000
  Fe  Fe21      1.0  0.14117  0.67144  0.52675  1.0000
  S   S44       1.0  0.15675  0.69846  0.55380  1.0000
  S   S45       1.0  0.10891  0.64860  0.53751  1.0000
  Fe  Fe22      1.0  0.13221  0.72348  0.69124  1.0000
  S   S46       1.0  0.11892  0.75905  0.67556  1.0000
  S   S47       1.0  0.13650  0.68925  0.66786  1.0000
  Fe  Fe23      1.0  0.13367  0.74358  0.74319  1.0000
  S   S48       1.0  0.11932  0.78018  0.73085  1.0000
  S   S49       1.0  0.14082  0.74384  0.78409  1.0000
  Fe  Fe24      1.0  0.09292  0.75926  0.70773  1.0000
  S   S50       1.0  0.05404  0.77305  0.70173  1.0000
  Fe  Fe25      1.0  0.14650  0.77674  0.70007  1.0000
  S   S51       1.0  0.16643  0.81167  0.68893  1.0000
  S   S52       1.0  0.10483  0.72276  0.72257  1.0000
  S   S53       1.0  0.16231  0.74108  0.71325  1.0000
  C   C244      1.0  0.22797  0.73332  0.74652  1.0000
  H   H432      1.0  0.00430  0.66368  0.51876  1.0000
  C   C245      1.0  0.19687  0.81954  0.69619  1.0000
  C   C246      1.0  0.20310  0.84442  0.69824  1.0000
  C   C247      1.0  0.22765  0.85161  0.70087  1.0000
  H   H433      1.0  0.20636  0.77752  0.93650  1.0000
  H   H434      1.0  0.20135  0.56113  0.55285  1.0000
  C   C248      1.0  0.21538  0.80183  0.69733  1.0000
  H   H435      1.0  0.18892  0.85828  0.69730  1.0000
  H   H436      1.0  0.23226  0.87089  0.70199  1.0000
  H   H437      1.0  0.12965  0.80517  0.63898  1.0000
  H   H438      1.0  0.21078  0.78266  0.69630  1.0000
  H   H439      1.0  0.07173  0.60237  0.54813  1.0000
  C   C249      1.0  0.07453  0.64731  0.61493  1.0000
  H   H440      1.0  0.17832  0.54995  0.57438  1.0000
  C   C250      1.0  0.14785  0.69493  0.58477  1.0000
  C   C251      1.0  0.14932  0.67215  0.59654  1.0000
  C   C252      1.0  0.14509  0.67042  0.62196  1.0000
  C   C253      1.0  0.13879  0.69132  0.63562  1.0000
  C   C254      1.0  0.13545  0.71364  0.62347  1.0000
  C   C255      1.0  0.14064  0.71563  0.59828  1.0000
  H   H441      1.0  0.15485  0.65607  0.58627  1.0000
  H   H442      1.0  0.14740  0.65298  0.63118  1.0000
  H   H443      1.0  0.12937  0.72946  0.63365  1.0000
  H   H444      1.0  0.13906  0.73323  0.58920  1.0000
  C   C256      1.0  0.18272  0.55312  0.55472  1.0000
  C   C257      1.0  0.02757  0.75431  0.70259  1.0000
  C   C258      1.0  0.02848  0.72991  0.71050  1.0000
  H   H445      1.0  0.23456  0.81194  0.90142  1.0000
  H   H446      1.0  0.04585  0.72180  0.71533  1.0000
  H   H447      1.0  0.10949  0.63048  0.60472  1.0000
  H   H448      1.0  0.21500  0.63971  0.80310  1.0000
  C   C259      1.0  0.20386  0.70275  0.82117  1.0000
  C   C260      1.0  0.19224  0.72247  0.83282  1.0000
  C   C261      1.0  0.17272  0.73468  0.82137  1.0000
  C   C262      1.0  0.16495  0.72755  0.79803  1.0000
  C   C263      1.0  0.17672  0.70799  0.78629  1.0000
  C   C264      1.0  0.19599  0.69555  0.79789  1.0000
  H   H449      1.0  0.19798  0.72801  0.85084  1.0000
  H   H450      1.0  0.16365  0.74978  0.83058  1.0000
  H   H451      1.0  0.17083  0.70232  0.76835  1.0000
  H   H452      1.0  0.20488  0.68037  0.78870  1.0000
  H   H453      1.0  0.17301  0.78978  0.77177  1.0000
  H   H454      1.0  0.20647  0.76420  0.73605  1.0000
  H   H455      1.0  0.21030  0.82090  0.80925  1.0000
  H   H456      1.0  0.16935  0.56661  0.54745  1.0000
  H   H457      1.0  0.02850  0.77609  0.75137  1.0000
  H   H458      1.0  0.08294  0.61508  0.59269  1.0000
  C   C265      1.0  0.20737  0.80101  0.80563  1.0000
  H   H459      1.0  0.03165  0.64231  0.58305  1.0000
  H   H460      1.0  0.05574  0.64078  0.61918  1.0000
  H   H461      1.0  0.15388  0.82778  0.73789  1.0000
  H   H462      1.0  0.05715  0.69146  0.55667  1.0000
  H   H463      1.0  0.09035  0.61206  0.62461  1.0000
  C   C266      1.0  0.02260  0.66028  0.57997  1.0000
  H   H464      1.0  0.05066  0.62740  0.54384  1.0000
  C   C267      1.0  0.11647  0.53169  0.51876  1.0000
  H   H465      1.0  0.03037  0.73970  0.79483  1.0000
  Fe  Fe26      1.0  0.09178  0.66373  0.50390  1.0000
  H   H466      1.0  0.07084  0.78451  0.76275  1.0000
  C   C268      1.0  0.21615  0.76856  0.77477  1.0000
  C   C269      1.0  0.20828  0.62428  0.81463  1.0000
  H   H467      1.0  0.23311  0.72852  0.72739  1.0000
  H   H468      1.0  0.22791  0.60500  0.85881  1.0000
  H   H469      1.0  0.20557  0.80791  0.61418  1.0000
  C   C270      1.0  0.04923  0.56899  0.51727  1.0000
  C   C271      1.0  0.18336  0.61677  0.80478  1.0000
  H   H470      1.0  0.16197  0.52239  0.54254  1.0000
  H   H471      1.0  0.23841  0.77070  0.74079  1.0000
  H   H472      1.0  0.18438  0.53385  0.52082  1.0000
  C   C272      1.0  0.18098  0.52920  0.54033  1.0000
  H   H473      1.0  0.00755  0.69757  0.71979  1.0000
  S   S54       1.0  0.15900  0.64140  0.50422  1.0000
  H   H474      1.0  0.21848  0.74709  0.60091  1.0000
  C   C273      1.0  0.24627  0.83399  0.70035  1.0000
  H   H475      1.0  0.02999  0.78661  0.78223  1.0000
  H   H476      1.0  0.20273  0.80352  0.64592  1.0000
  H   H477      1.0  0.02627  0.60248  0.51561  1.0000
  C   C274      1.0  0.20767  0.79157  0.92175  1.0000
  H   H478      1.0  0.22038  0.74848  0.55382  1.0000
  H   H479      1.0  0.20538  0.63122  0.83351  1.0000
  H   H480      1.0  0.03797  0.56097  0.53239  1.0000
  H   H481      1.0  0.21767  0.58604  0.82170  1.0000
  H   H482      1.0  0.23139  0.76166  0.78607  1.0000
  H   H483      1.0  0.01443  0.70000  0.78757  1.0000
  H   H484      1.0  0.22496  0.74828  0.64192  1.0000
  C   C275      1.0  0.12278  0.50979  0.50664  1.0000
  H   H485      1.0  0.19726  0.80818  0.92745  1.0000
  C   C276      1.0  0.22282  0.78644  0.82436  1.0000
  H   H486      1.0  0.24174  0.83046  0.64471  1.0000
  H   H487      1.0  0.21822  0.51808  0.54831  1.0000
  H   H488      1.0  0.17081  0.63286  0.80521  1.0000
  H   H489      1.0  0.18514  0.61039  0.78555  1.0000
  H   H490      1.0  0.06900  0.76296  0.78782  1.0000
  C   C277      1.0  0.20620  0.76313  0.55414  1.0000
  H   H491      1.0  0.07035  0.74639  0.54706  1.0000
  H   H492      1.0  0.21684  0.76699  0.82495  1.0000
  H   H493      1.0  0.19914  0.78393  0.90510  1.0000
  H   H494      1.0  0.02799  0.67173  0.61749  1.0000
  H   H495      1.0  0.07999  0.74560  0.64079  1.0000
  H   H496      1.0  0.04013  0.59941  0.55832  1.0000
  H   H497      1.0  0.22957  0.59857  0.79384  1.0000
  H   H498      1.0  0.18796  0.75466  0.55124  1.0000
  S   S55       1.0  0.05353  0.67797  0.50713  1.0000
  H   H499      1.0  0.19994  0.75790  0.78109  1.0000
  H   H500      1.0  0.12127  0.81028  0.60761  1.0000
  C   C278      1.0  0.07494  0.66601  0.59349  1.0000
  C   C279      1.0  0.09029  0.62489  0.60878  1.0000
  S   S56       1.0  0.11868  0.58106  0.52741  1.0000
  H   H501      1.0  0.23045  0.78608  0.86309  1.0000
  C   C280      1.0  0.21934  0.79685  0.85009  1.0000
  H   H502      1.0  0.19192  0.84171  0.75822  1.0000
  H   H503      1.0  0.20684  0.71745  0.68151  1.0000
  N   N14       1.0  0.19677  0.77045  0.62506  1.0000
  C   C281      1.0  0.04560  0.59730  0.51878  1.0000
  C   C282      1.0  0.16965  0.77440  0.62902  1.0000
  C   C283      1.0  0.20523  0.75277  0.64461  1.0000
  C   C284      1.0  0.20196  0.75911  0.60030  1.0000
  C   C285      1.0  0.20652  0.77690  0.57847  1.0000
  H   H504      1.0  0.05945  0.72895  0.66113  1.0000
  C   C286      1.0  0.19149  0.72792  0.64631  1.0000
  C   C287      1.0  0.15681  0.79296  0.61197  1.0000
  C   C288      1.0  0.13029  0.79720  0.62026  1.0000
  H   H505      1.0  0.21165  0.72237  0.75185  1.0000
  C   C289      1.0  0.06194  0.76736  0.76935  1.0000
  C   C290      1.0  0.20480  0.70974  0.66285  1.0000
  C   C291      1.0  0.05245  0.60709  0.54391  1.0000
  H   H506      1.0  0.21002  0.77608  0.53883  1.0000
  H   H507      1.0  0.15964  0.75704  0.62654  1.0000
  H   H508      1.0  0.16597  0.78005  0.64828  1.0000
  H   H509      1.0  0.20350  0.76141  0.66291  1.0000
  H   H510      1.0  0.19397  0.69253  0.66436  1.0000
  H   H511      1.0  0.23917  0.60960  0.90287  1.0000
  H   H512      1.0  0.18677  0.74650  0.59530  1.0000
  H   H513      1.0  0.02510  0.73367  0.76341  1.0000
  H   H514      1.0  0.19272  0.79172  0.57758  1.0000
  C   C292      1.0  0.22220  0.76072  0.74810  1.0000
  S   S57       1.0  0.22740  0.68586  0.83549  1.0000
  H   H515      1.0  0.18959  0.71935  0.62805  1.0000
  H   H516      1.0  0.17302  0.73078  0.65453  1.0000
  H   H517      1.0  0.16598  0.81107  0.61181  1.0000
  H   H518      1.0  0.15619  0.78551  0.59312  1.0000
  H   H519      1.0  0.11987  0.77969  0.62025  1.0000
  Fe  Fe27      1.0  0.12471  0.61962  0.51266  1.0000
  C   C293      1.0  0.23188  0.81132  0.76833  1.0000
  H   H520      1.0  0.18792  0.79721  0.81097  1.0000
  H   H521      1.0  0.22871  0.83104  0.77265  1.0000
  H   H522      1.0  0.17823  0.83490  0.78765  1.0000
  H   H523      1.0  0.23177  0.81070  0.74803  1.0000
  H   H524      1.0  0.07149  0.65603  0.57615  1.0000
  H   H525      1.0  0.09424  0.67238  0.59197  1.0000
  H   H526      1.0  0.01901  0.69552  0.59754  1.0000
  C   C294      1.0  0.15383  0.83256  0.75760  1.0000
  H   H527      1.0  0.14026  0.82088  0.76748  1.0000
  H   H528      1.0  0.24649  0.82731  0.61199  1.0000
  C   C295      1.0  0.03151  0.67941  0.59887  1.0000
  N   N15       1.0  0.05780  0.68761  0.59600  1.0000
  C   C296      1.0  0.05998  0.70302  0.57306  1.0000
  H   H529      1.0  0.14810  0.85205  0.75942  1.0000
  H   H530      1.0  0.08946  0.72838  0.58412  1.0000
  C   C297      1.0  0.08449  0.73179  0.54553  1.0000
  H   H531      1.0  0.04515  0.71704  0.57234  1.0000
  H   H532      1.0  0.09976  0.70249  0.56625  1.0000
  H   H533      1.0  0.19982  0.79570  0.85594  1.0000
  C   C298      1.0  0.18820  0.80212  0.76555  1.0000
  C   C299      1.0  0.17932  0.82912  0.76825  1.0000
  C   C300      1.0  0.08487  0.71611  0.56872  1.0000
  H   H534      1.0  0.08216  0.65574  0.63166  1.0000
  C   C301      1.0  0.22679  0.60255  0.81362  1.0000
  H   H535      1.0  0.04978  0.75735  0.64732  1.0000
  H   H536      1.0  0.08069  0.72020  0.52934  1.0000
  C   C302      1.0  0.05064  0.72647  0.62234  1.0000
  H   H537      1.0  0.03092  0.72288  0.62600  1.0000
  C   C303      1.0  0.06471  0.70201  0.61837  1.0000
  H   H538      1.0  0.06704  0.75237  0.75650  1.0000
  H   H539      1.0  0.05230  0.73881  0.60624  1.0000
  H   H540      1.0  0.17518  0.60196  0.81624  1.0000
  H   H541      1.0  0.08472  0.70581  0.61831  1.0000
  H   H542      1.0  0.06139  0.69093  0.63523  1.0000
  C   C304      1.0  0.23798  0.79305  0.63112  1.0000
  H   H543      1.0  0.19017  0.79903  0.74555  1.0000
  C   C305      1.0  0.24005  0.80906  0.69864  1.0000
  N   N16       1.0  0.21154  0.79563  0.77873  1.0000
  S   S58       1.0  0.24240  0.73865  0.95037  1.0000
  H   H544      1.0  0.10268  0.74055  0.54273  1.0000
  H   H545      1.0  0.24615  0.78159  0.61638  1.0000
  C   C306      1.0  0.06063  0.74034  0.64425  1.0000
  H   H546      1.0  0.24343  0.72842  0.75862  1.0000
  C   C307      1.0  0.03417  0.77091  0.77013  1.0000
  H   H547      1.0  0.22472  0.78573  0.58008  1.0000
  H   H548      1.0  0.06865  0.56507  0.52193  1.0000
  H   H549      1.0  0.10443  0.53105  0.53463  1.0000
  H   H550      1.0  0.22548  0.81627  0.85072  1.0000
  H   H551      1.0  0.02659  0.66623  0.56093  1.0000
  H   H552      1.0  0.24259  0.78670  0.81988  1.0000
  H   H553      1.0  0.22314  0.70517  0.65509  1.0000
  C   C308      1.0  0.24958  0.81856  0.63007  1.0000
  C   C309      1.0  0.00674  0.71622  0.71296  1.0000
  C   C310      1.0  0.02092  0.74698  0.77838  1.0000
  C   C311      1.0  0.24562  0.61320  0.85258  1.0000
  H   H554      1.0  0.00399  0.78341  0.69007  1.0000
  H   H555      1.0  0.04464  0.52103  0.53246  1.0000
  H   H556      1.0  0.05730  0.60705  0.50517  1.0000
  H   H557      1.0  0.23554  0.82157  0.94813  1.0000
  C   C312      1.0  0.04004  0.51442  0.51391  1.0000
  H   H558      1.0  0.24291  0.78484  0.64903  1.0000
  C   C313      1.0  0.12585  0.55433  0.51062  1.0000
  H   H559      1.0  0.01609  0.78070  0.81936  1.0000
  C   C314      1.0  0.00483  0.76455  0.69629  1.0000
  H   H560      1.0  0.19579  0.50797  0.56961  1.0000
  C   C315      1.0  0.19957  0.50987  0.54973  1.0000
  H   H561      1.0  0.01984  0.51389  0.51214  1.0000
  H   H562      1.0  0.24313  0.63342  0.85483  1.0000
  C   C316      1.0  0.24744  0.80725  0.93953  1.0000
  H   H563      1.0  0.24349  0.78117  0.90939  1.0000
  H   H564      1.0  0.22304  0.74027  0.99952  1.0000
  H   H565      1.0  0.00599  0.55233  0.50669  1.0000
  C   C317      1.0  0.24275  0.74169  0.00065  1.0000
  H   H566      1.0  0.24726  0.79143  0.95240  1.0000
  N   N17       1.0  0.25097  0.60692  0.82597  1.0000
  Fe  Fe28      1.0  0.25130  0.70172  0.86526  1.0000
  H   H567      1.0  0.31168  0.26495  0.23854  1.0000
  S   S59       1.0  0.30324  0.31121  0.09124  1.0000
  H   H568      1.0  0.47264  0.48728  0.01984  1.0000
  C   C318      1.0  0.47451  0.01956  0.46328  1.0000
  S   S60       1.0  0.28556  0.32457  0.14801  1.0000
  Fe  Fe29      1.0  0.30450  0.34400  0.11640  1.0000
  S   S61       1.0  0.33946  0.36628  0.11964  1.0000
  Fe  Fe30      1.0  0.28098  0.29334  0.12172  1.0000
  H   H569      1.0  0.28181  0.22798  0.36154  1.0000
  H   H570      1.0  0.38539  0.18609  0.17327  1.0000
  H   H571      1.0  0.28930  0.39182  0.06087  1.0000
  C   C319      1.0  0.31809  0.43168  0.04917  1.0000
  S   S62       1.0  0.33988  0.48312  0.12047  1.0000
  C   C320      1.0  0.36665  0.14632  0.15016  1.0000
  Fe  Fe31      1.0  0.31382  0.17290  0.25019  1.0000
  S   S63       1.0  0.31020  0.17949  0.29060  1.0000
  S   S64       1.0  0.32626  0.20672  0.22895  1.0000
  Fe  Fe32      1.0  0.30141  0.11823  0.25608  1.0000
  S   S65       1.0  0.29596  0.12166  0.29658  1.0000
  S   S66       1.0  0.30057  0.08142  0.23630  1.0000
  Fe  Fe33      1.0  0.27616  0.15679  0.28801  1.0000
  Fe  Fe34      1.0  0.33047  0.14405  0.29533  1.0000
  S   S67       1.0  0.35726  0.13459  0.32516  1.0000
  S   S68       1.0  0.27856  0.15194  0.24722  1.0000
  S   S69       1.0  0.33706  0.13898  0.25516  1.0000
  N   N18       1.0  0.27757  0.25280  0.27774  1.0000
  S   S70       1.0  0.47081  0.16002  0.32900  1.0000
  S   S71       1.0  0.48168  0.10803  0.37907  1.0000
  C   C321      1.0  0.38881  0.14167  0.32524  1.0000
  C   C322      1.0  0.40281  0.13350  0.34501  1.0000
  C   C323      1.0  0.42791  0.13887  0.34620  1.0000
  C   C324      1.0  0.43933  0.15250  0.32759  1.0000
  C   C325      1.0  0.42537  0.16057  0.30766  1.0000
  C   C326      1.0  0.40019  0.15507  0.30639  1.0000
  H   H572      1.0  0.39411  0.12328  0.35974  1.0000
  H   H573      1.0  0.43828  0.13292  0.36181  1.0000
  H   H574      1.0  0.43405  0.17122  0.29325  1.0000
  H   H575      1.0  0.38955  0.16149  0.29110  1.0000
  H   H576      1.0  0.32978  0.19638  0.16098  1.0000
  H   H577      1.0  0.40014  0.42358  0.03455  1.0000
  H   H578      1.0  0.33880  0.13743  0.19215  1.0000
  H   H579      1.0  0.36830  0.09175  0.28153  1.0000
  H   H580      1.0  0.29872  0.15888  0.15981  1.0000
  C   C327      1.0  0.26059  0.41491  0.15526  1.0000
  C   C328      1.0  0.30493  0.03093  0.23938  1.0000
  C   C329      1.0  0.30085  0.05291  0.25232  1.0000
  C   C330      1.0  0.29695  0.05169  0.27764  1.0000
  C   C331      1.0  0.29708  0.02886  0.28981  1.0000
  H   H581      1.0  0.29358  0.06831  0.28786  1.0000
  C   C332      1.0  0.26857  0.23788  0.29959  1.0000
  C   C333      1.0  0.33962  0.39878  0.11816  1.0000
  C   C334      1.0  0.36185  0.41150  0.12030  1.0000
  C   C335      1.0  0.36239  0.43737  0.12023  1.0000
  C   C336      1.0  0.34061  0.45072  0.11829  1.0000
  C   C337      1.0  0.31849  0.43801  0.11550  1.0000
  C   C338      1.0  0.31800  0.41218  0.11530  1.0000
  H   H582      1.0  0.37871  0.40129  0.12241  1.0000
  H   H583      1.0  0.37956  0.44694  0.12240  1.0000
  H   H584      1.0  0.30167  0.44822  0.11333  1.0000
  H   H585      1.0  0.30092  0.40262  0.11308  1.0000
  C   C339      1.0  0.29123  0.24149  0.16116  1.0000
  C   C340      1.0  0.31076  0.25288  0.17279  1.0000
  C   C341      1.0  0.32114  0.24202  0.19362  1.0000
  C   C342      1.0  0.31163  0.22012  0.20350  1.0000
  C   C343      1.0  0.29161  0.20906  0.19230  1.0000
  C   C344      1.0  0.28170  0.21954  0.17100  1.0000
  H   H586      1.0  0.31840  0.26964  0.16524  1.0000
  H   H587      1.0  0.33681  0.25055  0.20198  1.0000
  H   H588      1.0  0.28416  0.19216  0.19967  1.0000
  H   H589      1.0  0.40542  0.11241  0.14497  1.0000
  C   C345      1.0  0.31725  0.40659  0.03606  1.0000
  C   C346      1.0  0.37314  0.44831  0.05100  1.0000
  H   H590      1.0  0.30535  0.36910  0.04320  1.0000
  H   H591      1.0  0.46362  0.47426  0.06185  1.0000
  C   C347      1.0  0.36571  0.01795  0.29392  1.0000
  Fe  Fe35      1.0  0.26769  0.32739  0.07847  1.0000
  C   C348      1.0  0.27162  0.44763  0.18524  1.0000
  N   N19       1.0  0.27062  0.42036  0.18021  1.0000
  C   C349      1.0  0.29658  0.41074  0.18105  1.0000
  H   H592      1.0  0.28717  0.13412  0.19665  1.0000
  H   H593      1.0  0.44129  0.10360  0.48305  1.0000
  C   C350      1.0  0.26075  0.32005  0.01173  1.0000
  C   C351      1.0  0.29974  0.38265  0.17741  1.0000
  S   S72       1.0  0.49326  0.12658  0.44581  1.0000
  C   C352      1.0  0.44468  0.06390  0.47936  1.0000
  C   C353      1.0  0.29463  0.12523  0.17991  1.0000
  H   H594      1.0  0.26491  0.28773  0.31616  1.0000
  C   C354      1.0  0.32570  0.37445  0.18366  1.0000
  H   H595      1.0  0.48306  0.06217  0.48669  1.0000
  Fe  Fe36      1.0  0.49504  0.13864  0.35501  1.0000
  H   H596      1.0  0.29587  0.50155  0.15960  1.0000
  H   H597      1.0  0.47924  0.02097  0.40468  1.0000
  H   H598      1.0  0.30509  0.41584  0.19876  1.0000
  H   H599      1.0  0.30821  0.41923  0.16652  1.0000
  C   C355      1.0  0.28603  0.46358  0.16636  1.0000
  H   H600      1.0  0.39593  0.02666  0.31670  1.0000
  H   H601      1.0  0.38058  0.10401  0.12500  1.0000
  H   H602      1.0  0.26596  0.33262  0.31046  1.0000
  H   H603      1.0  0.30563  0.45834  0.16530  1.0000
  H   H604      1.0  0.26944  0.28727  0.25976  1.0000
  H   H605      1.0  0.29666  0.37789  0.15796  1.0000
  H   H606      1.0  0.28683  0.37183  0.18895  1.0000
  H   H607      1.0  0.48328  0.01905  0.48155  1.0000
  H   H608      1.0  0.29060  0.47256  0.06910  1.0000
  C   C356      1.0  0.25578  0.40716  0.19989  1.0000
  C   C357      1.0  0.26076  0.32044  0.29514  1.0000
  C   C358      1.0  0.27030  0.23925  0.25486  1.0000
  H   H609      1.0  0.33795  0.20507  0.10300  1.0000
  S   S73       1.0  0.40934  0.49378  0.09739  1.0000
  H   H610      1.0  0.44104  0.04762  0.49112  1.0000
  H   H611      1.0  0.38743  0.08539  0.15137  1.0000
  C   C359      1.0  0.49733  0.12242  0.49557  1.0000
  H   H612      1.0  0.40604  0.45592  0.02919  1.0000
  H   H613      1.0  0.32798  0.35466  0.17935  1.0000
  H   H614      1.0  0.33943  0.38493  0.17268  1.0000
  H   H615      1.0  0.32924  0.37720  0.20342  1.0000
  H   H616      1.0  0.36059  0.09347  0.23472  1.0000
  H   H617      1.0  0.28535  0.29306  0.02641  1.0000
  H   H618      1.0  0.33274  0.22833  0.12607  1.0000
  H   H619      1.0  0.27904  0.11915  0.16861  1.0000
  H   H620      1.0  0.32798  0.42922  0.06659  1.0000
  N   N20       1.0  0.38441  0.06138  0.30113  1.0000
  H   H621      1.0  0.39702  0.14951  0.19415  1.0000
  C   C360      1.0  0.37072  0.06788  0.32453  1.0000
  C   C361      1.0  0.40926  0.07358  0.30187  1.0000
  C   C362      1.0  0.38840  0.03397  0.29934  1.0000
  H   H622      1.0  0.35255  0.06383  0.27772  1.0000
  C   C363      1.0  0.34687  0.21669  0.11695  1.0000
  C   C364      1.0  0.42471  0.06845  0.32501  1.0000
  C   C365      1.0  0.34236  0.06906  0.32351  1.0000
  C   C366      1.0  0.33102  0.07276  0.34893  1.0000
  C   C367      1.0  0.47609  0.49009  0.05877  1.0000
  H   H623      1.0  0.36957  0.14899  0.21291  1.0000
  C   C368      1.0  0.45032  0.07949  0.32228  1.0000
  H   H624      1.0  0.29230  0.29758  0.30000  1.0000
  C   C369      1.0  0.36889  0.11961  0.16000  1.0000
  H   H625      1.0  0.37586  0.05516  0.33961  1.0000
  H   H626      1.0  0.37619  0.08644  0.33092  1.0000
  H   H627      1.0  0.40721  0.09394  0.30035  1.0000
  H   H628      1.0  0.42077  0.06787  0.28592  1.0000
  H   H629      1.0  0.35268  0.28186  0.24329  1.0000
  H   H630      1.0  0.27303  0.42210  0.14074  1.0000
  H   H631      1.0  0.35288  0.01800  0.30978  1.0000
  H   H632      1.0  0.47902  0.13002  0.49623  1.0000
  H   H633      1.0  0.30453  0.40748  0.02042  1.0000
  H   H634      1.0  0.37388  0.46649  0.06010  1.0000
  H   H635      1.0  0.42707  0.04852  0.32830  1.0000
  H   H636      1.0  0.41596  0.07669  0.34151  1.0000
  H   H637      1.0  0.33653  0.08480  0.31199  1.0000
  H   H638      1.0  0.33451  0.05225  0.31573  1.0000
  H   H639      1.0  0.33539  0.05701  0.36107  1.0000
  H   H640      1.0  0.33789  0.09001  0.35719  1.0000
  H   H641      1.0  0.31080  0.07422  0.34743  1.0000
  H   H642      1.0  0.45894  0.03468  0.36717  1.0000
  H   H643      1.0  0.26611  0.49762  0.17374  1.0000
  H   H644      1.0  0.37529  0.11890  0.17908  1.0000
  S   S74       1.0  0.27016  0.36094  0.10229  1.0000
  H   H645      1.0  0.46056  0.07664  0.33944  1.0000
  H   H646      1.0  0.46070  0.07044  0.30719  1.0000
  H   H647      1.0  0.44932  0.09951  0.31856  1.0000
  H   H648      1.0  0.41155  0.44261  0.05879  1.0000
  S   S75       1.0  0.27929  0.25314  0.13353  1.0000
  H   H649      1.0  0.28847  0.25791  0.32862  1.0000
  H   H650      1.0  0.31483  0.47697  0.00629  1.0000
  C   C370      1.0  0.30001  0.48504  0.05593  1.0000
  H   H651      1.0  0.32982  0.17564  0.13603  1.0000
  C   C371      1.0  0.37005  0.17717  0.18347  1.0000
  H   H652      1.0  0.26770  0.40119  0.21522  1.0000
  C   C372      1.0  0.27028  0.22711  0.34499  1.0000
  C   C373      1.0  0.33225  0.15282  0.18066  1.0000
  C   C374      1.0  0.30753  0.38660  0.05327  1.0000
  H   H653      1.0  0.43155  0.06382  0.46408  1.0000
  H   H654      1.0  0.31220  0.26202  0.29475  1.0000
  H   H655      1.0  0.38139  0.18811  0.23228  1.0000
  C   C375      1.0  0.28525  0.49071  0.17335  1.0000
  C   C376      1.0  0.47144  0.03968  0.40432  1.0000
  C   C377      1.0  0.38263  0.16099  0.20299  1.0000
  H   H656      1.0  0.43637  0.02722  0.39029  1.0000
  H   H657      1.0  0.32448  0.16618  0.19406  1.0000
  C   C378      1.0  0.31057  0.14323  0.16531  1.0000
  C   C379      1.0  0.26555  0.27773  0.27743  1.0000
  C   C380      1.0  0.34184  0.18407  0.14997  1.0000
  C   C381      1.0  0.27224  0.29509  0.29863  1.0000
  H   H658      1.0  0.50079  0.15184  0.28401  1.0000
  C   C382      1.0  0.34479  0.27005  0.25800  1.0000
  H   H659      1.0  0.30131  0.22867  0.32058  1.0000
  H   H660      1.0  0.40899  0.18905  0.21352  1.0000
  H   H661      1.0  0.27959  0.22099  0.25423  1.0000
  C   C383      1.0  0.31453  0.45713  0.01144  1.0000
  H   H662      1.0  0.40068  0.07985  0.25256  1.0000
  H   H663      1.0  0.33481  0.47267  0.06853  1.0000
  H   H664      1.0  0.35146  0.25097  0.25509  1.0000
  H   H665      1.0  0.33685  0.49100  0.04165  1.0000
  H   H666      1.0  0.33567  0.40085  0.02953  1.0000
  H   H667      1.0  0.36018  0.19233  0.19302  1.0000
  H   H668      1.0  0.35604  0.02417  0.27732  1.0000
  H   H669      1.0  0.26639  0.20752  0.34117  1.0000
  H   H670      1.0  0.40271  0.02972  0.28529  1.0000
  H   H671      1.0  0.36745  0.43430  0.06467  1.0000
  H   H672      1.0  0.27644  0.24908  0.23810  1.0000
  H   H673      1.0  0.31330  0.23579  0.27583  1.0000
  N   N21       1.0  0.32867  0.45289  0.03475  1.0000
  H   H674      1.0  0.35133  0.27679  0.27592  1.0000
  H   H675      1.0  0.44389  0.03816  0.43313  1.0000
  C   C384      1.0  0.28387  0.23891  0.32335  1.0000
  H   H676      1.0  0.37783  0.07292  0.21526  1.0000
  H   H677      1.0  0.30787  0.03162  0.21978  1.0000
  H   H678      1.0  0.29363  0.49353  0.19153  1.0000
  C   C385      1.0  0.39928  0.44219  0.04275  1.0000
  H   H679      1.0  0.27796  0.46203  0.14793  1.0000
  C   C386      1.0  0.46162  0.04773  0.42979  1.0000
  H   H680      1.0  0.45687  0.06755  0.42738  1.0000
  H   H681      1.0  0.36021  0.22896  0.10749  1.0000
  H   H682      1.0  0.26717  0.32893  0.27770  1.0000
  H   H683      1.0  0.28878  0.48642  0.03925  1.0000
  H   H684      1.0  0.39013  0.04850  0.25151  1.0000
  C   C387      1.0  0.38669  0.10452  0.14430  1.0000
  H   H685      1.0  0.29387  0.02821  0.30938  1.0000
  C   C388      1.0  0.47169  0.06374  0.47007  1.0000
  H   H686      1.0  0.26663  0.21057  0.16203  1.0000
  H   H687      1.0  0.49838  0.47127  0.03225  1.0000
  C   C389      1.0  0.36011  0.20081  0.13576  1.0000
  H   H688      1.0  0.30538  0.10876  0.18524  1.0000
  H   H689      1.0  0.38546  0.15322  0.14607  1.0000
  H   H690      1.0  0.35183  0.06156  0.23234  1.0000
  H   H691      1.0  0.27977  0.45080  0.20356  1.0000
  H   H692      1.0  0.31713  0.13390  0.14844  1.0000
  H   H693      1.0  0.48603  0.05254  0.39808  1.0000
  N   N22       1.0  0.35292  0.16448  0.16613  1.0000
  S   S76       1.0  0.25567  0.33631  0.03949  1.0000
  C   C390      1.0  0.31684  0.27093  0.25704  1.0000
  C   C391      1.0  0.35554  0.44906  0.02890  1.0000
  H   H694      1.0  0.37425  0.18979  0.12598  1.0000
  H   H695      1.0  0.36927  0.21359  0.14850  1.0000
  H   H696      1.0  0.35787  0.14471  0.13194  1.0000
  C   C392      1.0  0.39515  0.17678  0.22222  1.0000
  N   N23       1.0  0.47836  0.04431  0.45144  1.0000
  C   C393      1.0  0.37124  0.07160  0.27918  1.0000
  H   H697      1.0  0.47561  0.08219  0.46230  1.0000
  H   H698      1.0  0.26776  0.21796  0.29499  1.0000
  H   H699      1.0  0.31116  0.29037  0.25931  1.0000
  C   C394      1.0  0.30520  0.25455  0.27738  1.0000
  C   C395      1.0  0.45124  0.04023  0.38524  1.0000
  H   H700      1.0  0.29885  0.43568  0.05472  1.0000
  H   H701      1.0  0.32041  0.38340  0.06851  1.0000
  H   H702      1.0  0.35086  0.11027  0.15955  1.0000
  H   H703      1.0  0.40448  0.16479  0.23569  1.0000
  H   H704      1.0  0.44359  0.05906  0.38347  1.0000
  C   C396      1.0  0.38432  0.06783  0.25406  1.0000
  C   C397      1.0  0.32641  0.47568  0.05034  1.0000
  C   C398      1.0  0.36757  0.07441  0.23286  1.0000
  H   H705      1.0  0.36218  0.46410  0.01668  1.0000
  H   H706      1.0  0.25995  0.39473  0.15213  1.0000
  H   H707      1.0  0.35859  0.43192  0.01845  1.0000
  H   H708      1.0  0.29484  0.45252  0.01445  1.0000
  C   C399      1.0  0.43931  0.08684  0.49457  1.0000
  H   H709      1.0  0.45471  0.01648  0.46722  1.0000
  C   C400      1.0  0.27635  0.29970  0.01017  1.0000
  H   H710      1.0  0.33102  0.32793  0.02666  1.0000
  H   H711      1.0  0.34508  0.35735  0.02103  1.0000
  H   H712      1.0  0.49041  0.48967  0.07302  1.0000
  H   H713      1.0  0.25914  0.26293  0.19658  1.0000
  C   C401      1.0  0.34005  0.33964  0.01251  1.0000
  C   C402      1.0  0.48775  0.48852  0.03322  1.0000
  H   H714      1.0  0.25716  0.29463  0.18725  1.0000
  C   C403      1.0  0.30531  0.00805  0.25163  1.0000
  C   C404      1.0  0.30137  0.00694  0.27696  1.0000
  H   H715      1.0  0.35694  0.33016  0.00603  1.0000
  H   H716      1.0  0.25303  0.45574  0.18629  1.0000
  H   H717      1.0  0.25284  0.23691  0.34883  1.0000
  H   H718      1.0  0.42025  0.08616  0.50189  1.0000
  Fe  Fe37      1.0  0.27984  0.28918  0.84587  1.0000
  H   H719      1.0  0.31032  0.26846  0.73264  1.0000
  S   S77       1.0  0.30466  0.27269  0.81663  1.0000
  C   C405      1.0  0.26903  0.29649  0.96608  1.0000
  C   C406      1.0  0.36524  0.22970  0.73803  1.0000
  H   H720      1.0  0.30509  0.35089  0.99907  1.0000
  H   H721      1.0  0.43760  0.08827  0.73154  1.0000
  H   H722      1.0  0.34069  0.45250  0.98095  1.0000
  H   H723      1.0  0.25907  0.18541  0.72890  1.0000
  S   S78       1.0  0.29276  0.31303  0.87660  1.0000
  H   H724      1.0  0.44722  0.45004  0.95280  1.0000
  H   H725      1.0  0.42748  0.23039  0.68518  1.0000
  S   S79       1.0  0.36675  0.43651  0.85221  1.0000
  H   H726      1.0  0.30130  0.25587  0.69057  1.0000
  Fe  Fe38      1.0  0.30708  0.10478  0.71426  1.0000
  S   S80       1.0  0.31990  0.13021  0.68395  1.0000
  S   S81       1.0  0.30852  0.06492  0.70150  1.0000
  Fe  Fe39      1.0  0.30605  0.14700  0.75149  1.0000
  S   S82       1.0  0.31939  0.17436  0.72386  1.0000
  S   S83       1.0  0.29807  0.15894  0.79065  1.0000
  Fe  Fe40      1.0  0.29214  0.15703  0.69898  1.0000
  Fe  Fe41      1.0  0.34564  0.14519  0.71159  1.0000
  S   S84       1.0  0.38621  0.15308  0.70799  1.0000
  S   S85       1.0  0.27713  0.13070  0.72719  1.0000
  S   S86       1.0  0.33445  0.11874  0.74120  1.0000
  C   C407      1.0  0.41598  0.21725  0.67486  1.0000
  S   S87       1.0  0.45031  0.13849  0.61177  1.0000
  C   C408      1.0  0.43035  0.20889  0.65161  1.0000
  C   C409      1.0  0.37580  0.21792  0.71485  1.0000
  H   H727      1.0  0.48453  0.41301  0.88966  1.0000
  C   C410      1.0  0.43233  0.13992  0.63874  1.0000
  C   C411      1.0  0.40677  0.14203  0.63709  1.0000
  C   C412      1.0  0.39221  0.14516  0.65828  1.0000
  C   C413      1.0  0.40324  0.14665  0.68116  1.0000
  C   C414      1.0  0.42870  0.14413  0.68282  1.0000
  C   C415      1.0  0.44317  0.14045  0.66173  1.0000
  H   H728      1.0  0.39827  0.14160  0.61932  1.0000
  H   H729      1.0  0.37256  0.14699  0.65683  1.0000
  H   H730      1.0  0.43737  0.14540  0.70045  1.0000
  H   H731      1.0  0.46282  0.13914  0.66318  1.0000
  H   H732      1.0  0.33323  0.17743  0.66026  1.0000
  H   H733      1.0  0.42831  0.07510  0.68576  1.0000
  H   H734      1.0  0.35304  0.35778  0.96995  1.0000
  H   H735      1.0  0.42110  0.41073  0.86185  1.0000
  H   H736      1.0  0.32788  0.42413  0.99121  1.0000
  C   C416      1.0  0.29973  0.03725  0.71636  1.0000
  C   C417      1.0  0.28432  0.03690  0.73701  1.0000
  H   H737      1.0  0.27583  0.23749  0.70130  1.0000
  H   H738      1.0  0.27789  0.05399  0.74482  1.0000
  H   H739      1.0  0.47150  0.06097  0.68730  1.0000
  C   C418      1.0  0.30257  0.24100  0.80992  1.0000
  C   C419      1.0  0.28951  0.22469  0.82501  1.0000
  C   C420      1.0  0.28869  0.19952  0.81923  1.0000
  C   C421      1.0  0.30043  0.19052  0.79806  1.0000
  C   C422      1.0  0.31344  0.20690  0.78304  1.0000
  C   C423      1.0  0.31458  0.23196  0.78897  1.0000
  H   H740      1.0  0.28048  0.23132  0.84140  1.0000
  H   H741      1.0  0.49949  0.11837  0.53486  1.0000
  H   H742      1.0  0.32307  0.20018  0.76712  1.0000
  H   H743      1.0  0.32495  0.24438  0.77738  1.0000
  H   H744      1.0  0.29323  0.38695  0.96268  1.0000
  C   C424      1.0  0.42002  0.05755  0.69240  1.0000
  S   S88       1.0  0.27150  0.18478  0.67591  1.0000
  H   H745      1.0  0.45934  0.01523  0.60060  1.0000
  H   H746      1.0  0.39521  0.08955  0.66381  1.0000
  C   C425      1.0  0.29470  0.39449  0.86380  1.0000
  C   C426      1.0  0.29648  0.41923  0.87047  1.0000
  C   C427      1.0  0.31862  0.43198  0.86746  1.0000
  C   C428      1.0  0.33913  0.42027  0.85733  1.0000
  C   C429      1.0  0.33756  0.39531  0.85110  1.0000
  C   C430      1.0  0.31543  0.38236  0.85452  1.0000
  H   H747      1.0  0.28054  0.42869  0.87772  1.0000
  H   H748      1.0  0.31955  0.45105  0.87246  1.0000
  H   H749      1.0  0.35336  0.38606  0.84332  1.0000
  H   H750      1.0  0.31420  0.36327  0.84931  1.0000
  H   H751      1.0  0.45848  0.38266  0.89285  1.0000
  H   H752      1.0  0.41870  0.48859  0.98365  1.0000
  H   H753      1.0  0.49009  0.50354  0.98100  1.0000
  H   H754      1.0  0.27897  0.18696  0.83121  1.0000
  H   H755      1.0  0.44739  0.39601  0.84884  1.0000
  H   H756      1.0  0.47788  0.03027  0.69776  1.0000
  H   H757      1.0  0.31431  0.33930  0.91634  1.0000
  H   H758      1.0  0.29257  0.27232  0.98642  1.0000
  C   C431      1.0  0.43987  0.38826  0.88720  1.0000
  H   H759      1.0  0.25413  0.40063  0.94362  1.0000
  N   N24       1.0  0.39705  0.06280  0.70731  1.0000
  C   C432      1.0  0.39073  0.04285  0.72558  1.0000
  H   H760      1.0  0.40725  0.27790  0.67545  1.0000
  C   C433      1.0  0.37477  0.20789  0.66059  1.0000
  Fe  Fe42      1.0  0.36826  0.47522  0.86736  1.0000
  C   C434      1.0  0.34741  0.21464  0.65729  1.0000
  H   H761      1.0  0.39468  0.01295  0.69876  1.0000
  N   N25       1.0  0.26889  0.29940  0.74667  1.0000
  C   C435      1.0  0.33322  0.19294  0.64705  1.0000
  H   H762      1.0  0.32475  0.35120  0.75808  1.0000
  H   H763      1.0  0.42506  0.35250  0.89692  1.0000
  H   H764      1.0  0.38178  0.20182  0.64237  1.0000
  H   H765      1.0  0.40338  0.10203  0.70773  1.0000
  H   H766      1.0  0.37356  0.25813  0.65187  1.0000
  H   H767      1.0  0.34536  0.23012  0.64426  1.0000
  H   H768      1.0  0.33859  0.21971  0.67496  1.0000
  C   C436      1.0  0.39424  0.02281  0.61895  1.0000
  H   H769      1.0  0.46008  0.03489  0.67064  1.0000
  H   H770      1.0  0.27578  0.35385  0.92038  1.0000
  H   H771      1.0  0.31392  0.19843  0.64389  1.0000
  H   H772      1.0  0.34133  0.18674  0.62937  1.0000
  H   H773      1.0  0.36847  0.39604  0.89609  1.0000
  H   H774      1.0  0.45770  0.18917  0.67296  1.0000
  H   H775      1.0  0.30841  0.32482  0.94450  1.0000
  H   H776      1.0  0.27937  0.20618  0.74350  1.0000
  C   C437      1.0  0.38244  0.49303  0.96935  1.0000
  H   H777      1.0  0.39888  0.11438  0.76353  1.0000
  H   H778      1.0  0.28712  0.32418  0.79044  1.0000
  H   H779      1.0  0.33250  0.38053  0.98053  1.0000
  H   H780      1.0  0.36257  0.29038  0.92135  1.0000
  H   H781      1.0  0.42036  0.44412  0.93500  1.0000
  S   S89       1.0  0.33639  0.49930  0.87821  1.0000
  C   C438      1.0  0.35943  0.38820  0.93430  1.0000
  N   N26       1.0  0.45540  0.42947  0.86832  1.0000
  H   H782      1.0  0.43758  0.48508  0.81849  1.0000
  H   H783      1.0  0.32928  0.37715  0.91127  1.0000
  C   C439      1.0  0.29275  0.33155  0.77230  1.0000
  H   H784      1.0  0.36357  0.24796  0.69182  1.0000
  H   H785      1.0  0.25554  0.27315  0.72017  1.0000
  H   H786      1.0  0.32229  0.39982  0.93314  1.0000
  C   C440      1.0  0.45688  0.20255  0.65762  1.0000
  H   H787      1.0  0.35731  0.42228  0.91314  1.0000
  Fe  Fe43      1.0  0.35567  0.50244  0.91399  1.0000
  H   H788      1.0  0.43694  0.47263  0.93122  1.0000
  C   C441      1.0  0.33326  0.36197  0.97209  1.0000
  H   H789      1.0  0.35886  0.10062  0.63939  1.0000
  C   C442      1.0  0.32132  0.33775  0.93527  1.0000
  H   H790      1.0  0.42997  0.39678  0.90285  1.0000
  C   C443      1.0  0.27292  0.28216  0.72539  1.0000
  H   H791      1.0  0.41020  0.47111  0.80708  1.0000
  H   H792      1.0  0.36283  0.21540  0.75239  1.0000
  H   H793      1.0  0.46373  0.43333  0.82953  1.0000
  H   H794      1.0  0.36192  0.39773  0.95204  1.0000
  S   S90       1.0  0.27544  0.28167  0.93778  1.0000
  H   H795      1.0  0.35837  0.06684  0.70074  1.0000
  H   H796      1.0  0.28616  0.24931  0.74474  1.0000
  C   C444      1.0  0.48196  0.42290  0.87214  1.0000
  Fe  Fe44      1.0  0.48986  0.12626  0.61429  1.0000
  C   C445      1.0  0.25329  0.31670  0.96769  1.0000
  S   S91       1.0  0.38574  0.47644  0.90401  1.0000
  H   H797      1.0  0.37782  0.24393  0.74511  1.0000
  C   C446      1.0  0.30772  0.01484  0.70629  1.0000
  H   H798      1.0  0.49256  0.46107  0.88115  1.0000
  H   H799      1.0  0.30207  0.31846  0.73579  1.0000
  H   H800      1.0  0.46600  0.19420  0.64135  1.0000
  C   C447      1.0  0.47462  0.01115  0.61233  1.0000
  C   C448      1.0  0.36877  0.40542  0.91410  1.0000
  C   C449      1.0  0.32366  0.44368  0.98797  1.0000
  S   S92       1.0  0.26602  0.37988  0.86679  1.0000
  H   H801      1.0  0.35900  0.33579  0.92108  1.0000
  H   H802      1.0  0.37390  0.04827  0.67883  1.0000
  H   H803      1.0  0.46704  0.04683  0.53124  1.0000
  H   H804      1.0  0.44515  0.04963  0.72311  1.0000
  C   C450      1.0  0.37668  0.08712  0.67202  1.0000
  H   H805      1.0  0.37560  0.19124  0.67230  1.0000
  C   C451      1.0  0.25983  0.20159  0.74103  1.0000
  C   C452      1.0  0.44067  0.40626  0.86525  1.0000
  C   C453      1.0  0.30459  0.44512  0.96778  1.0000
  H   H806      1.0  0.42370  0.30348  0.64186  1.0000
  H   H807      1.0  0.41778  0.07347  0.75399  1.0000
  C   C454      1.0  0.45409  0.44357  0.84447  1.0000
  Fe  Fe45      1.0  0.26377  0.29452  0.89979  1.0000
  H   H808      1.0  0.33168  0.28781  0.93304  1.0000
  H   H809      1.0  0.42449  0.44272  0.88963  1.0000
  H   H810      1.0  0.45671  0.42110  0.91954  1.0000
  H   H811      1.0  0.35502  0.32248  0.95131  1.0000
  H   H812      1.0  0.36350  0.06786  0.63983  1.0000
  H   H813      1.0  0.42012  0.12854  0.74210  1.0000
  H   H814      1.0  0.43506  0.35510  0.86545  1.0000
  H   H815      1.0  0.39151  0.29793  0.63764  1.0000
  H   H816      1.0  0.33750  0.30067  0.90296  1.0000
  H   H817      1.0  0.29854  0.46439  0.96489  1.0000
  H   H818      1.0  0.36244  0.20405  0.70874  1.0000
  H   H819      1.0  0.44743  0.46497  0.88484  1.0000
  C   C455      1.0  0.27823  0.37197  0.92928  1.0000
  C   C456      1.0  0.39919  0.08687  0.72073  1.0000
  C   C457      1.0  0.29176  0.26118  0.72915  1.0000
  H   H820      1.0  0.43972  0.45909  0.79801  1.0000
  H   H821      1.0  0.31725  0.35722  0.78974  1.0000
  C   C458      1.0  0.43882  0.45263  0.93458  1.0000
  H   H822      1.0  0.26390  0.01414  0.76249  1.0000
  C   C459      1.0  0.41921  0.08854  0.74041  1.0000
  C   C460      1.0  0.41719  0.11264  0.75456  1.0000
  H   H823      1.0  0.37110  0.37159  0.93412  1.0000
  C   C461      1.0  0.44473  0.44506  0.88874  1.0000
  N   N27       1.0  0.32077  0.36251  0.94759  1.0000
  H   H824      1.0  0.31266  0.43846  0.95029  1.0000
  C   C462      1.0  0.31814  0.34274  0.77546  1.0000
  H   H825      1.0  0.47346  0.44890  0.91620  1.0000
  H   H826      1.0  0.38126  0.09168  0.72950  1.0000
  Fe  Fe46      1.0  0.26264  0.33862  0.86604  1.0000
  H   H827      1.0  0.37538  0.04902  0.73782  1.0000
  H   H828      1.0  0.33965  0.08159  0.65861  1.0000
  C   C463      1.0  0.44046  0.04239  0.70490  1.0000
  C   C464      1.0  0.46383  0.04215  0.68917  1.0000
  H   H829      1.0  0.33136  0.32847  0.78146  1.0000
  H   H830      1.0  0.30609  0.29679  0.76004  1.0000
  H   H831      1.0  0.38789  0.41098  0.91782  1.0000
  H   H832      1.0  0.40674  0.36948  0.87550  1.0000
  C   C465      1.0  0.39166  0.24876  0.65249  1.0000
  C   C466      1.0  0.48660  0.03018  0.62446  1.0000
  C   C467      1.0  0.29433  0.36939  0.95231  1.0000
  C   C468      1.0  0.34660  0.32500  0.93314  1.0000
  H   H833      1.0  0.31894  0.32543  0.98320  1.0000
  C   C469      1.0  0.34435  0.29945  0.92194  1.0000
  H   H834      1.0  0.39985  0.03576  0.63348  1.0000
  H   H835      1.0  0.34710  0.23806  0.73437  1.0000
  H   H836      1.0  0.28509  0.35545  0.96402  1.0000
  H   H837      1.0  0.39478  0.24179  0.63356  1.0000
  H   H838      1.0  0.46381  0.46136  0.84601  1.0000
  H   H839      1.0  0.41860  0.43303  0.82897  1.0000
  C   C470      1.0  0.28043  0.28800  0.98746  1.0000
  H   H840      1.0  0.37145  0.10411  0.68196  1.0000
  H   H841      1.0  0.28652  0.38477  0.91577  1.0000
  C   C471      1.0  0.29392  0.24512  0.70630  1.0000
  H   H842      1.0  0.27405  0.27292  0.77564  1.0000
  C   C472      1.0  0.42808  0.44983  0.83527  1.0000
  C   C473      1.0  0.42910  0.46736  0.81338  1.0000
  H   H843      1.0  0.31932  0.01494  0.69010  1.0000
  H   H844      1.0  0.42178  0.19227  0.64384  1.0000
  H   H845      1.0  0.48014  0.04878  0.62257  1.0000
  H   H846      1.0  0.41696  0.45848  0.85000  1.0000
  H   H847      1.0  0.39378  0.25080  0.70266  1.0000
  H   H848      1.0  0.41411  0.28136  0.61954  1.0000
  H   H849      1.0  0.39292  0.20835  0.71998  1.0000
  H   H850      1.0  0.42971  0.26161  0.65739  1.0000
  H   H851      1.0  0.41472  0.20067  0.68678  1.0000
  C   C474      1.0  0.40989  0.28914  0.63789  1.0000
  N   N28       1.0  0.39082  0.22783  0.67064  1.0000
  H   H852      1.0  0.43088  0.22317  0.63716  1.0000
  C   C475      1.0  0.29329  0.31086  0.75271  1.0000
  C   C476      1.0  0.38080  0.23743  0.69466  1.0000
  C   C477      1.0  0.41081  0.26909  0.65749  1.0000
  C   C478      1.0  0.45497  0.44075  0.91486  1.0000
  C   C479      1.0  0.42582  0.36495  0.88078  1.0000
  C   C480      1.0  0.33197  0.38194  0.93089  1.0000
  H   H853      1.0  0.30649  0.22949  0.70983  1.0000
  H   H854      1.0  0.46707  0.21935  0.66272  1.0000
  S   S93       1.0  0.49791  0.08944  0.59761  1.0000
  H   H855      1.0  0.27903  0.29284  0.70898  1.0000
  H   H856      1.0  0.28838  0.43372  0.97261  1.0000
  H   H857      1.0  0.28004  0.34663  0.76739  1.0000
  H   H858      1.0  0.41556  0.04735  0.67541  1.0000
  H   H859      1.0  0.38698  0.48395  0.95250  1.0000
  C   C481      1.0  0.35855  0.08399  0.65121  1.0000
  H   H860      1.0  0.43136  0.11321  0.76892  1.0000
  C   C482      1.0  0.32255  0.34366  0.99128  1.0000
  C   C483      1.0  0.37576  0.06513  0.69007  1.0000
  H   H861      1.0  0.40615  0.03916  0.73804  1.0000
  H   H862      1.0  0.26158  0.33536  0.73107  1.0000
  C   C484      1.0  0.27640  0.01429  0.74697  1.0000
  C   C485      1.0  0.47809  0.05430  0.54638  1.0000
  H   H863      1.0  0.46892  0.04997  0.56416  1.0000
  C   C486      1.0  0.35881  0.50203  0.97360  1.0000
  H   H864      1.0  0.47903  0.07458  0.54443  1.0000
  H   H865      1.0  0.49413  0.00895  0.53074  1.0000
  H   H866      1.0  0.37723  0.02993  0.61054  1.0000
  C   C487      1.0  0.25993  0.28604  0.76920  1.0000
  H   H867      1.0  0.45202  0.08817  0.51019  1.0000
  H   H868      1.0  0.25591  0.44810  0.57552  1.0000
  H   H869      1.0  0.48828  0.40967  0.85786  1.0000
  H   H870      1.0  0.40882  0.02209  0.60457  1.0000
  H   H871      1.0  0.49191  0.50115  0.82987  1.0000
  H   H872      1.0  0.25605  0.17752  0.77147  1.0000
  S   S94       1.0  0.33678  0.50038  0.95072  1.0000
  C   C488      1.0  0.40041  0.49556  0.98710  1.0000
  H   H873      1.0  0.49134  0.48372  0.93923  1.0000
  H   H874      1.0  0.49101  0.01004  0.56313  1.0000
  H   H875      1.0  0.25723  0.29912  0.78446  1.0000
  H   H876      1.0  0.43457  0.02307  0.70745  1.0000
  H   H877      1.0  0.25394  0.20930  0.77894  1.0000
  H   H878      1.0  0.36358  0.01955  0.70776  1.0000
  C   C489      1.0  0.50007  0.44489  0.87132  1.0000
  C   C490      1.0  0.38267  0.01805  0.71443  1.0000
  S   S95       1.0  0.25339  0.26832  0.86963  1.0000
  C   C491      1.0  0.25281  0.38186  0.93590  1.0000
  Fe  Fe47      1.0  0.28044  0.74637  0.09233  1.0000
  S   S96       1.0  0.30978  0.72994  0.11615  1.0000
  S   S97       1.0  0.29368  0.75429  0.05325  1.0000
  C   C492      1.0  0.26775  0.95270  0.35108  1.0000
  S   S98       1.0  0.26891  0.72685  0.15983  1.0000
  Fe  Fe48      1.0  0.29509  0.75518  0.14549  1.0000
  S   S99       1.0  0.31616  0.77485  0.17493  1.0000
  Fe  Fe49      1.0  0.28059  0.70341  0.12815  1.0000
  S   S100      1.0  0.28180  0.66179  0.13170  1.0000
  S   S101      1.0  0.26820  0.77379  0.12102  1.0000
  C   C493      1.0  0.45508  0.82658  0.38954  1.0000
  H   H879      1.0  0.32295  0.59432  0.03585  1.0000
  S   S102      1.0  0.38919  0.53670  0.13518  1.0000
  H   H880      1.0  0.43001  0.61749  0.02968  1.0000
  H   H881      1.0  0.34350  0.88259  0.18792  1.0000
  S   S103      1.0  0.36672  0.53301  0.07958  1.0000
  H   H882      1.0  0.32094  0.63033  0.00786  1.0000
  Fe  Fe50      1.0  0.38539  0.56146  0.10226  1.0000
  S   S104      1.0  0.37778  0.60254  0.10025  1.0000
  S   S105      1.0  0.42284  0.55203  0.08739  1.0000
  Fe  Fe51      1.0  0.30224  0.89558  0.24622  1.0000
  S   S106      1.0  0.30961  0.86789  0.27551  1.0000
  S   S107      1.0  0.29381  0.88437  0.20727  1.0000
  Fe  Fe52      1.0  0.30459  0.93881  0.28175  1.0000
  S   S108      1.0  0.31171  0.91347  0.31371  1.0000
  S   S109      1.0  0.30125  0.97892  0.29366  1.0000
  Fe  Fe53      1.0  0.33811  0.89438  0.28846  1.0000
  S   S110      1.0  0.37398  0.87665  0.29953  1.0000
  Fe  Fe54      1.0  0.28259  0.88933  0.29795  1.0000
  S   S111      1.0  0.33294  0.92090  0.25724  1.0000
  S   S112      1.0  0.27337  0.91575  0.26800  1.0000
  H   H883      1.0  0.39080  0.57812  0.02081  1.0000
  S   S113      1.0  0.46000  0.93382  0.35186  1.0000
  C   C494      1.0  0.49019  0.58670  0.15910  1.0000
  H   H884      1.0  0.44245  0.86081  0.27333  1.0000
  H   H885      1.0  0.30856  0.99132  0.24147  1.0000
  C   C495      1.0  0.39786  0.89301  0.31359  1.0000
  C   C496      1.0  0.41898  0.88024  0.32075  1.0000
  C   C497      1.0  0.43828  0.89255  0.33228  1.0000
  C   C498      1.0  0.43655  0.91774  0.33680  1.0000
  C   C499      1.0  0.41548  0.93053  0.32953  1.0000
  C   C500      1.0  0.39615  0.91822  0.31802  1.0000
  H   H886      1.0  0.42041  0.86074  0.31738  1.0000
  H   H887      1.0  0.45452  0.88259  0.33763  1.0000
  H   H888      1.0  0.41406  0.95004  0.33292  1.0000
  H   H889      1.0  0.37997  0.92822  0.31257  1.0000
  C   C501      1.0  0.41319  0.60705  0.03457  1.0000
  H   H890      1.0  0.25755  0.84128  0.25579  1.0000
  C   C502      1.0  0.30617  0.80443  0.18368  1.0000
  C   C503      1.0  0.30616  0.81073  0.20851  1.0000
  C   C504      1.0  0.30145  0.83497  0.21587  1.0000
  C   C505      1.0  0.29726  0.85330  0.19851  1.0000
  C   C506      1.0  0.29623  0.84683  0.17370  1.0000
  C   C507      1.0  0.30053  0.82243  0.16629  1.0000
  H   H891      1.0  0.31014  0.79684  0.22209  1.0000
  H   H892      1.0  0.30142  0.83949  0.23499  1.0000
  H   H893      1.0  0.29276  0.86084  0.16010  1.0000
  H   H894      1.0  0.30059  0.81778  0.14706  1.0000
  C   C508      1.0  0.30866  0.64530  0.12354  1.0000
  C   C509      1.0  0.33066  0.65741  0.11841  1.0000
  C   C510      1.0  0.35162  0.64396  0.11145  1.0000
  C   C511      1.0  0.35097  0.61824  0.10997  1.0000
  C   C512      1.0  0.32903  0.60601  0.11537  1.0000
  C   C513      1.0  0.30793  0.61954  0.12209  1.0000
  H   H895      1.0  0.33161  0.67717  0.11990  1.0000
  H   H896      1.0  0.36853  0.65355  0.10736  1.0000
  H   H897      1.0  0.32831  0.58621  0.11426  1.0000
  H   H898      1.0  0.29102  0.60999  0.12617  1.0000
  C   C514      1.0  0.49955  0.87354  0.48025  1.0000
  H   H899      1.0  0.39769  0.62003  0.03739  1.0000
  S   S114      1.0  0.49570  0.92645  0.41092  1.0000
  C   C515      1.0  0.40575  0.82904  0.23187  1.0000
  C   C516      1.0  0.39660  0.87250  0.42700  1.0000
  C   C517      1.0  0.37312  0.99118  0.28968  1.0000
  H   H900      1.0  0.47090  0.99367  0.43292  1.0000
  H   H901      1.0  0.33154  0.81383  0.28640  1.0000
  H   H902      1.0  0.35552  0.78777  0.25697  1.0000
  H   H903      1.0  0.35766  0.90772  0.20363  1.0000
  C   C518      1.0  0.27904  0.74780  0.02522  1.0000
  H   H904      1.0  0.41460  0.81093  0.23534  1.0000
  H   H905      1.0  0.35293  0.60353  0.02520  1.0000
  H   H906      1.0  0.40635  0.93416  0.39651  1.0000
  C   C519      1.0  0.37611  0.80107  0.21309  1.0000
  C   C520      1.0  0.38907  0.79811  0.18782  1.0000
  C   C521      1.0  0.38927  0.77130  0.17963  1.0000
  H   H907      1.0  0.38391  0.84582  0.19126  1.0000
  H   H908      1.0  0.35285  0.84005  0.19963  1.0000
  H   H909      1.0  0.35634  0.79694  0.21039  1.0000
  H   H910      1.0  0.38315  0.78611  0.22501  1.0000
  H   H911      1.0  0.40829  0.80461  0.18837  1.0000
  H   H912      1.0  0.37915  0.80875  0.17366  1.0000
  H   H913      1.0  0.37028  0.76411  0.17866  1.0000
  H   H914      1.0  0.39783  0.76988  0.16114  1.0000
  H   H915      1.0  0.39992  0.75979  0.19249  1.0000
  C   C522      1.0  0.48928  0.52415  0.12171  1.0000
  H   H916      1.0  0.35654  0.98000  0.28621  1.0000
  H   H917      1.0  0.35518  0.87317  0.23172  1.0000
  H   H918      1.0  0.34285  0.82700  0.24149  1.0000
  H   H919      1.0  0.34159  0.64694  0.02739  1.0000
  S   S115      1.0  0.49958  0.87564  0.37939  1.0000
  H   H920      1.0  0.38365  0.79959  0.26886  1.0000
  H   H921      1.0  0.46216  0.83431  0.37198  1.0000
  H   H922      1.0  0.38167  0.87073  0.47607  1.0000
  C   C523      1.0  0.36218  0.82634  0.24741  1.0000
  H   H923      1.0  0.46514  0.86942  0.49960  1.0000
  C   C524      1.0  0.44254  0.84651  0.40489  1.0000
  C   C525      1.0  0.29221  0.82048  0.00478  1.0000
  C   C526      1.0  0.35108  0.80917  0.28948  1.0000
  N   N29       1.0  0.37908  0.82575  0.22534  1.0000
  H   H924      1.0  0.41615  0.83692  0.21604  1.0000
  C   C527      1.0  0.37125  0.51640  0.01344  1.0000
  C   C528      1.0  0.30047  0.51055  0.06747  1.0000
  H   H925      1.0  0.48544  0.60416  0.14974  1.0000
  N   N30       1.0  0.29424  0.66687  0.03791  1.0000
  C   C529      1.0  0.31378  0.68634  0.03967  1.0000
  H   H926      1.0  0.32766  0.68452  0.02481  1.0000
  H   H927      1.0  0.29395  0.80641  0.01945  1.0000
  C   C530      1.0  0.30421  0.64148  0.04273  1.0000
  H   H928      1.0  0.37776  0.90360  0.39435  1.0000
  C   C531      1.0  0.32826  0.68696  0.06381  1.0000
  H   H929      1.0  0.34316  0.61112  0.05572  1.0000
  C   C532      1.0  0.36080  0.88903  0.19614  1.0000
  H   H930      1.0  0.38234  0.98353  0.30603  1.0000
  C   C533      1.0  0.33693  0.60908  0.03656  1.0000
  C   C534      1.0  0.34826  0.70653  0.06288  1.0000
  C   C535      1.0  0.48267  0.97382  0.46446  1.0000
  H   H931      1.0  0.30546  0.70478  0.03701  1.0000
  S   S116      1.0  0.46147  0.51987  0.13825  1.0000
  H   H932      1.0  0.26847  0.69160  0.05557  1.0000
  C   C536      1.0  0.40007  0.86270  0.47244  1.0000
  H   H933      1.0  0.39829  0.84265  0.46925  1.0000
  H   H934      1.0  0.28986  0.62742  0.03967  1.0000
  H   H935      1.0  0.30901  0.63946  0.06242  1.0000
  H   H936      1.0  0.28254  0.96623  0.34729  1.0000
  H   H937      1.0  0.41628  0.59731  0.05216  1.0000
  H   H938      1.0  0.37972  0.88350  0.43061  1.0000
  H   H939      1.0  0.31604  0.69143  0.07947  1.0000
  H   H940      1.0  0.33730  0.66909  0.06726  1.0000
  H   H941      1.0  0.28519  0.68707  0.20469  1.0000
  H   H942      1.0  0.40130  0.92373  0.42741  1.0000
  H   H943      1.0  0.26873  0.81003  0.25568  1.0000
  C   C537      1.0  0.41532  0.92580  0.41268  1.0000
  H   H944      1.0  0.41149  0.86540  0.48888  1.0000
  H   H945      1.0  0.45659  0.86027  0.40941  1.0000
  C   C538      1.0  0.48474  0.87139  0.50137  1.0000
  H   H946      1.0  0.39013  0.85315  0.42605  1.0000
  Fe  Fe55      1.0  0.49138  0.91530  0.37180  1.0000
  C   C539      1.0  0.36889  0.87174  0.21661  1.0000
  H   H947      1.0  0.35805  0.70672  0.08056  1.0000
  H   H948      1.0  0.36172  0.70255  0.04800  1.0000
  H   H949      1.0  0.34015  0.72499  0.05988  1.0000
  H   H950      1.0  0.27637  0.93463  0.35492  1.0000
  H   H951      1.0  0.47080  0.81891  0.39977  1.0000
  C   C540      1.0  0.43893  0.84982  0.25666  1.0000
  C   C541      1.0  0.36426  0.80417  0.26516  1.0000
  H   H952      1.0  0.43697  0.90333  0.38807  1.0000
  H   H953      1.0  0.26254  0.94448  0.31330  1.0000
  C   C542      1.0  0.42105  0.85825  0.39095  1.0000
  H   H954      1.0  0.44561  0.86042  0.24051  1.0000
  H   H955      1.0  0.27324  0.65037  0.00873  1.0000
  H   H956      1.0  0.46381  0.97016  0.47139  1.0000
  C   C543      1.0  0.37033  0.86910  0.37693  1.0000
  H   H957      1.0  0.38683  0.87855  0.22273  1.0000
  H   H958      1.0  0.44495  0.93631  0.43689  1.0000
  C   C544      1.0  0.48329  0.99691  0.44849  1.0000
  H   H959      1.0  0.37918  0.85706  0.36299  1.0000
  C   C545      1.0  0.37105  0.84507  0.20720  1.0000
  H   H960      1.0  0.47946  0.58554  0.17648  1.0000
  H   H961      1.0  0.27858  0.83439  0.01092  1.0000
  H   H962      1.0  0.44932  0.83233  0.25799  1.0000
  H   H963      1.0  0.38555  0.98961  0.27351  1.0000
  C   C546      1.0  0.41231  0.87515  0.45039  1.0000
  H   H964      1.0  0.48996  0.52668  0.02586  1.0000
  Fe  Fe56      1.0  0.40447  0.52161  0.06768  1.0000
  C   C547      1.0  0.25368  0.74487  0.02366  1.0000
  N   N31       1.0  0.40847  0.87991  0.40291  1.0000
  C   C548      1.0  0.27501  0.67225  0.05737  1.0000
  H   H965      1.0  0.44107  0.89597  0.41893  1.0000
  S   S117      1.0  0.41818  0.51202  0.03006  1.0000
  H   H966      1.0  0.44211  0.81146  0.38562  1.0000
  H   H967      1.0  0.33617  0.86665  0.35716  1.0000
  H   H968      1.0  0.41474  0.89480  0.45503  1.0000
  H   H969      1.0  0.43081  0.86716  0.44817  1.0000
  H   H970      1.0  0.31300  0.74880  0.00469  1.0000
  H   H971      1.0  0.40203  0.86271  0.25461  1.0000
  H   H972      1.0  0.37512  0.89016  0.18155  1.0000
  H   H973      1.0  0.43577  0.83751  0.42190  1.0000
  H   H974      1.0  0.35996  0.82455  0.29922  1.0000
  H   H975      1.0  0.40570  0.83514  0.27176  1.0000
  C   C549      1.0  0.41150  0.84481  0.25476  1.0000
  H   H976      1.0  0.35190  0.79258  0.30130  1.0000
  H   H977      1.0  0.36451  0.84345  0.25806  1.0000
  C   C550      1.0  0.43463  0.94396  0.42122  1.0000
  C   C551      1.0  0.42666  0.90057  0.40555  1.0000
  H   H978      1.0  0.42793  0.86358  0.37242  1.0000
  H   H979      1.0  0.47348  0.54643  0.09352  1.0000
  C   C552      1.0  0.38880  0.88871  0.38569  1.0000
  H   H980      1.0  0.50069  0.98814  0.31192  1.0000
  C   C553      1.0  0.48997  0.53802  0.10017  1.0000
  C   C554      1.0  0.32655  0.63334  0.02704  1.0000
  H   H981      1.0  0.44748  0.94836  0.40592  1.0000
  Fe  Fe57      1.0  0.42552  0.52524  0.11826  1.0000
  H   H982      1.0  0.26110  0.96696  0.23424  1.0000
  H   H983      1.0  0.35421  0.89328  0.34958  1.0000
  S   S118      1.0  0.48597  0.87200  0.45112  1.0000
  H   H984      1.0  0.28277  0.67073  0.07602  1.0000
  H   H985      1.0  0.36362  0.85760  0.39241  1.0000
  C   C555      1.0  0.34820  0.88105  0.36481  1.0000
  H   H986      1.0  0.28165  0.69609  0.23625  1.0000
  H   H987      1.0  0.42564  0.96127  0.42715  1.0000
  H   H988      1.0  0.40794  0.84298  0.38813  1.0000
  H   H989      1.0  0.27165  0.77781  0.31167  1.0000
  H   H990      1.0  0.49433  0.00055  0.35697  1.0000
  H   H991      1.0  0.26652  0.68189  0.01391  1.0000
  H   H992      1.0  0.30909  0.52404  0.05474  1.0000
  H   H993      1.0  0.36707  0.52621  0.03002  1.0000
  H   H994      1.0  0.33741  0.89193  0.37832  1.0000
  H   H995      1.0  0.39726  0.89703  0.36896  1.0000
  C   C556      1.0  0.40726  0.58842  0.01468  1.0000
  H   H996      1.0  0.42277  0.57523  0.01354  1.0000
  H   H997      1.0  0.48480  0.57105  0.14737  1.0000
  C   C557      1.0  0.28185  0.66828  0.01326  1.0000
  H   H998      1.0  0.46518  0.50722  0.06076  1.0000
  H   H999      1.0  0.27027  0.71582  0.21255  1.0000
  H   H1000     1.0  0.28148  0.51670  0.07168  1.0000
  C   C558      1.0  0.29336  0.74655  0.00367  1.0000
  C   C559      1.0  0.27282  0.69635  0.21808  1.0000
  Fe  Fe58      1.0  0.37287  0.50723  0.11125  1.0000
  H   H1001     1.0  0.25670  0.80349  0.32635  1.0000
  H   H1002     1.0  0.26161  0.76757  0.35463  1.0000
  C   C560      1.0  0.25412  0.78433  0.31991  1.0000
  H   H1003     1.0  0.25760  0.63617  0.06306  1.0000
  H   H1004     1.0  0.31084  0.51023  0.08480  1.0000
  H   H1005     1.0  0.25490  0.99962  0.23512  1.0000
  H   H1006     1.0  0.25712  0.95844  0.36756  1.0000
  C   C561      1.0  0.39490  0.50745  0.00906  1.0000
  H   H1007     1.0  0.49521  0.97579  0.48013  1.0000
  C   C562      1.0  0.25299  0.82204  0.26064  1.0000
  S   S119      1.0  0.25514  0.86868  0.32173  1.0000
  H   H1008     1.0  0.48890  0.95778  0.45358  1.0000
  H   H1009     1.0  0.50209  0.95537  0.30787  1.0000
  H   H1010     1.0  0.50230  0.99895  0.44144  1.0000
  H   H1011     1.0  0.25289  0.63268  0.20481  1.0000
  Fe  Fe59      1.0  0.29520  0.73498  0.87192  1.0000
  H   H1012     1.0  0.41338  0.78820  0.76355  1.0000
  S   S120      1.0  0.32069  0.75981  0.85011  1.0000
  Fe  Fe60      1.0  0.29421  0.68456  0.89682  1.0000
  C   C563      1.0  0.47014  0.50935  0.86216  1.0000
  S   S121      1.0  0.31424  0.65214  0.91312  1.0000
  C   C564      1.0  0.47060  0.51547  0.88695  1.0000
  H   H1013     1.0  0.35203  0.94389  0.69868  1.0000
  S   S122      1.0  0.29153  0.69653  0.85777  1.0000
  S   S123      1.0  0.30173  0.72251  0.91068  1.0000
  H   H1014     1.0  0.28320  0.78925  0.90916  1.0000
  C   C565      1.0  0.41331  0.83008  0.73530  1.0000
  S   S124      1.0  0.44367  0.51780  0.90476  1.0000
  H   H1015     1.0  0.36564  0.93068  0.65679  1.0000
  H   H1016     1.0  0.37271  0.78165  0.78269  1.0000
  C   C566      1.0  0.39718  0.79134  0.75180  1.0000
  Fe  Fe61      1.0  0.36067  0.53058  0.86635  1.0000
  S   S125      1.0  0.34794  0.56391  0.84534  1.0000
  S   S126      1.0  0.37709  0.53579  0.90321  1.0000
  Fe  Fe62      1.0  0.29031  0.87412  0.72297  1.0000
  H   H1017     1.0  0.26640  0.79878  0.98557  1.0000
  Fe  Fe63      1.0  0.33813  0.89854  0.73729  1.0000
  S   S127      1.0  0.32054  0.91735  0.76972  1.0000
  S   S128      1.0  0.37857  0.90658  0.73041  1.0000
  Fe  Fe64      1.0  0.30069  0.88188  0.77688  1.0000
  S   S129      1.0  0.29065  0.86652  0.81444  1.0000
  Fe  Fe65      1.0  0.29026  0.92639  0.74389  1.0000
  H   H1018     1.0  0.28315  0.61022  0.86699  1.0000
  S   S130      1.0  0.32118  0.86224  0.74712  1.0000
  S   S131      1.0  0.30878  0.90932  0.71089  1.0000
  Fe  Fe66      1.0  0.47917  0.87868  0.63412  1.0000
  S   S132      1.0  0.47393  0.89192  0.59539  1.0000
  S   S133      1.0  0.44868  0.85596  0.65158  1.0000
  H   H1019     1.0  0.26053  0.81378  0.79557  1.0000
  H   H1020     1.0  0.38108  0.81626  0.69722  1.0000
  H   H1021     1.0  0.39833  0.86043  0.81405  1.0000
  C   C567      1.0  0.45770  0.84352  0.73321  1.0000
  H   H1022     1.0  0.25280  0.64525  0.81575  1.0000
  C   C568      1.0  0.39714  0.89280  0.70759  1.0000
  C   C569      1.0  0.42187  0.89960  0.70591  1.0000
  C   C570      1.0  0.43766  0.88861  0.68863  1.0000
  C   C571      1.0  0.42896  0.87039  0.67306  1.0000
  C   C572      1.0  0.40423  0.86338  0.67486  1.0000
  C   C573      1.0  0.38824  0.87485  0.69179  1.0000
  H   H1023     1.0  0.42891  0.91333  0.71821  1.0000
  H   H1024     1.0  0.45673  0.89382  0.68776  1.0000
  H   H1025     1.0  0.39734  0.84936  0.66280  1.0000
  H   H1026     1.0  0.36915  0.86970  0.69276  1.0000
  H   H1027     1.0  0.37218  0.82253  0.78335  1.0000
  H   H1028     1.0  0.39929  0.74534  0.77442  1.0000
  H   H1029     1.0  0.26381  0.62524  0.79291  1.0000
  S   S134      1.0  0.46872  0.96334  0.59893  1.0000
  C   C574      1.0  0.31108  0.78883  0.83943  1.0000
  C   C575      1.0  0.32482  0.80053  0.82090  1.0000
  C   C576      1.0  0.31834  0.82409  0.81258  1.0000
  C   C577      1.0  0.29838  0.83633  0.82319  1.0000
  C   C578      1.0  0.28461  0.82464  0.84173  1.0000
  C   C579      1.0  0.29072  0.80082  0.84962  1.0000
  H   H1030     1.0  0.34059  0.79133  0.81304  1.0000
  H   H1031     1.0  0.32899  0.83299  0.79832  1.0000
  C   C580      1.0  0.29140  0.87379  0.89478  1.0000
  H   H1032     1.0  0.28000  0.79192  0.86382  1.0000
  C   C581      1.0  0.43661  0.95504  0.66173  1.0000
  C   C582      1.0  0.28251  0.74260  0.98078  1.0000
  S   S135      1.0  0.26891  0.89205  0.75330  1.0000
  H   H1033     1.0  0.29380  0.74172  0.96440  1.0000
  N   N32       1.0  0.27314  0.81700  0.93581  1.0000
  C   C583      1.0  0.32368  0.62809  0.89379  1.0000
  C   C584      1.0  0.32434  0.60420  0.90326  1.0000
  C   C585      1.0  0.33186  0.58446  0.88853  1.0000
  C   C586      1.0  0.33902  0.58857  0.86422  1.0000
  C   C587      1.0  0.33862  0.61254  0.85476  1.0000
  C   C588      1.0  0.33091  0.63230  0.86951  1.0000
  H   H1034     1.0  0.31844  0.60094  0.92191  1.0000
  H   H1035     1.0  0.33169  0.56600  0.89586  1.0000
  H   H1036     1.0  0.34442  0.61583  0.83603  1.0000
  H   H1037     1.0  0.33078  0.65078  0.86219  1.0000
  C   C589      1.0  0.43867  0.82858  0.74761  1.0000
  H   H1038     1.0  0.40200  0.99406  0.73982  1.0000
  H   H1039     1.0  0.25438  0.79534  0.69827  1.0000
  C   C590      1.0  0.44517  0.97217  0.68256  1.0000
  H   H1040     1.0  0.28916  0.67143  0.80677  1.0000
  H   H1041     1.0  0.43697  0.56690  0.94269  1.0000
  C   C591      1.0  0.38307  0.99736  0.73339  1.0000
  C   C592      1.0  0.26579  0.58350  0.82408  1.0000
  C   C593      1.0  0.40340  0.60122  0.98953  1.0000
  H   H1042     1.0  0.28904  0.64052  0.84062  1.0000
  S   S136      1.0  0.48897  0.91557  0.64907  1.0000
  H   H1043     1.0  0.48363  0.86960  0.54092  1.0000
  C   C594      1.0  0.41275  0.98709  0.64204  1.0000
  C   C595      1.0  0.49311  0.51923  0.89831  1.0000
  C   C596      1.0  0.36633  0.95040  0.66179  1.0000
  H   H1044     1.0  0.37298  0.86496  0.76440  1.0000
  H   H1045     1.0  0.40425  0.82308  0.78667  1.0000
  H   H1046     1.0  0.45291  0.86334  0.73367  1.0000
  C   C597      1.0  0.28926  0.79613  0.92722  1.0000
  H   H1047     1.0  0.32904  0.94897  0.67580  1.0000
  H   H1048     1.0  0.37613  0.98012  0.72523  1.0000
  H   H1049     1.0  0.38266  0.88697  0.80206  1.0000
  C   C598      1.0  0.30022  0.99228  0.71658  1.0000
  H   H1050     1.0  0.33952  0.83563  0.69584  1.0000
  C   C599      1.0  0.27219  0.83710  0.91656  1.0000
  H   H1051     1.0  0.45023  0.99043  0.67505  1.0000
  H   H1052     1.0  0.27097  0.60682  0.91086  1.0000
  H   H1053     1.0  0.43729  0.52274  0.95754  1.0000
  S   S137      1.0  0.39133  0.50642  0.85230  1.0000
  H   H1054     1.0  0.35876  0.77815  0.75331  1.0000
  N   N33       1.0  0.39228  0.81845  0.74921  1.0000
  H   H1055     1.0  0.36804  0.78983  0.71228  1.0000
  H   H1056     1.0  0.36456  0.56904  0.99235  1.0000
  H   H1057     1.0  0.29790  0.79412  0.97642  1.0000
  H   H1058     1.0  0.28087  0.53704  0.80910  1.0000
  C   C600      1.0  0.28121  0.82713  0.96013  1.0000
  C   C601      1.0  0.30081  0.65470  0.80589  1.0000
  H   H1059     1.0  0.35269  0.81856  0.74669  1.0000
  H   H1060     1.0  0.45879  0.83739  0.71383  1.0000
  H   H1061     1.0  0.30289  0.64884  0.78653  1.0000
  H   H1062     1.0  0.38518  0.74178  0.74479  1.0000
  H   H1063     1.0  0.40929  0.84969  0.73139  1.0000
  C   C602      1.0  0.38934  0.82935  0.77446  1.0000
  H   H1064     1.0  0.36718  0.73824  0.77247  1.0000
  H   H1065     1.0  0.41562  0.82147  0.71698  1.0000
  H   H1066     1.0  0.36559  0.85955  0.80897  1.0000
  S   S138      1.0  0.25366  0.68664  0.90352  1.0000
  H   H1067     1.0  0.29742  0.86274  0.87872  1.0000
  H   H1068     1.0  0.26961  0.81704  0.63298  1.0000
  Fe  Fe67      1.0  0.48644  0.92794  0.61006  1.0000
  H   H1069     1.0  0.49701  0.58242  0.83631  1.0000
  C   C603      1.0  0.26435  0.60442  0.87188  1.0000
  C   C604      1.0  0.38243  0.74869  0.76374  1.0000
  H   H1070     1.0  0.43064  0.97443  0.69677  1.0000
  Fe  Fe68      1.0  0.40602  0.50956  0.89030  1.0000
  H   H1071     1.0  0.34655  0.97448  0.68693  1.0000
  H   H1072     1.0  0.39769  0.94240  0.68344  1.0000
  C   C605      1.0  0.49517  0.87150  0.52478  1.0000
  C   C606      1.0  0.38341  0.86659  0.80185  1.0000
  H   H1073     1.0  0.47601  0.84115  0.74150  1.0000
  H   H1074     1.0  0.42174  0.94911  0.61416  1.0000
  C   C607      1.0  0.40861  0.94413  0.62909  1.0000
  C   C608      1.0  0.28393  0.80815  0.98123  1.0000
  H   H1075     1.0  0.33480  0.52024  0.99931  1.0000
  N   N34       1.0  0.41194  0.96078  0.65083  1.0000
  H   H1076     1.0  0.26016  0.63477  0.89726  1.0000
  H   H1077     1.0  0.39038  0.94657  0.62082  1.0000
  H   H1078     1.0  0.28341  0.58513  0.83384  1.0000
  H   H1079     1.0  0.41215  0.90552  0.59589  1.0000
  H   H1080     1.0  0.40258  0.91086  0.65135  1.0000
  H   H1081     1.0  0.30590  0.97516  0.70839  1.0000
  H   H1082     1.0  0.35685  0.59817  0.98028  1.0000
  C   C609      1.0  0.26345  0.62807  0.81306  1.0000
  H   H1083     1.0  0.44520  0.80929  0.74817  1.0000
  H   H1084     1.0  0.31014  0.85122  0.92068  1.0000
  H   H1085     1.0  0.28209  0.58917  0.78725  1.0000
  C   C610      1.0  0.36909  0.82323  0.73528  1.0000
  H   H1086     1.0  0.43198  0.91216  0.63613  1.0000
  H   H1087     1.0  0.39127  0.61737  0.99280  1.0000
  H   H1088     1.0  0.42852  0.98955  0.62909  1.0000
  H   H1089     1.0  0.44338  0.57642  0.97342  1.0000
  H   H1090     1.0  0.38263  0.90304  0.61140  1.0000
  H   H1091     1.0  0.46594  0.53860  0.96058  1.0000
  H   H1092     1.0  0.27358  0.82898  0.89789  1.0000
  C   C611      1.0  0.31679  0.80219  0.92390  1.0000
  H   H1093     1.0  0.26415  0.58407  0.87334  1.0000
  C   C612      1.0  0.37607  0.77601  0.76346  1.0000
  H   H1094     1.0  0.48347  0.96087  0.68154  1.0000
  H   H1095     1.0  0.30435  0.88933  0.89676  1.0000
  C   C613      1.0  0.33197  0.77906  0.91943  1.0000
  H   H1096     1.0  0.38624  0.63613  0.95589  1.0000
  H   H1097     1.0  0.45277  0.50702  0.85325  1.0000
  C   C614      1.0  0.34185  0.81559  0.69887  1.0000
  H   H1098     1.0  0.31648  0.58544  0.96419  1.0000
  H   H1099     1.0  0.40646  0.88096  0.61738  1.0000
  H   H1100     1.0  0.43673  0.93614  0.66939  1.0000
  S   S139      1.0  0.27234  0.96392  0.74859  1.0000
  H   H1101     1.0  0.49639  0.93153  0.55373  1.0000
  H   H1102     1.0  0.28724  0.78000  0.93964  1.0000
  S   S140      1.0  0.27741  0.84261  0.69934  1.0000
  H   H1103     1.0  0.32438  0.81129  0.94020  1.0000
  H   H1104     1.0  0.31945  0.81416  0.90760  1.0000
  H   H1105     1.0  0.49924  0.92585  0.52137  1.0000
  H   H1106     1.0  0.43806  0.83585  0.76652  1.0000
  C   C615      1.0  0.28960  0.63410  0.82141  1.0000
  H   H1107     1.0  0.36738  0.84316  0.73119  1.0000
  H   H1108     1.0  0.29379  0.68303  0.95194  1.0000
  H   H1109     1.0  0.40334  0.55039  0.98539  1.0000
  H   H1110     1.0  0.27288  0.88140  0.89129  1.0000
  H   H1111     1.0  0.40231  0.78320  0.73378  1.0000
  H   H1112     1.0  0.38358  0.98539  0.61437  1.0000
  H   H1113     1.0  0.35159  0.78401  0.91721  1.0000
  H   H1114     1.0  0.33008  0.76612  0.93509  1.0000
  H   H1115     1.0  0.32611  0.76993  0.90238  1.0000
  H   H1116     1.0  0.29583  0.81341  0.76757  1.0000
  H   H1117     1.0  0.34053  0.80625  0.68091  1.0000
  C   C616      1.0  0.46802  0.96209  0.69493  1.0000
  H   H1118     1.0  0.26814  0.84163  0.96639  1.0000
  C   C617      1.0  0.27731  0.81660  0.76014  1.0000
  H   H1119     1.0  0.40546  0.86624  0.76913  1.0000
  N   N35       1.0  0.39304  0.58529  0.96962  1.0000
  C   C618      1.0  0.48268  0.98696  0.61513  1.0000
  C   C619      1.0  0.39610  0.59833  0.94538  1.0000
  C   C620      1.0  0.36638  0.58067  0.97567  1.0000
  C   C621      1.0  0.40620  0.56097  0.96820  1.0000
  C   C622      1.0  0.43406  0.56234  0.96236  1.0000
  H   H1120     1.0  0.45112  0.95532  0.64726  1.0000
  C   C623      1.0  0.35140  0.56766  0.95568  1.0000
  C   C624      1.0  0.38086  0.62219  0.94223  1.0000
  C   C625      1.0  0.38492  0.63324  0.91675  1.0000
  C   C626      1.0  0.44668  0.53781  0.96728  1.0000
  C   C627      1.0  0.32423  0.56664  0.96271  1.0000
  C   C628      1.0  0.28424  0.99189  0.73676  1.0000
  H   H1121     1.0  0.41560  0.60355  0.94232  1.0000
  H   H1122     1.0  0.39195  0.58573  0.92995  1.0000
  C   C629      1.0  0.41218  0.91637  0.63423  1.0000
  C   C630      1.0  0.40270  0.90061  0.61336  1.0000
  H   H1123     1.0  0.26194  0.78562  0.77838  1.0000
  H   H1124     1.0  0.39830  0.54922  0.95371  1.0000
  H   H1125     1.0  0.46444  0.94363  0.70289  1.0000
  C   C631      1.0  0.49225  0.50612  0.84901  1.0000
  C   C632      1.0  0.38809  0.85779  0.77567  1.0000
  H   H1126     1.0  0.32665  0.80896  0.71089  1.0000
  H   H1127     1.0  0.35798  0.54866  0.95317  1.0000
  H   H1128     1.0  0.35289  0.57711  0.93782  1.0000
  H   H1129     1.0  0.36095  0.61875  0.94438  1.0000
  C   C633      1.0  0.36667  0.81003  0.71030  1.0000
  H   H1130     1.0  0.37359  0.65008  0.91480  1.0000
  H   H1131     1.0  0.40445  0.63822  0.91382  1.0000
  H   H1132     1.0  0.37934  0.62004  0.90241  1.0000
  H   H1133     1.0  0.31413  0.55652  0.94840  1.0000
  C   C634      1.0  0.27249  0.57464  0.79787  1.0000
  H   H1134     1.0  0.25578  0.56826  0.83348  1.0000
  C   C635      1.0  0.25815  0.61454  0.89724  1.0000
  C   C636      1.0  0.39243  0.95722  0.67039  1.0000
  H   H1135     1.0  0.31416  0.66491  0.98839  1.0000
  H   H1136     1.0  0.39097  0.97395  0.68183  1.0000
  H   H1137     1.0  0.36048  0.96107  0.64567  1.0000
  C   C637      1.0  0.35308  0.51331  0.99589  1.0000
  C   C638      1.0  0.28284  0.67510  0.96726  1.0000
  H   H1138     1.0  0.32150  0.55694  0.98040  1.0000
  H   H1139     1.0  0.29914  0.83650  0.95854  1.0000
  H   H1140     1.0  0.30710  0.55727  0.80760  1.0000
  C   C639      1.0  0.28957  0.55238  0.79875  1.0000
  H   H1141     1.0  0.49165  0.96947  0.52946  1.0000
  C   C640      1.0  0.34740  0.95471  0.68210  1.0000
  H   H1142     1.0  0.27429  0.83666  0.75827  1.0000
  H   H1143     1.0  0.27837  0.65577  0.96271  1.0000
  H   H1144     1.0  0.31920  0.65936  0.81297  1.0000
  H   H1145     1.0  0.27652  0.80792  0.74182  1.0000
  H   H1146     1.0  0.44657  0.53370  0.98720  1.0000
  H   H1147     1.0  0.30184  0.61797  0.81968  1.0000
  C   C641      1.0  0.29130  0.85810  0.91805  1.0000
  Fe  Fe69      1.0  0.26103  0.72534  0.91530  1.0000
  H   H1148     1.0  0.26913  0.83408  0.84991  1.0000
  S   S141      1.0  0.25480  0.74091  0.87733  1.0000
  H   H1149     1.0  0.47351  0.97460  0.70988  1.0000
  H   H1150     1.0  0.25591  0.56896  0.78788  1.0000
  H   H1151     1.0  0.28662  0.87030  0.93371  1.0000
  C   C642      1.0  0.29757  0.67636  0.99079  1.0000
  C   C643      1.0  0.25707  0.74063  0.97908  1.0000
  H   H1152     1.0  0.30343  0.69572  0.99286  1.0000
  C   C644      1.0  0.25803  0.80550  0.77727  1.0000
  H   H1153     1.0  0.42125  0.60935  0.98373  1.0000
  C   C645      1.0  0.38955  0.99722  0.62960  1.0000
  H   H1154     1.0  0.49352  0.52458  0.91733  1.0000
  H   H1155     1.0  0.29378  0.54601  0.77987  1.0000
  H   H1156     1.0  0.26563  0.68592  0.96896  1.0000
  H   H1157     1.0  0.41595  0.99979  0.65750  1.0000
  H   H1158     1.0  0.37447  0.99905  0.64331  1.0000
  H   H1159     1.0  0.37103  0.00201  0.74929  1.0000
  C   C646      1.0  0.50214  0.98170  0.63066  1.0000
  H   H1160     1.0  0.25412  0.84667  0.91721  1.0000
  H   H1161     1.0  0.31032  0.82939  0.00202  1.0000
  C   C647      1.0  0.65177  0.07424  0.24810  1.0000
  S   S142      1.0  0.72859  0.32589  0.09241  1.0000
  H   H1162     1.0  0.73081  0.13641  0.34141  1.0000
  C   C648      1.0  0.73307  0.21580  0.03477  1.0000
  Fe  Fe70      1.0  0.73754  0.30389  0.12627  1.0000
  S   S143      1.0  0.70980  0.28291  0.14935  1.0000
  C   C649      1.0  0.70848  0.24805  0.25300  1.0000
  N   N36       1.0  0.73052  0.22531  0.06062  1.0000
  H   H1163     1.0  0.72912  0.24953  0.01258  1.0000
  S   S144      1.0  0.64501  0.44992  0.11648  1.0000
  H   H1164     1.0  0.52165  0.05921  0.47872  1.0000
  Fe  Fe71      1.0  0.72035  0.15878  0.21706  1.0000
  S   S145      1.0  0.70020  0.18271  0.24379  1.0000
  S   S146      1.0  0.73029  0.17177  0.17873  1.0000
  Fe  Fe72      1.0  0.72774  0.11761  0.25505  1.0000
  S   S147      1.0  0.70907  0.13965  0.28466  1.0000
  H   H1165     1.0  0.68944  0.47378  0.03055  1.0000
  Fe  Fe73      1.0  0.68138  0.14809  0.25606  1.0000
  S   S148      1.0  0.64050  0.14351  0.26136  1.0000
  S   S149      1.0  0.69905  0.12465  0.22691  1.0000
  S   S150      1.0  0.62108  0.49644  0.06885  1.0000
  S   S151      1.0  0.52564  0.11671  0.33800  1.0000
  C   C650      1.0  0.65409  0.03646  0.28952  1.0000
  H   H1166     1.0  0.58383  0.22611  0.35194  1.0000
  S   S152      1.0  0.51934  0.15471  0.38385  1.0000
  H   H1167     1.0  0.64137  0.02805  0.27621  1.0000
  Fe  Fe74      1.0  0.54872  0.12944  0.36902  1.0000
  S   S153      1.0  0.58885  0.13973  0.36565  1.0000
  S   S154      1.0  0.53895  0.09810  0.39422  1.0000
  C   C651      1.0  0.62746  0.14057  0.29084  1.0000
  C   C652      1.0  0.60335  0.13199  0.29313  1.0000
  C   C653      1.0  0.59179  0.13050  0.31617  1.0000
  C   C654      1.0  0.60400  0.13827  0.33703  1.0000
  C   C655      1.0  0.62841  0.14614  0.33487  1.0000
  C   C656      1.0  0.64021  0.14712  0.31184  1.0000
  H   H1168     1.0  0.59345  0.12673  0.27695  1.0000
  H   H1169     1.0  0.57316  0.12409  0.31763  1.0000
  H   H1170     1.0  0.63801  0.15206  0.35100  1.0000
  H   H1171     1.0  0.65882  0.15375  0.31025  1.0000
  N   N37       1.0  0.56624  0.20339  0.30880  1.0000
  H   H1172     1.0  0.63982  0.19516  0.28452  1.0000
  H   H1173     1.0  0.58751  0.07494  0.34359  1.0000
  C   C657      1.0  0.56066  0.19710  0.33532  1.0000
  C   C658      1.0  0.54305  0.03179  0.37922  1.0000
  H   H1174     1.0  0.73001  0.16714  0.11047  1.0000
  H   H1175     1.0  0.55186  0.04948  0.37799  1.0000
  H   H1176     1.0  0.63608  0.21173  0.25632  1.0000
  C   C659      1.0  0.71154  0.05039  0.24086  1.0000
  C   C660      1.0  0.70093  0.02757  0.23517  1.0000
  H   H1177     1.0  0.70636  0.06669  0.23083  1.0000
  C   C661      1.0  0.71514  0.25179  0.15687  1.0000
  C   C662      1.0  0.70165  0.24085  0.17601  1.0000
  C   C663      1.0  0.70621  0.21640  0.18298  1.0000
  C   C664      1.0  0.72400  0.20253  0.17056  1.0000
  H   H1178     1.0  0.72090  0.26677  0.09372  1.0000
  H   H1179     1.0  0.54184  0.20329  0.34051  1.0000
  H   H1180     1.0  0.68780  0.25140  0.18566  1.0000
  H   H1181     1.0  0.69565  0.20818  0.19768  1.0000
  C   C665      1.0  0.71895  0.41043  0.10774  1.0000
  C   C666      1.0  0.69851  0.39801  0.11715  1.0000
  C   C667      1.0  0.67596  0.41035  0.11978  1.0000
  C   C668      1.0  0.67375  0.43522  0.11324  1.0000
  C   C669      1.0  0.69428  0.44767  0.10404  1.0000
  C   C670      1.0  0.71677  0.43529  0.10124  1.0000
  H   H1182     1.0  0.70010  0.37894  0.12247  1.0000
  H   H1183     1.0  0.66018  0.40064  0.12704  1.0000
  H   H1184     1.0  0.69285  0.46682  0.09911  1.0000
  H   H1185     1.0  0.73256  0.44503  0.09408  1.0000
  H   H1186     1.0  0.64915  0.08284  0.20947  1.0000
  H   H1187     1.0  0.58307  0.46686  0.00438  1.0000
  C   C671      1.0  0.65426  0.01880  0.31186  1.0000
  C   C672      1.0  0.66386  0.36620  0.06458  1.0000
  C   C673      1.0  0.63564  0.07343  0.27160  1.0000
  H   H1188     1.0  0.53429  0.22658  0.30574  1.0000
  H   H1189     1.0  0.73603  0.28462  0.23892  1.0000
  H   H1190     1.0  0.53807  0.47222  0.03841  1.0000
  H   H1191     1.0  0.73244  0.22959  0.22774  1.0000
  C   C674      1.0  0.74255  0.23451  0.01532  1.0000
  C   C675      1.0  0.52823  0.17711  0.29737  1.0000
  H   H1192     1.0  0.52281  0.16144  0.26111  1.0000
  H   H1193     1.0  0.69389  0.25016  0.23917  1.0000
  H   H1194     1.0  0.58306  0.47794  0.03555  1.0000
  C   C676      1.0  0.73972  0.36602  0.02973  1.0000
  H   H1195     1.0  0.54253  0.10764  0.45486  1.0000
  S   S155      1.0  0.74299  0.08038  0.26676  1.0000
  H   H1196     1.0  0.51625  0.19305  0.29346  1.0000
  C   C677      1.0  0.57344  0.46598  0.02240  1.0000
  C   C678      1.0  0.72013  0.20569  0.07751  1.0000
  C   C679      1.0  0.70508  0.25744  0.08537  1.0000
  C   C680      1.0  0.72463  0.38949  0.03552  1.0000
  C   C681      1.0  0.58830  0.05640  0.33514  1.0000
  H   H1197     1.0  0.59808  0.19049  0.26647  1.0000
  H   H1198     1.0  0.74345  0.24615  0.12991  1.0000
  H   H1199     1.0  0.62903  0.09239  0.27506  1.0000
  C   C682      1.0  0.60319  0.05710  0.31125  1.0000
  H   H1200     1.0  0.59603  0.19572  0.35392  1.0000
  H   H1201     1.0  0.74976  0.03138  0.28558  1.0000
  H   H1202     1.0  0.56053  0.17678  0.33801  1.0000
  Fe  Fe75      1.0  0.63942  0.48946  0.10470  1.0000
  H   H1203     1.0  0.70163  0.43352  0.01336  1.0000
  H   H1204     1.0  0.55866  0.29028  0.31283  1.0000
  C   C683      1.0  0.70762  0.00605  0.24769  1.0000
  H   H1205     1.0  0.70007  0.16301  0.09733  1.0000
  C   C684      1.0  0.50476  0.04851  0.44388  1.0000
  H   H1206     1.0  0.59642  0.04320  0.34828  1.0000
  H   H1207     1.0  0.55201  0.06473  0.44295  1.0000
  H   H1208     1.0  0.60165  0.18602  0.31082  1.0000
  H   H1209     1.0  0.72477  0.20979  0.09688  1.0000
  C   C685      1.0  0.63010  0.21076  0.27581  1.0000
  H   H1210     1.0  0.55101  0.21485  0.38270  1.0000
  H   H1211     1.0  0.60270  0.21796  0.31524  1.0000
  H   H1212     1.0  0.55471  0.03162  0.44247  1.0000
  C   C686      1.0  0.55427  0.22729  0.30164  1.0000
  C   C687      1.0  0.57883  0.20667  0.35478  1.0000
  C   C688      1.0  0.68491  0.41066  0.04292  1.0000
  H   H1213     1.0  0.65693  0.38369  0.07244  1.0000
  C   C689      1.0  0.54460  0.10305  0.49418  1.0000
  S   S156      1.0  0.75112  0.14954  0.24245  1.0000
  H   H1214     1.0  0.64076  0.34583  0.09008  1.0000
  C   C690      1.0  0.55003  0.04770  0.45403  1.0000
  N   N38       1.0  0.64745  0.06303  0.29426  1.0000
  C   C691      1.0  0.69126  0.36827  0.05669  1.0000
  H   H1215     1.0  0.55749  0.18841  0.27320  1.0000
  H   H1216     1.0  0.68747  0.02655  0.22087  1.0000
  H   H1217     1.0  0.66468  0.02626  0.32734  1.0000
  C   C692      1.0  0.73845  0.33064  0.21258  1.0000
  H   H1218     1.0  0.68453  0.41323  0.06316  1.0000
  C   C693      1.0  0.68013  0.45678  0.03695  1.0000
  C   C694      1.0  0.53307  0.10982  0.47223  1.0000
  H   H1219     1.0  0.66536  0.41047  0.03734  1.0000
  H   H1220     1.0  0.58345  0.01946  0.49790  1.0000
  H   H1221     1.0  0.73035  0.40339  0.02177  1.0000
  H   H1222     1.0  0.55561  0.23014  0.28150  1.0000
  C   C695      1.0  0.55565  0.18349  0.29292  1.0000
  H   H1223     1.0  0.56320  0.04854  0.46928  1.0000
  H   H1224     1.0  0.58369  0.25271  0.31268  1.0000
  H   H1225     1.0  0.52262  0.02677  0.47286  1.0000
  H   H1226     1.0  0.72956  0.49542  0.07112  1.0000
  H   H1227     1.0  0.53187  0.27307  0.30460  1.0000
  H   H1228     1.0  0.59342  0.06964  0.29860  1.0000
  H   H1229     1.0  0.67319  0.06921  0.33870  1.0000
  H   H1230     1.0  0.69061  0.29111  0.06943  1.0000
  H   H1231     1.0  0.53797  0.46141  0.00705  1.0000
  H   H1232     1.0  0.68075  0.28516  0.10053  1.0000
  C   C696      1.0  0.52041  0.15616  0.28064  1.0000
  H   H1233     1.0  0.66781  0.26779  0.07587  1.0000
  H   H1234     1.0  0.66525  0.09786  0.30041  1.0000
  Fe  Fe76      1.0  0.73009  0.17210  0.26966  1.0000
  H   H1235     1.0  0.69971  0.20578  0.07705  1.0000
  C   C697      1.0  0.72912  0.05197  0.25913  1.0000
  H   H1236     1.0  0.52470  0.17112  0.31651  1.0000
  H   H1237     1.0  0.73500  0.35859  0.01151  1.0000
  N   N39       1.0  0.69714  0.38648  0.03648  1.0000
  H   H1238     1.0  0.71489  0.08405  0.34403  1.0000
  C   C698      1.0  0.67014  0.07800  0.29914  1.0000
  S   S157      1.0  0.50855  0.04997  0.34798  1.0000
  H   H1239     1.0  0.73853  0.33704  0.19330  1.0000
  H   H1240     1.0  0.71966  0.30778  0.03272  1.0000
  H   H1241     1.0  0.75076  0.20267  0.14126  1.0000
  H   H1242     1.0  0.59364  0.22328  0.26880  1.0000
  Fe  Fe77      1.0  0.50803  0.12225  0.40700  1.0000
  C   C699      1.0  0.66030  0.34644  0.08422  1.0000
  H   H1243     1.0  0.59843  0.01845  0.26484  1.0000
  C   C700      1.0  0.55217  0.27373  0.30304  1.0000
  H   H1244     1.0  0.66551  0.32816  0.07694  1.0000
  C   C701      1.0  0.68490  0.07076  0.32209  1.0000
  C   C702      1.0  0.70447  0.08983  0.32769  1.0000
  H   H1245     1.0  0.56295  0.09557  0.49355  1.0000
  H   H1246     1.0  0.68354  0.07653  0.28370  1.0000
  H   H1247     1.0  0.67241  0.03533  0.28033  1.0000
  H   H1248     1.0  0.55761  0.27546  0.28345  1.0000
  H   H1249     1.0  0.65986  0.05600  0.24433  1.0000
  H   H1250     1.0  0.66659  0.08795  0.24991  1.0000
  H   H1251     1.0  0.69447  0.05305  0.31880  1.0000
  H   H1252     1.0  0.72309  0.31758  0.21520  1.0000
  H   H1253     1.0  0.71754  0.09163  0.31208  1.0000
  H   H1254     1.0  0.69586  0.10794  0.33149  1.0000
  C   C703      1.0  0.56355  0.25075  0.31435  1.0000
  H   H1255     1.0  0.60338  0.03845  0.30324  1.0000
  C   C704      1.0  0.56828  0.20420  0.38071  1.0000
  H   H1256     1.0  0.70457  0.23146  0.26420  1.0000
  C   C705      1.0  0.72010  0.16189  0.09363  1.0000
  H   H1257     1.0  0.72014  0.26212  0.04939  1.0000
  C   C706      1.0  0.74041  0.26929  0.22626  1.0000
  H   H1258     1.0  0.73513  0.34679  0.22451  1.0000
  H   H1259     1.0  0.65221  0.36127  0.04891  1.0000
  H   H1260     1.0  0.62236  0.06802  0.22221  1.0000
  H   H1261     1.0  0.71779  0.17208  0.05572  1.0000
  H   H1262     1.0  0.67151  0.35053  0.10051  1.0000
  H   H1263     1.0  0.72754  0.27118  0.21067  1.0000
  H   H1264     1.0  0.56617  0.16624  0.29524  1.0000
  C   C707      1.0  0.68480  0.27654  0.08252  1.0000
  H   H1265     1.0  0.69824  0.24330  0.09840  1.0000
  H   H1266     1.0  0.74552  0.19974  0.03383  1.0000
  H   H1267     1.0  0.69718  0.34946  0.05136  1.0000
  H   H1268     1.0  0.67535  0.45896  0.05664  1.0000
  H   H1269     1.0  0.69546  0.24077  0.05074  1.0000
  H   H1270     1.0  0.71502  0.20890  0.02847  1.0000
  H   H1271     1.0  0.55798  0.25050  0.33394  1.0000
  C   C708      1.0  0.73352  0.24544  0.24038  1.0000
  H   H1272     1.0  0.56467  0.18464  0.38516  1.0000
  H   H1273     1.0  0.63529  0.01540  0.31845  1.0000
  H   H1274     1.0  0.70177  0.37280  0.07339  1.0000
  C   C709      1.0  0.62960  0.06652  0.31538  1.0000
  C   C710      1.0  0.68731  0.37615  0.01298  1.0000
  C   C711      1.0  0.71254  0.24644  0.06014  1.0000
  C   C712      1.0  0.52189  0.02716  0.36587  1.0000
  H   H1275     1.0  0.70818  0.26407  0.26550  1.0000
  C   C713      1.0  0.59362  0.20363  0.30430  1.0000
  H   H1276     1.0  0.63543  0.22808  0.28497  1.0000
  H   H1277     1.0  0.61920  0.06254  0.26680  1.0000
  H   H1278     1.0  0.62796  0.08644  0.31992  1.0000
  C   C714      1.0  0.63687  0.08173  0.22582  1.0000
  C   C715      1.0  0.73279  0.23787  0.14437  1.0000
  H   H1279     1.0  0.62836  0.10006  0.22869  1.0000
  C   C716      1.0  0.60236  0.20708  0.27737  1.0000
  H   H1280     1.0  0.63631  0.05781  0.33236  1.0000
  H   H1281     1.0  0.56925  0.05049  0.33137  1.0000
  C   C717      1.0  0.72535  0.00757  0.26589  1.0000
  C   C718      1.0  0.73605  0.03042  0.27154  1.0000
  C   C719      1.0  0.55327  0.01316  0.39365  1.0000
  H   H1282     1.0  0.57002  0.01646  0.40344  1.0000
  C   C720      1.0  0.73700  0.21327  0.15098  1.0000
  H   H1283     1.0  0.72485  0.14256  0.08918  1.0000
  H   H1284     1.0  0.58167  0.21126  0.39407  1.0000
  C   C721      1.0  0.69696  0.43460  0.03305  1.0000
  C   C722      1.0  0.54677  0.47410  0.02002  1.0000
  H   H1285     1.0  0.66295  0.45462  0.02658  1.0000
  S   S158      1.0  0.74736  0.39550  0.10312  1.0000
  Fe  Fe78      1.0  0.51384  0.08727  0.36397  1.0000
  C   C723      1.0  0.72781  0.30506  0.01480  1.0000
  H   H1286     1.0  0.74903  0.39491  0.35371  1.0000
  H   H1287     1.0  0.74707  0.24110  0.25467  1.0000
  H   H1288     1.0  0.53132  0.13936  0.28439  1.0000
  H   H1289     1.0  0.73106  0.39683  0.05332  1.0000
  H   H1290     1.0  0.51091  0.50345  0.14727  1.0000
  C   C724      1.0  0.52400  0.04517  0.46429  1.0000
  H   H1291     1.0  0.71415  0.43818  0.04311  1.0000
  C   C725      1.0  0.74885  0.14534  0.33845  1.0000
  C   C726      1.0  0.72742  0.17864  0.07225  1.0000
  H   H1292     1.0  0.66704  0.37468  0.01401  1.0000
  H   H1293     1.0  0.57418  0.44679  0.02929  1.0000
  H   H1294     1.0  0.69383  0.35694  0.01031  1.0000
  H   H1295     1.0  0.73658  0.35162  0.04377  1.0000
  S   S159      1.0  0.74681  0.20187  0.29327  1.0000
  H   H1296     1.0  0.74584  0.16271  0.32829  1.0000
  H   H1297     1.0  0.51051  0.03611  0.42878  1.0000
  C   C727      1.0  0.50929  0.11937  0.47285  1.0000
  H   H1298     1.0  0.50690  0.06743  0.43624  1.0000
  C   C728      1.0  0.54527  0.50110  0.01143  1.0000
  H   H1299     1.0  0.74728  0.17634  0.06889  1.0000
  H   H1300     1.0  0.75208  0.24062  0.08949  1.0000
  H   H1301     1.0  0.58820  0.00584  0.23640  1.0000
  C   C729      1.0  0.51083  0.00413  0.36711  1.0000
  Fe  Fe79      1.0  0.71802  0.34079  0.86366  1.0000
  S   S160      1.0  0.71197  0.38012  0.85147  1.0000
  Fe  Fe80      1.0  0.70517  0.28684  0.85315  1.0000
  S   S161      1.0  0.68441  0.26497  0.82496  1.0000
  H   H1302     1.0  0.66364  0.11413  0.57891  1.0000
  C   C730      1.0  0.63015  0.12372  0.77122  1.0000
  S   S162      1.0  0.68910  0.31546  0.87831  1.0000
  C   C731      1.0  0.64442  0.07997  0.57224  1.0000
  H   H1303     1.0  0.66576  0.05946  0.67460  1.0000
  H   H1304     1.0  0.51271  0.04960  0.52817  1.0000
  S   S163      1.0  0.62946  0.44103  0.90734  1.0000
  Fe  Fe81      1.0  0.52050  0.08354  0.63100  1.0000
  C   C732      1.0  0.50890  0.11585  0.51750  1.0000
  S   S164      1.0  0.52319  0.04869  0.65276  1.0000
  Fe  Fe82      1.0  0.53116  0.10726  0.58110  1.0000
  H   H1305     1.0  0.64590  0.43378  0.96339  1.0000
  C   C733      1.0  0.52308  0.49450  0.96044  1.0000
  Fe  Fe83      1.0  0.54287  0.13413  0.62890  1.0000
  S   S165      1.0  0.57095  0.15830  0.64728  1.0000
  S   S166      1.0  0.55462  0.09803  0.61327  1.0000
  Fe  Fe84      1.0  0.70851  0.13508  0.76986  1.0000
  S   S167      1.0  0.69892  0.15191  0.73382  1.0000
  S   S168      1.0  0.70097  0.15130  0.80730  1.0000
  Fe  Fe85      1.0  0.72981  0.08822  0.74602  1.0000
  S   S169      1.0  0.72308  0.10243  0.70795  1.0000
  H   H1306     1.0  0.51422  0.05201  0.56088  1.0000
  Fe  Fe86      1.0  0.68635  0.11431  0.72296  1.0000
  S   S170      1.0  0.65144  0.10005  0.70611  1.0000
  S   S171      1.0  0.69260  0.09861  0.76030  1.0000
  C   C734      1.0  0.72356  0.30211  0.97037  1.0000
  H   H1307     1.0  0.68252  0.40811  0.98921  1.0000
  H   H1308     1.0  0.71808  0.49874  0.86263  1.0000
  C   C735      1.0  0.59193  0.14304  0.66634  1.0000
  C   C736      1.0  0.58890  0.11819  0.67197  1.0000
  C   C737      1.0  0.60683  0.10566  0.68528  1.0000
  C   C738      1.0  0.62804  0.11776  0.69287  1.0000
  C   C739      1.0  0.63064  0.14289  0.68826  1.0000
  C   C740      1.0  0.61256  0.15551  0.67501  1.0000
  H   H1309     1.0  0.57288  0.10851  0.66574  1.0000
  H   H1310     1.0  0.60450  0.08631  0.68914  1.0000
  H   H1311     1.0  0.64685  0.15240  0.69423  1.0000
  H   H1312     1.0  0.61491  0.17480  0.67081  1.0000
  H   H1313     1.0  0.72678  0.48420  0.90516  1.0000
  H   H1314     1.0  0.73184  0.03750  0.70793  1.0000
  C   C741      1.0  0.73709  0.02213  0.74371  1.0000
  H   H1315     1.0  0.65593  0.04847  0.77198  1.0000
  C   C742      1.0  0.61569  0.04690  0.64407  1.0000
  S   S172      1.0  0.51015  0.11890  0.64906  1.0000
  C   C743      1.0  0.66851  0.46647  0.96767  1.0000
  H   H1316     1.0  0.66397  0.09179  0.53917  1.0000
  Fe  Fe87      1.0  0.71805  0.30355  0.90501  1.0000
  S   S173      1.0  0.70433  0.30234  0.94461  1.0000
  H   H1317     1.0  0.53999  0.18197  0.82939  1.0000
  C   C744      1.0  0.69164  0.23388  0.81970  1.0000
  C   C745      1.0  0.68771  0.22385  0.79645  1.0000
  C   C746      1.0  0.69215  0.19882  0.79198  1.0000
  C   C747      1.0  0.69917  0.18339  0.81113  1.0000
  C   C748      1.0  0.70328  0.19345  0.83433  1.0000
  C   C749      1.0  0.69991  0.21869  0.83852  1.0000
  C   C750      1.0  0.59370  0.14665  0.57906  1.0000
  H   H1318     1.0  0.68935  0.19138  0.77394  1.0000
  H   H1319     1.0  0.60649  0.10339  0.59612  1.0000
  H   H1320     1.0  0.52248  0.43367  0.90218  1.0000
  H   H1321     1.0  0.54360  0.19178  0.79801  1.0000
  H   H1322     1.0  0.64585  0.13349  0.64005  1.0000
  C   C751      1.0  0.58366  0.03039  0.72478  1.0000
  C   C752      1.0  0.68891  0.39686  0.86701  1.0000
  C   C753      1.0  0.67886  0.38840  0.88914  1.0000
  C   C754      1.0  0.66066  0.40218  0.90129  1.0000
  C   C755      1.0  0.65226  0.42438  0.89134  1.0000
  C   C756      1.0  0.66231  0.43288  0.86923  1.0000
  C   C757      1.0  0.68070  0.41921  0.85718  1.0000
  H   H1323     1.0  0.68507  0.37121  0.89687  1.0000
  H   H1324     1.0  0.65284  0.39545  0.91832  1.0000
  H   H1325     1.0  0.65573  0.44981  0.86127  1.0000
  H   H1326     1.0  0.68824  0.42571  0.83995  1.0000
  C   C758      1.0  0.68205  0.11734  0.63570  1.0000
  S   S174      1.0  0.57792  0.48903  0.90526  1.0000
  C   C759      1.0  0.50340  0.01520  0.54756  1.0000
  H   H1327     1.0  0.68193  0.45682  0.97928  1.0000
  C   C760      1.0  0.57461  0.17129  0.81253  1.0000
  H   H1328     1.0  0.71432  0.34977  0.79879  1.0000
  C   C761      1.0  0.60883  0.14107  0.77884  1.0000
  H   H1329     1.0  0.58135  0.15077  0.59482  1.0000
  H   H1330     1.0  0.61995  0.05212  0.66313  1.0000
  Fe  Fe88      1.0  0.73661  0.13896  0.72217  1.0000
  H   H1331     1.0  0.71179  0.13197  0.65723  1.0000
  H   H1332     1.0  0.73921  0.47857  0.94555  1.0000
  C   C762      1.0  0.71321  0.30595  0.99377  1.0000
  H   H1333     1.0  0.65477  0.07160  0.62823  1.0000
  H   H1334     1.0  0.73385  0.43738  0.83781  1.0000
  H   H1335     1.0  0.74086  0.25540  0.80381  1.0000
  H   H1336     1.0  0.62721  0.03997  0.74659  1.0000
  H   H1337     1.0  0.62250  0.16528  0.73653  1.0000
  H   H1338     1.0  0.61824  0.14747  0.82500  1.0000
  H   H1339     1.0  0.69557  0.04576  0.67878  1.0000
  C   C763      1.0  0.66483  0.02204  0.68875  1.0000
  H   H1340     1.0  0.64102  0.06220  0.58160  1.0000
  H   H1341     1.0  0.67796  0.44827  0.93333  1.0000
  C   C764      1.0  0.50857  0.49592  0.98503  1.0000
  H   H1342     1.0  0.61121  0.06376  0.60886  1.0000
  C   C765      1.0  0.66549  0.02869  0.71637  1.0000
  N   N40       1.0  0.65226  0.01176  0.73418  1.0000
  C   C766      1.0  0.52472  0.43829  0.88247  1.0000
  C   C767      1.0  0.57169  0.01043  0.60640  1.0000
  H   H1343     1.0  0.70861  0.43160  0.95452  1.0000
  H   H1344     1.0  0.68117  0.23552  0.78188  1.0000
  H   H1345     1.0  0.59749  0.03785  0.64421  1.0000
  H   H1346     1.0  0.53728  0.45426  0.88080  1.0000
  H   H1347     1.0  0.68965  0.38719  0.94985  1.0000
  H   H1348     1.0  0.60871  0.10196  0.74583  1.0000
  H   H1349     1.0  0.60942  0.08983  0.77677  1.0000
  H   H1350     1.0  0.64600  0.01892  0.68232  1.0000
  H   H1351     1.0  0.63583  0.08705  0.75692  1.0000
  H   H1352     1.0  0.70207  0.02320  0.79161  1.0000
  H   H1353     1.0  0.59824  0.20011  0.79758  1.0000
  C   C768      1.0  0.59334  0.18081  0.79310  1.0000
  H   H1354     1.0  0.62656  0.15597  0.59775  1.0000
  S   S175      1.0  0.54722  0.09652  0.54400  1.0000
  S   S176      1.0  0.73169  0.27260  0.88086  1.0000
  H   H1355     1.0  0.60711  0.19301  0.74574  1.0000
  S   S177      1.0  0.54235  0.50378  0.84448  1.0000
  H   H1356     1.0  0.64229  0.11974  0.78685  1.0000
  C   C769      1.0  0.62874  0.16084  0.81356  1.0000
  C   C770      1.0  0.53256  0.10603  0.51688  1.0000
  H   H1357     1.0  0.50996  0.45832  0.94978  1.0000
  H   H1358     1.0  0.66232  0.47622  0.93028  1.0000
  C   C771      1.0  0.66594  0.01156  0.75807  1.0000
  H   H1359     1.0  0.61712  0.19450  0.83353  1.0000
  H   H1360     1.0  0.65906  0.04797  0.71869  1.0000
  C   C772      1.0  0.66046  0.07465  0.54973  1.0000
  H   H1361     1.0  0.63767  0.19743  0.78026  1.0000
  S   S178      1.0  0.74626  0.33055  0.89136  1.0000
  H   H1362     1.0  0.58300  0.16890  0.83073  1.0000
  H   H1363     1.0  0.64699  0.19628  0.81974  1.0000
  H   H1364     1.0  0.63659  0.20072  0.71235  1.0000
  N   N41       1.0  0.61612  0.16542  0.78956  1.0000
  C   C773      1.0  0.62478  0.18302  0.74611  1.0000
  H   H1365     1.0  0.72176  0.24440  0.76305  1.0000
  H   H1366     1.0  0.74165  0.43726  0.98483  1.0000
  H   H1367     1.0  0.50517  0.47675  0.99096  1.0000
  H   H1368     1.0  0.70274  0.22622  0.85655  1.0000
  H   H1369     1.0  0.62689  0.08755  0.56554  1.0000
  C   C774      1.0  0.72144  0.46996  0.95080  1.0000
  H   H1370     1.0  0.64685  0.15195  0.81032  1.0000
  S   S179      1.0  0.74661  0.12376  0.75890  1.0000
  H   H1371     1.0  0.58306  0.18210  0.77572  1.0000
  H   H1372     1.0  0.67266  0.02516  0.80722  1.0000
  H   H1373     1.0  0.65159  0.16934  0.77179  1.0000
  S   S180      1.0  0.61283  0.49232  0.85575  1.0000
  H   H1374     1.0  0.63813  0.45239  0.98966  1.0000
  C   C775      1.0  0.64317  0.19837  0.73136  1.0000
  H   H1375     1.0  0.69517  0.11238  0.62083  1.0000
  C   C776      1.0  0.64520  0.17661  0.85376  1.0000
  H   H1376     1.0  0.67447  0.08859  0.59540  1.0000
  H   H1377     1.0  0.59475  0.16324  0.56723  1.0000
  H   H1378     1.0  0.69631  0.15465  0.63896  1.0000
  C   C777      1.0  0.73161  0.02091  0.71885  1.0000
  H   H1379     1.0  0.66128  0.18918  0.73058  1.0000
  H   H1380     1.0  0.64142  0.13183  0.75621  1.0000
  H   H1381     1.0  0.62974  0.46255  0.95959  1.0000
  S   S181      1.0  0.73149  0.31343  0.83602  1.0000
  C   C778      1.0  0.61928  0.13982  0.58790  1.0000
  C   C779      1.0  0.62663  0.02099  0.73924  1.0000
  H   H1382     1.0  0.59946  0.08111  0.63430  1.0000
  H   H1383     1.0  0.56687  0.15340  0.80687  1.0000
  H   H1384     1.0  0.69376  0.30939  0.99559  1.0000
  C   C780      1.0  0.63396  0.18388  0.82932  1.0000
  H   H1385     1.0  0.58408  0.04877  0.73354  1.0000
  H   H1386     1.0  0.68527  0.04700  0.75672  1.0000
  H   H1387     1.0  0.63182  0.16610  0.86510  1.0000
  C   C781      1.0  0.74646  0.22233  0.99043  1.0000
  H   H1388     1.0  0.50367  0.45049  0.85202  1.0000
  C   C782      1.0  0.69365  0.13798  0.65045  1.0000
  C   C783      1.0  0.69035  0.48993  0.89038  1.0000
  H   H1389     1.0  0.52056  0.47737  0.92481  1.0000
  C   C784      1.0  0.63359  0.17895  0.77273  1.0000
  H   H1390     1.0  0.63918  0.09123  0.64882  1.0000
  H   H1391     1.0  0.60810  0.12264  0.62188  1.0000
  H   H1392     1.0  0.52581  0.01898  0.58666  1.0000
  H   H1393     1.0  0.53321  0.42253  0.87267  1.0000
  H   H1394     1.0  0.72906  0.21433  0.98384  1.0000
  H   H1395     1.0  0.68195  0.14262  0.66656  1.0000
  H   H1396     1.0  0.67240  0.48048  0.89066  1.0000
  C   C785      1.0  0.55327  0.18926  0.81561  1.0000
  H   H1397     1.0  0.73093  0.39134  0.79775  1.0000
  H   H1398     1.0  0.69009  0.05257  0.80065  1.0000
  C   C786      1.0  0.62029  0.09916  0.76217  1.0000
  H   H1399     1.0  0.60996  0.49918  0.78820  1.0000
  H   H1400     1.0  0.70372  0.46902  0.85892  1.0000
  C   C787      1.0  0.72378  0.35645  0.78192  1.0000
  H   H1401     1.0  0.68000  0.10132  0.64814  1.0000
  H   H1402     1.0  0.68524  0.02930  0.72049  1.0000
  C   C788      1.0  0.67242  0.03698  0.76899  1.0000
  H   H1403     1.0  0.59699  0.14379  0.76260  1.0000
  H   H1404     1.0  0.66138  0.14115  0.61231  1.0000
  H   H1405     1.0  0.59738  0.13063  0.79223  1.0000
  H   H1406     1.0  0.64531  0.21683  0.73966  1.0000
  H   H1407     1.0  0.71865  0.47460  0.97048  1.0000
  S   S182      1.0  0.52178  0.14492  0.59523  1.0000
  C   C789      1.0  0.64412  0.45292  0.97018  1.0000
  H   H1408     1.0  0.65050  0.19339  0.86389  1.0000
  H   H1409     1.0  0.66187  0.16522  0.85080  1.0000
  H   H1410     1.0  0.62965  0.03366  0.63721  1.0000
  H   H1411     1.0  0.55993  0.20735  0.82206  1.0000
  C   C790      1.0  0.72530  0.44178  0.94886  1.0000
  C   C791      1.0  0.65713  0.12558  0.62487  1.0000
  H   H1412     1.0  0.55902  0.02038  0.61899  1.0000
  C   C792      1.0  0.67647  0.04222  0.67300  1.0000
  H   H1413     1.0  0.67688  0.03647  0.65354  1.0000
  H   H1414     1.0  0.66571  0.37214  0.96718  1.0000
  H   H1415     1.0  0.57186  0.03160  0.70840  1.0000
  C   C793      1.0  0.51037  0.47739  0.94254  1.0000
  C   C794      1.0  0.67729  0.46735  0.94055  1.0000
  C   C795      1.0  0.63910  0.08466  0.62955  1.0000
  H   H1416     1.0  0.63080  0.13638  0.57142  1.0000
  H   H1417     1.0  0.73344  0.34088  0.77291  1.0000
  H   H1418     1.0  0.70872  0.18160  0.84923  1.0000
  C   C796      1.0  0.65732  0.09793  0.58973  1.0000
  H   H1419     1.0  0.67821  0.06641  0.55518  1.0000
  N   N42       1.0  0.64272  0.10597  0.61192  1.0000
  H   H1420     1.0  0.69603  0.35873  0.96534  1.0000
  C   C797      1.0  0.61503  0.06969  0.62776  1.0000
  Fe  Fe89      1.0  0.61615  0.47805  0.89413  1.0000
  C   C798      1.0  0.61836  0.11706  0.60505  1.0000
  C   C799      1.0  0.68562  0.37626  0.96662  1.0000
  C   C800      1.0  0.69308  0.39071  0.98929  1.0000
  C   C801      1.0  0.68502  0.03418  0.79364  1.0000
  H   H1421     1.0  0.58406  0.02389  0.59728  1.0000
  H   H1422     1.0  0.54186  0.48730  0.96311  1.0000
  S   S183      1.0  0.74357  0.05051  0.75819  1.0000
  H   H1423     1.0  0.70812  0.45772  0.90386  1.0000
  H   H1424     1.0  0.58572  0.13147  0.56824  1.0000
  H   H1425     1.0  0.71287  0.39466  0.98731  1.0000
  C   C802      1.0  0.50661  0.02500  0.63934  1.0000
  C   C803      1.0  0.70783  0.47752  0.90887  1.0000
  C   C804      1.0  0.74864  0.29742  0.96814  1.0000
  H   H1426     1.0  0.54730  0.02802  0.52646  1.0000
  C   C805      1.0  0.53995  0.01319  0.57289  1.0000
  H   H1427     1.0  0.73020  0.43639  0.92985  1.0000
  C   C806      1.0  0.74170  0.37697  0.78811  1.0000
  H   H1428     1.0  0.70965  0.36357  0.76931  1.0000
  H   H1429     1.0  0.68728  0.49671  0.85145  1.0000
  H   H1430     1.0  0.55831  0.50364  0.99579  1.0000
  C   C807      1.0  0.70060  0.48843  0.86428  1.0000
  H   H1431     1.0  0.74424  0.46344  0.82016  1.0000
  H   H1432     1.0  0.66562  0.48524  0.97502  1.0000
  H   H1433     1.0  0.61756  0.00997  0.75390  1.0000
  H   H1434     1.0  0.65094  0.06150  0.53763  1.0000
  N   N43       1.0  0.70111  0.48053  0.93559  1.0000
  H   H1435     1.0  0.55014  0.03032  0.56814  1.0000
  H   H1436     1.0  0.57541  0.01687  0.73772  1.0000
  H   H1437     1.0  0.61630  0.03637  0.70388  1.0000
  C   C808      1.0  0.60944  0.02238  0.71703  1.0000
  C   C809      1.0  0.50398  0.04366  0.54567  1.0000
  H   H1438     1.0  0.74906  0.38433  0.77059  1.0000
  H   H1439     1.0  0.74982  0.17244  0.79660  1.0000
  H   H1440     1.0  0.74957  0.25472  0.74799  1.0000
  C   C810      1.0  0.74606  0.43323  0.96534  1.0000
  H   H1441     1.0  0.73109  0.27599  0.76556  1.0000
  C   C811      1.0  0.73778  0.25675  0.76459  1.0000
  H   H1442     1.0  0.74254  0.21317  0.79326  1.0000
  H   H1443     1.0  0.75225  0.21780  0.83520  1.0000
  C   C812      1.0  0.54302  0.00806  0.52766  1.0000
  C   C813      1.0  0.75031  0.44672  0.83008  1.0000
  H   H1444     1.0  0.74869  0.41310  0.96336  1.0000
  H   H1445     1.0  0.75158  0.42535  0.79728  1.0000
  C   C814      1.0  0.75235  0.25076  0.78751  1.0000
  H   H1446     1.0  0.60783  0.00442  0.70774  1.0000
  H   H1447     1.0  0.53228  0.00406  0.51099  1.0000
  H   H1448     1.0  0.67548  0.00497  0.68531  1.0000
  Fe  Fe90      1.0  0.64919  0.52589  0.06371  1.0000
  C   C815      1.0  0.59158  0.97550  0.29302  1.0000
  C   C816      1.0  0.53375  0.53019  0.09527  1.0000
  C   C817      1.0  0.68153  0.79556  0.25933  1.0000
  C   C818      1.0  0.51121  0.51402  0.13048  1.0000
  H   H1449     1.0  0.70907  0.69502  0.05579  1.0000
  Fe  Fe91      1.0  0.64439  0.54416  0.11574  1.0000
  S   S184      1.0  0.66270  0.57159  0.14063  1.0000
  S   S185      1.0  0.62634  0.55524  0.08107  1.0000
  C   C819      1.0  0.72763  0.90223  0.41773  1.0000
  S   S186      1.0  0.70896  0.73745  0.09502  1.0000
  H   H1450     1.0  0.53553  0.97065  0.33368  1.0000
  S   S187      1.0  0.71160  0.73016  0.15462  1.0000
  Fe  Fe92      1.0  0.69965  0.70771  0.12246  1.0000
  S   S188      1.0  0.66420  0.68632  0.11904  1.0000
  Fe  Fe93      1.0  0.72470  0.75797  0.12703  1.0000
  H   H1451     1.0  0.62319  0.94372  0.33672  1.0000
  Fe  Fe94      1.0  0.69214  0.88458  0.24430  1.0000
  S   S189      1.0  0.71090  0.87272  0.27862  1.0000
  S   S190      1.0  0.67469  0.85355  0.22317  1.0000
  Fe  Fe95      1.0  0.70186  0.93953  0.25405  1.0000
  S   S191      1.0  0.72195  0.93124  0.28859  1.0000
  S   S192      1.0  0.69245  0.97817  0.24058  1.0000
  Fe  Fe96      1.0  0.69150  0.90442  0.29650  1.0000
  S   S193      1.0  0.67469  0.90348  0.33467  1.0000
  S   S194      1.0  0.67023  0.91433  0.26319  1.0000
  H   H1452     1.0  0.68413  0.62082  0.08123  1.0000
  H   H1453     1.0  0.54609  0.93435  0.31095  1.0000
  S   S195      1.0  0.61540  0.51616  0.12570  1.0000
  Fe  Fe97      1.0  0.53517  0.93227  0.40187  1.0000
  S   S196      1.0  0.53033  0.92436  0.36213  1.0000
  S   S197      1.0  0.56044  0.53340  0.07693  1.0000
  Fe  Fe98      1.0  0.53932  0.88579  0.37278  1.0000
  S   S198      1.0  0.56488  0.86593  0.34652  1.0000
  S   S199      1.0  0.54686  0.89425  0.41229  1.0000
  H   H1454     1.0  0.66433  0.67100  0.03185  1.0000
  H   H1455     1.0  0.61498  0.99321  0.25066  1.0000
  C   C820      1.0  0.66185  0.60795  0.05199  1.0000
  C   C821      1.0  0.51208  0.54118  0.08717  1.0000
  C   C822      1.0  0.64427  0.89273  0.33788  1.0000
  C   C823      1.0  0.63039  0.89909  0.35874  1.0000
  C   C824      1.0  0.60590  0.89137  0.36139  1.0000
  C   C825      1.0  0.59548  0.87624  0.34373  1.0000
  C   C826      1.0  0.60965  0.86921  0.32328  1.0000
  C   C827      1.0  0.63378  0.87781  0.32011  1.0000
  H   H1456     1.0  0.63844  0.91046  0.37267  1.0000
  H   H1457     1.0  0.59522  0.89677  0.37730  1.0000
  H   H1458     1.0  0.60181  0.85729  0.30968  1.0000
  H   H1459     1.0  0.64436  0.87259  0.30407  1.0000
  H   H1460     1.0  0.65592  0.98562  0.28940  1.0000
  H   H1461     1.0  0.64517  0.80210  0.24463  1.0000
  H   H1462     1.0  0.53647  0.87748  0.46658  1.0000
  C   C828      1.0  0.71263  0.81322  0.15930  1.0000
  C   C829      1.0  0.72217  0.83552  0.16779  1.0000
  C   C830      1.0  0.71130  0.84767  0.18792  1.0000
  C   C831      1.0  0.69033  0.83792  0.19925  1.0000
  C   C832      1.0  0.68099  0.81546  0.19095  1.0000
  C   C833      1.0  0.69225  0.80300  0.17125  1.0000
  C   C834      1.0  0.52059  0.98584  0.38204  1.0000
  H   H1463     1.0  0.71855  0.86503  0.19403  1.0000
  H   H1464     1.0  0.67231  0.72384  0.22832  1.0000
  C   C835      1.0  0.71818  0.75702  0.29375  1.0000
  H   H1465     1.0  0.61154  0.97222  0.28999  1.0000
  H   H1466     1.0  0.61211  0.92977  0.30233  1.0000
  H   H1467     1.0  0.56945  0.61273  0.06008  1.0000
  C   C836      1.0  0.66333  0.60330  0.13370  1.0000
  C   C837      1.0  0.64663  0.61390  0.11763  1.0000
  C   C838      1.0  0.64701  0.63939  0.11327  1.0000
  C   C839      1.0  0.66467  0.65431  0.12426  1.0000
  C   C840      1.0  0.68178  0.64359  0.13985  1.0000
  C   C841      1.0  0.68078  0.61827  0.14491  1.0000
  H   H1468     1.0  0.63312  0.60257  0.10895  1.0000
  H   H1469     1.0  0.63369  0.64758  0.10125  1.0000
  H   H1470     1.0  0.69529  0.65496  0.14861  1.0000
  H   H1471     1.0  0.69367  0.61024  0.15750  1.0000
  C   C842      1.0  0.73423  0.73431  0.02521  1.0000
  H   H1472     1.0  0.56215  0.99191  0.27113  1.0000
  C   C843      1.0  0.59754  0.57124  0.16598  1.0000
  C   C844      1.0  0.52489  0.87595  0.48272  1.0000
  C   C845      1.0  0.59655  0.00124  0.25427  1.0000
  H   H1473     1.0  0.67468  0.81755  0.33341  1.0000
  C   C846      1.0  0.68331  0.76807  0.25218  1.0000
  C   C847      1.0  0.64455  0.53798  0.00648  1.0000
  H   H1474     1.0  0.69030  0.80734  0.24521  1.0000
  N   N44       1.0  0.74471  0.86037  0.36157  1.0000
  H   H1475     1.0  0.67393  0.75710  0.26673  1.0000
  C   C848      1.0  0.73314  0.51112  0.08348  1.0000
  H   H1476     1.0  0.60280  0.58843  0.17530  1.0000
  H   H1477     1.0  0.57206  0.92479  0.26370  1.0000
  H   H1478     1.0  0.60504  0.94738  0.37891  1.0000
  C   C849      1.0  0.68656  0.60936  0.06463  1.0000
  H   H1479     1.0  0.54575  0.99118  0.31003  1.0000
  H   H1480     1.0  0.69600  0.66540  0.06331  1.0000
  C   C850      1.0  0.72911  0.55735  0.08802  1.0000
  H   H1481     1.0  0.64529  0.79266  0.27652  1.0000
  H   H1482     1.0  0.59213  0.58994  0.11897  1.0000
  C   C851      1.0  0.59976  0.89736  0.26577  1.0000
  C   C852      1.0  0.58842  0.62894  0.14524  1.0000
  H   H1483     1.0  0.56290  0.61587  0.17324  1.0000
  H   H1484     1.0  0.71459  0.59331  0.02434  1.0000
  N   N45       1.0  0.72319  0.58238  0.07761  1.0000
  C   C853      1.0  0.70695  0.83452  0.34882  1.0000
  H   H1485     1.0  0.55617  0.61958  0.10256  1.0000
  C   C854      1.0  0.68083  0.68281  0.03074  1.0000
  H   H1486     1.0  0.57734  0.93998  0.34343  1.0000
  H   H1487     1.0  0.74830  0.90937  0.38497  1.0000
  H   H1488     1.0  0.59582  0.55253  0.20135  1.0000
  H   H1489     1.0  0.72456  0.62000  0.09049  1.0000
  H   H1490     1.0  0.61878  0.89481  0.27217  1.0000
  S   S200      1.0  0.72601  0.79924  0.13313  1.0000
  H   H1491     1.0  0.72665  0.72307  0.24372  1.0000
  H   H1492     1.0  0.58756  0.88389  0.27513  1.0000
  H   H1493     1.0  0.72671  0.74293  0.04145  1.0000
  H   H1494     1.0  0.74304  0.60831  0.05442  1.0000
  S   S201      1.0  0.55448  0.96669  0.41284  1.0000
  C   C855      1.0  0.56972  0.57109  0.16105  1.0000
  S   S202      1.0  0.66941  0.51668  0.09779  1.0000
  N   N46       1.0  0.70884  0.75849  0.24729  1.0000
  C   C856      1.0  0.69206  0.72081  0.22421  1.0000
  H   H1495     1.0  0.60912  0.66185  0.15311  1.0000
  H   H1496     1.0  0.70817  0.53370  0.06324  1.0000
  H   H1497     1.0  0.59918  0.53222  0.17542  1.0000
  H   H1498     1.0  0.55003  0.50843  0.12372  1.0000
  H   H1499     1.0  0.73753  0.91660  0.42801  1.0000
  H   H1500     1.0  0.69844  0.82477  0.31126  1.0000
  H   H1501     1.0  0.63249  0.96524  0.37449  1.0000
  H   H1502     1.0  0.59764  0.98962  0.49907  1.0000
  C   C857      1.0  0.61168  0.95979  0.34137  1.0000
  H   H1503     1.0  0.70005  0.72276  0.26242  1.0000
  H   H1504     1.0  0.61987  0.97617  0.33251  1.0000
  H   H1505     1.0  0.69157  0.68305  0.23777  1.0000
  H   H1506     1.0  0.68514  0.57740  0.08816  1.0000
  H   H1507     1.0  0.71735  0.55367  0.10451  1.0000
  H   H1508     1.0  0.71472  0.59838  0.11297  1.0000
  C   C858      1.0  0.59227  0.92994  0.29823  1.0000
  H   H1509     1.0  0.58249  0.54026  0.00373  1.0000
  H   H1510     1.0  0.71425  0.88365  0.37292  1.0000
  C   C859      1.0  0.54193  0.99020  0.39514  1.0000
  H   H1511     1.0  0.74434  0.62798  0.13647  1.0000
  H   H1512     1.0  0.54549  0.55067  0.02638  1.0000
  H   H1513     1.0  0.60470  0.61735  0.14829  1.0000
  C   C860      1.0  0.74367  0.89315  0.39647  1.0000
  Fe  Fe99      1.0  0.73949  0.90016  0.26748  1.0000
  C   C861      1.0  0.56418  0.61583  0.15287  1.0000
  H   H1514     1.0  0.71476  0.81612  0.35270  1.0000
  H   H1515     1.0  0.68428  0.68651  0.20583  1.0000
  H   H1516     1.0  0.67946  0.84885  0.32399  1.0000
  C   C862      1.0  0.72602  0.76521  0.26757  1.0000
  H   H1517     1.0  0.58182  0.58314  0.06764  1.0000
  H   H1518     1.0  0.71034  0.91030  0.41080  1.0000
  C   C863      1.0  0.55309  0.95175  0.30265  1.0000
  Fe  Fe100     1.0  0.74542  0.71861  0.09234  1.0000
  C   C864      1.0  0.57814  0.60184  0.07482  1.0000
  H   H1519     1.0  0.59570  0.61074  0.07964  1.0000
  C   C865      1.0  0.59094  0.92354  0.27069  1.0000
  C   C866      1.0  0.53008  0.55645  0.01477  1.0000
  H   H1520     1.0  0.62485  0.55010  0.18539  1.0000
  C   C867      1.0  0.58022  0.98299  0.26812  1.0000
  C   C868      1.0  0.71837  0.76996  0.22385  1.0000
  H   H1521     1.0  0.56086  0.57332  0.17934  1.0000
  H   H1522     1.0  0.73790  0.84471  0.32597  1.0000
  C   C869      1.0  0.73003  0.87367  0.38113  1.0000
  H   H1523     1.0  0.59345  0.64889  0.17932  1.0000
  H   H1524     1.0  0.73919  0.73934  0.20733  1.0000
  C   C870      1.0  0.68882  0.83124  0.32805  1.0000
  C   C871      1.0  0.69623  0.58352  0.07196  1.0000
  Fe  Fe101     1.0  0.59924  0.52510  0.08904  1.0000
  H   H1525     1.0  0.69143  0.57032  0.05744  1.0000
  C   C872      1.0  0.62010  0.53801  0.01439  1.0000
  H   H1526     1.0  0.54861  0.95021  0.28302  1.0000
  C   C873      1.0  0.70784  0.73090  0.24533  1.0000
  H   H1527     1.0  0.56802  0.99297  0.48538  1.0000
  C   C874      1.0  0.58474  0.95628  0.33342  1.0000
  H   H1528     1.0  0.56473  0.55232  0.15464  1.0000
  H   H1529     1.0  0.57146  0.56618  0.11377  1.0000
  C   C875      1.0  0.53340  0.51689  0.11722  1.0000
  C   C876      1.0  0.69962  0.67308  0.01156  1.0000
  H   H1530     1.0  0.58419  0.91434  0.30886  1.0000
  H   H1531     1.0  0.68464  0.78596  0.16471  1.0000
  C   C877      1.0  0.66562  0.99402  0.30501  1.0000
  H   H1532     1.0  0.67879  0.69308  0.06888  1.0000
  S   S203      1.0  0.72178  0.91048  0.23196  1.0000
  H   H1533     1.0  0.51416  0.56038  0.02697  1.0000
  H   H1534     1.0  0.64784  0.60022  0.06463  1.0000
  C   C878      1.0  0.61307  0.96340  0.36906  1.0000
  H   H1535     1.0  0.72153  0.86018  0.39403  1.0000
  H   H1536     1.0  0.71553  0.68957  0.21535  1.0000
  H   H1537     1.0  0.66312  0.59634  0.03535  1.0000
  C   C879      1.0  0.73496  0.76826  0.31287  1.0000
  H   H1538     1.0  0.66470  0.80788  0.19950  1.0000
  H   H1539     1.0  0.57642  0.66554  0.15630  1.0000
  C   C880      1.0  0.53313  0.58570  0.14053  1.0000
  H   H1540     1.0  0.69641  0.72982  0.20653  1.0000
  C   C881      1.0  0.57988  0.99953  0.50038  1.0000
  H   H1541     1.0  0.67182  0.76569  0.23566  1.0000
  C   C882      1.0  0.72954  0.58083  0.03000  1.0000
  H   H1542     1.0  0.57487  0.97249  0.34096  1.0000
  C   C883      1.0  0.59194  0.65275  0.15943  1.0000
  N   N47       1.0  0.52021  0.51073  0.00505  1.0000
  H   H1543     1.0  0.61550  0.53587  0.03350  1.0000
  S   S204      1.0  0.73542  0.68804  0.11849  1.0000
  H   H1544     1.0  0.67513  0.70179  0.02588  1.0000
  H   H1545     1.0  0.74197  0.82523  0.38021  1.0000
  H   H1546     1.0  0.74018  0.53703  0.05506  1.0000
  C   C884      1.0  0.50361  0.51153  0.02748  1.0000
  N   N48       1.0  0.58039  0.95375  0.30625  1.0000
  C   C885      1.0  0.60466  0.55021  0.18308  1.0000
  C   C886      1.0  0.72692  0.53525  0.07049  1.0000
  C   C887      1.0  0.72788  0.60105  0.09743  1.0000
  H   H1547     1.0  0.71801  0.86936  0.33394  1.0000
  S   S205      1.0  0.66794  0.53333  0.02762  1.0000
  H   H1548     1.0  0.65582  0.62667  0.04670  1.0000
  H   H1549     1.0  0.70432  0.76945  0.20932  1.0000
  C   C888      1.0  0.65489  0.80376  0.26228  1.0000
  H   H1550     1.0  0.69065  0.79905  0.27694  1.0000
  H   H1551     1.0  0.69957  0.61917  0.05236  1.0000
  H   H1552     1.0  0.69918  0.76264  0.29839  1.0000
  H   H1553     1.0  0.72196  0.78988  0.22654  1.0000
  H   H1554     1.0  0.60840  0.56915  0.14885  1.0000
  H   H1555     1.0  0.74833  0.55662  0.09434  1.0000
  C   C889      1.0  0.74221  0.75857  0.21305  1.0000
  H   H1556     1.0  0.57723  0.96720  0.25595  1.0000
  H   H1557     1.0  0.58829  0.63378  0.12551  1.0000
  C   C890      1.0  0.75090  0.77277  0.19052  1.0000
  C   C891      1.0  0.69616  0.69328  0.22071  1.0000
  H   H1558     1.0  0.72970  0.76141  0.33137  1.0000
  H   H1559     1.0  0.72319  0.88690  0.43048  1.0000
  H   H1560     1.0  0.65428  0.82335  0.26789  1.0000
  H   H1561     1.0  0.54381  0.59137  0.09116  1.0000
  H   H1562     1.0  0.59034  0.99223  0.30466  1.0000
  C   C892      1.0  0.57228  0.58596  0.11859  1.0000
  H   H1563     1.0  0.54922  0.62830  0.14685  1.0000
  N   N49       1.0  0.56030  0.59009  0.14329  1.0000
  H   H1564     1.0  0.60314  0.93600  0.25999  1.0000
  H   H1565     1.0  0.54169  0.59446  0.01651  1.0000
  C   C893      1.0  0.56091  0.60056  0.09705  1.0000
  H   H1566     1.0  0.59953  0.89365  0.24580  1.0000
  C   C894      1.0  0.69196  0.68405  0.05617  1.0000
  H   H1567     1.0  0.66457  0.98124  0.32087  1.0000
  H   H1568     1.0  0.72936  0.78538  0.26768  1.0000
  H   H1569     1.0  0.51183  0.97581  0.28331  1.0000
  C   C895      1.0  0.53737  0.97296  0.31358  1.0000
  C   C896      1.0  0.72747  0.85294  0.34149  1.0000
  H   H1570     1.0  0.60298  0.98023  0.37474  1.0000
  Fe  Fe102     1.0  0.74853  0.71284  0.14847  1.0000
  H   H1571     1.0  0.52987  0.56781  0.13134  1.0000
  H   H1572     1.0  0.55325  0.51199  0.02649  1.0000
  H   H1573     1.0  0.73777  0.84364  0.15846  1.0000
  H   H1574     1.0  0.73324  0.78858  0.31279  1.0000
  H   H1575     1.0  0.69656  0.84097  0.36518  1.0000
  H   H1576     1.0  0.70911  0.65722  0.02018  1.0000
  H   H1577     1.0  0.51145  0.96839  0.38332  1.0000
  H   H1578     1.0  0.74012  0.90766  0.34327  1.0000
  H   H1579     1.0  0.74975  0.89114  0.31640  1.0000
  H   H1580     1.0  0.68522  0.99631  0.29983  1.0000
  H   H1581     1.0  0.71379  0.68753  0.00917  1.0000
  H   H1582     1.0  0.71946  0.73675  0.29550  1.0000
  H   H1583     1.0  0.73787  0.77024  0.17545  1.0000
  C   C897      1.0  0.75260  0.71655  0.02737  1.0000
  H   H1584     1.0  0.51229  0.55208  0.07063  1.0000
  H   H1585     1.0  0.52496  0.59988  0.12840  1.0000
  H   H1586     1.0  0.74432  0.75680  0.26430  1.0000
  H   H1587     1.0  0.67910  0.63240  0.00602  1.0000
  H   H1588     1.0  0.73076  0.99117  0.27564  1.0000
  H   H1589     1.0  0.72199  0.56202  0.02963  1.0000
  H   H1590     1.0  0.75154  0.78894  0.01107  1.0000
  H   H1591     1.0  0.75214  0.79261  0.19464  1.0000
  H   H1592     1.0  0.52079  0.56838  0.17491  1.0000
  C   C898      1.0  0.51144  0.97298  0.30344  1.0000
  C   C899      1.0  0.51757  0.58562  0.16451  1.0000
  Fe  Fe103     1.0  0.50649  0.88760  0.41827  1.0000
  H   H1593     1.0  0.51455  0.51576  0.04396  1.0000
  H   H1594     1.0  0.52214  0.60149  0.17626  1.0000
  C   C900      1.0  0.74973  0.58248  0.01044  1.0000
  C   C901      1.0  0.73931  0.58822  0.05561  1.0000
  H   H1595     1.0  0.72185  0.50867  0.10036  1.0000
  Fe  Fe104     1.0  0.62709  0.52785  0.87098  1.0000
  S   S206      1.0  0.58985  0.54292  0.88017  1.0000
  S   S207      1.0  0.65503  0.55017  0.84962  1.0000
  H   H1596     1.0  0.58084  0.53408  0.78480  1.0000
  H   H1597     1.0  0.74197  0.57858  0.99218  1.0000
  C   C902      1.0  0.72549  0.99826  0.70816  1.0000
  H   H1598     1.0  0.66900  0.54225  0.97562  1.0000
  H   H1599     1.0  0.52226  0.58764  0.99095  1.0000
  H   H1600     1.0  0.54743  0.60922  0.75195  1.0000
  H   H1601     1.0  0.52123  0.96451  0.51499  1.0000
  S   S208      1.0  0.69938  0.70857  0.89492  1.0000
  C   C903      1.0  0.60128  0.54047  0.99748  1.0000
  H   H1602     1.0  0.66629  0.63572  0.95129  1.0000
  Fe  Fe105     1.0  0.71709  0.72404  0.86085  1.0000
  S   S209      1.0  0.69829  0.74407  0.82983  1.0000
  Fe  Fe106     1.0  0.72209  0.67479  0.88818  1.0000
  S   S210      1.0  0.70536  0.63962  0.90352  1.0000
  H   H1603     1.0  0.58383  0.52326  0.81553  1.0000
  Fe  Fe107     1.0  0.52788  0.90533  0.63964  1.0000
  S   S211      1.0  0.52592  0.92119  0.60183  1.0000
  S   S212      1.0  0.56005  0.91949  0.66122  1.0000
  H   H1604     1.0  0.56996  0.83073  0.52886  1.0000
  C   C904      1.0  0.59015  0.83305  0.52723  1.0000
  H   H1605     1.0  0.60430  0.81612  0.65810  1.0000
  S   S213      1.0  0.53457  0.87148  0.55611  1.0000
  C   C905      1.0  0.65065  0.79220  0.76560  1.0000
  H   H1606     1.0  0.64877  0.59470  0.95753  1.0000
  Fe  Fe108     1.0  0.68042  0.86537  0.71381  1.0000
  S   S214      1.0  0.68687  0.89146  0.74478  1.0000
  S   S215      1.0  0.64309  0.85042  0.70377  1.0000
  Fe  Fe109     1.0  0.71696  0.86524  0.75565  1.0000
  S   S216      1.0  0.72227  0.85291  0.79510  1.0000
  Fe  Fe110     1.0  0.71536  0.90871  0.71983  1.0000
  H   H1607     1.0  0.59587  0.60093  0.78355  1.0000
  S   S217      1.0  0.70818  0.83798  0.72669  1.0000
  S   S218      1.0  0.70698  0.88360  0.68816  1.0000
  C   C906      1.0  0.72503  0.97649  0.72208  1.0000
  H   H1608     1.0  0.73124  0.96092  0.75769  1.0000
  H   H1609     1.0  0.63470  0.92658  0.74250  1.0000
  H   H1610     1.0  0.65876  0.93575  0.72154  1.0000
  C   C907      1.0  0.52058  0.87316  0.52719  1.0000
  H   H1611     1.0  0.55594  0.58569  0.73035  1.0000
  C   C908      1.0  0.59250  0.84200  0.57277  1.0000
  C   C909      1.0  0.58288  0.89994  0.67292  1.0000
  C   C910      1.0  0.57830  0.87517  0.67783  1.0000
  C   C911      1.0  0.59689  0.86028  0.68750  1.0000
  C   C912      1.0  0.62034  0.86980  0.69164  1.0000
  C   C913      1.0  0.62501  0.89448  0.68644  1.0000
  C   C914      1.0  0.60623  0.90957  0.67740  1.0000
  H   H1612     1.0  0.56031  0.86765  0.67463  1.0000
  H   H1613     1.0  0.59302  0.84136  0.69209  1.0000
  H   H1614     1.0  0.64307  0.90194  0.68947  1.0000
  H   H1615     1.0  0.60991  0.92869  0.67345  1.0000
  C   C915      1.0  0.70862  0.77341  0.82035  1.0000
  C   C916      1.0  0.70923  0.77919  0.79532  1.0000
  C   C917      1.0  0.71425  0.80327  0.78730  1.0000
  C   C918      1.0  0.71860  0.82185  0.80427  1.0000
  C   C919      1.0  0.71907  0.81582  0.82929  1.0000
  C   C920      1.0  0.71398  0.79173  0.83733  1.0000
  H   H1616     1.0  0.70520  0.76510  0.78208  1.0000
  H   H1617     1.0  0.71426  0.80743  0.76802  1.0000
  S   S219      1.0  0.71480  0.94909  0.70793  1.0000
  H   H1618     1.0  0.71337  0.78750  0.85666  1.0000
  H   H1619     1.0  0.55138  0.55217  0.80864  1.0000
  H   H1620     1.0  0.72265  0.83000  0.84257  1.0000
  H   H1621     1.0  0.73857  0.82728  0.89425  1.0000
  H   H1622     1.0  0.58288  0.99756  0.61742  1.0000
  H   H1623     1.0  0.64994  0.78095  0.72728  1.0000
  C   C921      1.0  0.55734  0.99607  0.58740  1.0000
  H   H1624     1.0  0.62912  0.51709  0.80792  1.0000
  H   H1625     1.0  0.65410  0.96327  0.75812  1.0000
  H   H1626     1.0  0.62327  0.97043  0.74878  1.0000
  S   S220      1.0  0.74626  0.88471  0.73333  1.0000
  S   S221      1.0  0.63323  0.51247  0.90840  1.0000
  C   C922      1.0  0.57805  0.59296  0.78962  1.0000
  C   C923      1.0  0.66837  0.57551  0.86441  1.0000
  C   C924      1.0  0.66582  0.57855  0.88968  1.0000
  C   C925      1.0  0.67719  0.59841  0.90122  1.0000
  C   C926      1.0  0.69075  0.61571  0.88761  1.0000
  C   C927      1.0  0.69294  0.61297  0.86224  1.0000
  C   C928      1.0  0.68195  0.59275  0.85071  1.0000
  H   H1627     1.0  0.65538  0.56542  0.90040  1.0000
  H   H1628     1.0  0.67556  0.60034  0.92082  1.0000
  H   H1629     1.0  0.70348  0.62611  0.85162  1.0000
  H   H1630     1.0  0.68402  0.59048  0.83114  1.0000
  H   H1631     1.0  0.50846  0.96308  0.63299  1.0000
  H   H1632     1.0  0.58573  0.89245  0.76580  1.0000
  H   H1633     1.0  0.59446  0.84033  0.50866  1.0000
  C   C929      1.0  0.55757  0.56654  0.82144  1.0000
  H   H1634     1.0  0.65394  0.59623  0.98994  1.0000
  C   C930      1.0  0.60676  0.54239  0.97253  1.0000
  H   H1635     1.0  0.60980  0.81001  0.61398  1.0000
  Fe  Fe111     1.0  0.73562  0.85844  0.70367  1.0000
  H   H1636     1.0  0.53921  0.59822  0.83916  1.0000
  H   H1637     1.0  0.57435  0.87992  0.73765  1.0000
  H   H1638     1.0  0.60520  0.77485  0.84134  1.0000
  H   H1639     1.0  0.60979  0.55529  0.82754  1.0000
  S   S222      1.0  0.51861  0.86709  0.62756  1.0000
  Fe  Fe112     1.0  0.51396  0.88388  0.59007  1.0000
  H   H1640     1.0  0.57873  0.60702  0.74068  1.0000
  H   H1641     1.0  0.62950  0.59374  0.82621  1.0000
  C   C931      1.0  0.58924  0.59587  0.83259  1.0000
  H   H1642     1.0  0.62707  0.94184  0.71431  1.0000
  C   C932      1.0  0.65015  0.54135  0.98166  1.0000
  H   H1643     1.0  0.64884  0.67193  0.95240  1.0000
  H   H1644     1.0  0.64023  0.86823  0.62894  1.0000
  H   H1645     1.0  0.51172  0.97253  0.57046  1.0000
  C   C933      1.0  0.59954  0.85587  0.75673  1.0000
  H   H1646     1.0  0.68042  0.51459  0.93490  1.0000
  H   H1647     1.0  0.57623  0.61148  0.83445  1.0000
  C   C934      1.0  0.69786  0.50722  0.94228  1.0000
  N   N50       1.0  0.60409  0.85571  0.59367  1.0000
  H   H1648     1.0  0.63471  0.78052  0.77068  1.0000
  H   H1649     1.0  0.63069  0.85456  0.82749  1.0000
  C   C935      1.0  0.71888  0.52477  0.93427  1.0000
  C   C936      1.0  0.64204  0.81873  0.76048  1.0000
  C   C937      1.0  0.65465  0.83939  0.79804  1.0000
  H   H1650     1.0  0.65985  0.69249  0.98964  1.0000
  H   H1651     1.0  0.67149  0.98016  0.72001  1.0000
  H   H1652     1.0  0.65030  0.87658  0.81273  1.0000
  H   H1653     1.0  0.63748  0.86695  0.76112  1.0000
  H   H1654     1.0  0.64558  0.70745  0.92462  1.0000
  H   H1655     1.0  0.68630  0.85996  0.83346  1.0000
  H   H1656     1.0  0.60018  0.83351  0.80498  1.0000
  H   H1657     1.0  0.57786  0.88529  0.59023  1.0000
  H   H1658     1.0  0.63545  0.78949  0.81120  1.0000
  H   H1659     1.0  0.66803  0.76155  0.74692  1.0000
  H   H1660     1.0  0.62776  0.81274  0.83275  1.0000
  N   N51       1.0  0.58121  0.57834  0.81283  1.0000
  C   C938      1.0  0.66775  0.85473  0.84011  1.0000
  H   H1661     1.0  0.66824  0.72386  0.94170  1.0000
  H   H1662     1.0  0.58265  0.56603  0.76035  1.0000
  C   C939      1.0  0.67281  0.64400  0.99052  1.0000
  H   H1663     1.0  0.59214  0.77516  0.81126  1.0000
  H   H1664     1.0  0.58418  0.79897  0.83309  1.0000
  H   H1665     1.0  0.58439  0.84685  0.76703  1.0000
  H   H1666     1.0  0.63904  0.71621  0.95584  1.0000
  H   H1667     1.0  0.60424  0.93355  0.58773  1.0000
  H   H1668     1.0  0.50811  0.55495  0.82153  1.0000
  H   H1669     1.0  0.62915  0.90109  0.60753  1.0000
  H   H1670     1.0  0.61833  0.87013  0.78750  1.0000
  C   C940      1.0  0.73134  0.97753  0.74678  1.0000
  C   C941      1.0  0.59916  0.78695  0.82615  1.0000
  C   C942      1.0  0.60103  0.55909  0.80966  1.0000
  C   C943      1.0  0.67285  0.85206  0.61397  1.0000
  C   C944      1.0  0.64508  0.85200  0.61777  1.0000
  H   H1671     1.0  0.58908  0.58640  0.85067  1.0000
  H   H1672     1.0  0.51649  0.56160  0.85273  1.0000
  H   H1673     1.0  0.68194  0.85188  0.63206  1.0000
  C   C945      1.0  0.51292  0.56981  0.83448  1.0000
  H   H1674     1.0  0.73033  0.79598  0.90114  1.0000
  H   H1675     1.0  0.72147  0.52494  0.91411  1.0000
  H   H1676     1.0  0.66818  0.83558  0.84716  1.0000
  S   S223      1.0  0.58283  0.54237  0.95152  1.0000
  Fe  Fe113     1.0  0.59483  0.52460  0.91639  1.0000
  H   H1677     1.0  0.60052  0.85498  0.63339  1.0000
  C   C946      1.0  0.59916  0.85102  0.54654  1.0000
  H   H1678     1.0  0.66409  0.79154  0.78044  1.0000
  H   H1679     1.0  0.66262  0.86714  0.85542  1.0000
  H   H1680     1.0  0.60268  0.84555  0.73959  1.0000
  H   H1681     1.0  0.53045  0.59310  0.80786  1.0000
  H   H1682     1.0  0.57141  0.81958  0.65473  1.0000
  H   H1683     1.0  0.58060  0.00147  0.53940  1.0000
  H   H1684     1.0  0.72811  0.56355  0.93543  1.0000
  H   H1685     1.0  0.73633  0.62234  0.94590  1.0000
  H   H1686     1.0  0.72125  0.62651  0.98888  1.0000
  H   H1687     1.0  0.61599  0.56607  0.79745  1.0000
  H   H1688     1.0  0.71186  0.75530  0.00051  1.0000
  H   H1689     1.0  0.65730  0.82869  0.75103  1.0000
  C   C947      1.0  0.61289  0.82011  0.79609  1.0000
  H   H1690     1.0  0.55147  0.56837  0.77184  1.0000
  S   S224      1.0  0.73696  0.68880  0.85200  1.0000
  C   C948      1.0  0.62311  0.85742  0.77233  1.0000
  H   H1691     1.0  0.57914  0.92692  0.60869  1.0000
  C   C949      1.0  0.63149  0.85140  0.59289  1.0000
  C   C950      1.0  0.73545  0.73042  0.98061  1.0000
  H   H1692     1.0  0.60520  0.89125  0.73874  1.0000
  H   H1693     1.0  0.68767  0.70430  0.97699  1.0000
  N   N52       1.0  0.63301  0.83343  0.78221  1.0000
  S   S225      1.0  0.72495  0.74082  0.95183  1.0000
  C   C951      1.0  0.64926  0.85735  0.81954  1.0000
  H   H1694     1.0  0.54645  0.98187  0.59734  1.0000
  C   C952      1.0  0.64196  0.96576  0.74216  1.0000
  H   H1695     1.0  0.63205  0.61663  0.97573  1.0000
  H   H1696     1.0  0.59010  0.86886  0.54269  1.0000
  H   H1697     1.0  0.62759  0.81673  0.74661  1.0000
  C   C953      1.0  0.56227  0.59635  0.74635  1.0000
  H   H1698     1.0  0.67783  0.67928  0.93775  1.0000
  H   H1699     1.0  0.64023  0.63118  0.84843  1.0000
  C   C954      1.0  0.51045  0.96236  0.53220  1.0000
  H   H1700     1.0  0.60140  0.80967  0.78303  1.0000
  H   H1701     1.0  0.66307  0.82247  0.80553  1.0000
  H   H1702     1.0  0.60527  0.88964  0.57273  1.0000
  H   H1703     1.0  0.68355  0.00133  0.75581  1.0000
  H   H1704     1.0  0.67954  0.79113  0.73768  1.0000
  H   H1705     1.0  0.67887  0.83554  0.60364  1.0000
  H   H1706     1.0  0.59755  0.82221  0.57345  1.0000
  H   H1707     1.0  0.55400  0.57790  0.99064  1.0000
  C   C955      1.0  0.52314  0.97555  0.55370  1.0000
  C   C956      1.0  0.62078  0.80231  0.81692  1.0000
  C   C957      1.0  0.64057  0.94099  0.72928  1.0000
  H   H1708     1.0  0.69577  0.55751  0.93415  1.0000
  C   C958      1.0  0.65233  0.98576  0.72463  1.0000
  H   H1709     1.0  0.56583  0.97446  0.52724  1.0000
  C   C959      1.0  0.59932  0.92643  0.60621  1.0000
  H   H1710     1.0  0.56059  0.55656  0.83894  1.0000
  H   H1711     1.0  0.69593  0.50918  0.96248  1.0000
  C   C960      1.0  0.59072  0.88148  0.74938  1.0000
  C   C961      1.0  0.66273  0.78083  0.74292  1.0000
  H   H1712     1.0  0.53792  0.53726  0.98106  1.0000
  C   C962      1.0  0.59218  0.84657  0.61708  1.0000
  C   C963      1.0  0.53538  0.58399  0.82530  1.0000
  H   H1713     1.0  0.67876  0.86884  0.60394  1.0000
  H   H1714     1.0  0.68763  0.61570  0.96565  1.0000
  H   H1715     1.0  0.61518  0.62034  0.81309  1.0000
  H   H1716     1.0  0.66957  0.84785  0.78674  1.0000
  N   N53       1.0  0.68945  0.66595  0.98700  1.0000
  C   C964      1.0  0.71088  0.66083  0.97004  1.0000
  C   C965      1.0  0.67552  0.68783  0.97732  1.0000
  C   C966      1.0  0.63124  0.54352  0.96467  1.0000
  H   H1717     1.0  0.65526  0.00165  0.77248  1.0000
  C   C967      1.0  0.67035  0.62609  0.96860  1.0000
  C   C968      1.0  0.65003  0.60733  0.97336  1.0000
  H   H1718     1.0  0.59919  0.81489  0.52928  1.0000
  C   C969      1.0  0.66419  0.68523  0.95168  1.0000
  C   C970      1.0  0.65361  0.70973  0.94303  1.0000
  C   C971      1.0  0.61574  0.51813  0.79281  1.0000
  C   C972      1.0  0.61496  0.60770  0.82905  1.0000
  H   H1719     1.0  0.60841  0.63746  0.85507  1.0000
  H   H1720     1.0  0.72070  0.67818  0.96543  1.0000
  H   H1721     1.0  0.70467  0.65405  0.95216  1.0000
  C   C973      1.0  0.59337  0.53331  0.80048  1.0000
  C   C974      1.0  0.56788  0.99461  0.52536  1.0000
  H   H1722     1.0  0.58609  0.79053  0.64843  1.0000
  H   H1723     1.0  0.72102  0.99761  0.68896  1.0000
  C   C975      1.0  0.62197  0.62265  0.85152  1.0000
  H   H1724     1.0  0.56594  0.60908  0.79305  1.0000
  H   H1725     1.0  0.64222  0.98432  0.70725  1.0000
  H   H1726     1.0  0.64042  0.83552  0.62888  1.0000
  H   H1727     1.0  0.63588  0.83315  0.58479  1.0000
  C   C976      1.0  0.50800  0.93488  0.53719  1.0000
  H   H1728     1.0  0.62313  0.61058  0.86791  1.0000
  H   H1729     1.0  0.57725  0.81009  0.60961  1.0000
  C   C977      1.0  0.52338  0.53666  0.99553  1.0000
  C   C978      1.0  0.71331  0.55116  0.94210  1.0000
  H   H1730     1.0  0.60415  0.89445  0.62841  1.0000
  Fe  Fe114     1.0  0.73212  0.72234  0.91506  1.0000
  H   H1731     1.0  0.55503  0.87673  0.50778  1.0000
  H   H1732     1.0  0.52438  0.51284  0.95161  1.0000
  C   C979      1.0  0.56834  0.57880  0.76730  1.0000
  H   H1733     1.0  0.57072  0.98652  0.57541  1.0000
  H   H1734     1.0  0.54027  0.96524  0.55709  1.0000
  C   C980      1.0  0.59814  0.88263  0.59054  1.0000
  H   H1735     1.0  0.57217  0.84246  0.57465  1.0000
  C   C981      1.0  0.60893  0.90029  0.60963  1.0000
  H   H1736     1.0  0.60743  0.93861  0.62018  1.0000
  C   C982      1.0  0.58822  0.81076  0.64712  1.0000
  H   H1737     1.0  0.61925  0.85320  0.54419  1.0000
  H   H1738     1.0  0.64044  0.86490  0.58031  1.0000
  H   H1739     1.0  0.57266  0.85258  0.61806  1.0000
  C   C983      1.0  0.59228  0.81823  0.62044  1.0000
  H   H1740     1.0  0.52935  0.99661  0.65453  1.0000
  H   H1741     1.0  0.62485  0.52642  0.77648  1.0000
  H   H1742     1.0  0.68727  0.50960  0.89445  1.0000
  C   C984      1.0  0.73017  0.64248  0.97987  1.0000
  H   H1743     1.0  0.63559  0.54658  0.94561  1.0000
  H   H1744     1.0  0.71210  0.55250  0.96236  1.0000
  C   C985      1.0  0.73751  0.00023  0.75747  1.0000
  C   C986      1.0  0.53537  0.87544  0.50609  1.0000
  S   S226      1.0  0.74759  0.74114  0.88152  1.0000
  H   H1745     1.0  0.74187  0.65175  0.99351  1.0000
  C   C987      1.0  0.74696  0.63307  0.95936  1.0000
  H   H1746     1.0  0.50631  0.54309  0.98655  1.0000
  N   N54       1.0  0.52793  0.00269  0.55037  1.0000
  H   H1747     1.0  0.73640  0.51926  0.94270  1.0000
  C   C988      1.0  0.51480  0.50896  0.86070  1.0000
  H   H1748     1.0  0.65408  0.65021  0.99596  1.0000
  C   C989      1.0  0.74594  0.80851  0.89719  1.0000
  Fe  Fe115     1.0  0.57588  0.50630  0.86810  1.0000
  C   C990      1.0  0.51516  0.51584  0.88529  1.0000
  H   H1749     1.0  0.74226  0.00088  0.77660  1.0000
  C   C991      1.0  0.51398  0.00071  0.64290  1.0000
  H   H1750     1.0  0.52627  0.92635  0.53983  1.0000
  H   H1751     1.0  0.53242  0.51859  0.89433  1.0000
  C   C992      1.0  0.72582  0.74127  0.00195  1.0000
  C   C993      1.0  0.53741  0.58058  0.00237  1.0000
  Fe  Fe116     1.0  0.79145  0.31700  0.12503  1.0000
  S   S227      1.0  0.82672  0.30382  0.14209  1.0000
  H   H1752     1.0  0.93858  0.34718  0.42885  1.0000
  H   H1753     1.0  0.80390  0.24590  0.06453  1.0000
  Fe  Fe117     1.0  0.88265  0.31074  0.27058  1.0000
  S   S228      1.0  0.89675  0.27308  0.26167  1.0000
  S   S229      1.0  0.86105  0.33721  0.24724  1.0000
  Fe  Fe118     1.0  0.90011  0.30811  0.32308  1.0000
  S   S230      1.0  0.91458  0.26967  0.31881  1.0000
  S   S231      1.0  0.90881  0.33605  0.35215  1.0000
  Fe  Fe119     1.0  0.93028  0.28314  0.28306  1.0000
  S   S232      1.0  0.96840  0.26934  0.27270  1.0000
  Fe  Fe120     1.0  0.87994  0.26229  0.29783  1.0000
  S   S233      1.0  0.86054  0.22537  0.29685  1.0000
  S   S234      1.0  0.91773  0.32187  0.28830  1.0000
  S   S235      1.0  0.86401  0.29957  0.30569  1.0000
  Fe  Fe121     1.0  0.88764  0.36924  0.48504  1.0000
  S   S236      1.0  0.92272  0.38641  0.47239  1.0000
  S   S237      1.0  0.86482  0.34633  0.45941  1.0000
  C   C994      1.0  0.82603  0.27427  0.25629  1.0000
  C   C995      1.0  0.76880  0.29539  0.20362  1.0000
  H   H1754     1.0  0.95650  0.30149  0.43036  1.0000
  H   H1755     1.0  0.77458  0.27639  0.25581  1.0000
  H   H1756     1.0  0.76090  0.37875  0.32737  1.0000
  C   C996      1.0  0.91865  0.25492  0.19994  1.0000
  H   H1757     1.0  0.94667  0.34048  0.19377  1.0000
  N   N55       1.0  0.76661  0.27129  0.21726  1.0000
  H   H1758     1.0  0.87785  0.40768  0.30263  1.0000
  C   C997      1.0  0.77105  0.25059  0.19944  1.0000
  H   H1759     1.0  0.81771  0.27641  0.27481  1.0000
  H   H1760     1.0  0.79131  0.21103  0.17511  1.0000
  H   H1761     1.0  0.83437  0.29274  0.36194  1.0000
  H   H1762     1.0  0.94768  0.26129  0.22587  1.0000
  H   H1763     1.0  0.83020  0.33806  0.32725  1.0000
  H   H1764     1.0  0.86387  0.35365  0.31014  1.0000
  H   H1765     1.0  0.98660  0.31929  0.33055  1.0000
  C   C998      1.0  0.82855  0.22195  0.29329  1.0000
  C   C999      1.0  0.81183  0.23426  0.30851  1.0000
  C   C1000     1.0  0.78673  0.22840  0.30780  1.0000
  C   C1001     1.0  0.77810  0.21035  0.29177  1.0000
  C   C1002     1.0  0.79465  0.19897  0.27567  1.0000
  C   C1003     1.0  0.81979  0.20456  0.27663  1.0000
  H   H1766     1.0  0.81838  0.24749  0.32158  1.0000
  H   H1767     1.0  0.77404  0.23739  0.32024  1.0000
  H   H1768     1.0  0.78815  0.18555  0.26281  1.0000
  H   H1769     1.0  0.83259  0.19511  0.26465  1.0000
  H   H1770     1.0  0.92277  0.28283  0.12877  1.0000
  H   H1771     1.0  0.84304  0.37788  0.30173  1.0000
  H   H1772     1.0  0.77982  0.20931  0.05145  1.0000
  H   H1773     1.0  0.77292  0.37853  0.04750  1.0000
  H   H1774     1.0  0.98065  0.32164  0.26969  1.0000
  C   C1004     1.0  0.89577  0.33807  0.38166  1.0000
  C   C1005     1.0  0.89983  0.35957  0.39497  1.0000
  C   C1006     1.0  0.89061  0.36205  0.41888  1.0000
  C   C1007     1.0  0.87685  0.34317  0.42954  1.0000
  C   C1008     1.0  0.87209  0.32189  0.41596  1.0000
  C   C1009     1.0  0.88175  0.31921  0.39208  1.0000
  H   H1775     1.0  0.90984  0.37458  0.38662  1.0000
  H   H1776     1.0  0.89360  0.37886  0.42884  1.0000
  H   H1777     1.0  0.86124  0.30731  0.42409  1.0000
  H   H1778     1.0  0.87847  0.30259  0.38186  1.0000
  H   H1779     1.0  0.81497  0.29502  0.33539  1.0000
  C   C1010     1.0  0.76534  0.39255  0.34156  1.0000
  C   C1011     1.0  0.83537  0.31318  0.17155  1.0000
  C   C1012     1.0  0.82554  0.33422  0.18253  1.0000
  C   C1013     1.0  0.83362  0.34155  0.20573  1.0000
  C   C1014     1.0  0.85112  0.32761  0.21824  1.0000
  C   C1015     1.0  0.86048  0.30630  0.20747  1.0000
  C   C1016     1.0  0.85286  0.29927  0.18408  1.0000
  H   H1780     1.0  0.81211  0.34509  0.17293  1.0000
  H   H1781     1.0  0.82627  0.35806  0.21399  1.0000
  H   H1782     1.0  0.87338  0.29518  0.21730  1.0000
  H   H1783     1.0  0.86027  0.28281  0.17578  1.0000
  H   H1784     1.0  0.75983  0.25193  0.06033  1.0000
  C   C1017     1.0  0.99186  0.39191  0.48534  1.0000
  H   H1785     1.0  0.95710  0.25138  0.19626  1.0000
  C   C1018     1.0  0.88124  0.38759  0.30171  1.0000
  C   C1019     1.0  0.93517  0.31224  0.46137  1.0000
  Fe  Fe122     1.0  0.76346  0.31020  0.07678  1.0000
  C   C1020     1.0  0.94459  0.26427  0.20597  1.0000
  H   H1786     1.0  0.91498  0.30540  0.21004  1.0000
  H   H1787     1.0  0.91793  0.31354  0.45088  1.0000
  H   H1788     1.0  0.97401  0.39955  0.48952  1.0000
  H   H1789     1.0  0.83348  0.16254  0.33705  1.0000
  H   H1790     1.0  0.99404  0.27541  0.17539  1.0000
  H   H1791     1.0  0.95695  0.33907  0.22479  1.0000
  S   S238      1.0  0.92374  0.45510  0.48090  1.0000
  H   H1792     1.0  0.93566  0.30231  0.23419  1.0000
  H   H1793     1.0  0.90421  0.26705  0.20744  1.0000
  C   C1021     1.0  0.00112  0.34501  0.41901  1.0000
  C   C1022     1.0  0.93457  0.30747  0.21447  1.0000
  C   C1023     1.0  0.84428  0.14752  0.32836  1.0000
  C   C1024     1.0  0.91016  0.48399  0.48722  1.0000
  H   H1794     1.0  0.90389  0.34882  0.20881  1.0000
  H   H1795     1.0  0.79593  0.12137  0.22749  1.0000
  H   H1796     1.0  0.81740  0.27990  0.21870  1.0000
  H   H1797     1.0  0.77748  0.35421  0.02564  1.0000
  H   H1798     1.0  0.78742  0.29792  0.19577  1.0000
  H   H1799     1.0  0.81558  0.21744  0.07666  1.0000
  H   H1800     1.0  0.79252  0.09090  0.24044  1.0000
  H   H1801     1.0  0.80353  0.26579  0.17985  1.0000
  N   N56       1.0  0.95044  0.29055  0.19920  1.0000
  H   H1802     1.0  0.97396  0.31308  0.45571  1.0000
  H   H1803     1.0  0.90705  0.29204  0.17079  1.0000
  N   N57       1.0  0.83252  0.36907  0.35188  1.0000
  C   C1025     1.0  0.83404  0.37335  0.37910  1.0000
  C   C1026     1.0  0.83249  0.34176  0.34709  1.0000
  C   C1027     1.0  0.85549  0.37945  0.34004  1.0000
  C   C1028     1.0  0.81055  0.38133  0.34045  1.0000
  C   C1029     1.0  0.78711  0.38399  0.35667  1.0000
  C   C1030     1.0  0.83996  0.40002  0.38690  1.0000
  C   C1031     1.0  0.81248  0.32631  0.36022  1.0000
  C   C1032     1.0  0.81623  0.29892  0.35528  1.0000
  H   H1804     1.0  0.93461  0.31386  0.12642  1.0000
  C   C1033     1.0  0.83454  0.40403  0.41412  1.0000
  H   H1805     1.0  0.84841  0.36140  0.38705  1.0000
  H   H1806     1.0  0.81701  0.36763  0.38878  1.0000
  C   C1034     1.0  0.95742  0.31593  0.44446  1.0000
  H   H1807     1.0  0.87198  0.37298  0.34991  1.0000
  H   H1808     1.0  0.85575  0.39982  0.34156  1.0000
  H   H1809     1.0  0.81513  0.40035  0.33436  1.0000
  H   H1810     1.0  0.80547  0.37161  0.32335  1.0000
  H   H1811     1.0  0.79002  0.39787  0.37116  1.0000
  H   H1812     1.0  0.78192  0.36663  0.36584  1.0000
  H   H1813     1.0  0.85976  0.40378  0.38374  1.0000
  H   H1814     1.0  0.82928  0.41357  0.37622  1.0000
  H   H1815     1.0  0.81277  0.32875  0.38034  1.0000
  H   H1816     1.0  0.79419  0.33116  0.35315  1.0000
  H   H1817     1.0  0.81951  0.09868  0.22279  1.0000
  C   C1035     1.0  0.78354  0.26923  0.23883  1.0000
  H   H1818     1.0  0.77184  0.38503  0.01495  1.0000
  H   H1819     1.0  0.77346  0.20220  0.08338  1.0000
  H   H1820     1.0  0.84011  0.42286  0.41941  1.0000
  H   H1821     1.0  0.81466  0.40189  0.41813  1.0000
  H   H1822     1.0  0.84491  0.39071  0.42544  1.0000
  N   N58       1.0  0.80955  0.12591  0.30441  1.0000
  C   C1036     1.0  0.80012  0.12442  0.27864  1.0000
  C   C1037     1.0  0.79133  0.14007  0.31995  1.0000
  C   C1038     1.0  0.83304  0.14058  0.30340  1.0000
  C   C1039     1.0  0.81475  0.10094  0.31543  1.0000
  C   C1040     1.0  0.79836  0.07923  0.30710  1.0000
  C   C1041     1.0  0.81860  0.11428  0.25929  1.0000
  C   C1042     1.0  0.92044  0.30203  0.13520  1.0000
  H   H1823     1.0  0.80570  0.30288  0.23894  1.0000
  H   H1824     1.0  0.97909  0.42316  0.39526  1.0000
  C   C1043     1.0  0.80258  0.05636  0.32275  1.0000
  H   H1825     1.0  0.81737  0.22663  0.16162  1.0000
  C   C1044     1.0  0.79817  0.22898  0.16816  1.0000
  H   H1826     1.0  0.79458  0.14298  0.27221  1.0000
  H   H1827     1.0  0.78313  0.11341  0.27785  1.0000
  H   H1828     1.0  0.90210  0.30862  0.12946  1.0000
  S   S239      1.0  0.77168  0.29652  0.03836  1.0000
  H   H1829     1.0  0.79838  0.14279  0.33870  1.0000
  H   H1830     1.0  0.84746  0.13039  0.29302  1.0000
  H   H1831     1.0  0.83393  0.09512  0.31128  1.0000
  H   H1832     1.0  0.81366  0.10197  0.33577  1.0000
  H   H1833     1.0  0.80259  0.07420  0.28785  1.0000
  H   H1834     1.0  0.77862  0.08362  0.30807  1.0000
  H   H1835     1.0  0.83177  0.12894  0.25388  1.0000
  H   H1836     1.0  0.82930  0.09863  0.26660  1.0000
  H   H1837     1.0  0.97058  0.35179  0.35728  1.0000
  C   C1045     1.0  0.99743  0.31121  0.27126  1.0000
  H   H1838     1.0  0.91850  0.32253  0.16848  1.0000
  H   H1839     1.0  0.98856  0.29820  0.35592  1.0000
  C   C1046     1.0  0.79988  0.23041  0.07727  1.0000
  C   C1047     1.0  0.91995  0.35156  0.22077  1.0000
  H   H1840     1.0  0.79806  0.23765  0.09620  1.0000
  H   H1841     1.0  0.82207  0.05056  0.32164  1.0000
  H   H1842     1.0  0.79740  0.05994  0.34214  1.0000
  H   H1843     1.0  0.95900  0.30908  0.34581  1.0000
  H   H1844     1.0  0.87082  0.17310  0.31249  1.0000
  H   H1845     1.0  0.85059  0.33378  0.35204  1.0000
  C   C1048     1.0  0.85954  0.37339  0.31252  1.0000
  H   H1846     1.0  0.95298  0.27785  0.16179  1.0000
  H   H1847     1.0  0.87762  0.16296  0.34303  1.0000
  H   H1848     1.0  0.91657  0.25347  0.17982  1.0000
  H   H1849     1.0  0.89824  0.38303  0.31173  1.0000
  H   H1850     1.0  0.78699  0.23491  0.15237  1.0000
  C   C1049     1.0  0.80577  0.10582  0.23614  1.0000
  H   H1851     1.0  0.99519  0.25952  0.20448  1.0000
  H   H1852     1.0  0.91454  0.34745  0.23998  1.0000
  C   C1050     1.0  0.94124  0.33515  0.21268  1.0000
  H   H1853     1.0  0.89551  0.22307  0.20618  1.0000
  H   H1854     1.0  0.83119  0.25478  0.25326  1.0000
  H   H1855     1.0  0.94881  0.42035  0.40897  1.0000
  C   C1051     1.0  0.91429  0.22929  0.21063  1.0000
  H   H1856     1.0  0.79106  0.04110  0.31594  1.0000
  H   H1857     1.0  0.92765  0.21594  0.20285  1.0000
  H   H1858     1.0  0.97342  0.43339  0.42616  1.0000
  C   C1052     1.0  0.80838  0.28283  0.23663  1.0000
  H   H1859     1.0  0.76939  0.41044  0.33257  1.0000
  C   C1053     1.0  0.97670  0.29537  0.20621  1.0000
  H   H1860     1.0  0.81021  0.24264  0.20262  1.0000
  H   H1861     1.0  0.98226  0.31425  0.20068  1.0000
  H   H1862     1.0  0.83023  0.15804  0.29315  1.0000
  H   H1863     1.0  0.92549  0.37113  0.21960  1.0000
  H   H1864     1.0  0.84293  0.28543  0.25531  1.0000
  H   H1865     1.0  0.98101  0.37796  0.38732  1.0000
  S   S240      1.0  0.77027  0.28585  0.10922  1.0000
  C   C1054     1.0  0.79717  0.24839  0.18827  1.0000
  H   H1866     1.0  0.96087  0.30903  0.16531  1.0000
  N   N59       1.0  0.97455  0.34721  0.41199  1.0000
  C   C1055     1.0  0.96772  0.33038  0.39127  1.0000
  C   C1056     1.0  0.95773  0.34226  0.43366  1.0000
  C   C1057     1.0  0.96973  0.37331  0.40375  1.0000
  H   H1867     1.0  0.93479  0.32628  0.47601  1.0000
  H   H1868     1.0  0.99961  0.34087  0.36820  1.0000
  C   C1058     1.0  0.96878  0.41917  0.41244  1.0000
  C   C1059     1.0  0.97537  0.39383  0.42249  1.0000
  H   H1869     1.0  0.80182  0.28816  0.36502  1.0000
  C   C1060     1.0  0.94775  0.29478  0.17199  1.0000
  H   H1870     1.0  0.84466  0.13153  0.34097  1.0000
  C   C1061     1.0  0.77648  0.21715  0.06987  1.0000
  C   C1062     1.0  0.97844  0.31428  0.34862  1.0000
  H   H1871     1.0  0.94756  0.33089  0.38851  1.0000
  H   H1872     1.0  0.97170  0.31096  0.39574  1.0000
  H   H1873     1.0  0.96248  0.35407  0.44939  1.0000
  H   H1874     1.0  0.93601  0.29383  0.47010  1.0000
  H   H1875     1.0  0.95034  0.37537  0.39813  1.0000
  C   C1063     1.0  0.99635  0.27776  0.19539  1.0000
  H   H1876     1.0  0.88262  0.14245  0.31762  1.0000
  H   H1877     1.0  0.99513  0.39387  0.42687  1.0000
  C   C1064     1.0  0.76583  0.12827  0.32392  1.0000
  H   H1878     1.0  0.78732  0.24952  0.24295  1.0000
  C   C1065     1.0  0.99640  0.28569  0.27411  1.0000
  C   C1066     1.0  0.98005  0.33606  0.36610  1.0000
  H   H1879     1.0  0.76741  0.23251  0.20822  1.0000
  H   H1880     1.0  0.96471  0.39164  0.43966  1.0000
  H   H1881     1.0  0.88394  0.38237  0.28221  1.0000
  C   C1067     1.0  0.87044  0.15704  0.32508  1.0000
  S   S241      1.0  0.78758  0.33994  0.09109  1.0000
  H   H1882     1.0  0.91599  0.22949  0.23088  1.0000
  C   C1068     1.0  0.92212  0.30324  0.16305  1.0000
  Fe  Fe123     1.0  0.91233  0.41812  0.49678  1.0000
  H   H1883     1.0  0.78862  0.15883  0.31212  1.0000
  H   H1884     1.0  0.97852  0.29468  0.22644  1.0000
  H   H1885     1.0  0.77752  0.33284  0.21481  1.0000
  C   C1069     1.0  0.76716  0.37142  0.02943  1.0000
  H   H1886     1.0  0.76751  0.11119  0.33487  1.0000
  C   C1070     1.0  0.99714  0.36750  0.49116  1.0000
  H   H1887     1.0  0.76029  0.24260  0.02071  1.0000
  H   H1888     1.0  0.75669  0.14963  0.35658  1.0000
  S   S242      1.0  0.75901  0.33407  0.14400  1.0000
  Fe  Fe124     1.0  0.75299  0.35458  0.10866  1.0000
  H   H1889     1.0  0.75797  0.25212  0.18413  1.0000
  C   C1071     1.0  0.76311  0.31893  0.21883  1.0000
  H   H1890     1.0  0.76375  0.31551  0.23882  1.0000
  H   H1891     1.0  0.75696  0.29522  0.18713  1.0000
  H   H1892     1.0  0.75692  0.12414  0.30633  1.0000
  C   C1072     1.0  0.75439  0.23492  0.07019  1.0000
  C   C1073     1.0  0.75285  0.29997  0.01255  1.0000
  H   H1893     1.0  0.00265  0.30538  0.42835  1.0000
  C   C1074     1.0  0.88923  0.48643  0.50207  1.0000
  H   H1894     1.0  0.93681  0.50333  0.46513  1.0000
  H   H1895     1.0  0.76235  0.45236  0.84528  1.0000
  H   H1896     1.0  0.77554  0.17254  0.64884  1.0000
  H   H1897     1.0  0.80793  0.34404  0.88251  1.0000
  S   S243      1.0  0.79674  0.29137  0.85438  1.0000
  Fe  Fe125     1.0  0.86891  0.29483  0.73115  1.0000
  S   S244      1.0  0.89044  0.26588  0.75068  1.0000
  S   S245      1.0  0.83897  0.31791  0.74857  1.0000
  Fe  Fe126     1.0  0.89093  0.28169  0.68126  1.0000
  S   S246      1.0  0.91356  0.25133  0.69730  1.0000
  S   S247      1.0  0.89498  0.28384  0.64006  1.0000
  Fe  Fe127     1.0  0.87983  0.24167  0.71926  1.0000
  S   S248      1.0  0.86769  0.20201  0.72397  1.0000
  Fe  Fe128     1.0  0.92205  0.27833  0.72676  1.0000
  S   S249      1.0  0.95997  0.28373  0.74253  1.0000
  S   S250      1.0  0.85667  0.26993  0.70104  1.0000
  S   S251      1.0  0.90130  0.30946  0.70953  1.0000
  Fe  Fe129     1.0  0.89595  0.38353  0.53826  1.0000
  S   S252      1.0  0.93161  0.40234  0.52932  1.0000
  S   S253      1.0  0.88340  0.38199  0.57812  1.0000
  H   H1898     1.0  0.98186  0.20776  0.76697  1.0000
  H   H1899     1.0  0.99786  0.36162  0.63519  1.0000
  H   H1900     1.0  0.77977  0.21744  0.61444  1.0000
  H   H1901     1.0  0.82830  0.27463  0.57189  1.0000
  H   H1902     1.0  0.78769  0.41292  0.83835  1.0000
  C   C1075     1.0  0.99235  0.34229  0.63858  1.0000
  H   H1903     1.0  0.95517  0.38049  0.59875  1.0000
  H   H1904     1.0  0.97346  0.23403  0.74971  1.0000
  C   C1076     1.0  0.83659  0.19343  0.72005  1.0000
  C   C1077     1.0  0.82924  0.16924  0.72528  1.0000
  C   C1078     1.0  0.80500  0.16156  0.72110  1.0000
  C   C1079     1.0  0.78799  0.17793  0.71121  1.0000
  C   C1080     1.0  0.79514  0.20229  0.70667  1.0000
  C   C1081     1.0  0.81921  0.21006  0.71127  1.0000
  H   H1905     1.0  0.84245  0.15623  0.73222  1.0000
  H   H1906     1.0  0.79976  0.14271  0.72459  1.0000
  H   H1907     1.0  0.78205  0.21513  0.69923  1.0000
  H   H1908     1.0  0.82432  0.22885  0.70777  1.0000
  C   C1082     1.0  0.96686  0.34176  0.60219  1.0000
  H   H1909     1.0  0.76849  0.26295  0.78747  1.0000
  H   H1910     1.0  0.97643  0.29267  0.60318  1.0000
  H   H1911     1.0  0.81106  0.20231  0.65880  1.0000
  H   H1912     1.0  0.96719  0.27321  0.69095  1.0000
  C   C1083     1.0  0.89031  0.31105  0.62315  1.0000
  C   C1084     1.0  0.88094  0.33240  0.63392  1.0000
  C   C1085     1.0  0.87869  0.35400  0.61987  1.0000
  C   C1086     1.0  0.88587  0.35441  0.59507  1.0000
  C   C1087     1.0  0.89514  0.33297  0.58442  1.0000
  C   C1088     1.0  0.89717  0.31137  0.59833  1.0000
  H   H1913     1.0  0.87554  0.33233  0.65304  1.0000
  H   H1914     1.0  0.87144  0.37050  0.62824  1.0000
  H   H1915     1.0  0.90075  0.33299  0.56544  1.0000
  H   H1916     1.0  0.90443  0.29492  0.58987  1.0000
  C   C1089     1.0  0.80823  0.29806  0.82467  1.0000
  C   C1090     1.0  0.83352  0.29657  0.81993  1.0000
  C   C1091     1.0  0.84315  0.30217  0.79653  1.0000
  C   C1092     1.0  0.82750  0.30903  0.77763  1.0000
  C   C1093     1.0  0.80223  0.31021  0.78230  1.0000
  C   C1094     1.0  0.79266  0.30466  0.80566  1.0000
  H   H1917     1.0  0.84573  0.29137  0.83448  1.0000
  H   H1918     1.0  0.86271  0.30139  0.79317  1.0000
  H   H1919     1.0  0.78999  0.31530  0.76774  1.0000
  H   H1920     1.0  0.77319  0.30526  0.80878  1.0000
  H   H1921     1.0  0.78760  0.19445  0.85361  1.0000
  H   H1922     1.0  0.94593  0.26393  0.61993  1.0000
  H   H1923     1.0  0.95730  0.37409  0.64294  1.0000
  C   C1095     1.0  0.75962  0.22321  0.78838  1.0000
  H   H1924     1.0  0.76062  0.20772  0.99155  1.0000
  H   H1925     1.0  0.94791  0.21956  0.79663  1.0000
  C   C1096     1.0  0.84477  0.26284  0.57389  1.0000
  H   H1926     1.0  0.96024  0.13142  0.75117  1.0000
  C   C1097     1.0  0.79301  0.36136  0.85016  1.0000
  H   H1927     1.0  0.93365  0.38559  0.68029  1.0000
  H   H1928     1.0  0.80115  0.18476  0.81547  1.0000
  C   C1098     1.0  0.81890  0.27894  0.64803  1.0000
  C   C1099     1.0  0.98495  0.27557  0.69908  1.0000
  C   C1100     1.0  0.92149  0.36986  0.67619  1.0000
  C   C1101     1.0  0.98651  0.28137  0.72386  1.0000
  C   C1102     1.0  0.81644  0.38704  0.74648  1.0000
  H   H1929     1.0  0.93293  0.35870  0.62821  1.0000
  C   C1103     1.0  0.97077  0.36856  0.59313  1.0000
  C   C1104     1.0  0.95852  0.31174  0.63431  1.0000
  H   H1930     1.0  0.98902  0.32029  0.67259  1.0000
  H   H1931     1.0  0.80212  0.24977  0.80627  1.0000
  H   H1932     1.0  0.90722  0.37587  0.66315  1.0000
  C   C1105     1.0  0.76315  0.29613  0.98918  1.0000
  H   H1933     1.0  0.84022  0.25643  0.77914  1.0000
  C   C1106     1.0  0.93631  0.34849  0.66555  1.0000
  H   H1934     1.0  0.94924  0.33534  0.59430  1.0000
  H   H1935     1.0  0.93110  0.21375  0.74356  1.0000
  H   H1936     1.0  0.94145  0.18940  0.76363  1.0000
  H   H1937     1.0  0.96247  0.23042  0.70722  1.0000
  H   H1938     1.0  0.98147  0.33066  0.59327  1.0000
  C   C1107     1.0  0.97262  0.36945  0.56526  1.0000
  H   H1939     1.0  0.80714  0.24719  0.66942  1.0000
  H   H1940     1.0  0.96152  0.26316  0.64881  1.0000
  C   C1108     1.0  0.82532  0.23872  0.60912  1.0000
  H   H1941     1.0  0.82641  0.22158  0.59809  1.0000
  H   H1942     1.0  0.86107  0.27375  0.56818  1.0000
  H   H1943     1.0  0.89077  0.21007  0.66779  1.0000
  C   C1109     1.0  0.76231  0.36743  0.80478  1.0000
  H   H1944     1.0  0.82447  0.37260  0.73447  1.0000
  H   H1945     1.0  0.95563  0.36209  0.55709  1.0000
  H   H1946     1.0  0.84053  0.24282  0.74931  1.0000
  H   H1947     1.0  0.79034  0.18460  0.78530  1.0000
  C   C1110     1.0  0.81474  0.35301  0.86545  1.0000
  H   H1948     1.0  0.89875  0.22651  0.63988  1.0000
  H   H1949     1.0  0.80172  0.39654  0.73627  1.0000
  H   H1950     1.0  0.96302  0.20111  0.64319  1.0000
  H   H1951     1.0  0.81787  0.38364  0.82788  1.0000
  H   H1952     1.0  0.80875  0.35534  0.81477  1.0000
  S   S254      1.0  0.90474  0.34967  0.51673  1.0000
  H   H1953     1.0  0.98530  0.16915  0.74986  1.0000
  C   C1111     1.0  0.79508  0.39476  0.78735  1.0000
  H   H1954     1.0  0.97516  0.38872  0.55904  1.0000
  H   H1955     1.0  0.80680  0.22117  0.84999  1.0000
  H   H1956     1.0  0.92343  0.33304  0.66274  1.0000
  H   H1957     1.0  0.83854  0.28011  0.65251  1.0000
  H   H1958     1.0  0.81857  0.22238  0.81021  1.0000
  H   H1959     1.0  0.78265  0.37508  0.86110  1.0000
  H   H1960     1.0  0.82613  0.33950  0.85520  1.0000
  H   H1961     1.0  0.98786  0.37658  0.60023  1.0000
  H   H1962     1.0  0.84334  0.24672  0.56161  1.0000
  C   C1112     1.0  0.96478  0.21013  0.70669  1.0000
  H   H1963     1.0  0.98846  0.35855  0.55849  1.0000
  C   C1113     1.0  0.77318  0.40623  0.82587  1.0000
  C   C1114     1.0  0.77253  0.14595  0.81453  1.0000
  C   C1115     1.0  0.95809  0.15963  0.72284  1.0000
  C   C1116     1.0  0.97494  0.20364  0.68083  1.0000
  H   H1964     1.0  0.80882  0.21264  0.76386  1.0000
  C   C1117     1.0  0.94390  0.20892  0.75839  1.0000
  C   C1118     1.0  0.89005  0.20965  0.64748  1.0000
  H   H1965     1.0  0.81012  0.40752  0.79235  1.0000
  C   C1119     1.0  0.95491  0.20457  0.66161  1.0000
  S   S255      1.0  0.75864  0.16819  0.70177  1.0000
  H   H1966     1.0  0.95664  0.30772  0.65414  1.0000
  H   H1967     1.0  0.94587  0.20290  0.70830  1.0000
  N   N60       1.0  0.78264  0.38517  0.81031  1.0000
  C   C1120     1.0  0.78262  0.20845  0.63244  1.0000
  H   H1968     1.0  0.78984  0.21661  0.89216  1.0000
  H   H1969     1.0  0.98842  0.35310  0.67693  1.0000
  H   H1970     1.0  0.85599  0.19044  0.64729  1.0000
  C   C1121     1.0  0.80615  0.37517  0.76981  1.0000
  H   H1971     1.0  0.95638  0.15982  0.70263  1.0000
  H   H1972     1.0  0.82626  0.36894  0.87046  1.0000
  H   H1973     1.0  0.81623  0.28628  0.62927  1.0000
  H   H1974     1.0  0.99792  0.30881  0.53224  1.0000
  H   H1975     1.0  0.83108  0.40037  0.75091  1.0000
  H   H1976     1.0  0.82151  0.36520  0.77845  1.0000
  H   H1977     1.0  0.98934  0.21709  0.67536  1.0000
  H   H1978     1.0  0.94963  0.34256  0.67941  1.0000
  H   H1979     1.0  0.93986  0.30924  0.62696  1.0000
  H   H1980     1.0  0.91695  0.22044  0.78558  1.0000
  C   C1122     1.0  0.84807  0.22994  0.64800  1.0000
  H   H1981     1.0  0.84970  0.22486  0.77542  1.0000
  H   H1982     1.0  0.79863  0.24392  0.76230  1.0000
  C   C1123     1.0  0.93640  0.22421  0.78067  1.0000
  C   C1124     1.0  0.97490  0.29115  0.62334  1.0000
  H   H1983     1.0  0.97644  0.25133  0.62170  1.0000
  H   H1984     1.0  0.94088  0.19029  0.66549  1.0000
  H   H1985     1.0  0.77033  0.24442  0.83306  1.0000
  N   N61       1.0  0.96674  0.33780  0.62959  1.0000
  C   C1125     1.0  0.86354  0.20764  0.63923  1.0000
  H   H1986     1.0  0.00253  0.31610  0.79395  1.0000
  C   C1126     1.0  0.81004  0.20869  0.63945  1.0000
  C   C1127     1.0  0.96400  0.26587  0.62882  1.0000
  H   H1987     1.0  0.94594  0.22286  0.66144  1.0000
  H   H1988     1.0  0.91224  0.36397  0.69345  1.0000
  C   C1128     1.0  0.94862  0.35575  0.64079  1.0000
  H   H1989     1.0  0.86340  0.20586  0.61903  1.0000
  N   N62       1.0  0.77962  0.21683  0.80604  1.0000
  H   H1990     1.0  0.81246  0.31485  0.66396  1.0000
  C   C1129     1.0  0.78495  0.18969  0.80432  1.0000
  C   C1130     1.0  0.77131  0.22403  0.83148  1.0000
  C   C1131     1.0  0.80300  0.23040  0.79993  1.0000
  C   C1132     1.0  0.81047  0.23092  0.77246  1.0000
  Fe  Fe130     1.0  0.75738  0.30087  0.86467  1.0000
  C   C1133     1.0  0.78766  0.21479  0.85258  1.0000
  C   C1134     1.0  0.80171  0.37158  0.82492  1.0000
  H   H1991     1.0  0.78222  0.17183  0.61629  1.0000
  C   C1135     1.0  0.83687  0.23927  0.76899  1.0000
  H   H1992     1.0  0.75308  0.36142  0.82202  1.0000
  C   C1136     1.0  0.77841  0.22427  0.87731  1.0000
  H   H1993     1.0  0.75814  0.39980  0.83823  1.0000
  H   H1994     1.0  0.78493  0.14454  0.83040  1.0000
  H   H1995     1.0  0.79210  0.36173  0.76421  1.0000
  H   H1996     1.0  0.85927  0.24669  0.64570  1.0000
  H   H1997     1.0  0.78238  0.13961  0.79779  1.0000
  H   H1998     1.0  0.78248  0.29201  0.98733  1.0000
  C   C1137     1.0  0.76355  0.17234  0.81138  1.0000
  H   H1999     1.0  0.88089  0.47028  0.51018  1.0000
  H   H2000     1.0  0.98839  0.29329  0.55980  1.0000
  C   C1138     1.0  0.80496  0.29595  0.66555  1.0000
  H   H2001     1.0  0.84982  0.27130  0.61158  1.0000
  N   N63       1.0  0.98032  0.20182  0.72778  1.0000
  H   H2002     1.0  0.84579  0.22781  0.66817  1.0000
  C   C1139     1.0  0.97096  0.21379  0.75100  1.0000
  H   H2003     1.0  0.80826  0.24801  0.60303  1.0000
  H   H2004     1.0  0.94325  0.12273  0.72457  1.0000
  H   H2005     1.0  0.99663  0.16629  0.71959  1.0000
  H   H2006     1.0  0.90057  0.19346  0.64091  1.0000
  H   H2007     1.0  0.76444  0.21676  0.76960  1.0000
  H   H2008     1.0  0.79009  0.25372  0.64268  1.0000
  H   H2009     1.0  0.94096  0.16739  0.73060  1.0000
  S   S256      1.0  0.97465  0.34888  0.50454  1.0000
  H   H2010     1.0  0.97622  0.12388  0.72288  1.0000
  H   H2011     1.0  0.80699  0.28975  0.68481  1.0000
  H   H2012     1.0  0.86481  0.24403  0.60163  1.0000
  H   H2013     1.0  0.81915  0.19407  0.62842  1.0000
  H   H2014     1.0  0.77973  0.24459  0.87797  1.0000
  C   C1140     1.0  0.98118  0.17418  0.73057  1.0000
  H   H2015     1.0  0.93819  0.24413  0.77658  1.0000
  C   C1141     1.0  0.80902  0.25234  0.64972  1.0000
  H   H2016     1.0  0.75676  0.29432  0.95024  1.0000
  H   H2017     1.0  0.78234  0.40588  0.77624  1.0000
  H   H2018     1.0  0.77148  0.21812  0.64660  1.0000
  N   N64       1.0  0.82342  0.23281  0.63617  1.0000
  H   H2019     1.0  0.76985  0.35030  0.79669  1.0000
  H   H2020     1.0  0.78098  0.34521  0.84746  1.0000
  H   H2021     1.0  0.78520  0.29651  0.66103  1.0000
  C   C1142     1.0  0.84750  0.25462  0.60047  1.0000
  C   C1143     1.0  0.95966  0.13279  0.73090  1.0000
  C   C1144     1.0  0.77281  0.18222  0.63114  1.0000
  H   H2022     1.0  0.99352  0.29177  0.63115  1.0000
  C   C1145     1.0  0.99674  0.33792  0.66615  1.0000
  C   C1146     1.0  0.76402  0.42962  0.81246  1.0000
  S   S257      1.0  0.87561  0.40204  0.50736  1.0000
  H   H2023     1.0  0.75659  0.13367  0.81789  1.0000
  H   H2024     1.0  0.76350  0.44245  0.96010  1.0000
  H   H2025     1.0  0.98326  0.18505  0.68050  1.0000
  H   H2026     1.0  0.77990  0.43989  0.80468  1.0000
  H   H2027     1.0  0.75909  0.21868  0.88065  1.0000
  Fe  Fe131     1.0  0.93892  0.36952  0.50577  1.0000
  H   H2028     1.0  0.75437  0.17774  0.82872  1.0000
  H   H2029     1.0  0.75277  0.23632  0.97691  1.0000
  H   H2030     1.0  0.75288  0.18262  0.62739  1.0000
  H   H2031     1.0  0.77611  0.77980  0.03072  1.0000
  S   S258      1.0  0.76747  0.70055  0.18316  1.0000
  H   H2032     1.0  0.84472  0.80598  0.20335  1.0000
  H   H2033     1.0  0.79086  0.89917  0.18129  1.0000
  Fe  Fe132     1.0  0.87162  0.75363  0.26381  1.0000
  S   S259      1.0  0.87947  0.79040  0.28068  1.0000
  S   S260      1.0  0.86348  0.75115  0.22320  1.0000
  Fe  Fe133     1.0  0.87629  0.72666  0.31261  1.0000
  S   S261      1.0  0.88314  0.76137  0.33317  1.0000
  S   S262      1.0  0.87755  0.68820  0.32839  1.0000
  Fe  Fe134     1.0  0.85338  0.77791  0.31022  1.0000
  S   S263      1.0  0.82034  0.79903  0.32451  1.0000
  Fe  Fe135     1.0  0.90892  0.77059  0.30184  1.0000
  S   S264      1.0  0.94630  0.78559  0.31275  1.0000
  S   S265      1.0  0.84426  0.74210  0.29233  1.0000
  S   S266      1.0  0.90333  0.73497  0.28233  1.0000
  H   H2034     1.0  0.77990  0.82183  0.22672  1.0000
  C   C1147     1.0  0.80806  0.85715  0.20502  1.0000
  H   H2035     1.0  0.77950  0.81683  0.13832  1.0000
  Fe  Fe136     1.0  0.94281  0.61725  0.46946  1.0000
  S   S267      1.0  0.93205  0.65566  0.47932  1.0000
  C   C1148     1.0  0.95195  0.66887  0.31671  1.0000
  Fe  Fe137     1.0  0.89525  0.64501  0.46523  1.0000
  S   S268      1.0  0.87597  0.67520  0.44418  1.0000
  S   S269      1.0  0.90694  0.60744  0.45251  1.0000
  H   H2036     1.0  0.92157  0.67550  0.29217  1.0000
  S   S270      1.0  0.76385  0.70738  0.05629  1.0000
  H   H2037     1.0  0.80833  0.79741  0.18354  1.0000
  H   H2038     1.0  0.79085  0.85281  0.38496  1.0000
  C   C1149     1.0  0.77617  0.84004  0.39093  1.0000
  S   S271      1.0  0.97957  0.61011  0.45215  1.0000
  C   C1150     1.0  0.94345  0.74037  0.35945  1.0000
  C   C1151     1.0  0.80974  0.82391  0.30685  1.0000
  C   C1152     1.0  0.82588  0.84121  0.29676  1.0000
  C   C1153     1.0  0.81667  0.86192  0.28444  1.0000
  C   C1154     1.0  0.79136  0.86508  0.28161  1.0000
  C   C1155     1.0  0.77539  0.84700  0.29039  1.0000
  C   C1156     1.0  0.78449  0.82677  0.30345  1.0000
  H   H2039     1.0  0.84540  0.83910  0.29923  1.0000
  H   H2040     1.0  0.82918  0.87570  0.27742  1.0000
  H   H2041     1.0  0.76435  0.56880  0.01412  1.0000
  H   H2042     1.0  0.77201  0.81316  0.31079  1.0000
  C   C1157     1.0  0.97586  0.77586  0.30258  1.0000
  C   C1158     1.0  0.79967  0.81406  0.13740  1.0000
  C   C1159     1.0  0.97908  0.75927  0.28332  1.0000
  H   H2043     1.0  0.99444  0.79827  0.32890  1.0000
  H   H2044     1.0  0.96326  0.75185  0.27427  1.0000
  C   C1160     1.0  0.87783  0.68488  0.36063  1.0000
  C   C1161     1.0  0.87242  0.70465  0.37602  1.0000
  C   C1162     1.0  0.87227  0.70143  0.40156  1.0000
  C   C1163     1.0  0.87800  0.67858  0.41201  1.0000
  C   C1164     1.0  0.88408  0.65893  0.39665  1.0000
  C   C1165     1.0  0.88369  0.66201  0.37103  1.0000
  H   H2045     1.0  0.86768  0.72227  0.36829  1.0000
  H   H2046     1.0  0.86741  0.71667  0.41332  1.0000
  H   H2047     1.0  0.88834  0.64120  0.40451  1.0000
  H   H2048     1.0  0.88785  0.64660  0.35927  1.0000
  H   H2049     1.0  0.91703  0.65003  0.31301  1.0000
  C   C1166     1.0  0.76225  0.70563  0.00601  1.0000
  H   H2050     1.0  0.88918  0.83560  0.24598  1.0000
  H   H2051     1.0  0.98382  0.68193  0.38307  1.0000
  C   C1167     1.0  0.79252  0.71752  0.19417  1.0000
  C   C1168     1.0  0.80920  0.72898  0.17822  1.0000
  C   C1169     1.0  0.83062  0.73973  0.18741  1.0000
  C   C1170     1.0  0.83531  0.73948  0.21260  1.0000
  C   C1171     1.0  0.81794  0.72915  0.22861  1.0000
  C   C1172     1.0  0.79680  0.71796  0.21942  1.0000
  H   H2052     1.0  0.80611  0.72868  0.15871  1.0000
  H   H2053     1.0  0.84385  0.74780  0.17487  1.0000
  H   H2054     1.0  0.82106  0.72913  0.24804  1.0000
  H   H2055     1.0  0.78393  0.70922  0.23188  1.0000
  H   H2056     1.0  0.91201  0.74847  0.38318  1.0000
  C   C1173     1.0  0.80006  0.81937  0.22812  1.0000
  H   H2057     1.0  0.81283  0.67447  0.25226  1.0000
  H   H2058     1.0  0.76417  0.82626  0.35600  1.0000
  H   H2059     1.0  0.94104  0.75949  0.39446  1.0000
  H   H2060     1.0  0.75767  0.57963  0.05787  1.0000
  H   H2061     1.0  0.75575  0.58552  0.12161  1.0000
  H   H2062     1.0  0.79788  0.80829  0.37949  1.0000
  H   H2063     1.0  0.81407  0.64275  0.17631  1.0000
  H   H2064     1.0  0.76905  0.76591  0.18423  1.0000
  C   C1174     1.0  0.99364  0.63919  0.49000  1.0000
  H   H2065     1.0  0.96921  0.53645  0.45300  1.0000
  H   H2066     1.0  0.93090  0.69726  0.20835  1.0000
  H   H2067     1.0  0.77485  0.80167  0.40276  1.0000
  H   H2068     1.0  0.75983  0.64044  0.10965  1.0000
  H   H2069     1.0  0.76007  0.89807  0.19335  1.0000
  H   H2070     1.0  0.99344  0.69077  0.46796  1.0000
  H   H2071     1.0  0.93661  0.70407  0.32459  1.0000
  H   H2072     1.0  0.75786  0.60116  0.01005  1.0000
  H   H2073     1.0  0.93761  0.64693  0.28709  1.0000
  H   H2074     1.0  0.82726  0.64593  0.26021  1.0000
  H   H2075     1.0  0.78284  0.81740  0.18361  1.0000
  H   H2076     1.0  0.89462  0.64405  0.26481  1.0000
  C   C1175     1.0  0.99672  0.78538  0.31403  1.0000
  N   N65       1.0  0.96150  0.69634  0.35416  1.0000
  C   C1176     1.0  0.96989  0.67526  0.37003  1.0000
  H   H2077     1.0  0.99932  0.67435  0.32600  1.0000
  C   C1177     1.0  0.94897  0.71480  0.37078  1.0000
  C   C1178     1.0  0.94968  0.66190  0.38520  1.0000
  H   H2078     1.0  0.96835  0.62651  0.38769  1.0000
  C   C1179     1.0  0.96045  0.64075  0.39997  1.0000
  C   C1180     1.0  0.78850  0.81539  0.39622  1.0000
  H   H2079     1.0  0.97934  0.66089  0.35916  1.0000
  H   H2080     1.0  0.88492  0.81020  0.22543  1.0000
  H   H2081     1.0  0.96017  0.71803  0.38737  1.0000
  H   H2082     1.0  0.93100  0.70756  0.37751  1.0000
  H   H2083     1.0  0.92646  0.68104  0.34482  1.0000
  H   H2084     1.0  0.96007  0.65259  0.32568  1.0000
  H   H2085     1.0  0.94061  0.67446  0.39847  1.0000
  H   H2086     1.0  0.93565  0.65397  0.37311  1.0000
  H   H2087     1.0  0.89814  0.60042  0.27587  1.0000
  C   C1181     1.0  0.91060  0.52851  0.48108  1.0000
  H   H2088     1.0  0.97701  0.71939  0.32548  1.0000
  H   H2089     1.0  0.76831  0.59908  0.09401  1.0000
  S   S272      1.0  0.76225  0.74140  0.12214  1.0000
  C   C1182     1.0  0.80315  0.81719  0.18343  1.0000
  C   C1183     1.0  0.84013  0.82565  0.20669  1.0000
  H   H2090     1.0  0.76999  0.93110  0.31727  1.0000
  C   C1184     1.0  0.93070  0.65980  0.30130  1.0000
  H   H2091     1.0  0.92641  0.77497  0.36939  1.0000
  H   H2092     1.0  0.96832  0.56217  0.47355  1.0000
  S   S273      1.0  0.78026  0.89186  0.26732  1.0000
  H   H2093     1.0  0.77400  0.85681  0.18331  1.0000
  H   H2094     1.0  0.77485  0.79174  0.26039  1.0000
  H   H2095     1.0  0.77703  0.88343  0.36427  1.0000
  H   H2096     1.0  0.93186  0.73876  0.34309  1.0000
  H   H2097     1.0  0.80365  0.79405  0.13816  1.0000
  H   H2098     1.0  0.82013  0.86618  0.19112  1.0000
  N   N66       1.0  0.81284  0.82984  0.20580  1.0000
  H   H2099     1.0  0.97958  0.71373  0.44860  1.0000
  H   H2100     1.0  0.90116  0.68878  0.25574  1.0000
  H   H2101     1.0  0.90756  0.60514  0.24448  1.0000
  H   H2102     1.0  0.80779  0.84728  0.15646  1.0000
  H   H2103     1.0  0.76907  0.85978  0.21580  1.0000
  C   C1185     1.0  0.78121  0.86509  0.20021  1.0000
  C   C1186     1.0  0.81209  0.82748  0.15840  1.0000
  H   H2104     1.0  0.83752  0.66244  0.30119  1.0000
  C   C1187     1.0  0.75395  0.60098  0.10843  1.0000
  H   H2105     1.0  0.78522  0.90247  0.21385  1.0000
  C   C1188     1.0  0.98876  0.69552  0.44881  1.0000
  H   H2106     1.0  0.80651  0.82136  0.11959  1.0000
  C   C1189     1.0  0.94314  0.68818  0.33553  1.0000
  C   C1190     1.0  0.97689  0.54398  0.47011  1.0000
  H   H2107     1.0  0.75716  0.75876  0.22646  1.0000
  C   C1191     1.0  0.92074  0.50512  0.47675  1.0000
  H   H2108     1.0  0.84613  0.82250  0.24646  1.0000
  H   H2109     1.0  0.81301  0.86575  0.22274  1.0000
  H   H2110     1.0  0.82406  0.69168  0.29314  1.0000
  H   H2111     1.0  0.80517  0.82970  0.24479  1.0000
  H   H2112     1.0  0.97490  0.64749  0.41235  1.0000
  H   H2113     1.0  0.87783  0.59195  0.25160  1.0000
  H   H2114     1.0  0.82413  0.78713  0.23337  1.0000
  H   H2115     1.0  0.97197  0.53141  0.48545  1.0000
  H   H2116     1.0  0.79588  0.78051  0.21843  1.0000
  C   C1192     1.0  0.85280  0.83355  0.23065  1.0000
  H   H2117     1.0  0.88836  0.84110  0.21349  1.0000
  H   H2118     1.0  0.81719  0.67472  0.16781  1.0000
  S   S274      1.0  0.87654  0.56014  0.50188  1.0000
  H   H2119     1.0  0.83215  0.82492  0.15614  1.0000
  C   C1193     1.0  0.77172  0.78939  0.01334  1.0000
  C   C1194     1.0  0.92990  0.75674  0.37785  1.0000
  H   H2120     1.0  0.94038  0.70354  0.23920  1.0000
  C   C1195     1.0  0.88959  0.53096  0.49578  1.0000
  C   C1196     1.0  0.98319  0.70868  0.34175  1.0000
  H   H2121     1.0  0.83236  0.65136  0.14995  1.0000
  H   H2122     1.0  0.91551  0.72073  0.22624  1.0000
  H   H2123     1.0  0.75277  0.51074  0.08853  1.0000
  H   H2124     1.0  0.91619  0.66537  0.23760  1.0000
  H   H2125     1.0  0.88432  0.63414  0.21867  1.0000
  H   H2126     1.0  0.91892  0.54462  0.47289  1.0000
  H   H2127     1.0  0.97564  0.68157  0.44217  1.0000
  H   H2128     1.0  0.80550  0.78924  0.27240  1.0000
  H   H2129     1.0  0.84945  0.83579  0.19152  1.0000
  H   H2130     1.0  0.79175  0.76334  0.25819  1.0000
  H   H2131     1.0  0.77784  0.80876  0.01468  1.0000
  H   H2132     1.0  0.86549  0.63102  0.27219  1.0000
  H   H2133     1.0  0.96051  0.75009  0.35401  1.0000
  C   C1197     1.0  0.77641  0.91639  0.32975  1.0000
  C   C1198     1.0  0.77935  0.89291  0.19701  1.0000
  C   C1199     1.0  0.80440  0.79164  0.23292  1.0000
  H   H2134     1.0  0.84938  0.85320  0.23467  1.0000
  H   H2135     1.0  0.77677  0.62321  0.13189  1.0000
  H   H2136     1.0  0.85906  0.64086  0.18471  1.0000
  H   H2137     1.0  0.86173  0.67273  0.17583  1.0000
  C   C1200     1.0  0.79329  0.78361  0.25744  1.0000
  H   H2138     1.0  0.80247  0.81775  0.41061  1.0000
  H   H2139     1.0  0.94579  0.63211  0.41136  1.0000
  H   H2140     1.0  0.85464  0.62654  0.22952  1.0000
  H   H2141     1.0  0.80521  0.66468  0.29549  1.0000
  C   C1201     1.0  0.88050  0.82986  0.22865  1.0000
  H   H2142     1.0  0.96552  0.67729  0.30392  1.0000
  N   N67       1.0  0.86271  0.66558  0.22989  1.0000
  C   C1202     1.0  0.85288  0.67671  0.25336  1.0000
  C   C1203     1.0  0.88372  0.68107  0.22040  1.0000
  C   C1204     1.0  0.84263  0.66701  0.21112  1.0000
  C   C1205     1.0  0.87036  0.63906  0.23289  1.0000
  C   C1206     1.0  0.88046  0.63132  0.25824  1.0000
  C   C1207     1.0  0.82807  0.66611  0.26271  1.0000
  C   C1208     1.0  0.84960  0.65889  0.18472  1.0000
  C   C1209     1.0  0.90632  0.68318  0.23697  1.0000
  C   C1210     1.0  0.92433  0.70233  0.22699  1.0000
  C   C1211     1.0  0.89166  0.60562  0.25737  1.0000
  C   C1212     1.0  0.82352  0.67162  0.28977  1.0000
  C   C1213     1.0  0.82688  0.65679  0.16881  1.0000
  H   H2143     1.0  0.85043  0.69687  0.25109  1.0000
  H   H2144     1.0  0.86621  0.67517  0.26842  1.0000
  H   H2145     1.0  0.89102  0.67374  0.20281  1.0000
  H   H2146     1.0  0.87707  0.70000  0.21632  1.0000
  H   H2147     1.0  0.83560  0.68609  0.20975  1.0000
  H   H2148     1.0  0.82670  0.65555  0.21686  1.0000
  H   H2149     1.0  0.79240  0.90718  0.32091  1.0000
  C   C1214     1.0  0.75579  0.89796  0.33445  1.0000
  C   C1215     1.0  0.00054  0.62800  0.46796  1.0000
  H   H2150     1.0  0.75438  0.76315  0.30919  1.0000
  Fe  Fe138     1.0  0.89679  0.59491  0.49070  1.0000
  H   H2151     1.0  0.75603  0.84879  0.28736  1.0000
  H   H2152     1.0  0.77645  0.69186  0.00751  1.0000
  H   H2153     1.0  0.97574  0.63601  0.49792  1.0000
  H   H2154     1.0  0.99147  0.72251  0.35414  1.0000
  H   H2155     1.0  0.78220  0.92494  0.34714  1.0000
  H   H2156     1.0  0.77683  0.86470  0.33829  1.0000
  C   C1216     1.0  0.76464  0.87605  0.35022  1.0000
  H   H2157     1.0  0.76785  0.84656  0.40837  1.0000
  C   C1217     1.0  0.75610  0.83712  0.37143  1.0000
  H   H2158     1.0  0.76091  0.88598  0.40409  1.0000
  C   C1218     1.0  0.75893  0.62461  0.12248  1.0000
  S   S275      1.0  0.88180  0.63182  0.50231  1.0000
  H   H2159     1.0  0.87504  0.74681  0.61417  1.0000
  S   S276      1.0  0.80693  0.70989  0.86142  1.0000
  H   H2160     1.0  0.83172  0.71397  0.94523  1.0000
  H   H2161     1.0  0.89717  0.53777  0.60379  1.0000
  S   S277      1.0  0.93269  0.65597  0.55123  1.0000
  C   C1219     1.0  0.98389  0.72672  0.70753  1.0000
  Fe  Fe139     1.0  0.91761  0.72153  0.70716  1.0000
  S   S278      1.0  0.89114  0.69056  0.70026  1.0000
  S   S279      1.0  0.95694  0.70994  0.71472  1.0000
  Fe  Fe140     1.0  0.87767  0.76028  0.70257  1.0000
  S   S280      1.0  0.84904  0.73243  0.69465  1.0000
  S   S281      1.0  0.86729  0.80038  0.70713  1.0000
  Fe  Fe141     1.0  0.86515  0.71079  0.72545  1.0000
  S   S282      1.0  0.83615  0.69243  0.74946  1.0000
  Fe  Fe142     1.0  0.87726  0.71468  0.67020  1.0000
  S   S283      1.0  0.86315  0.70054  0.63399  1.0000
  S   S284      1.0  0.89259  0.73969  0.73498  1.0000
  S   S285      1.0  0.90504  0.74462  0.67545  1.0000
  H   H2162     1.0  0.78868  0.75351  0.69676  1.0000
  H   H2163     1.0  0.81232  0.71999  0.65258  1.0000
  H   H2164     1.0  0.81537  0.81535  0.59634  1.0000
  C   C1220     1.0  0.87894  0.50984  0.50623  1.0000
  C   C1221     1.0  0.83735  0.80982  0.69953  1.0000
  C   C1222     1.0  0.82272  0.79548  0.68448  1.0000
  C   C1223     1.0  0.79902  0.80336  0.67842  1.0000
  C   C1224     1.0  0.78940  0.82525  0.68803  1.0000
  C   C1225     1.0  0.80389  0.83952  0.70337  1.0000
  C   C1226     1.0  0.82798  0.83205  0.70868  1.0000
  H   H2165     1.0  0.82968  0.77833  0.67753  1.0000
  H   H2166     1.0  0.78790  0.79227  0.66655  1.0000
  H   H2167     1.0  0.79678  0.85662  0.71056  1.0000
  H   H2168     1.0  0.83925  0.84339  0.72018  1.0000
  H   H2169     1.0  0.98902  0.79491  0.80668  1.0000
  C   C1227     1.0  0.92525  0.56010  0.56397  1.0000
  C   C1228     1.0  0.83060  0.77970  0.58475  1.0000
  H   H2170     1.0  0.96564  0.75903  0.69421  1.0000
  H   H2171     1.0  0.75895  0.76965  0.92460  1.0000
  H   H2172     1.0  0.81883  0.77442  0.63583  1.0000
  H   H2173     1.0  0.77259  0.81940  0.75386  1.0000
  C   C1229     1.0  0.91317  0.66993  0.57320  1.0000
  C   C1230     1.0  0.88787  0.67151  0.56995  1.0000
  C   C1231     1.0  0.87276  0.68101  0.58873  1.0000
  C   C1232     1.0  0.88285  0.68926  0.61074  1.0000
  C   C1233     1.0  0.90820  0.68839  0.61369  1.0000
  C   C1234     1.0  0.92328  0.67882  0.59494  1.0000
  H   H2174     1.0  0.87996  0.66521  0.55308  1.0000
  H   H2175     1.0  0.85316  0.68185  0.58624  1.0000
  H   H2176     1.0  0.91615  0.69483  0.63052  1.0000
  H   H2177     1.0  0.94285  0.67792  0.59750  1.0000
  H   H2178     1.0  0.82925  0.80160  0.97570  1.0000
  H   H2179     1.0  0.82794  0.75126  0.91935  1.0000
  H   H2180     1.0  0.84211  0.78947  0.57091  1.0000
  C   C1235     1.0  0.81476  0.70598  0.83004  1.0000
  C   C1236     1.0  0.83845  0.71201  0.82156  1.0000
  C   C1237     1.0  0.84524  0.70847  0.79681  1.0000
  C   C1238     1.0  0.82843  0.69863  0.78042  1.0000
  C   C1239     1.0  0.80475  0.69285  0.78889  1.0000
  C   C1240     1.0  0.79788  0.69669  0.81348  1.0000
  H   H2181     1.0  0.85165  0.71917  0.83424  1.0000
  H   H2182     1.0  0.86361  0.71275  0.79053  1.0000
  H   H2183     1.0  0.79166  0.68516  0.77638  1.0000
  H   H2184     1.0  0.77965  0.69193  0.81967  1.0000
  H   H2185     1.0  0.91355  0.73929  0.59106  1.0000
  H   H2186     1.0  0.86578  0.80660  0.60209  1.0000
  H   H2187     1.0  0.78819  0.74260  0.64952  1.0000
  N   N68       1.0  0.80521  0.77899  0.76752  1.0000
  C   C1241     1.0  0.80732  0.80648  0.76975  1.0000
  C   C1242     1.0  0.83054  0.76778  0.76572  1.0000
  H   H2188     1.0  0.92846  0.55055  0.52541  1.0000
  H   H2189     1.0  0.81788  0.81183  0.78598  1.0000
  H   H2190     1.0  0.79650  0.78974  0.60503  1.0000
  H   H2191     1.0  0.99117  0.70232  0.81114  1.0000
  C   C1243     1.0  0.87504  0.54075  0.63612  1.0000
  C   C1244     1.0  0.85044  0.77683  0.78383  1.0000
  C   C1245     1.0  0.86840  0.79525  0.77240  1.0000
  H   H2192     1.0  0.98645  0.67475  0.76235  1.0000
  C   C1246     1.0  0.77462  0.78258  0.92277  1.0000
  H   H2193     1.0  0.76132  0.62097  0.96705  1.0000
  H   H2194     1.0  0.81803  0.81380  0.75390  1.0000
  H   H2195     1.0  0.87540  0.76816  0.56161  1.0000
  H   H2196     1.0  0.82924  0.74762  0.76833  1.0000
  H   H2197     1.0  0.83821  0.76996  0.74679  1.0000
  H   H2198     1.0  0.93976  0.61016  0.63873  1.0000
  H   H2199     1.0  0.88587  0.55829  0.55787  1.0000
  H   H2200     1.0  0.87225  0.80500  0.96279  1.0000
  H   H2201     1.0  0.85630  0.73789  0.58978  1.0000
  C   C1247     1.0  0.76371  0.80859  0.91858  1.0000
  H   H2202     1.0  0.89552  0.60736  0.63200  1.0000
  C   C1248     1.0  0.81107  0.74099  0.92427  1.0000
  H   H2203     1.0  0.79904  0.74038  0.90810  1.0000
  C   C1249     1.0  0.79316  0.80111  0.56769  1.0000
  H   H2204     1.0  0.84302  0.78487  0.80085  1.0000
  H   H2205     1.0  0.86142  0.76068  0.78966  1.0000
  H   H2206     1.0  0.88185  0.80106  0.78628  1.0000
  H   H2207     1.0  0.87866  0.78668  0.75704  1.0000
  H   H2208     1.0  0.85891  0.81183  0.76551  1.0000
  H   H2209     1.0  0.90728  0.56052  0.62557  1.0000
  C   C1250     1.0  0.89118  0.55264  0.61633  1.0000
  C   C1251     1.0  0.77828  0.74373  0.71138  1.0000
  C   C1252     1.0  0.79752  0.75270  0.94649  1.0000
  H   H2210     1.0  0.85875  0.53202  0.62787  1.0000
  C   C1253     1.0  0.79024  0.76763  0.78800  1.0000
  N   N69       1.0  0.89118  0.58779  0.58398  1.0000
  C   C1254     1.0  0.98204  0.76652  0.76562  1.0000
  H   H2211     1.0  0.86268  0.51158  0.51762  1.0000
  H   H2212     1.0  0.78038  0.74202  0.94952  1.0000
  H   H2213     1.0  0.98924  0.64202  0.56887  1.0000
  C   C1255     1.0  0.79220  0.77377  0.74384  1.0000
  H   H2214     1.0  0.78627  0.76709  0.85173  1.0000
  C   C1256     1.0  0.95368  0.76822  0.76618  1.0000
  C   C1257     1.0  0.75359  0.71236  0.98274  1.0000
  C   C1258     1.0  0.98273  0.72344  0.77776  1.0000
  C   C1259     1.0  0.83475  0.79292  0.95814  1.0000
  C   C1260     1.0  0.98308  0.75078  0.69857  1.0000
  C   C1261     1.0  0.94471  0.78872  0.74932  1.0000
  C   C1262     1.0  0.77750  0.78817  0.96706  1.0000
  H   H2215     1.0  0.84004  0.77356  0.96140  1.0000
  H   H2216     1.0  0.77288  0.78025  0.74480  1.0000
  H   H2217     1.0  0.80095  0.78422  0.72858  1.0000
  N   N70       1.0  0.79136  0.77966  0.94438  1.0000
  H   H2218     1.0  0.86891  0.55463  0.64975  1.0000
  H   H2219     1.0  0.96287  0.72293  0.78256  1.0000
  H   H2220     1.0  0.96784  0.75221  0.81327  1.0000
  H   H2221     1.0  0.82752  0.70631  0.91351  1.0000
  H   H2222     1.0  0.98915  0.78533  0.76839  1.0000
  H   H2223     1.0  0.79018  0.74728  0.78631  1.0000
  H   H2224     1.0  0.94541  0.75091  0.75955  1.0000
  H   H2225     1.0  0.94663  0.77211  0.78489  1.0000
  H   H2226     1.0  0.86672  0.58414  0.61533  1.0000
  Fe  Fe143     1.0  0.76719  0.70566  0.87379  1.0000
  H   H2227     1.0  0.81518  0.76173  0.81834  1.0000
  H   H2228     1.0  0.95095  0.78539  0.73018  1.0000
  H   H2229     1.0  0.94244  0.63486  0.61664  1.0000
  H   H2230     1.0  0.92439  0.78926  0.74959  1.0000
  H   H2231     1.0  0.79960  0.85574  0.75944  1.0000
  C   C1263     1.0  0.81277  0.73978  0.61779  1.0000
  H   H2232     1.0  0.92259  0.61174  0.58183  1.0000
  H   H2233     1.0  0.89509  0.82617  0.63163  1.0000
  H   H2234     1.0  0.87114  0.82624  0.65495  1.0000
  H   H2235     1.0  0.82293  0.72487  0.60835  1.0000
  S   S286      1.0  0.75978  0.83461  0.67930  1.0000
  H   H2236     1.0  0.91536  0.52667  0.54457  1.0000
  H   H2237     1.0  0.89647  0.63366  0.61199  1.0000
  C   C1264     1.0  0.88627  0.81535  0.64657  1.0000
  H   H2238     1.0  0.90008  0.81176  0.66089  1.0000
  H   H2239     1.0  0.86866  0.78071  0.65261  1.0000
  H   H2240     1.0  0.77383  0.74550  0.83027  1.0000
  C   C1265     1.0  0.87666  0.79096  0.63690  1.0000
  S   S287      1.0  0.93376  0.60194  0.50644  1.0000
  H   H2241     1.0  0.77737  0.72400  0.70643  1.0000
  Fe  Fe144     1.0  0.91973  0.63970  0.51536  1.0000
  H   H2242     1.0  0.94773  0.53288  0.54525  1.0000
  H   H2243     1.0  0.89264  0.78054  0.62969  1.0000
  H   H2244     1.0  0.84293  0.80718  0.62532  1.0000
  H   H2245     1.0  0.91726  0.75126  0.56045  1.0000
  C   C1266     1.0  0.85727  0.79523  0.61686  1.0000
  H   H2246     1.0  0.89371  0.78031  0.58590  1.0000
  H   H2247     1.0  0.89525  0.72735  0.56646  1.0000
  H   H2248     1.0  0.79874  0.74690  0.60512  1.0000
  C   C1267     1.0  0.88420  0.76371  0.57925  1.0000
  C   C1268     1.0  0.90371  0.74418  0.57405  1.0000
  C   C1269     1.0  0.86500  0.75421  0.59818  1.0000
  C   C1270     1.0  0.79860  0.77276  0.81437  1.0000
  N   N71       1.0  0.84578  0.77243  0.60643  1.0000
  H   H2249     1.0  0.84208  0.75236  0.64049  1.0000
  H   H2250     1.0  0.78664  0.71386  0.63330  1.0000
  C   C1271     1.0  0.83023  0.76049  0.62616  1.0000
  C   C1272     1.0  0.79917  0.72845  0.63970  1.0000
  C   C1273     1.0  0.90664  0.61709  0.61792  1.0000
  C   C1274     1.0  0.78814  0.84843  0.77475  1.0000
  H   H2251     1.0  0.79756  0.85151  0.79235  1.0000
  N   N72       1.0  0.99352  0.74837  0.78302  1.0000
  H   H2252     1.0  0.75344  0.81516  0.93494  1.0000
  H   H2253     1.0  0.76253  0.77672  0.83119  1.0000
  C   C1275     1.0  0.78298  0.82111  0.77108  1.0000
  H   H2254     1.0  0.80230  0.79246  0.81749  1.0000
  H   H2255     1.0  0.77836  0.82200  0.91406  1.0000
  H   H2256     1.0  0.92642  0.58683  0.60209  1.0000
  H   H2257     1.0  0.75757  0.78407  0.96536  1.0000
  S   S288      1.0  0.75448  0.68842  0.90940  1.0000
  H   H2258     1.0  0.82746  0.62883  0.57002  1.0000
  H   H2259     1.0  0.82377  0.76310  0.57518  1.0000
  H   H2260     1.0  0.84596  0.63544  0.54315  1.0000
  H   H2261     1.0  0.92784  0.55046  0.58156  1.0000
  C   C1276     1.0  0.89969  0.57259  0.56228  1.0000
  H   H2262     1.0  0.90093  0.58421  0.54550  1.0000
  H   H2263     1.0  0.86457  0.79805  0.93162  1.0000
  C   C1277     1.0  0.99583  0.77990  0.81851  1.0000
  C   C1278     1.0  0.85234  0.59925  0.55926  1.0000
  H   H2264     1.0  0.80881  0.74887  0.96276  1.0000
  H   H2265     1.0  0.84093  0.58562  0.56922  1.0000
  H   H2266     1.0  0.99683  0.74089  0.82167  1.0000
  C   C1279     1.0  0.91268  0.60031  0.59574  1.0000
  C   C1280     1.0  0.77904  0.76501  0.83297  1.0000
  H   H2267     1.0  0.95160  0.80683  0.75542  1.0000
  C   C1281     1.0  0.93003  0.62585  0.63019  1.0000
  H   H2268     1.0  0.88515  0.62087  0.56297  1.0000
  C   C1282     1.0  0.80869  0.79710  0.59040  1.0000
  C   C1283     1.0  0.87673  0.57228  0.60197  1.0000
  H   H2269     1.0  0.75606  0.64865  0.94977  1.0000
  H   H2270     1.0  0.85865  0.59094  0.54180  1.0000
  H   H2271     1.0  0.86671  0.61872  0.59005  1.0000
  C   C1284     1.0  0.92936  0.54142  0.54355  1.0000
  H   H2272     1.0  0.92531  0.63938  0.64469  1.0000
  H   H2273     1.0  0.86217  0.56197  0.59241  1.0000
  H   H2274     1.0  0.82060  0.61453  0.54119  1.0000
  H   H2275     1.0  0.93983  0.57424  0.56214  1.0000
  H   H2276     1.0  0.78428  0.77768  0.90540  1.0000
  C   C1285     1.0  0.83563  0.62090  0.55308  1.0000
  H   H2277     1.0  0.76117  0.70381  0.96648  1.0000
  H   H2278     1.0  0.77066  0.77318  0.78653  1.0000
  C   C1286     1.0  0.87447  0.60778  0.57463  1.0000
  H   H2279     1.0  0.80226  0.70332  0.93481  1.0000
  H   H2280     1.0  0.77873  0.80848  0.96887  1.0000
  H   H2281     1.0  0.96568  0.78481  0.84468  1.0000
  H   H2282     1.0  0.82130  0.79162  0.92094  1.0000
  C   C1287     1.0  0.81372  0.79525  0.93961  1.0000
  C   C1288     1.0  0.81857  0.71454  0.92992  1.0000
  C   C1289     1.0  0.85763  0.80639  0.94891  1.0000
  C   C1290     1.0  0.98316  0.67712  0.78234  1.0000
  H   H2283     1.0  0.88562  0.52634  0.64580  1.0000
  H   H2284     1.0  0.80866  0.81503  0.93942  1.0000
  H   H2285     1.0  0.78086  0.73517  0.74951  1.0000
  H   H2286     1.0  0.98494  0.67343  0.57784  1.0000
  H   H2287     1.0  0.80969  0.73851  0.73358  1.0000
  H   H2288     1.0  0.77131  0.81476  0.78661  1.0000
  C   C1291     1.0  0.79111  0.74642  0.73589  1.0000
  H   H2289     1.0  0.96311  0.67690  0.78605  1.0000
  C   C1292     1.0  0.99497  0.65622  0.58216  1.0000
  H   H2290     1.0  0.85359  0.82613  0.94572  1.0000
  H   H2291     1.0  0.77069  0.85881  0.77521  1.0000
  H   H2292     1.0  0.80435  0.80925  0.55261  1.0000
  H   H2293     1.0  0.98756  0.76182  0.74656  1.0000
  C   C1293     1.0  0.98603  0.78472  0.84439  1.0000
  H   H2294     1.0  0.77787  0.81389  0.57212  1.0000
  C   C1294     1.0  0.98779  0.75435  0.80940  1.0000
  H   H2295     1.0  0.98396  0.71967  0.75785  1.0000
  H   H2296     1.0  0.78525  0.78345  0.56149  1.0000
  C   C1295     1.0  0.99441  0.70118  0.79110  1.0000
  C   C1296     1.0  0.78465  0.77652  0.99197  1.0000
  H   H2297     1.0  0.99162  0.66140  0.79208  1.0000
  H   H2298     1.0  0.77902  0.75698  0.99257  1.0000
  H   H2299     1.0  0.99249  0.80292  0.85072  1.0000
  H   H2300     1.0  0.99271  0.77048  0.85730  1.0000
  H   H2301     1.0  0.98977  0.64997  0.60089  1.0000
  H   H2302     1.0  0.75936  0.75118  0.71250  1.0000
  H   H2303     1.0  0.75537  0.80251  0.88006  1.0000
  H   H2304     1.0  0.80455  0.77710  0.99519  1.0000
