data_image0
_chemical_formula_structural       FeSHFeS2FeSFeS4FeS2FeSFeSFeS3H4C2HNC2H4CH4C4H3C6H4C6H4CHC2H6SCH2CH4C2H4CHC5HNC5HC6H11CH16NC5HC3H22C2HC2HC2H4CHCH2CH3NCH3CH3C2H4CH2C4H3CH3SH4C2H4SH2CHC2HSHC2H3CHFeSFeS2FeSFeS3FeS2FeS2Fe2SCSH3CHC6H4C2H8CH4C4H2CH2C5HC2HCH4C2H4C2H2CHCH5CH3CNH2CHCHCH2C2H8C2H2C3H2CH5CH3CH7CH2NH2C3H4C2H3SCHCHCH2CH4NH2CH5C5H3C2H2CHCNH3CHNCH5CH2CH11SHCHSC2HCHFeS2FeCFeSFeS3FeSCFeSHFeSHSC7H2C5H2NC3FeC4H6CH3CH9CH3CH2CH4SC2HCH2CH4NC3H4SCH2CHCH7CH2CH5CH6SH3C2H4SHCH5CFeS2FeSCFeSFeCS2FeS2FeS2FeSFeS3H4C6H4C3H2C3H2C6HCH2SC6H5CHCHCH6CHC3HNH7C2HC2H3CH3C2H2CH6CH2CH2CHNH2NHCH4CH2CHCH2C2H3CH2CH4CH4CH2NCH3CH5CH2CH6C2H2C6H2CH6CH3NH3CH3C6HC2H2CH4CH5C2HCH2CHCHCHCH3CH2CSHFeS2FeS2FeSFeS3FeS2FeHSHFeHS2H3CHCH3CH2CH3C3H2SC6H4C6H5CHCHC3H2CHCHCHC2HCH3NH2CH2CH3C3H2CH4CHC2HNH8CHNHC4HC4HSCH3FeCH4C3H3C2H2CH5CHCH2CHCHC3H6CH2CHCHCHCH3NH3CH3CH5CHC3HCH2CHCH12CH3CH3SC2HCH4FeSFeS2FeSFeS3FeSHFeS2Fe2SCSC3H2C6H5CHCH2CH2C3H6NC2HC7HCH5CH6SH10CSH8CH5CHCH6C2H4CHCH5NC2HC5H5CHCH7NC4HC3H7C2H2CH5CHSHCH5CH3CH4CHFeS2FeS2FeSFeHS2CFeS2FeS2Fe2S3C6HC2H6NC2H2CH2C7H4C6H4CH4C3HCH3SCH2CHCHSH7CSHCHCH3CH3CH2NC5HCH3C2HCH6CH6SH7C3HC2NHNC9HC2H9CH9CH8NC10H6CH4CH15CNCH2CH3C2H6CH2C2H7CH2CSH3C2H2FeHFeS2FeHFeS3FeS2FeS2Fe2S3C4HC6H5CH5CH2C2H4C4H3C2HCH3C2HCH2CHCHCNC7H2C3H20CH7NC5HC3H2CH6CH3CH11C2HNH3CH4CHCH2CHC2H4CHCH2S2HCHC4H2CH9NH3SCH4SH5CH2CHC2HCH2CHCH4C3H3Fe3S2FeSFeHS2H2FeS2CH2S2CH2C6H2FeHC3H2C2HFeH4CH8CH2SH2NCHCHCH5CHC2HCHC2H4CHCHCSCH2CH2CSHNH2CH7CH2CFeSHFeSHFeCFeSCSFeS2FeS2FeSFeS3C2HC3H2C6H4C2HCHCHC2HC3H3C7H9NCH2C4H2CH10CH2CHCHCHNHC2H7C3SHSH2CH2CHCHCH2C3H4CH3CH4CHSH9C2H2CH4CH2NH3CH2C2H6CNH2CH2CH3CH3C2H2CSC2H2C2H7C3HCHCH11CSHC2H2CSH6CHFeS2FeS2FeSFeS3HSFeSHFeSFeSHSH2CH4C2H3CH2CH4CHC6H4C6H4C3H2C2H4CH2CHCHC2H5NHCH6NH5NH6SC2HC3H2CHCSCH6CH2CH3FeCHCHCHCHCH3CH3C2H2C4NCH5SH2CNH4CH5CHC3HC2HCHCH2CH2C2H8CHCH3C2H3CH8CHCHCH6CH3CH2SCH3CHCHC2H2C3H2C2H4CHCH2CH2C3HFeCFeS2FeSFeHS2FeS2FeSFeSFeS3CHCH2C6H4C3H3C2H2C2HCHNCH2C2H6CH5C5H3NC11H26C2HCH2CH5CH2NCH3CH7C3H3CHCH4SHC3H2CHCHC3H4CH2SH3CH5CH2CH4CHNCHC2H
_chemical_formula_sum              "Fe96 S192 H1536 C864 N48"
_cell_length_a       58.9339
_cell_length_b       58.9734
_cell_length_c       34.055
_cell_angle_alpha    89.8687
_cell_angle_beta     89.82
_cell_angle_gamma    89.4427

_space_group_name_H-M_alt    "P 1"
_space_group_IT_number       1

loop_
  _space_group_symop_operation_xyz
  'x, y, z'

loop_
  _atom_site_type_symbol
  _atom_site_label
  _atom_site_symmetry_multiplicity
  _atom_site_fract_x
  _atom_site_fract_y
  _atom_site_fract_z
  _atom_site_occupancy
  Fe  Fe1       1.0  0.37315  0.04722  0.19415  1.0000
  S   S1        1.0  0.38116  0.04320  0.25778  1.0000
  H   H1        1.0  0.19450  0.26852  0.00146  1.0000
  Fe  Fe2       1.0  0.38967  0.09609  0.19140  1.0000
  S   S2        1.0  0.39874  0.09595  0.25600  1.0000
  S   S3        1.0  0.39855  0.12604  0.15200  1.0000
  Fe  Fe3       1.0  0.41347  0.06130  0.24327  1.0000
  S   S4        1.0  0.44612  0.04405  0.26204  1.0000
  Fe  Fe4       1.0  0.36551  0.07776  0.26498  1.0000
  S   S5        1.0  0.33565  0.08072  0.30738  1.0000
  S   S6        1.0  0.40654  0.06255  0.17864  1.0000
  S   S7        1.0  0.35544  0.08077  0.20135  1.0000
  S   S8        1.0  0.26364  0.30482  0.02735  1.0000
  Fe  Fe5       1.0  0.12328  0.26804  0.35114  1.0000
  S   S9        1.0  0.10706  0.23436  0.36742  1.0000
  S   S10       1.0  0.13044  0.27692  0.28558  1.0000
  Fe  Fe6       1.0  0.12198  0.28320  0.43683  1.0000
  S   S11       1.0  0.10602  0.25113  0.45799  1.0000
  Fe  Fe7       1.0  0.13145  0.23313  0.41900  1.0000
  S   S12       1.0  0.14828  0.19948  0.44100  1.0000
  Fe  Fe8       1.0  0.08255  0.25453  0.40560  1.0000
  S   S13       1.0  0.04455  0.24635  0.41937  1.0000
  S   S14       1.0  0.14882  0.26536  0.40032  1.0000
  S   S15       1.0  0.09743  0.28808  0.38681  1.0000
  H   H2        1.0  0.17817  0.25279  0.03695  1.0000
  H   H3        1.0  0.40206  0.00634  0.18305  1.0000
  H   H4        1.0  0.27898  0.00510  0.44059  1.0000
  H   H5        1.0  0.32183  0.02661  0.29291  1.0000
  C   C1        1.0  0.49097  0.09574  0.26984  1.0000
  C   C2        1.0  0.29362  0.14978  0.44051  1.0000
  H   H6        1.0  0.45684  0.07960  0.07624  1.0000
  N   N1        1.0  0.39141  0.05600  0.04361  1.0000
  C   C3        1.0  0.01542  0.25009  0.40433  1.0000
  C   C4        1.0  0.00892  0.26374  0.37243  1.0000
  H   H7        1.0  0.44591  0.10228  0.10658  1.0000
  H   H8        1.0  0.02184  0.27243  0.35568  1.0000
  H   H9        1.0  0.32860  0.07900  0.08401  1.0000
  H   H10       1.0  0.46353  0.21400  0.04282  1.0000
  C   C5        1.0  0.31333  0.16635  0.44896  1.0000
  H   H11       1.0  0.30015  0.00607  0.28119  1.0000
  H   H12       1.0  0.15768  0.30838  0.15935  1.0000
  H   H13       1.0  0.48133  0.30161  0.99198  1.0000
  H   H14       1.0  0.40827  0.28294  0.03045  1.0000
  C   C6        1.0  0.14600  0.29512  0.21532  1.0000
  C   C7        1.0  0.14992  0.29303  0.25607  1.0000
  C   C8        1.0  0.16937  0.30317  0.27146  1.0000
  C   C9        1.0  0.21035  0.26572  0.05874  1.0000
  H   H15       1.0  0.44848  0.14781  0.12528  1.0000
  H   H16       1.0  0.46888  0.11744  0.16082  1.0000
  H   H17       1.0  0.17279  0.30176  0.30257  1.0000
  C   C10       1.0  0.33677  0.08632  0.35822  1.0000
  C   C11       1.0  0.35649  0.09385  0.37657  1.0000
  C   C12       1.0  0.35632  0.09851  0.41714  1.0000
  C   C13       1.0  0.33646  0.09575  0.43951  1.0000
  C   C14       1.0  0.31686  0.08802  0.42115  1.0000
  C   C15       1.0  0.31698  0.08344  0.38067  1.0000
  H   H18       1.0  0.37182  0.09620  0.35949  1.0000
  H   H19       1.0  0.37159  0.10449  0.43116  1.0000
  H   H20       1.0  0.30154  0.08587  0.43807  1.0000
  H   H21       1.0  0.30166  0.07767  0.36660  1.0000
  C   C16       1.0  0.38468  0.13154  0.10679  1.0000
  C   C17       1.0  0.36372  0.12193  0.09795  1.0000
  C   C18       1.0  0.35357  0.12593  0.06112  1.0000
  C   C19       1.0  0.36408  0.13984  0.03302  1.0000
  C   C20       1.0  0.38491  0.14972  0.04207  1.0000
  C   C21       1.0  0.39512  0.14560  0.07882  1.0000
  H   H22       1.0  0.35537  0.11134  0.11945  1.0000
  H   H23       1.0  0.33741  0.11834  0.05443  1.0000
  H   H24       1.0  0.39322  0.16039  0.02067  1.0000
  H   H25       1.0  0.41127  0.15321  0.08546  1.0000
  C   C22       1.0  0.47124  0.05997  0.26379  1.0000
  H   H26       1.0  0.27954  0.25837  0.02241  1.0000
  C   C23       1.0  0.47064  0.08362  0.26641  1.0000
  C   C24       1.0  0.37259  0.27627  0.02560  1.0000
  H   H27       1.0  0.45450  0.09252  0.26685  1.0000
  H   H28       1.0  0.44242  0.14844  0.17708  1.0000
  H   H29       1.0  0.16865  0.24125  0.22901  1.0000
  H   H30       1.0  0.01609  0.29793  0.44325  1.0000
  H   H31       1.0  0.25578  0.19857  0.12487  1.0000
  H   H32       1.0  0.39091  0.08979  0.01816  1.0000
  S   S16       1.0  0.35620  0.01906  0.16108  1.0000
  C   C25       1.0  0.30455  0.02807  0.46474  1.0000
  H   H33       1.0  0.27413  0.05592  0.42181  1.0000
  H   H34       1.0  0.31555  0.05181  0.09173  1.0000
  C   C26       1.0  0.18073  0.31684  0.20577  1.0000
  H   H35       1.0  0.13108  0.28741  0.20289  1.0000
  H   H36       1.0  0.34817  0.00764  0.24638  1.0000
  H   H37       1.0  0.32588  0.03726  0.38691  1.0000
  H   H38       1.0  0.37901  0.05721  0.10380  1.0000
  C   C27       1.0  0.34989  0.04986  0.06868  1.0000
  C   C28       1.0  0.47572  0.13482  0.16265  1.0000
  H   H39       1.0  0.27961  0.15360  0.46138  1.0000
  H   H40       1.0  0.44315  0.07337  0.12265  1.0000
  H   H41       1.0  0.43427  0.24432  0.02406  1.0000
  H   H42       1.0  0.28516  0.30752  0.17367  1.0000
  C   C29       1.0  0.49227  0.04857  0.26358  1.0000
  H   H43       1.0  0.33688  0.06146  0.12529  1.0000
  C   C30       1.0  0.42001  0.08375  0.07570  1.0000
  C   C31       1.0  0.26755  0.03922  0.43136  1.0000
  C   C32       1.0  0.18928  0.26772  0.03281  1.0000
  C   C33       1.0  0.17359  0.18704  0.46188  1.0000
  C   C34       1.0  0.36058  0.03140  0.37080  1.0000
  H   H44       1.0  0.19446  0.28199  0.10929  1.0000
  N   N2        1.0  0.28540  0.14959  0.39851  1.0000
  C   C35       1.0  0.99811  0.23904  0.42561  1.0000
  C   C36       1.0  0.26983  0.12968  0.39279  1.0000
  C   C37       1.0  0.30597  0.14592  0.37246  1.0000
  C   C38       1.0  0.27376  0.17152  0.38650  1.0000
  C   C39       1.0  0.26049  0.18468  0.41890  1.0000
  H   H45       1.0  0.17948  0.28339  0.03983  1.0000
  C   C40       1.0  0.30121  0.14098  0.32854  1.0000
  C   C41       1.0  0.24793  0.12927  0.41792  1.0000
  C   C42       1.0  0.23515  0.10708  0.41232  1.0000
  C   C43       1.0  0.24570  0.20349  0.40113  1.0000
  C   C44       1.0  0.17416  0.16359  0.47031  1.0000
  C   C45       1.0  0.32273  0.14323  0.30370  1.0000
  H   H46       1.0  0.38794  0.01823  0.09043  1.0000
  H   H47       1.0  0.25923  0.04107  0.46053  1.0000
  H   H48       1.0  0.26388  0.12883  0.36189  1.0000
  H   H49       1.0  0.27928  0.11359  0.39831  1.0000
  H   H50       1.0  0.31661  0.13163  0.38376  1.0000
  H   H51       1.0  0.31714  0.16103  0.37320  1.0000
  H   H52       1.0  0.28625  0.18381  0.37450  1.0000
  H   H53       1.0  0.26188  0.16836  0.36176  1.0000
  H   H54       1.0  0.27243  0.19274  0.43963  1.0000
  H   H55       1.0  0.24936  0.17360  0.43644  1.0000
  H   H56       1.0  0.31055  0.02522  0.24401  1.0000
  C   C46       1.0  0.45590  0.15107  0.15467  1.0000
  H   H57       1.0  0.28818  0.15280  0.31658  1.0000
  H   H58       1.0  0.29518  0.12328  0.32509  1.0000
  H   H59       1.0  0.25172  0.13074  0.44955  1.0000
  H   H60       1.0  0.23625  0.14318  0.40887  1.0000
  H   H61       1.0  0.21957  0.10731  0.43080  1.0000
  H   H62       1.0  0.23007  0.10502  0.38116  1.0000
  H   H63       1.0  0.24583  0.09237  0.42139  1.0000
  H   H64       1.0  0.25610  0.21517  0.38304  1.0000
  H   H65       1.0  0.23212  0.19611  0.38271  1.0000
  H   H66       1.0  0.23749  0.21347  0.42495  1.0000
  H   H67       1.0  0.36111  0.26208  0.01818  1.0000
  H   H68       1.0  0.19808  0.23346  0.23574  1.0000
  H   H69       1.0  0.36845  0.29107  0.00659  1.0000
  H   H70       1.0  0.32863  0.16105  0.30341  1.0000
  H   H71       1.0  0.33649  0.13212  0.31539  1.0000
  H   H72       1.0  0.31922  0.13798  0.27302  1.0000
  N   N3        1.0  0.22306  0.26283  0.13173  1.0000
  C   C47       1.0  0.20377  0.26581  0.10296  1.0000
  C   C48       1.0  0.21414  0.26207  0.17353  1.0000
  C   C49       1.0  0.23801  0.28342  0.12794  1.0000
  C   C50       1.0  0.23743  0.24216  0.12284  1.0000
  C   C51       1.0  0.22490  0.21926  0.12139  1.0000
  H   H73       1.0  0.25831  0.32126  0.16428  1.0000
  C   C52       1.0  0.25822  0.28465  0.15709  1.0000
  C   C53       1.0  0.19070  0.25091  0.18062  1.0000
  C   C54       1.0  0.18642  0.24682  0.22435  1.0000
  H   H74       1.0  0.40001  0.25400  0.03982  1.0000
  H   H75       1.0  0.36944  0.28111  0.05664  1.0000
  H   H76       1.0  0.46146  0.16898  0.15636  1.0000
  H   H77       1.0  0.19094  0.25236  0.10641  1.0000
  H   H78       1.0  0.22668  0.25352  0.19314  1.0000
  H   H79       1.0  0.21213  0.27960  0.18548  1.0000
  H   H80       1.0  0.22765  0.29921  0.13126  1.0000
  H   H81       1.0  0.24572  0.28441  0.09821  1.0000
  H   H82       1.0  0.24688  0.24453  0.09474  1.0000
  H   H83       1.0  0.25087  0.23996  0.14541  1.0000
  H   H84       1.0  0.20986  0.22000  0.10198  1.0000
  H   H85       1.0  0.21954  0.21429  0.15143  1.0000
  H   H86       1.0  0.37024  0.08013  0.07415  1.0000
  H   H87       1.0  0.21924  0.24975  0.05055  1.0000
  H   H88       1.0  0.27109  0.27139  0.15006  1.0000
  H   H89       1.0  0.34640  0.04330  0.44597  1.0000
  H   H90       1.0  0.17702  0.26235  0.16961  1.0000
  H   H91       1.0  0.18905  0.23447  0.16545  1.0000
  H   H92       1.0  0.18897  0.26262  0.24134  1.0000
  H   H93       1.0  0.48572  0.06110  0.13411  1.0000
  H   H94       1.0  0.45728  0.19719  0.99977  1.0000
  H   H95       1.0  0.29425  0.02021  0.40357  1.0000
  C   C55       1.0  0.33167  0.06130  0.09401  1.0000
  C   C56       1.0  0.44292  0.08466  0.09654  1.0000
  H   H96       1.0  0.19364  0.25749  0.47444  1.0000
  C   C57       1.0  0.39039  0.03173  0.02977  1.0000
  C   C58       1.0  0.18468  0.31478  0.24648  1.0000
  H   H97       1.0  0.35115  0.03183  0.07786  1.0000
  C   C59       1.0  0.33940  0.02475  0.39405  1.0000
  C   C60       1.0  0.24053  0.20042  0.10597  1.0000
  H   H98       1.0  0.34376  0.05000  0.03810  1.0000
  H   H99       1.0  0.22150  0.28009  0.05128  1.0000
  H   H100      1.0  0.49040  0.11399  0.27282  1.0000
  H   H101      1.0  0.49274  0.03028  0.26164  1.0000
  C   C61       1.0  0.33387  0.99779  0.25824  1.0000
  H   H102      1.0  0.31016  0.18318  0.43534  1.0000
  C   C62       1.0  0.39736  0.26890  0.02034  1.0000
  H   H103      1.0  0.25457  0.03372  0.40990  1.0000
  H   H104      1.0  0.40680  0.08986  0.09636  1.0000
  C   C63       1.0  0.39556  0.01354  0.06175  1.0000
  H   H105      1.0  0.37389  0.01801  0.37317  1.0000
  H   H106      1.0  0.41420  0.01193  0.06597  1.0000
  H   H107      1.0  0.15944  0.15349  0.46363  1.0000
  N   N4        1.0  0.32650  0.01453  0.46535  1.0000
  C   C64       1.0  0.16115  0.30699  0.19043  1.0000
  H   H108      1.0  0.29968  0.13254  0.44928  1.0000
  H   H109      1.0  0.36756  0.04761  0.38176  1.0000
  H   H110      1.0  0.27560  0.31097  0.12372  1.0000
  C   C65       1.0  0.34410  0.02505  0.43876  1.0000
  H   H111      1.0  0.17675  0.28291  0.46665  1.0000
  H   H112      1.0  0.35621  0.03374  0.33934  1.0000
  H   H113      1.0  0.32948  0.15941  0.43677  1.0000
  C   C66       1.0  0.27001  0.30754  0.15437  1.0000
  C   C67       1.0  0.37324  0.06157  0.07355  1.0000
  H   H114      1.0  0.48153  0.13807  0.19302  1.0000
  H   H115      1.0  0.25267  0.28242  0.18798  1.0000
  H   H116      1.0  0.42111  0.09571  0.05062  1.0000
  H   H117      1.0  0.23135  0.18406  0.10605  1.0000
  C   C68       1.0  0.41450  0.05933  0.06202  1.0000
  H   H118      1.0  0.42818  0.05386  0.04131  1.0000
  H   H119      1.0  0.24598  0.20415  0.07538  1.0000
  C   C69       1.0  0.01122  0.31420  0.45758  1.0000
  C   C70       1.0  0.49493  0.13804  0.13206  1.0000
  C   C71       1.0  0.28676  0.02165  0.43324  1.0000
  C   C72       1.0  0.46723  0.21169  0.01107  1.0000
  H   H120      1.0  0.41638  0.04848  0.08864  1.0000
  H   H121      1.0  0.02159  0.32790  0.44442  1.0000
  H   H122      1.0  0.40272  0.02889  0.00534  1.0000
  C   C73       1.0  0.38989  0.07179  0.00865  1.0000
  H   H123      1.0  0.33429  0.00788  0.38338  1.0000
  H   H124      1.0  0.36091  0.01669  0.44381  1.0000
  H   H125      1.0  0.35367  0.07878  0.00100  1.0000
  S   S17       1.0  0.13311  0.31156  0.47753  1.0000
  H   H126      1.0  0.19298  0.21762  0.46426  1.0000
  H   H127      1.0  0.48554  0.20752  0.00745  1.0000
  H   H128      1.0  0.30822  0.04646  0.46150  1.0000
  H   H129      1.0  0.00275  0.22838  0.45026  1.0000
  C   C74       1.0  0.19292  0.19970  0.47071  1.0000
  C   C75       1.0  0.31544  0.01489  0.27004  1.0000
  H   H130      1.0  0.44528  0.28162  0.00446  1.0000
  H   H131      1.0  0.37363  0.02788  0.01687  1.0000
  H   H132      1.0  0.19971  0.32225  0.25893  1.0000
  H   H133      1.0  0.49142  0.09193  0.18370  1.0000
  S   S18       1.0  0.35089  0.14392  0.98679  1.0000
  H   H134      1.0  0.42439  0.99828  0.29989  1.0000
  H   H135      1.0  0.40461  0.06877  0.98861  1.0000
  C   C76       1.0  0.28714  0.29196  0.00131  1.0000
  H   H136      1.0  0.48749  0.13346  0.10319  1.0000
  C   C77       1.0  0.43614  0.23981  0.99260  1.0000
  C   C78       1.0  0.29083  0.26832  0.00434  1.0000
  H   H137      1.0  0.47227  0.24701  0.99993  1.0000
  S   S19       1.0  0.20491  0.32735  0.05503  1.0000
  H   H138      1.0  0.42590  0.22421  0.98816  1.0000
  C   C79       1.0  0.46153  0.23329  0.98806  1.0000
  C   C80       1.0  0.36792  0.07117  0.98395  1.0000
  H   H139      1.0  0.49553  0.05054  0.18066  1.0000
  H   H140      1.0  0.42264  0.99610  0.24710  1.0000
  H   H141      1.0  0.31122  0.23916  0.98664  1.0000
  C   C81       1.0  0.30887  0.25731  0.98400  1.0000
  H   H142      1.0  0.05500  0.27549  0.74587  1.0000
  Fe  Fe9       1.0  0.36327  0.17017  0.94273  1.0000
  S   S20       1.0  0.38373  0.20043  0.95981  1.0000
  Fe  Fe10      1.0  0.36132  0.18324  0.85555  1.0000
  S   S21       1.0  0.38226  0.21457  0.86748  1.0000
  S   S22       1.0  0.34910  0.17901  0.79125  1.0000
  Fe  Fe11      1.0  0.40485  0.19263  0.90567  1.0000
  S   S23       1.0  0.44410  0.18995  0.91312  1.0000
  Fe  Fe12      1.0  0.35972  0.22030  0.92079  1.0000
  S   S24       1.0  0.34662  0.25692  0.93274  1.0000
  S   S25       1.0  0.38524  0.16097  0.89072  1.0000
  S   S26       1.0  0.33785  0.19033  0.90672  1.0000
  Fe  Fe13      1.0  0.26773  0.06980  0.55687  1.0000
  S   S27       1.0  0.30281  0.07701  0.57844  1.0000
  S   S28       1.0  0.25428  0.03320  0.54877  1.0000
  Fe  Fe14      1.0  0.25719  0.12154  0.54169  1.0000
  S   S29       1.0  0.29224  0.13094  0.56307  1.0000
  S   S30       1.0  0.23760  0.15357  0.51935  1.0000
  Fe  Fe15      1.0  0.30463  0.10115  0.52743  1.0000
  Fe  Fe16      1.0  0.28745  0.10624  0.61271  1.0000
  S   S31       1.0  0.29509  0.10967  0.67918  1.0000
  C   C82       1.0  0.49104  0.18597  0.91929  1.0000
  S   S32       1.0  0.25164  0.09795  0.59360  1.0000
  H   H143      1.0  0.22675  0.19933  0.49526  1.0000
  H   H144      1.0  0.24903  0.04922  0.62991  1.0000
  H   H145      1.0  0.16883  0.21002  0.54448  1.0000
  C   C83       1.0  0.30203  0.30440  0.97761  1.0000
  H   H146      1.0  0.08949  0.22808  0.53045  1.0000
  C   C84       1.0  0.33521  0.15869  0.76039  1.0000
  C   C85       1.0  0.32596  0.13850  0.77487  1.0000
  C   C86       1.0  0.31395  0.12379  0.74961  1.0000
  C   C87       1.0  0.31111  0.12876  0.70933  1.0000
  C   C88       1.0  0.32060  0.14881  0.69477  1.0000
  C   C89       1.0  0.33243  0.16362  0.72010  1.0000
  H   H147      1.0  0.32776  0.13437  0.80567  1.0000
  H   H148      1.0  0.30674  0.10843  0.76146  1.0000
  H   H149      1.0  0.31865  0.15304  0.66404  1.0000
  H   H150      1.0  0.33939  0.17912  0.70833  1.0000
  C   C90       1.0  0.15043  0.27421  0.59583  1.0000
  C   C91       1.0  0.47284  0.19712  0.90023  1.0000
  H   H151      1.0  0.47319  0.26948  0.94684  1.0000
  H   H152      1.0  0.46447  0.22274  0.85750  1.0000
  H   H153      1.0  0.00061  0.28936  0.55231  1.0000
  H   H154      1.0  0.26186  0.23188  0.86015  1.0000
  H   H155      1.0  0.19342  0.13502  0.49360  1.0000
  H   H156      1.0  0.18099  0.24524  0.60784  1.0000
  H   H157      1.0  0.29332  0.26462  0.90259  1.0000
  H   H158      1.0  0.42896  0.29542  0.96792  1.0000
  C   C92       1.0  0.32376  0.26979  0.96033  1.0000
  H   H159      1.0  0.03118  0.31073  0.61157  1.0000
  H   H160      1.0  0.14509  0.25663  0.65261  1.0000
  H   H161      1.0  0.09544  0.29073  0.51983  1.0000
  H   H162      1.0  0.12105  0.23969  0.60012  1.0000
  C   C93       1.0  0.18956  0.27464  0.48592  1.0000
  C   C94       1.0  0.09403  0.30752  0.57629  1.0000
  C   C95       1.0  0.10266  0.30372  0.53822  1.0000
  C   C96       1.0  0.12076  0.31662  0.52418  1.0000
  H   H163      1.0  0.42026  0.23371  0.92183  1.0000
  H   H164      1.0  0.37500  0.10312  0.95389  1.0000
  C   C97       1.0  0.46158  0.28430  0.94723  1.0000
  H   H165      1.0  0.26060  0.24812  0.93897  1.0000
  H   H166      1.0  0.28943  0.26974  0.79744  1.0000
  C   C98       1.0  0.42435  0.26165  0.85233  1.0000
  C   C99       1.0  0.18020  0.21872  0.56520  1.0000
  C   C100      1.0  0.21396  0.04268  0.64060  1.0000
  C   C101      1.0  0.21268  0.16574  0.49672  1.0000
  C   C102      1.0  0.13958  0.27236  0.63732  1.0000
  H   H167      1.0  0.25649  0.28190  0.75221  1.0000
  C   C103      1.0  0.09957  0.21443  0.54490  1.0000
  C   C104      1.0  0.47807  0.21395  0.87258  1.0000
  H   H168      1.0  0.08019  0.29731  0.58707  1.0000
  C   C105      1.0  0.12762  0.24329  0.57016  1.0000
  H   H169      1.0  0.11587  0.25625  0.55728  1.0000
  H   H170      1.0  0.16780  0.28103  0.59998  1.0000
  H   H171      1.0  0.15822  0.22640  0.61484  1.0000
  H   H172      1.0  0.12077  0.27234  0.63474  1.0000
  C   C106      1.0  0.12460  0.22085  0.54736  1.0000
  C   C107      1.0  0.44016  0.28037  0.97308  1.0000
  H   H173      1.0  0.14093  0.28769  0.57977  1.0000
  H   H174      1.0  0.41429  0.27196  0.83119  1.0000
  H   H175      1.0  0.13633  0.29174  0.69130  1.0000
  H   H176      1.0  0.33051  0.18222  0.49781  1.0000
  C   C108      1.0  0.19216  0.20055  0.58993  1.0000
  C   C109      1.0  0.05779  0.29407  0.74681  1.0000
  H   H177      1.0  0.31500  0.26511  0.84758  1.0000
  H   H178      1.0  0.26767  0.06119  0.71139  1.0000
  C   C110      1.0  0.00955  0.28170  0.61297  1.0000
  H   H179      1.0  0.21685  0.04055  0.79962  1.0000
  C   C111      1.0  0.40258  0.26264  0.97692  1.0000
  H   H180      1.0  0.28432  0.05949  0.64849  1.0000
  H   H181      1.0  0.18770  0.05558  0.60174  1.0000
  H   H182      1.0  0.13338  0.20675  0.56289  1.0000
  H   H183      1.0  0.31118  0.06487  0.70533  1.0000
  H   H184      1.0  0.03003  0.28146  0.55941  1.0000
  C   C112      1.0  0.22627  0.05555  0.74328  1.0000
  H   H185      1.0  0.29551  0.02675  0.49347  1.0000
  H   H186      1.0  0.48739  0.17298  0.94083  1.0000
  H   H187      1.0  0.20442  0.20839  0.61041  1.0000
  C   C113      1.0  0.16744  0.23608  0.59175  1.0000
  N   N5        1.0  0.15137  0.25263  0.57186  1.0000
  H   H188      1.0  0.23729  0.06704  0.66610  1.0000
  H   H189      1.0  0.20140  0.04129  0.66472  1.0000
  C   C114      1.0  0.33472  0.24579  0.80582  1.0000
  H   H190      1.0  0.39528  0.27662  0.95876  1.0000
  C   C115      1.0  0.10327  0.32434  0.60052  1.0000
  H   H191      1.0  0.30615  0.20365  0.83847  1.0000
  C   C116      1.0  0.03376  0.30156  0.68652  1.0000
  H   H192      1.0  0.27679  0.03346  0.72556  1.0000
  H   H193      1.0  0.03288  0.28280  0.68437  1.0000
  C   C117      1.0  0.31176  0.04962  0.68625  1.0000
  C   C118      1.0  0.37040  0.08539  0.94659  1.0000
  H   H194      1.0  0.16103  0.24370  0.51195  1.0000
  H   H195      1.0  0.32236  0.15336  0.50662  1.0000
  H   H196      1.0  0.07326  0.29813  0.72948  1.0000
  H   H197      1.0  0.20571  0.06871  0.79122  1.0000
  H   H198      1.0  0.24838  0.23746  0.79743  1.0000
  H   H199      1.0  0.19337  0.22736  0.54743  1.0000
  H   H200      1.0  0.36232  0.02522  0.57212  1.0000
  H   H201      1.0  0.27480  0.27539  0.86558  1.0000
  C   C119      1.0  0.26985  0.04353  0.70048  1.0000
  C   C120      1.0  0.23770  0.04909  0.65609  1.0000
  H   H202      1.0  0.44591  0.24789  0.91443  1.0000
  H   H203      1.0  0.04963  0.30627  0.67076  1.0000
  C   C121      1.0  0.26377  0.00432  0.55499  1.0000
  C   C122      1.0  0.27930  0.23794  0.86563  1.0000
  C   C123      1.0  0.24899  0.26480  0.75591  1.0000
  H   H204      1.0  0.21589  0.02455  0.71633  1.0000
  H   H205      1.0  0.33139  0.30340  0.93934  1.0000
  C   C124      1.0  0.20488  0.06044  0.61178  1.0000
  H   H206      1.0  0.26714  0.20766  0.77832  1.0000
  H   H207      1.0  0.32969  0.05142  0.51737  1.0000
  H   H208      1.0  0.34181  0.22830  0.80401  1.0000
  H   H209      1.0  0.45666  0.28782  0.91638  1.0000
  H   H210      1.0  0.19335  0.04500  0.76615  1.0000
  C   C125      1.0  0.42820  0.25070  0.92441  1.0000
  H   H211      1.0  0.39749  0.26327  0.89505  1.0000
  H   H212      1.0  0.38365  0.07803  0.92701  1.0000
  H   H213      1.0  0.32308  0.00845  0.52786  1.0000
  C   C126      1.0  0.25808  0.26168  0.91666  1.0000
  H   H214      1.0  0.29058  0.16713  0.81830  1.0000
  H   H215      1.0  0.21607  0.06150  0.58554  1.0000
  H   H216      1.0  0.36352  0.05375  0.97483  1.0000
  H   H217      1.0  0.32761  0.25039  0.77673  1.0000
  H   H218      1.0  0.26755  0.00256  0.68458  1.0000
  H   H219      1.0  0.14508  0.26889  0.51586  1.0000
  H   H220      1.0  0.36140  0.25861  0.84399  1.0000
  C   C127      1.0  0.01416  0.30678  0.62396  1.0000
  H   H221      1.0  0.25044  0.26490  0.81862  1.0000
  H   H222      1.0  0.33308  0.03266  0.58310  1.0000
  N   N6        1.0  0.01336  0.31241  0.66721  1.0000
  H   H223      1.0  0.35404  0.08585  0.93049  1.0000
  H   H224      1.0  0.19420  0.26631  0.54706  1.0000
  C   C128      1.0  0.29686  0.21344  0.81540  1.0000
  C   C129      1.0  0.32015  0.29343  0.95750  1.0000
  C   C130      1.0  0.31646  0.24699  0.83873  1.0000
  H   H225      1.0  0.17959  0.19058  0.60691  1.0000
  H   H226      1.0  0.41877  0.28454  0.90067  1.0000
  H   H227      1.0  0.35379  0.05458  0.57621  1.0000
  H   H228      1.0  0.00834  0.26017  0.56129  1.0000
  C   C131      1.0  0.15874  0.25891  0.53073  1.0000
  C   C132      1.0  0.28091  0.17554  0.79429  1.0000
  H   H229      1.0  0.44253  0.26617  0.84921  1.0000
  H   H230      1.0  0.28653  0.22572  0.88743  1.0000
  H   H231      1.0  0.21502  0.02639  0.62442  1.0000
  S   S33       1.0  0.27035  0.09281  0.50363  1.0000
  C   C133      1.0  0.14589  0.29251  0.66317  1.0000
  H   H232      1.0  0.29104  0.17492  0.76678  1.0000
  C   C134      1.0  0.20952  0.05213  0.77711  1.0000
  H   H233      1.0  0.14152  0.30877  0.64841  1.0000
  C   C135      1.0  0.28848  0.04515  0.66835  1.0000
  H   H234      1.0  0.31753  0.03480  0.70388  1.0000
  H   H235      1.0  0.29411  0.01168  0.58720  1.0000
  C   C136      1.0  0.34840  0.03756  0.56612  1.0000
  H   H236      1.0  0.02159  0.27001  0.62789  1.0000
  H   H237      1.0  0.25779  0.27830  0.93201  1.0000
  H   H238      1.0  0.30786  0.21261  0.78880  1.0000
  H   H239      1.0  0.20367  0.07737  0.62594  1.0000
  N   N7        1.0  0.29339  0.23770  0.82853  1.0000
  H   H240      1.0  0.32430  0.05264  0.66244  1.0000
  H   H241      1.0  0.46630  0.23017  0.95714  1.0000
  C   C137      1.0  0.25205  0.01025  0.67110  1.0000
  H   H242      1.0  0.35087  0.00332  0.50913  1.0000
  H   H243      1.0  0.20166  0.18868  0.57052  1.0000
  H   H244      1.0  0.09788  0.19873  0.52721  1.0000
  H   H245      1.0  0.26294  0.19974  0.82935  1.0000
  H   H246      1.0  0.26505  0.16597  0.78934  1.0000
  C   C138      1.0  0.47501  0.30467  0.96170  1.0000
  C   C139      1.0  0.35440  0.26177  0.81421  1.0000
  C   C140      1.0  0.23229  0.03261  0.72327  1.0000
  C   C141      1.0  0.34319  0.03849  0.52219  1.0000
  C   C142      1.0  0.27523  0.20012  0.80469  1.0000
  H   H247      1.0  0.23021  0.26666  0.75610  1.0000
  H   H248      1.0  0.34861  0.27972  0.81232  1.0000
  H   H249      1.0  0.48987  0.30741  0.94216  1.0000
  C   C143      1.0  0.03714  0.30688  0.73065  1.0000
  C   C144      1.0  0.28319  0.25198  0.79593  1.0000
  H   H250      1.0  0.25396  0.25398  0.73058  1.0000
  H   H251      1.0  0.32359  0.23790  0.86474  1.0000
  C   C145      1.0  0.25685  0.25400  0.79445  1.0000
  H   H252      1.0  0.24147  0.25940  0.90196  1.0000
  C   C146      1.0  0.27740  0.26125  0.88662  1.0000
  N   N8        1.0  0.42728  0.25865  0.96651  1.0000
  H   H253      1.0  0.42232  0.24345  0.84489  1.0000
  H   H254      1.0  0.21825  0.06753  0.72222  1.0000
  H   H255      1.0  0.28918  0.24560  0.76687  1.0000
  C   C147      1.0  0.41608  0.26635  0.89414  1.0000
  H   H256      1.0  0.36814  0.25897  0.79231  1.0000
  N   N9        1.0  0.24746  0.03379  0.68747  1.0000
  C   C148      1.0  0.01230  0.27803  0.56878  1.0000
  H   H257      1.0  0.28996  0.02953  0.65052  1.0000
  H   H258      1.0  0.09252  0.21127  0.57467  1.0000
  H   H259      1.0  0.49174  0.17029  0.82500  1.0000
  H   H260      1.0  0.24154  0.06357  0.75589  1.0000
  H   H261      1.0  0.13123  0.22204  0.51697  1.0000
  C   C149      1.0  0.18061  0.27331  0.52798  1.0000
  H   H262      1.0  0.16432  0.29221  0.66978  1.0000
  H   H263      1.0  0.25591  0.01127  0.63911  1.0000
  C   C150      1.0  0.33588  0.01493  0.50663  1.0000
  H   H264      1.0  0.29959  0.32254  0.97477  1.0000
  H   H265      1.0  0.17690  0.29100  0.53742  1.0000
  H   H266      1.0  0.24032  0.02147  0.74590  1.0000
  H   H267      1.0  0.39237  0.24746  0.96970  1.0000
  H   H268      1.0  0.46427  0.32026  0.96135  1.0000
  H   H269      1.0  0.21642  0.99841  0.66765  1.0000
  H   H270      1.0  0.06069  0.29908  0.77781  1.0000
  H   H271      1.0  0.02233  0.30165  0.74848  1.0000
  H   H272      1.0  0.17323  0.32124  0.87795  1.0000
  H   H273      1.0  0.00211  0.31773  0.60716  1.0000
  H   H274      1.0  0.03984  0.32522  0.73517  1.0000
  S   S34       1.0  0.09238  0.32768  0.64870  1.0000
  H   H275      1.0  0.30112  0.17587  0.50735  1.0000
  C   C151      1.0  0.28359  0.99844  0.57543  1.0000
  H   H276      1.0  0.35887  0.04423  0.50713  1.0000
  S   S35       1.0  0.33661  0.10233  0.49009  1.0000
  C   C152      1.0  0.19350  0.15301  0.48737  1.0000
  C   C153      1.0  0.31693  0.16963  0.49294  1.0000
  H   H277      1.0  0.01517  0.31312  0.48940  1.0000
  C   C154      1.0  0.21215  0.18918  0.48817  1.0000
  H   H278      1.0  0.20521  0.28496  0.48512  1.0000
  Fe  Fe17      1.0  0.21821  0.60920  0.10828  1.0000
  S   S36       1.0  0.25051  0.58966  0.09234  1.0000
  S   S37       1.0  0.21428  0.62264  0.17214  1.0000
  Fe  Fe18      1.0  0.20145  0.60582  0.02336  1.0000
  C   C155      1.0  0.03510  0.66101  0.31577  1.0000
  Fe  Fe19      1.0  0.22824  0.56559  0.05785  1.0000
  S   S38       1.0  0.22551  0.52676  0.04557  1.0000
  Fe  Fe20      1.0  0.25200  0.61234  0.03827  1.0000
  S   S39       1.0  0.28568  0.62726  0.01378  1.0000
  S   S40       1.0  0.19616  0.58393  0.07683  1.0000
  S   S41       1.0  0.22104  0.63261  0.05585  1.0000
  Fe  Fe21      1.0  0.20810  0.34536  0.11294  1.0000
  S   S42       1.0  0.24483  0.35413  0.10209  1.0000
  C   C156      1.0  0.19760  0.42162  0.24531  1.0000
  Fe  Fe22      1.0  0.19628  0.36147  0.02858  1.0000
  S   S43       1.0  0.20094  0.33174  0.17584  1.0000
  H   H279      1.0  0.21922  0.38373  0.23971  1.0000
  Fe  Fe23      1.0  0.23258  0.38665  0.07282  1.0000
  S   S44       1.0  0.24622  0.42194  0.09094  1.0000
  H   H280      1.0  0.13987  0.58356  0.45603  1.0000
  S   S45       1.0  0.19637  0.37881  0.08755  1.0000
  C   C157      1.0  0.18421  0.65837  0.26217  1.0000
  C   C158      1.0  0.23184  0.49771  0.05867  1.0000
  C   C159      1.0  0.24510  0.49174  0.09128  1.0000
  C   C160      1.0  0.24951  0.46861  0.10033  1.0000
  C   C161      1.0  0.24041  0.45095  0.07753  1.0000
  C   C162      1.0  0.22708  0.45690  0.04508  1.0000
  C   C163      1.0  0.22314  0.47998  0.03547  1.0000
  H   H281      1.0  0.25213  0.50495  0.10940  1.0000
  H   H282      1.0  0.25996  0.46439  0.12541  1.0000
  C   C164      1.0  0.25934  0.37927  0.20586  1.0000
  C   C165      1.0  0.17080  0.37819  0.23326  1.0000
  C   C166      1.0  0.19349  0.63770  0.20114  1.0000
  C   C167      1.0  0.17069  0.63993  0.19004  1.0000
  C   C168      1.0  0.20396  0.64557  0.37993  1.0000
  H   H283      1.0  0.16523  0.63293  0.16234  1.0000
  H   H284      1.0  0.22242  0.64532  0.38641  1.0000
  N   N10       1.0  0.16128  0.60012  0.34098  1.0000
  C   C169      1.0  0.17822  0.58350  0.32371  1.0000
  C   C170      1.0  0.15067  0.58983  0.37722  1.0000
  C   C171      1.0  0.14270  0.60342  0.31085  1.0000
  Fe  Fe24      1.0  0.24161  0.33664  0.04333  1.0000
  C   C172      1.0  0.18749  0.58990  0.28239  1.0000
  C   C173      1.0  0.12204  0.61804  0.32374  1.0000
  C   C174      1.0  0.20957  0.57732  0.27269  1.0000
  C   C175      1.0  0.10589  0.62240  0.28942  1.0000
  H   H285      1.0  0.17041  0.56644  0.32092  1.0000
  H   H286      1.0  0.19285  0.58071  0.34351  1.0000
  H   H287      1.0  0.20951  0.44056  0.31701  1.0000
  H   H288      1.0  0.14157  0.57399  0.36936  1.0000
  H   H289      1.0  0.13613  0.58670  0.30102  1.0000
  H   H290      1.0  0.14954  0.61191  0.28410  1.0000
  C   C176      1.0  0.14039  0.55271  0.99463  1.0000
  H   H291      1.0  0.21758  0.64566  0.24643  1.0000
  H   H292      1.0  0.17489  0.58545  0.25950  1.0000
  H   H293      1.0  0.16989  0.63475  0.32540  1.0000
  C   C177      1.0  0.20004  0.64710  0.23741  1.0000
  H   H294      1.0  0.11202  0.60946  0.34695  1.0000
  H   H295      1.0  0.18104  0.57321  0.40298  1.0000
  H   H296      1.0  0.20704  0.55869  0.27381  1.0000
  H   H297      1.0  0.21518  0.58202  0.24256  1.0000
  H   H298      1.0  0.22314  0.58213  0.29355  1.0000
  H   H299      1.0  0.11473  0.63131  0.26511  1.0000
  H   H300      1.0  0.09902  0.60619  0.27825  1.0000
  H   H301      1.0  0.09154  0.63330  0.29938  1.0000
  H   H302      1.0  0.18169  0.43194  0.24633  1.0000
  C   C178      1.0  0.21770  0.39067  0.20937  1.0000
  H   H303      1.0  0.21898  0.43262  0.17339  1.0000
  H   H304      1.0  0.00373  0.63580  0.36455  1.0000
  H   H305      1.0  0.16744  0.43468  0.15812  1.0000
  C   C179      1.0  0.19708  0.62295  0.36212  1.0000
  H   H306      1.0  0.22152  0.44909  0.23030  1.0000
  H   H307      1.0  0.13440  0.37784  0.22135  1.0000
  C   C180      1.0  0.29730  0.65230  0.99147  1.0000
  H   H308      1.0  0.15868  0.47117  0.05387  1.0000
  H   H309      1.0  0.19628  0.40980  0.27069  1.0000
  H   H310      1.0  0.17660  0.38789  0.17253  1.0000
  H   H311      1.0  0.21330  0.37593  0.19065  1.0000
  S   S46       1.0  0.23225  0.58684  0.00293  1.0000
  C   C181      1.0  0.14902  0.36583  0.22240  1.0000
  C   C182      1.0  0.16680  0.58448  0.41190  1.0000
  H   H312      1.0  0.15051  0.51017  0.03269  1.0000
  C   C183      1.0  0.17153  0.62288  0.35062  1.0000
  H   H313      1.0  0.20616  0.46706  0.13780  1.0000
  H   H314      1.0  0.19461  0.64850  0.40783  1.0000
  C   C184      1.0  0.21780  0.43723  0.25472  1.0000
  H   H315      1.0  0.20349  0.41346  0.14504  1.0000
  H   H316      1.0  0.27606  0.38383  0.19307  1.0000
  H   H317      1.0  0.16793  0.38614  0.26236  1.0000
  H   H318      1.0  0.20787  0.62013  0.33579  1.0000
  N   N11       1.0  0.19905  0.40851  0.20740  1.0000
  C   C185      1.0  0.24170  0.39735  0.19486  1.0000
  C   C186      1.0  0.17680  0.39636  0.20182  1.0000
  C   C187      1.0  0.16142  0.49949  0.01341  1.0000
  H   H319      1.0  0.18179  0.45317  0.19202  1.0000
  H   H320      1.0  0.24737  0.41379  0.20662  1.0000
  H   H321      1.0  0.19060  0.60833  0.28001  1.0000
  H   H322      1.0  0.22780  0.46227  0.29778  1.0000
  S   S47       1.0  0.23240  0.36995  0.01296  1.0000
  C   C188      1.0  0.21288  0.45158  0.29116  1.0000
  H   H323      1.0  0.24162  0.39862  0.16239  1.0000
  H   H324      1.0  0.19800  0.46293  0.28610  1.0000
  C   C189      1.0  0.15482  0.65106  0.21497  1.0000
  H   H325      1.0  0.25439  0.36248  0.19408  1.0000
  C   C190      1.0  0.20244  0.42383  0.17225  1.0000
  H   H326      1.0  0.12789  0.63458  0.33481  1.0000
  H   H327      1.0  0.14539  0.35256  0.24472  1.0000
  H   H328      1.0  0.03846  0.64491  0.29993  1.0000
  H   H329      1.0  0.23310  0.42682  0.26125  1.0000
  H   H330      1.0  0.21339  0.48401  0.00961  1.0000
  H   H331      1.0  0.22000  0.44365  0.02721  1.0000
  H   H332      1.0  0.20139  0.60957  0.38370  1.0000
  C   C191      1.0  0.18396  0.44239  0.16562  1.0000
  H   H333      1.0  0.17654  0.47074  0.12673  1.0000
  H   H334      1.0  0.26108  0.37807  0.23826  1.0000
  C   C192      1.0  0.15410  0.57269  0.44531  1.0000
  H   H335      1.0  0.13774  0.60157  0.38997  1.0000
  H   H336      1.0  0.17921  0.50250  0.02203  1.0000
  H   H337      1.0  0.16229  0.40853  0.20195  1.0000
  H   H338      1.0  0.15090  0.35741  0.19339  1.0000
  H   H339      1.0  0.19233  0.44795  0.10401  1.0000
  C   C193      1.0  0.19021  0.45793  0.13142  1.0000
  H   H340      1.0  0.18445  0.36526  0.23630  1.0000
  H   H341      1.0  0.17356  0.60047  0.42414  1.0000
  H   H342      1.0  0.14732  0.55615  0.43542  1.0000
  H   H343      1.0  0.16585  0.56958  0.47023  1.0000
  H   H344      1.0  0.16165  0.63135  0.37453  1.0000
  H   H345      1.0  0.20041  0.65970  0.35916  1.0000
  S   S48       1.0  0.14092  0.63761  0.46650  1.0000
  H   H346      1.0  0.14489  0.55468  0.05810  1.0000
  H   H347      1.0  0.03669  0.65777  0.34776  1.0000
  H   H348      1.0  0.00693  0.62507  0.29952  1.0000
  C   C194      1.0  0.16133  0.66024  0.25143  1.0000
  C   C195      1.0  0.15611  0.47465  0.02212  1.0000
  H   H349      1.0  0.14945  0.58106  0.03233  1.0000
  H   H350      1.0  0.13730  0.65254  0.20586  1.0000
  H   H351      1.0  0.16768  0.46326  0.00525  1.0000
  H   H352      1.0  0.13823  0.47083  0.01456  1.0000
  S   S49       1.0  0.16680  0.37346  0.99056  1.0000
  H   H353      1.0  0.17485  0.54213  0.01178  1.0000
  C   C196      1.0  0.13894  0.56557  0.03346  1.0000
  H   H354      1.0  0.12110  0.57079  0.03927  1.0000
  H   H355      1.0  0.05497  0.64653  0.47861  1.0000
  H   H356      1.0  0.12919  0.53783  0.99712  1.0000
  H   H357      1.0  0.21982  0.65991  0.98371  1.0000
  H   H358      1.0  0.33063  0.63728  0.98568  1.0000
  C   C197      1.0  0.16527  0.54603  0.98436  1.0000
  Fe  Fe25      1.0  0.12242  0.39755  0.72979  1.0000
  S   S50       1.0  0.10657  0.39166  0.78873  1.0000
  S   S51       1.0  0.14468  0.42864  0.73023  1.0000
  Fe  Fe26      1.0  0.10226  0.35402  0.69460  1.0000
  S   S52       1.0  0.08541  0.34547  0.75215  1.0000
  C   C198      1.0  0.01829  0.35932  0.78156  1.0000
  Fe  Fe27      1.0  0.07570  0.38219  0.75435  1.0000
  S   S53       1.0  0.04156  0.39856  0.76530  1.0000
  Fe  Fe28      1.0  0.11807  0.35567  0.78069  1.0000
  C   C199      1.0  0.21758  0.62991  0.79628  1.0000
  S   S54       1.0  0.09066  0.39056  0.69557  1.0000
  S   S55       1.0  0.13578  0.36176  0.72316  1.0000
  Fe  Fe29      1.0  0.10822  0.55583  0.71202  1.0000
  S   S56       1.0  0.10574  0.56256  0.77676  1.0000
  S   S57       1.0  0.09797  0.52240  0.68528  1.0000
  Fe  Fe30      1.0  0.11540  0.60617  0.69107  1.0000
  S   S58       1.0  0.11354  0.61638  0.75470  1.0000
  S   S59       1.0  0.11530  0.63586  0.64805  1.0000
  Fe  Fe31      1.0  0.13542  0.58569  0.76645  1.0000
  S   S60       1.0  0.16767  0.58506  0.80323  1.0000
  Fe  Fe32      1.0  0.08412  0.59250  0.75898  1.0000
  S   S61       1.0  0.05006  0.60280  0.78466  1.0000
  S   S62       1.0  0.13942  0.57692  0.70207  1.0000
  S   S63       1.0  0.08470  0.58432  0.69519  1.0000
  H   H359      1.0  0.04723  0.47554  0.66265  1.0000
  H   H360      1.0  0.01167  0.55076  0.69527  1.0000
  H   H361      1.0  0.06639  0.43791  0.65090  1.0000
  H   H362      1.0  0.19921  0.65026  0.94828  1.0000
  C   C200      1.0  0.16828  0.59302  0.85323  1.0000
  C   C201      1.0  0.14886  0.60077  0.87290  1.0000
  C   C202      1.0  0.15013  0.60704  0.91273  1.0000
  C   C203      1.0  0.17074  0.60547  0.93323  1.0000
  C   C204      1.0  0.19011  0.59758  0.91358  1.0000
  C   C205      1.0  0.18888  0.59139  0.87377  1.0000
  H   H363      1.0  0.13291  0.60212  0.85736  1.0000
  H   H364      1.0  0.13507  0.61320  0.92770  1.0000
  H   H365      1.0  0.20602  0.59627  0.92905  1.0000
  H   H366      1.0  0.20391  0.58520  0.85883  1.0000
  C   C206      1.0  0.12152  0.63505  0.59729  1.0000
  C   C207      1.0  0.13796  0.61729  0.53928  1.0000
  C   C208      1.0  0.13220  0.61643  0.57949  1.0000
  H   H367      1.0  0.14654  0.60299  0.52582  1.0000
  H   H368      1.0  0.13642  0.60159  0.59684  1.0000
  C   C209      1.0  0.02882  0.57417  0.73317  1.0000
  C   C210      1.0  0.02666  0.59309  0.75755  1.0000
  C   C211      1.0  0.14659  0.52548  0.84624  1.0000
  H   H369      1.0  0.04500  0.56567  0.73028  1.0000
  H   H370      1.0  0.17814  0.51637  0.87329  1.0000
  C   C212      1.0  0.14570  0.34520  0.87064  1.0000
  C   C213      1.0  0.17092  0.34390  0.92758  1.0000
  C   C214      1.0  0.17855  0.42218  0.89601  1.0000
  C   C215      1.0  0.15906  0.36204  0.94461  1.0000
  C   C216      1.0  0.14053  0.37170  0.92451  1.0000
  C   C217      1.0  0.13394  0.36342  0.88759  1.0000
  H   H371      1.0  0.10613  0.43305  0.85822  1.0000
  C   C218      1.0  0.17788  0.38722  0.79982  1.0000
  H   H372      1.0  0.14812  0.45834  0.82880  1.0000
  H   H373      1.0  0.16587  0.41170  0.91205  1.0000
  S   S64       1.0  0.13785  0.33425  0.82443  1.0000
  C   C219      1.0  0.13082  0.45466  0.72042  1.0000
  C   C220      1.0  0.14000  0.47503  0.73427  1.0000
  C   C221      1.0  0.12973  0.49601  0.72480  1.0000
  C   C222      1.0  0.11058  0.49664  0.70061  1.0000
  C   C223      1.0  0.10137  0.47627  0.68717  1.0000
  C   C224      1.0  0.11120  0.45534  0.69753  1.0000
  H   H374      1.0  0.15524  0.47460  0.75183  1.0000
  H   H375      1.0  0.13701  0.51167  0.73509  1.0000
  H   H376      1.0  0.08691  0.47672  0.66782  1.0000
  H   H377      1.0  0.10424  0.43978  0.68630  1.0000
  H   H378      1.0  0.14234  0.45137  0.87982  1.0000
  C   C225      1.0  0.01736  0.38140  0.76660  1.0000
  H   H379      1.0  0.02718  0.65528  0.66578  1.0000
  C   C226      1.0  0.19017  0.43538  0.82826  1.0000
  H   H380      1.0  0.18232  0.43812  0.79880  1.0000
  C   C227      1.0  0.19297  0.52221  0.94901  1.0000
  H   H381      1.0  0.00606  0.62033  0.66926  1.0000
  H   H382      1.0  0.00430  0.57396  0.86268  1.0000
  H   H383      1.0  0.14941  0.51352  0.82149  1.0000
  H   H384      1.0  0.20759  0.45722  0.87068  1.0000
  H   H385      1.0  0.18517  0.33631  0.94284  1.0000
  H   H386      1.0  0.03162  0.60160  0.88673  1.0000
  C   C228      1.0  0.20708  0.54144  0.93021  1.0000
  H   H387      1.0  0.00994  0.34284  0.70254  1.0000
  C   C229      1.0  0.16003  0.51758  0.88213  1.0000
  C   C230      1.0  0.27810  0.62259  0.89673  1.0000
  C   C231      1.0  0.19508  0.45897  0.84654  1.0000
  H   H388      1.0  0.19407  0.66029  0.63632  1.0000
  N   N12       1.0  0.25894  0.63840  0.88482  1.0000
  H   H389      1.0  0.28869  0.61789  0.87086  1.0000
  H   H390      1.0  0.30278  0.59519  0.94847  1.0000
  H   H391      1.0  0.24170  0.54851  0.91262  1.0000
  H   H392      1.0  0.09337  0.56200  0.58192  1.0000
  H   H393      1.0  0.13115  0.38560  0.93769  1.0000
  H   H394      1.0  0.18633  0.35176  0.81158  1.0000
  H   H395      1.0  0.23362  0.51931  0.90634  1.0000
  C   C232      1.0  0.00173  0.61408  0.63954  1.0000
  C   C233      1.0  0.07148  0.59137  0.59063  1.0000
  H   H396      1.0  0.20110  0.51827  0.97752  1.0000
  C   C234      1.0  0.04834  0.44103  0.64307  1.0000
  C   C235      1.0  0.07531  0.56571  0.58913  1.0000
  H   H397      1.0  0.20065  0.54599  0.90066  1.0000
  H   H398      1.0  0.00942  0.62015  0.57870  1.0000
  H   H399      1.0  0.02015  0.46208  0.65934  1.0000
  C   C236      1.0  0.00547  0.60401  0.76099  1.0000
  H   H400      1.0  0.20671  0.55668  0.94902  1.0000
  H   H401      1.0  0.23943  0.53029  0.95494  1.0000
  H   H402      1.0  0.05537  0.53993  0.79565  1.0000
  C   C237      1.0  0.03935  0.45306  0.71291  1.0000
  C   C238      1.0  0.05218  0.45455  0.80213  1.0000
  H   H403      1.0  0.17466  0.43978  0.90525  1.0000
  H   H404      1.0  0.04896  0.65554  0.58732  1.0000
  C   C239      1.0  0.18281  0.39519  0.84234  1.0000
  H   H405      1.0  0.20713  0.42774  0.82167  1.0000
  H   H406      1.0  0.01912  0.37980  0.63396  1.0000
  H   H407      1.0  0.07878  0.64031  0.50986  1.0000
  H   H408      1.0  0.10755  0.46283  0.84606  1.0000
  H   H409      1.0  0.20900  0.49163  0.83013  1.0000
  H   H410      1.0  0.07519  0.51668  0.78896  1.0000
  C   C240      1.0  0.04628  0.49041  0.74157  1.0000
  H   H411      1.0  0.08325  0.59833  0.61268  1.0000
  H   H412      1.0  0.03033  0.43670  0.71648  1.0000
  C   C241      1.0  0.13294  0.63666  0.51665  1.0000
  H   H413      1.0  0.04757  0.44623  0.61173  1.0000
  H   H414      1.0  0.00381  0.61893  0.77924  1.0000
  C   C242      1.0  0.06031  0.52566  0.77606  1.0000
  H   H415      1.0  0.15952  0.38364  0.79655  1.0000
  N   N13       1.0  0.17582  0.41926  0.85223  1.0000
  H   H416      1.0  0.25310  0.64061  0.94774  1.0000
  H   H417      1.0  0.21195  0.64103  0.85517  1.0000
  N   N14       1.0  0.16800  0.52707  0.95497  1.0000
  H   H418      1.0  0.02019  0.44304  0.77989  1.0000
  C   C243      1.0  0.04580  0.63437  0.53681  1.0000
  H   H419      1.0  0.22224  0.41879  0.96548  1.0000
  H   H420      1.0  0.03636  0.50282  0.80094  1.0000
  H   H421      1.0  0.04656  0.49879  0.71228  1.0000
  H   H422      1.0  0.06415  0.48463  0.74610  1.0000
  C   C244      1.0  0.05281  0.63751  0.58037  1.0000
  H   H423      1.0  0.16303  0.49081  0.95173  1.0000
  H   H424      1.0  0.04398  0.61424  0.67166  1.0000
  C   C245      1.0  0.99844  0.34632  0.78356  1.0000
  H   H425      1.0  0.20343  0.39651  0.91480  1.0000
  C   C246      1.0  0.23196  0.53434  0.92576  1.0000
  H   H426      1.0  0.17975  0.46717  0.85899  1.0000
  H   H427      1.0  0.07149  0.55785  0.61808  1.0000
  C   C247      1.0  0.19074  0.36529  0.79019  1.0000
  C   C248      1.0  0.20501  0.47518  0.81607  1.0000
  H   H428      1.0  0.06903  0.62474  0.65047  1.0000
  H   H429      1.0  0.12813  0.52619  0.85288  1.0000
  H   H430      1.0  0.20134  0.39270  0.84714  1.0000
  C   C249      1.0  0.05034  0.62688  0.64998  1.0000
  H   H431      1.0  0.06528  0.53275  0.74713  1.0000
  H   H432      1.0  0.03417  0.35249  0.79247  1.0000
  C   C250      1.0  0.05341  0.65274  0.70898  1.0000
  H   H433      1.0  0.06157  0.47040  0.80798  1.0000
  H   H434      1.0  0.12846  0.35038  0.60473  1.0000
  H   H435      1.0  0.06510  0.43900  0.85556  1.0000
  H   H436      1.0  0.28656  0.56978  0.94204  1.0000
  C   C251      1.0  0.14034  0.44580  0.84899  1.0000
  H   H437      1.0  0.16667  0.64864  0.64764  1.0000
  H   H438      1.0  0.06446  0.55795  0.56630  1.0000
  H   H439      1.0  0.03846  0.45384  0.86174  1.0000
  H   H440      1.0  0.23942  0.61104  0.86023  1.0000
  C   C252      1.0  0.03572  0.34981  0.65885  1.0000
  H   H441      1.0  0.22089  0.46799  0.80328  1.0000
  H   H442      1.0  0.05745  0.44893  0.71934  1.0000
  N   N15       1.0  0.04136  0.62200  0.60945  1.0000
  C   C253      1.0  0.04632  0.59737  0.60031  1.0000
  H   H443      1.0  0.07160  0.63599  0.58285  1.0000
  H   H444      1.0  0.23095  0.62747  0.92154  1.0000
  H   H445      1.0  0.26134  0.60286  0.94339  1.0000
  C   C254      1.0  0.24330  0.64159  0.91984  1.0000
  H   H446      1.0  0.07176  0.64841  0.71139  1.0000
  H   H447      1.0  0.20551  0.44359  0.95342  1.0000
  H   H448      1.0  0.04116  0.58647  0.62553  1.0000
  H   H449      1.0  0.03586  0.59141  0.57529  1.0000
  H   H450      1.0  0.25859  0.62339  0.82682  1.0000
  C   C255      1.0  0.15710  0.50552  0.96958  1.0000
  H   H451      1.0  0.17310  0.56185  0.97323  1.0000
  H   H452      1.0  0.04179  0.34397  0.62976  1.0000
  C   C256      1.0  0.03800  0.45966  0.66881  1.0000
  H   H453      1.0  0.07643  0.59839  0.56161  1.0000
  H   H454      1.0  0.20934  0.36809  0.79074  1.0000
  H   H455      1.0  0.14817  0.41861  0.81059  1.0000
  H   H456      1.0  0.04640  0.61635  0.52775  1.0000
  H   H457      1.0  0.17443  0.38301  0.86256  1.0000
  H   H458      1.0  0.18274  0.40025  0.77788  1.0000
  C   C257      1.0  0.11497  0.44583  0.83987  1.0000
  C   C258      1.0  0.00988  0.56572  0.71341  1.0000
  H   H459      1.0  0.16278  0.55128  0.90770  1.0000
  H   H460      1.0  0.06308  0.44338  0.78372  1.0000
  C   C259      1.0  0.29202  0.58572  0.92750  1.0000
  C   C260      1.0  0.03232  0.37546  0.65601  1.0000
  C   C261      1.0  0.16412  0.33540  0.89086  1.0000
  C   C262      1.0  0.02915  0.45955  0.78172  1.0000
  C   C263      1.0  0.32036  0.65226  0.98021  1.0000
  C   C264      1.0  0.15102  0.42205  0.84215  1.0000
  H   H461      1.0  0.15220  0.54254  0.83674  1.0000
  H   H462      1.0  0.27953  0.65362  0.81226  1.0000
  C   C265      1.0  0.04046  0.50950  0.77140  1.0000
  H   H463      1.0  0.19564  0.50666  0.93104  1.0000
  H   H464      1.0  0.01852  0.46990  0.80210  1.0000
  H   H465      1.0  0.13344  0.56390  0.97114  1.0000
  H   H466      1.0  0.99944  0.34561  0.65438  1.0000
  H   H467      1.0  0.14079  0.40928  0.85844  1.0000
  H   H468      1.0  0.28963  0.63131  0.91765  1.0000
  C   C266      1.0  0.15685  0.53421  0.91705  1.0000
  H   H469      1.0  0.11215  0.44197  0.80831  1.0000
  H   H470      1.0  0.03946  0.42651  0.83769  1.0000
  H   H471      1.0  0.11955  0.37087  0.87253  1.0000
  N   N16       1.0  0.03043  0.47048  0.74163  1.0000
  H   H472      1.0  0.19261  0.47839  0.79211  1.0000
  H   H473      1.0  0.15404  0.50038  0.88989  1.0000
  H   H474      1.0  0.13823  0.53640  0.92151  1.0000
  C   C267      1.0  0.20561  0.42476  0.95391  1.0000
  H   H475      1.0  0.04848  0.38340  0.64675  1.0000
  H   H476      1.0  0.26079  0.58940  0.89615  1.0000
  H   H477      1.0  0.02727  0.38257  0.68488  1.0000
  C   C268      1.0  0.04552  0.65096  0.66640  1.0000
  C   C269      1.0  0.06135  0.64760  0.50921  1.0000
  C   C270      1.0  0.04850  0.44279  0.84168  1.0000
  C   C271      1.0  0.20212  0.41531  0.91268  1.0000
  C   C272      1.0  0.00703  0.47872  0.73041  1.0000
  C   C273      1.0  0.01607  0.62603  0.60745  1.0000
  H   H478      1.0  0.02566  0.51956  0.76079  1.0000
  C   C274      1.0  0.24658  0.62759  0.85105  1.0000
  C   C275      1.0  0.27115  0.59983  0.91618  1.0000
  H   H479      1.0  0.30206  0.64963  0.84761  1.0000
  H   H480      1.0  0.21610  0.42130  0.89352  1.0000
  C   C276      1.0  0.22624  0.64102  0.83382  1.0000
  H   H481      1.0  0.04357  0.64109  0.72804  1.0000
  H   H482      1.0  0.18596  0.35945  0.76039  1.0000
  H   H483      1.0  0.14391  0.34357  0.53768  1.0000
  H   H484      1.0  0.01206  0.64451  0.60834  1.0000
  C   C277      1.0  0.12183  0.65502  0.53440  1.0000
  H   H485      1.0  0.19208  0.41869  0.97409  1.0000
  H   H486      1.0  0.23072  0.63042  0.77285  1.0000
  H   H487      1.0  0.21283  0.61200  0.80184  1.0000
  H   H488      1.0  0.04937  0.34649  0.68052  1.0000
  H   H489      1.0  0.30222  0.58129  0.90107  1.0000
  C   C278      1.0  0.01492  0.59998  0.90172  1.0000
  C   C279      1.0  0.11616  0.65420  0.57446  1.0000
  H   H490      1.0  0.03875  0.42505  0.64669  1.0000
  C   C280      1.0  0.12119  0.33742  0.58633  1.0000
  H   H491      1.0  0.00038  0.49076  0.75285  1.0000
  H   H492      1.0  0.00455  0.59545  0.63887  1.0000
  C   C281      1.0  0.99760  0.59057  0.87286  1.0000
  H   H493      1.0  0.20222  0.63911  0.78571  1.0000
  C   C282      1.0  0.12991  0.33352  0.54834  1.0000
  H   H494      1.0  0.02822  0.64083  0.53233  1.0000
  C   C283      1.0  0.99664  0.39034  0.75326  1.0000
  H   H495      1.0  0.01701  0.58843  0.92729  1.0000
  C   C284      1.0  0.01353  0.33785  0.67164  1.0000
  H   H496      1.0  0.00762  0.48876  0.70269  1.0000
  H   H497      1.0  0.13840  0.50599  0.96517  1.0000
  H   H498      1.0  0.00956  0.61705  0.91215  1.0000
  C   C285      1.0  0.28710  0.66022  0.83968  1.0000
  H   H499      1.0  0.99682  0.60250  0.84775  1.0000
  H   H500      1.0  0.23078  0.65869  0.82637  1.0000
  C   C286      1.0  0.26937  0.66078  0.87341  1.0000
  S   S65       1.0  0.17158  0.61354  0.98322  1.0000
  H   H501      1.0  0.99909  0.32940  0.79585  1.0000
  Fe  Fe33      1.0  0.40089  0.89541  0.19298  1.0000
  S   S66       1.0  0.39987  0.89799  0.25852  1.0000
  S   S67       1.0  0.40886  0.92530  0.15369  1.0000
  Fe  Fe34      1.0  0.39827  0.84403  0.19372  1.0000
  S   S68       1.0  0.39756  0.84227  0.26021  1.0000
  S   S69       1.0  0.39810  0.81182  0.15661  1.0000
  Fe  Fe35      1.0  0.37288  0.87146  0.25688  1.0000
  S   S70       1.0  0.34130  0.87673  0.29517  1.0000
  Fe  Fe36      1.0  0.42471  0.86888  0.25762  1.0000
  S   S71       1.0  0.45242  0.87283  0.30285  1.0000
  S   S72       1.0  0.37148  0.87141  0.19034  1.0000
  S   S73       1.0  0.42770  0.86804  0.19208  1.0000
  Fe  Fe37      1.0  0.14602  0.71918  0.41540  1.0000
  S   S74       1.0  0.16036  0.68555  0.39443  1.0000
  S   S75       1.0  0.17509  0.74152  0.44076  1.0000
  Fe  Fe38      1.0  0.09589  0.70237  0.40291  1.0000
  H   H502      1.0  0.32106  0.75654  0.07829  1.0000
  S   S76       1.0  0.05733  0.70185  0.41822  1.0000
  H   H503      1.0  0.32878  0.73691  0.21080  1.0000
  Fe  Fe39      1.0  0.13483  0.68674  0.34579  1.0000
  H   H504      1.0  0.39198  0.77274  0.46717  1.0000
  S   S77       1.0  0.12003  0.70247  0.45477  1.0000
  S   S78       1.0  0.12111  0.72141  0.36409  1.0000
  H   H505      1.0  0.42124  0.73921  0.03992  1.0000
  H   H506      1.0  0.32902  0.93880  0.18904  1.0000
  H   H507      1.0  0.28432  0.82335  0.45187  1.0000
  C   C287      1.0  0.43617  0.73205  0.02405  1.0000
  H   H508      1.0  0.35884  0.72713  0.11635  1.0000
  C   C288      1.0  0.24709  0.83773  0.40743  1.0000
  H   H509      1.0  0.30975  0.67723  0.06683  1.0000
  H   H510      1.0  0.21208  0.88581  0.40220  1.0000
  H   H511      1.0  0.40604  0.79639  0.44431  1.0000
  C   C289      1.0  0.47177  0.93880  0.23056  1.0000
  H   H512      1.0  0.48297  0.85944  0.36228  1.0000
  H   H513      1.0  0.38014  0.67831  0.01967  1.0000
  C   C290      1.0  0.49147  0.85660  0.33449  1.0000
  H   H514      1.0  0.31783  0.94304  0.45584  1.0000
  H   H515      1.0  0.01165  0.67384  0.27273  1.0000
  H   H516      1.0  0.38036  0.99112  0.25237  1.0000
  C   C291      1.0  0.49126  0.85773  0.26346  1.0000
  C   C292      1.0  0.02266  0.72212  0.37297  1.0000
  C   C293      1.0  0.02842  0.70843  0.40518  1.0000
  H   H517      1.0  0.33115  0.93738  0.32962  1.0000
  H   H518      1.0  0.03597  0.72954  0.35535  1.0000
  S   S79       1.0  0.33289  0.84370  0.47320  1.0000
  C   C294      1.0  0.33964  0.86800  0.34503  1.0000
  C   C295      1.0  0.32112  0.87524  0.36816  1.0000
  C   C296      1.0  0.31888  0.86814  0.40754  1.0000
  C   C297      1.0  0.33521  0.85371  0.42420  1.0000
  C   C298      1.0  0.35384  0.84669  0.40124  1.0000
  C   C299      1.0  0.35610  0.85383  0.36190  1.0000
  H   H519      1.0  0.30850  0.88651  0.35562  1.0000
  H   H520      1.0  0.30454  0.87380  0.42494  1.0000
  H   H521      1.0  0.36663  0.83563  0.41387  1.0000
  H   H522      1.0  0.37049  0.84821  0.34453  1.0000
  C   C300      1.0  0.39291  0.81273  0.10539  1.0000
  C   C301      1.0  0.39361  0.79247  0.08367  1.0000
  C   C302      1.0  0.38905  0.79252  0.04307  1.0000
  C   C303      1.0  0.38375  0.81288  0.02381  1.0000
  C   C304      1.0  0.38333  0.83314  0.04542  1.0000
  C   C305      1.0  0.38794  0.83310  0.08600  1.0000
  H   H523      1.0  0.39751  0.77666  0.09846  1.0000
  H   H524      1.0  0.38929  0.77680  0.02686  1.0000
  H   H525      1.0  0.37926  0.84897  0.03082  1.0000
  H   H526      1.0  0.38741  0.84881  0.10236  1.0000
  H   H527      1.0  0.34221  0.71075  0.19564  1.0000
  C   C306      1.0  0.99959  0.72648  0.36365  1.0000
  H   H528      1.0  0.44896  0.78001  0.08980  1.0000
  C   C307      1.0  0.20061  0.78688  0.35640  1.0000
  H   H529      1.0  0.49268  0.77035  0.03467  1.0000
  C   C308      1.0  0.39362  0.95085  0.15905  1.0000
  C   C309      1.0  0.37119  0.95259  0.14601  1.0000
  C   C310      1.0  0.40480  0.97036  0.17187  1.0000
  H   H530      1.0  0.36278  0.93777  0.13468  1.0000
  H   H531      1.0  0.42240  0.96924  0.18069  1.0000
  C   C311      1.0  0.17500  0.78732  0.46395  1.0000
  H   H532      1.0  0.44349  0.81904  0.11770  1.0000
  C   C312      1.0  0.46250  0.79279  0.08604  1.0000
  H   H533      1.0  0.32703  0.98722  0.23413  1.0000
  C   C313      1.0  0.18726  0.76694  0.46069  1.0000
  H   H534      1.0  0.23679  0.83034  0.43161  1.0000
  C   C314      1.0  0.45971  0.80479  0.04591  1.0000
  C   C315      1.0  0.32740  0.73079  0.14804  1.0000
  H   H535      1.0  0.21971  0.75102  0.47174  1.0000
  C   C316      1.0  0.37088  0.99302  0.16026  1.0000
  H   H536      1.0  0.46957  0.82078  0.04637  1.0000
  H   H537      1.0  0.32048  0.91290  0.21297  1.0000
  H   H538      1.0  0.31535  0.98849  0.42485  1.0000
  N   N17       1.0  0.46552  0.79107  0.00981  1.0000
  H   H539      1.0  0.01469  0.68897  0.45319  1.0000
  H   H540      1.0  0.44523  0.93048  0.27300  1.0000
  C   C317      1.0  0.27703  0.68596  0.08980  1.0000
  H   H541      1.0  0.23525  0.88042  0.43550  1.0000
  H   H542      1.0  0.46031  0.80058  0.14832  1.0000
  C   C318      1.0  0.26772  0.80167  0.40786  1.0000
  H   H543      1.0  0.26886  0.68920  0.06097  1.0000
  H   H544      1.0  0.40097  0.69983  0.01076  1.0000
  H   H545      1.0  0.40838  0.95922  0.30597  1.0000
  C   C319      1.0  0.33941  0.72883  0.18764  1.0000
  C   C320      1.0  0.28887  0.80958  0.43109  1.0000
  C   C321      1.0  0.05391  0.67751  0.30449  1.0000
  H   H546      1.0  0.00210  0.66506  0.37554  1.0000
  H   H547      1.0  0.21867  0.84911  0.36970  1.0000
  C   C322      1.0  0.38672  0.99022  0.05030  1.0000
  H   H548      1.0  0.05374  0.68099  0.27243  1.0000
  H   H549      1.0  0.29140  0.95574  0.43906  1.0000
  H   H550      1.0  0.34992  0.91722  0.20117  1.0000
  H   H551      1.0  0.20771  0.77401  0.33587  1.0000
  C   C323      1.0  0.39337  0.99137  0.17294  1.0000
  H   H552      1.0  0.40600  0.95765  0.25353  1.0000
  C   C324      1.0  0.33357  0.74612  0.06151  1.0000
  C   C325      1.0  0.32344  0.98999  0.45402  1.0000
  H   H553      1.0  0.37441  0.72957  0.03530  1.0000
  N   N18       1.0  0.33220  0.72157  0.07408  1.0000
  H   H554      1.0  0.31214  0.78369  0.02460  1.0000
  H   H555      1.0  0.33634  0.92219  0.39592  1.0000
  H   H556      1.0  0.36409  0.93467  0.39947  1.0000
  H   H557      1.0  0.46864  0.95735  0.23227  1.0000
  H   H558      1.0  0.48688  0.93823  0.28832  1.0000
  H   H559      1.0  0.35896  0.91212  0.36474  1.0000
  H   H560      1.0  0.27286  0.78650  0.39035  1.0000
  H   H561      1.0  0.18736  0.77862  0.37462  1.0000
  C   C326      1.0  0.42435  0.98626  0.27481  1.0000
  H   H562      1.0  0.30240  0.81582  0.41122  1.0000
  N   N19       1.0  0.36110  0.96702  0.28707  1.0000
  H   H563      1.0  0.43576  0.93359  0.22300  1.0000
  C   C327      1.0  0.36546  0.95243  0.32304  1.0000
  C   C328      1.0  0.32725  0.77647  0.00941  1.0000
  C   C329      1.0  0.35807  0.95261  0.25104  1.0000
  C   C330      1.0  0.33742  0.93670  0.25121  1.0000
  H   H564      1.0  0.37551  0.79507  0.44373  1.0000
  C   C331      1.0  0.40506  0.96927  0.27900  1.0000
  C   C332      1.0  0.34462  0.94494  0.34779  1.0000
  C   C333      1.0  0.35150  0.92746  0.37887  1.0000
  C   C334      1.0  0.33406  0.92579  0.21106  1.0000
  H   H565      1.0  0.47020  0.74059  0.00823  1.0000
  S   S80       1.0  0.14013  0.67358  0.28212  1.0000
  C   C335      1.0  0.37143  0.71165  0.04356  1.0000
  H   H566      1.0  0.34481  0.68846  0.05689  1.0000
  H   H567      1.0  0.37524  0.93687  0.31462  1.0000
  H   H568      1.0  0.37637  0.96159  0.34436  1.0000
  Fe  Fe40      1.0  0.13323  0.66952  0.43123  1.0000
  C   C336      1.0  0.38169  0.98172  0.28056  1.0000
  H   H569      1.0  0.35716  0.96347  0.22447  1.0000
  H   H570      1.0  0.37314  0.94150  0.24618  1.0000
  H   H571      1.0  0.26908  0.69712  0.11230  1.0000
  H   H572      1.0  0.34044  0.92280  0.27247  1.0000
  C   C337      1.0  0.27461  0.82846  0.35403  1.0000
  C   C338      1.0  0.34167  0.71942  0.11503  1.0000
  C   C339      1.0  0.34101  0.98269  0.29363  1.0000
  H   H573      1.0  0.34263  0.78536  0.01967  1.0000
  H   H574      1.0  0.47564  0.93429  0.19966  1.0000
  H   H575      1.0  0.31353  0.74307  0.00672  1.0000
  C   C340      1.0  0.48005  0.86127  0.29939  1.0000
  C   C341      1.0  0.30254  0.95291  0.46488  1.0000
  H   H576      1.0  0.24366  0.86679  0.36779  1.0000
  H   H577      1.0  0.22983  0.81910  0.33770  1.0000
  C   C342      1.0  0.01133  0.67089  0.30499  1.0000
  H   H578      1.0  0.44163  0.81040  0.04511  1.0000
  H   H579      1.0  0.38017  0.70822  0.07182  1.0000
  H   H580      1.0  0.32464  0.74908  0.14191  1.0000
  H   H581      1.0  0.28793  0.81533  0.34803  1.0000
  H   H582      1.0  0.21027  0.86284  0.43701  1.0000
  C   C343      1.0  0.49122  0.93154  0.25861  1.0000
  H   H583      1.0  0.31062  0.72258  0.15115  1.0000
  C   C344      1.0  0.29893  0.79007  0.45527  1.0000
  H   H584      1.0  0.24614  0.79384  0.33990  1.0000
  H   H585      1.0  0.25550  0.79556  0.43040  1.0000
  C   C345      1.0  0.45589  0.74862  0.02463  1.0000
  H   H586      1.0  0.46121  0.75068  0.05549  1.0000
  C   C346      1.0  0.44970  0.92714  0.24182  1.0000
  H   H587      1.0  0.27388  0.66802  0.09811  1.0000
  C   C347      1.0  0.45993  0.80973  0.11976  1.0000
  C   C348      1.0  0.30768  0.71441  0.07255  1.0000
  C   C349      1.0  0.30258  0.69003  0.08739  1.0000
  H   H588      1.0  0.26100  0.84681  0.42254  1.0000
  H   H589      1.0  0.35600  0.73763  0.18669  1.0000
  H   H590      1.0  0.19603  0.68824  0.45806  1.0000
  H   H591      1.0  0.21108  0.80849  0.40326  1.0000
  H   H592      1.0  0.43172  0.82568  0.98954  1.0000
  H   H593      1.0  0.22597  0.78162  0.40011  1.0000
  C   C350      1.0  0.28572  0.84876  0.29079  1.0000
  H   H594      1.0  0.15755  0.78804  0.45424  1.0000
  H   H595      1.0  0.26215  0.82146  0.29466  1.0000
  C   C351      1.0  0.01060  0.69939  0.42797  1.0000
  H   H596      1.0  0.30969  0.68679  0.11696  1.0000
  C   C352      1.0  0.28440  0.67192  0.98399  1.0000
  H   H597      1.0  0.28041  0.85234  0.26012  1.0000
  C   C353      1.0  0.21919  0.79616  0.38296  1.0000
  H   H598      1.0  0.28376  0.84271  0.36816  1.0000
  C   C354      1.0  0.22197  0.87230  0.41737  1.0000
  H   H599      1.0  0.26671  0.67244  0.99254  1.0000
  H   H600      1.0  0.30152  0.83833  0.28997  1.0000
  H   H601      1.0  0.25189  0.84794  0.31398  1.0000
  N   N20       1.0  0.25663  0.81920  0.38153  1.0000
  H   H602      1.0  0.30455  0.77601  0.43579  1.0000
  H   H603      1.0  0.45131  0.90854  0.23729  1.0000
  H   H604      1.0  0.28932  0.86517  0.30521  1.0000
  C   C355      1.0  0.23833  0.80736  0.35854  1.0000
  H   H605      1.0  0.47398  0.82214  0.11931  1.0000
  H   H606      1.0  0.49034  0.91280  0.26159  1.0000
  H   H607      1.0  0.28624  0.78367  0.47669  1.0000
  C   C356      1.0  0.26679  0.83642  0.31264  1.0000
  H   H608      1.0  0.30133  0.71503  0.04186  1.0000
  H   H609      1.0  0.19244  0.80079  0.33936  1.0000
  H   H610      1.0  0.29667  0.72660  0.08892  1.0000
  H   H611      1.0  0.33719  0.95980  0.36341  1.0000
  H   H612      1.0  0.35040  0.75339  0.06896  1.0000
  C   C357      1.0  0.35989  0.97367  0.14641  1.0000
  H   H613      1.0  0.18976  0.66572  0.28950  1.0000
  C   C358      1.0  0.23270  0.85635  0.38706  1.0000
  C   C359      1.0  0.44928  0.77153  0.00495  1.0000
  C   C360      1.0  0.34579  0.70643  0.04712  1.0000
  H   H614      1.0  0.32557  0.97319  0.30181  1.0000
  C   C361      1.0  0.39088  0.79128  0.46154  1.0000
  H   H615      1.0  0.39183  0.97756  0.07294  1.0000
  H   H616      1.0  0.44135  0.71593  0.03854  1.0000
  C   C362      1.0  0.32932  0.75102  0.01730  1.0000
  H   H617      1.0  0.48258  0.86146  0.23623  1.0000
  C   C363      1.0  0.38251  0.69651  0.01238  1.0000
  H   H618      1.0  0.05186  0.69372  0.32072  1.0000
  H   H619      1.0  0.34365  0.74447  0.99930  1.0000
  H   H620      1.0  0.34447  0.99396  0.31899  1.0000
  H   H621      1.0  0.00995  0.68800  0.31863  1.0000
  H   H622      1.0  0.33837  0.70669  0.01727  1.0000
  H   H623      1.0  0.32146  0.94573  0.25890  1.0000
  H   H624      1.0  0.07070  0.67012  0.31232  1.0000
  H   H625      1.0  0.31387  0.79616  0.47184  1.0000
  H   H626      1.0  0.34258  0.97496  0.13609  1.0000
  H   H627      1.0  0.21411  0.66660  0.47896  1.0000
  H   H628      1.0  0.34445  0.70128  0.12301  1.0000
  H   H629      1.0  0.44090  0.97716  0.27428  1.0000
  C   C364      1.0  0.20998  0.76661  0.47382  1.0000
  H   H630      1.0  0.43203  0.77651  0.01537  1.0000
  H   H631      1.0  0.47935  0.78452  0.08913  1.0000
  H   H632      1.0  0.32124  0.86683  0.98738  1.0000
  C   C365      1.0  0.30934  0.97551  0.48311  1.0000
  H   H633      1.0  0.43139  0.72820  0.99328  1.0000
  H   H634      1.0  0.34030  0.98144  0.45085  1.0000
  H   H635      1.0  0.36790  0.99052  0.04870  1.0000
  S   S81       1.0  0.10845  0.66841  0.38169  1.0000
  C   C366      1.0  0.18532  0.80697  0.47947  1.0000
  C   C367      1.0  0.48973  0.78236  0.01011  1.0000
  H   H636      1.0  0.39390  0.98482  0.02157  1.0000
  C   C368      1.0  0.19754  0.67554  0.48209  1.0000
  H   H637      1.0  0.38271  0.99488  0.30394  1.0000
  H   H638      1.0  0.17554  0.82255  0.48150  1.0000
  H   H639      1.0  0.18379  0.66291  0.47927  1.0000
  H   H640      1.0  0.38910  0.77824  0.57834  1.0000
  Fe  Fe41      1.0  0.38065  0.78257  0.93446  1.0000
  S   S82       1.0  0.38950  0.74729  0.95362  1.0000
  Fe  Fe42      1.0  0.37608  0.76963  0.84687  1.0000
  S   S83       1.0  0.38542  0.73295  0.86049  1.0000
  S   S84       1.0  0.37114  0.78784  0.78661  1.0000
  Fe  Fe43      1.0  0.36156  0.73564  0.91310  1.0000
  S   S85       1.0  0.32912  0.71582  0.93155  1.0000
  Fe  Fe44      1.0  0.41294  0.74711  0.90054  1.0000
  S   S86       1.0  0.44965  0.73332  0.91013  1.0000
  S   S87       1.0  0.35148  0.77163  0.89728  1.0000
  S   S88       1.0  0.40497  0.78311  0.88364  1.0000
  Fe  Fe45      1.0  0.25412  0.84628  0.53519  1.0000
  S   S89       1.0  0.28485  0.82425  0.54474  1.0000
  H   H641      1.0  0.31781  0.82974  0.79666  1.0000
  Fe  Fe46      1.0  0.27961  0.89021  0.56147  1.0000
  S   S90       1.0  0.31177  0.86976  0.57258  1.0000
  S   S91       1.0  0.28500  0.92863  0.57477  1.0000
  Fe  Fe47      1.0  0.30407  0.85251  0.51537  1.0000
  Fe  Fe48      1.0  0.29030  0.84319  0.60170  1.0000
  S   S92       1.0  0.29737  0.82254  0.65899  1.0000
  C   C369      1.0  0.29594  0.68404  0.83112  1.0000
  S   S93       1.0  0.25816  0.86425  0.59387  1.0000
  C   C370      1.0  0.27636  0.95760  0.56612  1.0000
  C   C371      1.0  0.25684  0.96351  0.54487  1.0000
  C   C372      1.0  0.28965  0.97535  0.58128  1.0000
  H   H642      1.0  0.24635  0.95026  0.53293  1.0000
  H   H643      1.0  0.30484  0.97115  0.59762  1.0000
  C   C373      1.0  0.34984  0.79775  0.75270  1.0000
  C   C374      1.0  0.32819  0.78822  0.75010  1.0000
  C   C375      1.0  0.31241  0.79620  0.72176  1.0000
  C   C376      1.0  0.31791  0.81374  0.69521  1.0000
  C   C377      1.0  0.33941  0.82349  0.69829  1.0000
  C   C378      1.0  0.35521  0.81549  0.72653  1.0000
  H   H644      1.0  0.32379  0.77424  0.76915  1.0000
  H   H645      1.0  0.29591  0.78840  0.71989  1.0000
  H   H646      1.0  0.34385  0.83737  0.67917  1.0000
  H   H647      1.0  0.37179  0.82313  0.72810  1.0000
  H   H648      1.0  0.29373  0.98465  0.49240  1.0000
  C   C379      1.0  0.47872  0.74264  0.90779  1.0000
  H   H649      1.0  0.28894  0.86075  0.75439  1.0000
  C   C380      1.0  0.16548  0.67753  0.60820  1.0000
  H   H650      1.0  0.27333  0.77843  0.87138  1.0000
  H   H651      1.0  0.13475  0.70399  0.56610  1.0000
  C   C381      1.0  0.31741  0.69086  0.95403  1.0000
  H   H652      1.0  0.29065  0.83644  0.81655  1.0000
  H   H653      1.0  0.28695  0.81875  0.88170  1.0000
  C   C382      1.0  0.22031  0.78628  0.48941  1.0000
  C   C383      1.0  0.23337  0.99211  0.67669  1.0000
  C   C384      1.0  0.38561  0.79558  0.58996  1.0000
  H   H654      1.0  0.23517  0.99075  0.52384  1.0000
  H   H655      1.0  0.30874  0.68328  0.80712  1.0000
  H   H656      1.0  0.32943  0.77600  0.54651  1.0000
  H   H657      1.0  0.36710  0.77977  0.52409  1.0000
  H   H658      1.0  0.10405  0.75244  0.52167  1.0000
  H   H659      1.0  0.47186  0.77614  0.88554  1.0000
  N   N21       1.0  0.31762  0.83450  0.85979  1.0000
  C   C385      1.0  0.31279  0.85357  0.88825  1.0000
  C   C386      1.0  0.30904  0.84046  0.81912  1.0000
  H   H660      1.0  0.49310  0.77228  0.98294  1.0000
  C   C387      1.0  0.34251  0.82833  0.85870  1.0000
  C   C388      1.0  0.35899  0.84728  0.84620  1.0000
  C   C389      1.0  0.32101  0.84971  0.93110  1.0000
  C   C390      1.0  0.48491  0.76436  0.89505  1.0000
  C   C391      1.0  0.31052  0.86561  0.80580  1.0000
  C   C392      1.0  0.30572  0.86801  0.76188  1.0000
  C   C393      1.0  0.38361  0.84026  0.85379  1.0000
  H   H661      1.0  0.24169  0.67835  0.93009  1.0000
  C   C394      1.0  0.25054  0.98661  0.53971  1.0000
  H   H662      1.0  0.29419  0.85720  0.88914  1.0000
  H   H663      1.0  0.32060  0.86963  0.87841  1.0000
  H   H664      1.0  0.28410  0.70594  0.95997  1.0000
  H   H665      1.0  0.23242  0.98701  0.70809  1.0000
  H   H666      1.0  0.21029  0.69959  0.52301  1.0000
  C   C395      1.0  0.33034  0.67130  0.96175  1.0000
  H   H667      1.0  0.34810  0.82146  0.88758  1.0000
  H   H668      1.0  0.34559  0.81426  0.83788  1.0000
  H   H669      1.0  0.35587  0.86320  0.86258  1.0000
  H   H670      1.0  0.35737  0.85048  0.81418  1.0000
  H   H671      1.0  0.44940  0.84441  0.93138  1.0000
  H   H672      1.0  0.31950  0.97155  0.50975  1.0000
  S   S94       1.0  0.27326  0.87383  0.50239  1.0000
  H   H673      1.0  0.23772  0.78560  0.49930  1.0000
  H   H674      1.0  0.29759  0.87591  0.82181  1.0000
  H   H675      1.0  0.32730  0.87308  0.81153  1.0000
  H   H676      1.0  0.30564  0.88621  0.75343  1.0000
  H   H677      1.0  0.18509  0.78192  0.55888  1.0000
  H   H678      1.0  0.38820  0.82502  0.83630  1.0000
  H   H679      1.0  0.39511  0.85421  0.84513  1.0000
  H   H680      1.0  0.38617  0.83651  0.88545  1.0000
  H   H681      1.0  0.31245  0.80718  0.90167  1.0000
  H   H682      1.0  0.22588  0.95758  0.65910  1.0000
  C   C396      1.0  0.29436  0.69096  0.96542  1.0000
  S   S95       1.0  0.22009  0.83250  0.51107  1.0000
  H   H683      1.0  0.31296  0.83465  0.94457  1.0000
  H   H684      1.0  0.41544  0.79612  0.65465  1.0000
  H   H685      1.0  0.29988  0.76773  0.89106  1.0000
  H   H686      1.0  0.16962  0.70962  0.50150  1.0000
  H   H687      1.0  0.15966  0.68566  0.52654  1.0000
  H   H688      1.0  0.30928  0.75658  0.60005  1.0000
  H   H689      1.0  0.21237  0.77086  0.57451  1.0000
  H   H690      1.0  0.25626  0.67338  0.86468  1.0000
  C   C397      1.0  0.43821  0.82949  0.92815  1.0000
  H   H691      1.0  0.49189  0.71069  0.92909  1.0000
  H   H692      1.0  0.32544  0.77953  0.97738  1.0000
  H   H693      1.0  0.29643  0.87284  0.95815  1.0000
  H   H694      1.0  0.34804  0.67074  0.95329  1.0000
  H   H695      1.0  0.33972  0.84742  0.93216  1.0000
  C   C398      1.0  0.36849  0.79858  0.52421  1.0000
  H   H696      1.0  0.17500  0.67492  0.66994  1.0000
  C   C399      1.0  0.19624  0.68728  0.52195  1.0000
  H   H697      1.0  0.31907  0.85917  0.74447  1.0000
  H   H698      1.0  0.40209  0.80454  0.58712  1.0000
  H   H699      1.0  0.36699  0.77958  0.63892  1.0000
  H   H700      1.0  0.19410  0.78541  0.60892  1.0000
  H   H701      1.0  0.11754  0.66986  0.51730  1.0000
  H   H702      1.0  0.19923  0.67414  0.54478  1.0000
  C   C400      1.0  0.30352  0.79356  0.84531  1.0000
  C   C401      1.0  0.20807  0.80674  0.49228  1.0000
  H   H703      1.0  0.29423  0.79816  0.81810  1.0000
  H   H704      1.0  0.39718  0.78101  0.68796  1.0000
  H   H705      1.0  0.25576  0.96390  0.65989  1.0000
  H   H706      1.0  0.19235  0.74439  0.62066  1.0000
  C   C402      1.0  0.39006  0.80443  0.50016  1.0000
  H   H707      1.0  0.29076  0.75919  0.84300  1.0000
  C   C403      1.0  0.30478  0.81394  0.87415  1.0000
  H   H708      1.0  0.20285  0.68011  0.95674  1.0000
  H   H709      1.0  0.14064  0.73327  0.50953  1.0000
  H   H710      1.0  0.40748  0.76712  0.64418  1.0000
  H   H711      1.0  0.42065  0.83571  0.92281  1.0000
  H   H712      1.0  0.10220  0.72300  0.53527  1.0000
  N   N22       1.0  0.36755  0.80756  0.56580  1.0000
  C   C404      1.0  0.34384  0.80365  0.58111  1.0000
  C   C405      1.0  0.37188  0.83276  0.56373  1.0000
  H   H713      1.0  0.34885  0.76639  0.58366  1.0000
  C   C406      1.0  0.38060  0.79222  0.63446  1.0000
  C   C407      1.0  0.33522  0.77893  0.57712  1.0000
  C   C408      1.0  0.36909  0.84639  0.60215  1.0000
  C   C409      1.0  0.37350  0.87160  0.59509  1.0000
  C   C410      1.0  0.31524  0.77418  0.60447  1.0000
  H   H714      1.0  0.33157  0.81480  0.56521  1.0000
  H   H715      1.0  0.34210  0.80887  0.61226  1.0000
  H   H716      1.0  0.38948  0.83607  0.55349  1.0000
  H   H717      1.0  0.36041  0.84075  0.54160  1.0000
  H   H718      1.0  0.32342  0.88561  0.94580  1.0000
  C   C411      1.0  0.29109  0.77358  0.86399  1.0000
  H   H719      1.0  0.37495  0.80804  0.64875  1.0000
  C   C412      1.0  0.40153  0.78358  0.65646  1.0000
  H   H720      1.0  0.35163  0.84494  0.61390  1.0000
  H   H721      1.0  0.38159  0.84066  0.62429  1.0000
  H   H722      1.0  0.39133  0.87426  0.58559  1.0000
  H   H723      1.0  0.36192  0.87853  0.57224  1.0000
  H   H724      1.0  0.37051  0.88117  0.62272  1.0000
  H   H725      1.0  0.32039  0.77606  0.63564  1.0000
  H   H726      1.0  0.30091  0.78600  0.59824  1.0000
  N   N23       1.0  0.17017  0.71319  0.56465  1.0000
  C   C413      1.0  0.17784  0.70023  0.60051  1.0000
  C   C414      1.0  0.18454  0.73409  0.56027  1.0000
  C   C415      1.0  0.14539  0.71938  0.56937  1.0000
  C   C416      1.0  0.17281  0.69905  0.52795  1.0000
  H   H727      1.0  0.35364  0.80493  0.50710  1.0000
  C   C417      1.0  0.13604  0.73745  0.54020  1.0000
  C   C418      1.0  0.18324  0.75129  0.59468  1.0000
  C   C419      1.0  0.19442  0.77368  0.58346  1.0000
  H   H728      1.0  0.32065  0.78750  0.83676  1.0000
  H   H729      1.0  0.17508  0.71060  0.62739  1.0000
  H   H730      1.0  0.19646  0.69696  0.59936  1.0000
  H   H731      1.0  0.20276  0.72944  0.55733  1.0000
  H   H732      1.0  0.18039  0.74310  0.53241  1.0000
  H   H733      1.0  0.14172  0.72553  0.59964  1.0000
  H   H734      1.0  0.06193  0.66579  0.51759  1.0000
  C   C420      1.0  0.17606  0.66466  0.64267  1.0000
  C   C421      1.0  0.23866  0.97082  0.65271  1.0000
  H   H735      1.0  0.14306  0.75443  0.54670  1.0000
  H   H736      1.0  0.16553  0.75515  0.60355  1.0000
  C   C422      1.0  0.43854  0.81500  0.96538  1.0000
  H   H737      1.0  0.28189  0.69551  0.82182  1.0000
  H   H738      1.0  0.44380  0.81932  0.90238  1.0000
  H   H739      1.0  0.23794  0.97477  0.62086  1.0000
  H   H740      1.0  0.10486  0.74452  0.57286  1.0000
  H   H741      1.0  0.14742  0.68088  0.61577  1.0000
  C   C423      1.0  0.11020  0.73940  0.54282  1.0000
  H   H742      1.0  0.46956  0.79781  0.94776  1.0000
  S   S96       1.0  0.37703  0.81368  0.97311  1.0000
  H   H743      1.0  0.30422  0.69120  0.85761  1.0000
  C   C424      1.0  0.31509  0.87006  0.95703  1.0000
  H   H744      1.0  0.40567  0.80038  0.51704  1.0000
  H   H745      1.0  0.05492  0.66387  0.64927  1.0000
  H   H746      1.0  0.44723  0.76732  0.97323  1.0000
  H   H747      1.0  0.42679  0.80069  0.96075  1.0000
  H   H748      1.0  0.05076  0.67032  0.71976  1.0000
  C   C425      1.0  0.21187  0.66353  0.95486  1.0000
  H   H749      1.0  0.39003  0.82274  0.49235  1.0000
  H   H750      1.0  0.16613  0.66618  0.58232  1.0000
  H   H751      1.0  0.29304  0.94272  0.48681  1.0000
  C   C426      1.0  0.46299  0.80649  0.97456  1.0000
  H   H752      1.0  0.10770  0.66858  0.58794  1.0000
  H   H753      1.0  0.22132  0.66898  0.89495  1.0000
  H   H754      1.0  0.27789  0.66824  0.89946  1.0000
  H   H755      1.0  0.47335  0.82200  0.97811  1.0000
  C   C427      1.0  0.22992  0.66439  0.92267  1.0000
  H   H756      1.0  0.37502  0.70002  0.98306  1.0000
  Fe  Fe49      1.0  0.56909  0.08754  0.24382  1.0000
  S   S97       1.0  0.56984  0.08047  0.17925  1.0000
  S   S98       1.0  0.53711  0.10004  0.27373  1.0000
  Fe  Fe50      1.0  0.62045  0.08175  0.25215  1.0000
  S   S99       1.0  0.62501  0.07494  0.18742  1.0000
  S   S100      1.0  0.65227  0.08003  0.28970  1.0000
  Fe  Fe51      1.0  0.59995  0.10346  0.17752  1.0000
  S   S101      1.0  0.60001  0.13498  0.13863  1.0000
  Fe  Fe52      1.0  0.59450  0.05261  0.19499  1.0000
  H   H757      1.0  0.59472  0.03599  0.41510  1.0000
  S   S102      1.0  0.59799  0.11203  0.24180  1.0000
  S   S103      1.0  0.59128  0.05789  0.26008  1.0000
  C   C428      1.0  0.81643  0.29587  0.16927  1.0000
  Fe  Fe53      1.0  0.85619  0.22648  0.40137  1.0000
  S   S104      1.0  0.83367  0.25625  0.38581  1.0000
  S   S105      1.0  0.84378  0.19233  0.42754  1.0000
  Fe  Fe54      1.0  0.90081  0.25243  0.37845  1.0000
  S   S106      1.0  0.88015  0.28326  0.36124  1.0000
  S   S107      1.0  0.93932  0.25891  0.36861  1.0000
  Fe  Fe55      1.0  0.86040  0.27688  0.41663  1.0000
  Fe  Fe56      1.0  0.85540  0.26040  0.33133  1.0000
  S   S108      1.0  0.84411  0.26470  0.26641  1.0000
  S   S109      1.0  0.88185  0.24721  0.43536  1.0000
  S   S110      1.0  0.87703  0.22934  0.34525  1.0000
  C   C429      1.0  0.70322  0.23752  0.06947  1.0000
  C   C430      1.0  0.52846  0.12895  0.06572  1.0000
  C   C431      1.0  0.81784  0.17918  0.44356  1.0000
  C   C432      1.0  0.80734  0.31631  0.18350  1.0000
  C   C433      1.0  0.81880  0.15717  0.45990  1.0000
  C   C434      1.0  0.77793  0.15728  0.47310  1.0000
  H   H758      1.0  0.89231  0.28060  0.23077  1.0000
  C   C435      1.0  0.96848  0.25490  0.38309  1.0000
  C   C436      1.0  0.97492  0.24132  0.41509  1.0000
  H   H759      1.0  0.64645  0.00099  0.26731  1.0000
  H   H760      1.0  0.96207  0.23246  0.43167  1.0000
  H   H761      1.0  0.98115  0.27674  0.33729  1.0000
  H   H762      1.0  0.79542  0.20708  0.42987  1.0000
  H   H763      1.0  0.70815  0.27325  0.05502  1.0000
  H   H764      1.0  0.80784  0.26291  0.46143  1.0000
  N   N24       1.0  0.61988  0.02056  0.37628  1.0000
  C   C437      1.0  0.82986  0.28510  0.23544  1.0000
  C   C438      1.0  0.82744  0.28041  0.19503  1.0000
  H   H765      1.0  0.64666  0.14301  0.44797  1.0000
  H   H766      1.0  0.57297  0.07008  0.34708  1.0000
  C   C439      1.0  0.82091  0.30561  0.24963  1.0000
  H   H767      1.0  0.83395  0.26458  0.18349  1.0000
  H   H768      1.0  0.64853  0.03148  0.26318  1.0000
  C   C440      1.0  0.51317  0.09975  0.13201  1.0000
  C   C441      1.0  0.65232  0.08396  0.34101  1.0000
  C   C442      1.0  0.63303  0.09151  0.36125  1.0000
  C   C443      1.0  0.63387  0.09465  0.40220  1.0000
  C   C444      1.0  0.65400  0.09041  0.42309  1.0000
  C   C445      1.0  0.67329  0.08290  0.40277  1.0000
  C   C446      1.0  0.67243  0.07968  0.36190  1.0000
  H   H769      1.0  0.61752  0.09505  0.34534  1.0000
  H   H770      1.0  0.61890  0.10053  0.41773  1.0000
  H   H771      1.0  0.68885  0.07950  0.41853  1.0000
  H   H772      1.0  0.68743  0.07387  0.34635  1.0000
  C   C447      1.0  0.60557  0.13484  0.08759  1.0000
  C   C448      1.0  0.60309  0.15515  0.06626  1.0000
  C   C449      1.0  0.60724  0.15575  0.02552  1.0000
  C   C450      1.0  0.61400  0.13601  0.00581  1.0000
  C   C451      1.0  0.61650  0.11573  0.02719  1.0000
  C   C452      1.0  0.61226  0.11511  0.06790  1.0000
  H   H773      1.0  0.59780  0.17046  0.08129  1.0000
  H   H774      1.0  0.60509  0.17141  0.00937  1.0000
  H   H775      1.0  0.62170  0.10038  0.01216  1.0000
  H   H776      1.0  0.61421  0.09937  0.08402  1.0000
  C   C453      1.0  0.52606  0.12891  0.17959  1.0000
  H   H777      1.0  0.70423  0.26758  0.10680  1.0000
  H   H778      1.0  0.85379  0.22469  0.16566  1.0000
  H   H779      1.0  0.85427  0.22103  0.21812  1.0000
  H   H780      1.0  0.56323  0.12403  0.04531  1.0000
  C   C454      1.0  0.51263  0.06075  0.26554  1.0000
  C   C455      1.0  0.51199  0.08434  0.26923  1.0000
  C   C456      1.0  0.65576  0.02967  0.47178  1.0000
  H   H781      1.0  0.52879  0.05190  0.26506  1.0000
  C   C457      1.0  0.77698  0.17933  0.45688  1.0000
  H   H782      1.0  0.54524  0.16061  0.17244  1.0000
  H   H783      1.0  0.60084  0.24621  0.04595  1.0000
  H   H784      1.0  0.55094  0.12471  0.11588  1.0000
  S   S111      1.0  0.78046  0.31631  0.03719  1.0000
  C   C458      1.0  0.88318  0.23927  0.19397  1.0000
  H   H785      1.0  0.81478  0.29186  0.13844  1.0000
  H   H786      1.0  0.56885  0.01976  0.37055  1.0000
  C   C459      1.0  0.90346  0.27314  0.25367  1.0000
  H   H787      1.0  0.55374  0.14567  0.23892  1.0000
  C   C460      1.0  0.86496  0.22106  0.19116  1.0000
  H   H788      1.0  0.52259  0.00811  0.21679  1.0000
  S   S112      1.0  0.85289  0.30685  0.45652  1.0000
  H   H789      1.0  0.51462  0.12222  0.20269  1.0000
  H   H790      1.0  0.67520  0.21676  0.99544  1.0000
  H   H791      1.0  0.89277  0.23905  0.16587  1.0000
  H   H792      1.0  0.52442  0.15010  0.25318  1.0000
  H   H793      1.0  0.65385  0.01475  0.39925  1.0000
  H   H794      1.0  0.63840  0.22830  0.99061  1.0000
  H   H795      1.0  0.54190  0.17394  0.24028  1.0000
  C   C461      1.0  0.50030  0.06083  0.15466  1.0000
  S   S113      1.0  0.71410  0.31875  0.00485  1.0000
  H   H796      1.0  0.51517  0.05259  0.14026  1.0000
  C   C462      1.0  0.65788  0.15620  0.46041  1.0000
  H   H797      1.0  0.54366  0.13321  0.00797  1.0000
  C   C463      1.0  0.53819  0.15597  0.23333  1.0000
  H   H798      1.0  0.93412  0.29472  0.25423  1.0000
  H   H799      1.0  0.87431  0.25578  0.19706  1.0000
  H   H800      1.0  0.51587  0.16490  0.18617  1.0000
  C   C464      1.0  0.53416  0.13294  0.10970  1.0000
  H   H801      1.0  0.64670  0.18509  0.99862  1.0000
  H   H802      1.0  0.65877  0.00260  0.33658  1.0000
  H   H803      1.0  0.60163  0.24783  0.99308  1.0000
  C   C465      1.0  0.62688  0.02321  0.33363  1.0000
  H   H804      1.0  0.62387  0.04365  0.45385  1.0000
  H   H805      1.0  0.90831  0.21841  0.22041  1.0000
  N   N25       1.0  0.91630  0.25268  0.23847  1.0000
  C   C466      1.0  0.93352  0.28344  0.47856  1.0000
  C   C467      1.0  0.89947  0.23441  0.22860  1.0000
  C   C468      1.0  0.93087  0.24383  0.27172  1.0000
  C   C469      1.0  0.93135  0.25807  0.20371  1.0000
  C   C470      1.0  0.65212  0.01833  0.32293  1.0000
  H   H806      1.0  0.54221  0.11928  0.18334  1.0000
  C   C471      1.0  0.94452  0.22164  0.26370  1.0000
  H   H807      1.0  0.53697  0.15147  0.11247  1.0000
  H   H808      1.0  0.83499  0.14839  0.46138  1.0000
  H   H809      1.0  0.76160  0.09451  0.41026  1.0000
  C   C472      1.0  0.67445  0.16466  0.42916  1.0000
  C   C473      1.0  0.65530  0.01620  0.27850  1.0000
  H   H810      1.0  0.60681  0.05480  0.38031  1.0000
  C   C474      1.0  0.56390  0.05535  0.35989  1.0000
  H   H811      1.0  0.97347  0.28544  0.44642  1.0000
  H   H812      1.0  0.69791  0.01496  0.42262  1.0000
  H   H813      1.0  0.92023  0.24078  0.29829  1.0000
  H   H814      1.0  0.94355  0.25674  0.28042  1.0000
  H   H815      1.0  0.94846  0.26345  0.21374  1.0000
  H   H816      1.0  0.93451  0.24242  0.18616  1.0000
  C   C475      1.0  0.96202  0.21714  0.29593  1.0000
  H   H817      1.0  0.93627  0.26161  0.12159  1.0000
  H   H818      1.0  0.92300  0.28790  0.30175  1.0000
  H   H819      1.0  0.73073  0.26047  0.08307  1.0000
  H   H820      1.0  0.95369  0.22245  0.23524  1.0000
  H   H821      1.0  0.90126  0.32076  0.24206  1.0000
  H   H822      1.0  0.51372  0.13961  0.05677  1.0000
  S   S114      1.0  0.59129  0.01828  0.16581  1.0000
  H   H823      1.0  0.90517  0.27479  0.16613  1.0000
  H   H824      1.0  0.91573  0.32790  0.28690  1.0000
  H   H825      1.0  0.92409  0.29389  0.18939  1.0000
  H   H826      1.0  0.54835  0.05255  0.34222  1.0000
  H   H827      1.0  0.62456  0.01312  0.45803  1.0000
  H   H828      1.0  0.89158  0.26793  0.27744  1.0000
  H   H829      1.0  0.87281  0.20401  0.18720  1.0000
  C   C476      1.0  0.92299  0.27702  0.17522  1.0000
  C   C477      1.0  0.93776  0.31491  0.43285  1.0000
  C   C478      1.0  0.60067  0.03713  0.38415  1.0000
  H   H830      1.0  0.95352  0.21546  0.32495  1.0000
  C   C479      1.0  0.63403  0.02809  0.44754  1.0000
  C   C480      1.0  0.71202  0.26115  0.07919  1.0000
  N   N26       1.0  0.51664  0.12487  0.13901  1.0000
  H   H831      1.0  0.93304  0.20683  0.26341  1.0000
  N   N27       1.0  0.70534  0.15022  0.38026  1.0000
  C   C481      1.0  0.69114  0.15608  0.34469  1.0000
  C   C482      1.0  0.72219  0.16885  0.38851  1.0000
  C   C483      1.0  0.71853  0.12881  0.37059  1.0000
  C   C484      1.0  0.69094  0.14554  0.41609  1.0000
  C   C485      1.0  0.54842  0.13529  0.03927  1.0000
  C   C486      1.0  0.67360  0.13807  0.33205  1.0000
  C   C487      1.0  0.73718  0.12161  0.40033  1.0000
  C   C488      1.0  0.71454  0.19361  0.37954  1.0000
  C   C489      1.0  0.73109  0.21077  0.39653  1.0000
  H   H832      1.0  0.68421  0.17868  0.44244  1.0000
  C   C490      1.0  0.65897  0.14663  0.29803  1.0000
  C   C491      1.0  0.74838  0.09917  0.38842  1.0000
  H   H833      1.0  0.70245  0.15927  0.31899  1.0000
  H   H834      1.0  0.68152  0.17212  0.34887  1.0000
  H   H835      1.0  0.72796  0.16792  0.41967  1.0000
  H   H836      1.0  0.73787  0.16638  0.37051  1.0000
  H   H837      1.0  0.72693  0.13045  0.34133  1.0000
  H   H838      1.0  0.70691  0.11414  0.36826  1.0000
  H   H839      1.0  0.68107  0.12977  0.41210  1.0000
  H   H840      1.0  0.70180  0.14196  0.44209  1.0000
  H   H841      1.0  0.66409  0.17128  0.40456  1.0000
  C   C492      1.0  0.79664  0.19015  0.44205  1.0000
  H   H842      1.0  0.68229  0.12240  0.32178  1.0000
  H   H843      1.0  0.66199  0.13378  0.35659  1.0000
  H   H844      1.0  0.72990  0.11922  0.42994  1.0000
  H   H845      1.0  0.75076  0.13447  0.40224  1.0000
  H   H846      1.0  0.71403  0.19630  0.34722  1.0000
  H   H847      1.0  0.69750  0.19760  0.39142  1.0000
  H   H848      1.0  0.73053  0.21027  0.42912  1.0000
  H   H849      1.0  0.74869  0.20716  0.38631  1.0000
  H   H850      1.0  0.72623  0.22814  0.38685  1.0000
  C   C493      1.0  0.97100  0.29989  0.46703  1.0000
  H   H851      1.0  0.62374  0.04093  0.32329  1.0000
  H   H852      1.0  0.64602  0.04352  0.39427  1.0000
  H   H853      1.0  0.64680  0.13324  0.28949  1.0000
  H   H854      1.0  0.64911  0.16195  0.30679  1.0000
  H   H855      1.0  0.66970  0.15061  0.27208  1.0000
  H   H856      1.0  0.53046  0.00729  0.26822  1.0000
  H   H857      1.0  0.73564  0.08541  0.38771  1.0000
  H   H858      1.0  0.75656  0.10071  0.35912  1.0000
  N   N28       1.0  0.66592  0.21541  0.05696  1.0000
  C   C494      1.0  0.64069  0.21962  0.05348  1.0000
  C   C495      1.0  0.67103  0.20103  0.09298  1.0000
  C   C496      1.0  0.67719  0.23815  0.06214  1.0000
  C   C497      1.0  0.67573  0.20461  0.02049  1.0000
  C   C498      1.0  0.98572  0.26614  0.36204  1.0000
  C   C499      1.0  0.63282  0.23523  0.01935  1.0000
  C   C500      1.0  0.65271  0.18379  0.10645  1.0000
  C   C501      1.0  0.66175  0.16799  0.13854  1.0000
  C   C502      1.0  0.53105  0.15393  0.19040  1.0000
  C   C503      1.0  0.60696  0.23756  0.01891  1.0000
  H   H859      1.0  0.63413  0.22724  0.08128  1.0000
  H   H860      1.0  0.63143  0.20345  0.04987  1.0000
  H   H861      1.0  0.68734  0.19158  0.08907  1.0000
  H   H862      1.0  0.67361  0.21202  0.11919  1.0000
  H   H863      1.0  0.66898  0.24764  0.08676  1.0000
  H   H864      1.0  0.67502  0.24890  0.03549  1.0000
  C   C504      1.0  0.91186  0.31968  0.42999  1.0000
  H   H865      1.0  0.69404  0.20065  0.02477  1.0000
  H   H866      1.0  0.59886  0.22067  0.01693  1.0000
  H   H867      1.0  0.66601  0.16908  0.02968  1.0000
  H   H868      1.0  0.63951  0.25262  0.02256  1.0000
  C   C505      1.0  0.80965  0.32094  0.22395  1.0000
  H   H869      1.0  0.71234  0.23169  0.04270  1.0000
  H   H870      1.0  0.70786  0.22612  0.09415  1.0000
  H   H871      1.0  0.63773  0.19296  0.11873  1.0000
  H   H872      1.0  0.64668  0.17306  0.08219  1.0000
  H   H873      1.0  0.66736  0.17785  0.16444  1.0000
  H   H874      1.0  0.64808  0.15631  0.14806  1.0000
  H   H875      1.0  0.67615  0.15757  0.12724  1.0000
  H   H876      1.0  0.52917  0.09167  0.12102  1.0000
  H   H877      1.0  0.64706  0.17048  0.47089  1.0000
  H   H878      1.0  0.50044  0.09713  0.10838  1.0000
  H   H879      1.0  0.97448  0.23114  0.29738  1.0000
  H   H880      1.0  0.82241  0.30956  0.28051  1.0000
  H   H881      1.0  0.66764  0.30565  0.99255  1.0000
  H   H882      1.0  0.58293  0.03033  0.32781  1.0000
  H   H883      1.0  0.49849  0.15650  0.12971  1.0000
  C   C506      1.0  0.63935  0.02664  0.40292  1.0000
  N   N29       1.0  0.94603  0.30531  0.47150  1.0000
  C   C507      1.0  0.57897  0.03410  0.35888  1.0000
  H   H884      1.0  0.52445  0.11095  0.05974  1.0000
  H   H885      1.0  0.61618  0.01248  0.31454  1.0000
  C   C508      1.0  0.90523  0.31488  0.27230  1.0000
  H   H886      1.0  0.66283  0.03256  0.33311  1.0000
  H   H887      1.0  0.93164  0.29181  0.11877  1.0000
  H   H888      1.0  0.93596  0.27187  0.45298  1.0000
  C   C509      1.0  0.91820  0.29231  0.27112  1.0000
  C   C510      1.0  0.93760  0.27777  0.13809  1.0000
  H   H889      1.0  0.90252  0.30352  0.42785  1.0000
  H   H890      1.0  0.95565  0.28077  0.14563  1.0000
  H   H891      1.0  0.94251  0.30336  0.40818  1.0000
  H   H892      1.0  0.88898  0.23039  0.25504  1.0000
  H   H893      1.0  0.88912  0.31307  0.28900  1.0000
  H   H894      1.0  0.60041  0.01191  0.24853  1.0000
  C   C511      1.0  0.66473  0.18231  0.00674  1.0000
  H   H895      1.0  0.55875  0.05942  0.39049  1.0000
  H   H896      1.0  0.55335  0.15321  0.04400  1.0000
  C   C512      1.0  0.50615  0.08488  0.16759  1.0000
  C   C513      1.0  0.79910  0.14630  0.47443  1.0000
  H   H897      1.0  0.97140  0.20111  0.28972  1.0000
  H   H898      1.0  0.72408  0.00273  0.40503  1.0000
  H   H899      1.0  0.76090  0.18821  0.45620  1.0000
  H   H900      1.0  0.91232  0.32488  0.36656  1.0000
  H   H901      1.0  0.55189  0.00972  0.23077  1.0000
  H   H902      1.0  0.66655  0.04379  0.46116  1.0000
  H   H903      1.0  0.52049  0.08346  0.18848  1.0000
  C   C514      1.0  0.53540  0.00182  0.23818  1.0000
  H   H904      1.0  0.67364  0.01451  0.27139  1.0000
  H   H905      1.0  0.98341  0.32137  0.41910  1.0000
  C   C515      1.0  0.98601  0.31937  0.45126  1.0000
  S   S115      1.0  0.65428  0.09457  0.47442  1.0000
  H   H906      1.0  0.91497  0.28661  0.48064  1.0000
  H   H907      1.0  0.66556  0.01354  0.47035  1.0000
  H   H908      1.0  0.71718  0.00173  0.45682  1.0000
  C   C516      1.0  0.71009  0.00068  0.42666  1.0000
  C   C517      1.0  0.61122  0.99697  0.38406  1.0000
  H   H909      1.0  0.60364  0.99585  0.41393  1.0000
  H   H910      1.0  0.81531  0.18502  0.60859  1.0000
  Fe  Fe57      1.0  0.68679  0.09276  0.51016  1.0000
  H   H911      1.0  0.86761  0.25045  0.81535  1.0000
  Fe  Fe58      1.0  0.70469  0.10075  0.59369  1.0000
  S   S116      1.0  0.74061  0.09167  0.57407  1.0000
  S   S117      1.0  0.69672  0.10905  0.65917  1.0000
  Fe  Fe59      1.0  0.73416  0.11356  0.52013  1.0000
  H   H912      1.0  0.80096  0.26621  0.84992  1.0000
  Fe  Fe60      1.0  0.72480  0.06217  0.54080  1.0000
  S   S118      1.0  0.74004  0.02570  0.53333  1.0000
  S   S119      1.0  0.69913  0.12371  0.54178  1.0000
  S   S120      1.0  0.68966  0.07016  0.56339  1.0000
  Fe  Fe61      1.0  0.63551  0.21413  0.89985  1.0000
  S   S121      1.0  0.64629  0.17873  0.88237  1.0000
  S   S122      1.0  0.66834  0.23401  0.91509  1.0000
  Fe  Fe62      1.0  0.58447  0.20242  0.88099  1.0000
  S   S123      1.0  0.59364  0.16693  0.86198  1.0000
  S   S124      1.0  0.54784  0.21646  0.87182  1.0000
  Fe  Fe63      1.0  0.61577  0.16699  0.91594  1.0000
  Fe  Fe64      1.0  0.62374  0.18177  0.82993  1.0000
  S   S125      1.0  0.63457  0.17617  0.76504  1.0000
  S   S126      1.0  0.60578  0.20183  0.93655  1.0000
  S   S127      1.0  0.61347  0.21764  0.84579  1.0000
  C   C518      1.0  0.51918  0.20829  0.88333  1.0000
  C   C519      1.0  0.79633  0.28688  0.90107  1.0000
  C   C520      1.0  0.51396  0.19140  0.91088  1.0000
  C   C521      1.0  0.81201  0.32105  0.71555  1.0000
  H   H913      1.0  0.52758  0.18259  0.92593  1.0000
  C   C522      1.0  0.67866  0.12754  0.68771  1.0000
  C   C523      1.0  0.67722  0.12431  0.72874  1.0000
  C   C524      1.0  0.66371  0.13870  0.75278  1.0000
  C   C525      1.0  0.65155  0.15687  0.73627  1.0000
  C   C526      1.0  0.65296  0.16011  0.69527  1.0000
  C   C527      1.0  0.66630  0.14559  0.67119  1.0000
  H   H914      1.0  0.68661  0.11045  0.74204  1.0000
  H   H915      1.0  0.66276  0.13571  0.78407  1.0000
  H   H916      1.0  0.64367  0.17401  0.68192  1.0000
  H   H917      1.0  0.66717  0.14846  0.63984  1.0000
  H   H918      1.0  0.90922  0.24932  0.51637  1.0000
  C   C528      1.0  0.88326  0.29156  0.56058  1.0000
  H   H919      1.0  0.50461  0.23264  0.84316  1.0000
  H   H920      1.0  0.83337  0.25827  0.64867  1.0000
  H   H921      1.0  0.87715  0.27879  0.85192  1.0000
  H   H922      1.0  0.69471  0.16771  0.97840  1.0000
  H   H923      1.0  0.81801  0.25992  0.79197  1.0000
  C   C529      1.0  0.86004  0.29955  0.80578  1.0000
  H   H924      1.0  0.83094  0.29031  0.72400  1.0000
  H   H925      1.0  0.93342  0.23664  0.49169  1.0000
  C   C530      1.0  0.84788  0.19967  0.53926  1.0000
  C   C531      1.0  0.84388  0.22391  0.80626  1.0000
  H   H926      1.0  0.64031  0.25508  0.80342  1.0000
  H   H927      1.0  0.82563  0.22011  0.81083  1.0000
  H   H928      1.0  0.73419  0.18555  0.68718  1.0000
  H   H929      1.0  0.83948  0.24403  0.51422  1.0000
  C   C532      1.0  0.82094  0.30378  0.78232  1.0000
  C   C533      1.0  0.84912  0.24804  0.81957  1.0000
  C   C534      1.0  0.86418  0.30855  0.50449  1.0000
  C   C535      1.0  0.87461  0.28983  0.52229  1.0000
  H   H930      1.0  0.89131  0.27698  0.57415  1.0000
  H   H931      1.0  0.80298  0.19418  0.52180  1.0000
  H   H932      1.0  0.87575  0.27396  0.50672  1.0000
  C   C536      1.0  0.65099  0.24520  0.78253  1.0000
  C   C537      1.0  0.80284  0.24653  0.51822  1.0000
  H   H933      1.0  0.87802  0.21658  0.56203  1.0000
  C   C538      1.0  0.82504  0.23219  0.51629  1.0000
  H   H934      1.0  0.70049  0.00109  0.56637  1.0000
  H   H935      1.0  0.79220  0.21140  0.56026  1.0000
  H   H936      1.0  0.85050  0.18677  0.56270  1.0000
  C   C539      1.0  0.94946  0.29844  0.68597  1.0000
  C   C540      1.0  0.50097  0.21952  0.86444  1.0000
  H   H937      1.0  0.86975  0.30687  0.86674  1.0000
  C   C541      1.0  0.88116  0.31186  0.58181  1.0000
  H   H938      1.0  0.79896  0.25198  0.54868  1.0000
  H   H939      1.0  0.84546  0.31574  0.73766  1.0000
  C   C542      1.0  0.82902  0.30684  0.73910  1.0000
  H   H940      1.0  0.77664  0.16554  0.55862  1.0000
  C   C543      1.0  0.88854  0.19352  0.51699  1.0000
  H   H941      1.0  0.81508  0.22960  0.60361  1.0000
  C   C544      1.0  0.84402  0.24960  0.58903  1.0000
  N   N30       1.0  0.55748  0.16105  0.74509  1.0000
  C   C545      1.0  0.54558  0.15074  0.71033  1.0000
  C   C546      1.0  0.54387  0.15587  0.78164  1.0000
  C   C547      1.0  0.55931  0.18625  0.73836  1.0000
  C   C548      1.0  0.58103  0.15126  0.74996  1.0000
  C   C549      1.0  0.58256  0.12507  0.75389  1.0000
  C   C550      1.0  0.55889  0.15088  0.67088  1.0000
  C   C551      1.0  0.57027  0.19989  0.77211  1.0000
  H   H942      1.0  0.51733  0.16001  0.84806  1.0000
  H   H943      1.0  0.90750  0.29456  0.80763  1.0000
  C   C552      1.0  0.60725  0.11708  0.75646  1.0000
  C   C553      1.0  0.54513  0.13985  0.63823  1.0000
  C   C554      1.0  0.56660  0.22537  0.76649  1.0000
  H   H944      1.0  0.52924  0.15977  0.70477  1.0000
  H   H945      1.0  0.54071  0.13290  0.71670  1.0000
  H   H946      1.0  0.95951  0.30573  0.55272  1.0000
  H   H947      1.0  0.55398  0.15899  0.80861  1.0000
  H   H948      1.0  0.54234  0.19377  0.73169  1.0000
  H   H949      1.0  0.56989  0.18981  0.71202  1.0000
  H   H950      1.0  0.59238  0.15681  0.72561  1.0000
  H   H951      1.0  0.58900  0.15814  0.77690  1.0000
  H   H952      1.0  0.57484  0.11645  0.72840  1.0000
  H   H953      1.0  0.57381  0.11935  0.78101  1.0000
  H   H954      1.0  0.56269  0.16844  0.66139  1.0000
  H   H955      1.0  0.57513  0.14132  0.67322  1.0000
  H   H956      1.0  0.58883  0.19662  0.77277  1.0000
  H   H957      1.0  0.56324  0.19524  0.80109  1.0000
  H   H958      1.0  0.90540  0.20155  0.51387  1.0000
  H   H959      1.0  0.79720  0.30494  0.91016  1.0000
  H   H960      1.0  0.91105  0.30228  0.85840  1.0000
  H   H961      1.0  0.61657  0.12150  0.72911  1.0000
  H   H962      1.0  0.71425  0.25389  0.79005  1.0000
  H   H963      1.0  0.77868  0.28101  0.90582  1.0000
  C   C555      1.0  0.80283  0.28433  0.85777  1.0000
  H   H964      1.0  0.61581  0.12502  0.78194  1.0000
  H   H965      1.0  0.93329  0.30540  0.67421  1.0000
  H   H966      1.0  0.55498  0.14020  0.61036  1.0000
  H   H967      1.0  0.54147  0.12189  0.64561  1.0000
  H   H968      1.0  0.54820  0.22964  0.76741  1.0000
  H   H969      1.0  0.57500  0.23468  0.79066  1.0000
  H   H970      1.0  0.57397  0.23106  0.73811  1.0000
  N   N31       1.0  0.70487  0.20650  0.79515  1.0000
  C   C556      1.0  0.71836  0.22139  0.82230  1.0000
  C   C557      1.0  0.69515  0.18732  0.81910  1.0000
  C   C558      1.0  0.72028  0.19777  0.76301  1.0000
  C   C559      1.0  0.68552  0.21948  0.77646  1.0000
  C   C560      1.0  0.66993  0.23297  0.80496  1.0000
  H   H971      1.0  0.95051  0.28012  0.67868  1.0000
  C   C561      1.0  0.70947  0.18059  0.73424  1.0000
  C   C562      1.0  0.71244  0.16925  0.83413  1.0000
  C   C563      1.0  0.70082  0.15158  0.85998  1.0000
  H   H972      1.0  0.81829  0.32107  0.79474  1.0000
  H   H973      1.0  0.86016  0.24891  0.57254  1.0000
  C   C564      1.0  0.72693  0.17151  0.70483  1.0000
  H   H974      1.0  0.73330  0.21194  0.83396  1.0000
  H   H975      1.0  0.70815  0.22595  0.84884  1.0000
  H   H976      1.0  0.68640  0.19423  0.84550  1.0000
  H   H977      1.0  0.68171  0.17832  0.80248  1.0000
  H   H978      1.0  0.73591  0.18996  0.77569  1.0000
  H   H979      1.0  0.72635  0.21206  0.74452  1.0000
  C   C565      1.0  0.78450  0.17054  0.58684  1.0000
  H   H980      1.0  0.67424  0.20769  0.76033  1.0000
  H   H981      1.0  0.67942  0.24602  0.82136  1.0000
  H   H982      1.0  0.66198  0.22139  0.82652  1.0000
  C   C566      1.0  0.90004  0.30451  0.83224  1.0000
  H   H983      1.0  0.74089  0.23956  0.78156  1.0000
  H   H984      1.0  0.69558  0.18873  0.71718  1.0000
  H   H985      1.0  0.70240  0.16584  0.75001  1.0000
  H   H986      1.0  0.72055  0.16003  0.80937  1.0000
  H   H987      1.0  0.72595  0.17712  0.85192  1.0000
  H   H988      1.0  0.68675  0.14337  0.84390  1.0000
  H   H989      1.0  0.71328  0.13824  0.86865  1.0000
  H   H990      1.0  0.69402  0.15957  0.88711  1.0000
  H   H991      1.0  0.81871  0.16652  0.56674  1.0000
  H   H992      1.0  0.67771  0.18579  0.94700  1.0000
  H   H993      1.0  0.89024  0.17866  0.53691  1.0000
  C   C567      1.0  0.83169  0.22644  0.58876  1.0000
  C   C568      1.0  0.80714  0.20093  0.55135  1.0000
  H   H994      1.0  0.53988  0.13747  0.78295  1.0000
  N   N32       1.0  0.83635  0.28994  0.80883  1.0000
  H   H995      1.0  0.74077  0.16223  0.72026  1.0000
  H   H996      1.0  0.65818  0.25714  0.76061  1.0000
  H   H997      1.0  0.71492  0.24677  0.92804  1.0000
  C   C569      1.0  0.84920  0.25714  0.63096  1.0000
  H   H998      1.0  0.80786  0.27666  0.92003  1.0000
  H   H999      1.0  0.94918  0.30045  0.71838  1.0000
  H   H1000     1.0  0.85705  0.27418  0.63037  1.0000
  H   H1001     1.0  0.84387  0.18992  0.51222  1.0000
  C   C570      1.0  0.87138  0.21069  0.53340  1.0000
  H   H1002     1.0  0.85409  0.21160  0.82374  1.0000
  C   C571      1.0  0.73883  0.25827  0.83544  1.0000
  H   H1003     1.0  0.85913  0.31826  0.80113  1.0000
  H   H1004     1.0  0.77331  0.18313  0.60171  1.0000
  C   C572      1.0  0.80810  0.18030  0.57973  1.0000
  H   H1005     1.0  0.64005  0.23276  0.76732  1.0000
  C   C573      1.0  0.92793  0.24711  0.51716  1.0000
  C   C574      1.0  0.52107  0.16901  0.78623  1.0000
  H   H1006     1.0  0.86894  0.29264  0.77942  1.0000
  H   H1007     1.0  0.78582  0.15520  0.60571  1.0000
  H   H1008     1.0  0.60797  0.09838  0.76026  1.0000
  H   H1009     1.0  0.83329  0.26302  0.57544  1.0000
  C   C575      1.0  0.66753  0.27445  0.95916  1.0000
  H   H1010     1.0  0.87075  0.22508  0.51255  1.0000
  C   C576      1.0  0.67710  0.17288  0.97073  1.0000
  H   H1011     1.0  0.82823  0.31049  0.85916  1.0000
  H   H1012     1.0  0.65140  0.03304  0.50301  1.0000
  S   S128      1.0  0.61952  0.13588  0.95467  1.0000
  S   S129      1.0  0.72097  0.08360  0.48572  1.0000
  H   H1013     1.0  0.51053  0.16776  0.75945  1.0000
  C   C577      1.0  0.70448  0.25960  0.94199  1.0000
  H   H1014     1.0  0.79045  0.29462  0.84071  1.0000
  C   C578      1.0  0.68063  0.25767  0.94053  1.0000
  C   C579      1.0  0.83584  0.26571  0.79483  1.0000
  C   C580      1.0  0.82745  0.29240  0.85027  1.0000
  C   C581      1.0  0.71504  0.27800  0.96130  1.0000
  H   H1015     1.0  0.83838  0.28334  0.87172  1.0000
  H   H1016     1.0  0.52890  0.14920  0.63356  1.0000
  C   C582      1.0  0.72779  0.24354  0.80405  1.0000
  H   H1017     1.0  0.74590  0.27377  0.82167  1.0000
  H   H1018     1.0  0.86129  0.24513  0.64516  1.0000
  H   H1019     1.0  0.93248  0.23792  0.54457  1.0000
  H   H1020     1.0  0.84488  0.24912  0.85122  1.0000
  H   H1021     1.0  0.75282  0.24889  0.85030  1.0000
  H   H1022     1.0  0.71860  0.15948  0.68446  1.0000
  H   H1023     1.0  0.93366  0.27965  0.54253  1.0000
  H   H1024     1.0  0.84110  0.21474  0.60875  1.0000
  H   H1025     1.0  0.69189  0.23140  0.75365  1.0000
  N   N33       1.0  0.82825  0.21529  0.54927  1.0000
  H   H1026     1.0  0.78795  0.27718  0.49338  1.0000
  H   H1027     1.0  0.88314  0.18760  0.48750  1.0000
  H   H1028     1.0  0.84307  0.26442  0.76472  1.0000
  S   S130      1.0  0.89101  0.31233  0.63077  1.0000
  C   C583      1.0  0.87602  0.29653  0.84171  1.0000
  H   H1029     1.0  0.80381  0.29613  0.78067  1.0000
  H   H1030     1.0  0.84827  0.22164  0.77474  1.0000
  H   H1031     1.0  0.72604  0.26361  0.85774  1.0000
  H   H1032     1.0  0.52417  0.18723  0.79220  1.0000
  S   S131      1.0  0.75230  0.14475  0.49188  1.0000
  H   H1033     1.0  0.81792  0.27905  0.50290  1.0000
  H   H1034     1.0  0.80035  0.12941  0.48677  1.0000
  H   H1035     1.0  0.73334  0.27913  0.96194  1.0000
  H   H1036     1.0  0.99270  0.28457  0.68783  1.0000
  H   H1037     1.0  0.79528  0.31258  0.71438  1.0000
  C   C584      1.0  0.73350  0.99612  0.54056  1.0000
  H   H1038     1.0  0.99110  0.30910  0.71759  1.0000
  H   H1039     1.0  0.96898  0.30807  0.63584  1.0000
  C   C585      1.0  0.93964  0.27013  0.51635  1.0000
  H   H1040     1.0  0.78839  0.23627  0.50753  1.0000
  C   C586      1.0  0.95704  0.32273  0.53955  1.0000
  C   C587      1.0  0.80430  0.26768  0.49237  1.0000
  H   H1041     1.0  0.66804  0.15773  0.95973  1.0000
  C   C588      1.0  0.96939  0.31116  0.66785  1.0000
  H   H1042     1.0  0.89994  0.32278  0.82418  1.0000
  H   H1043     1.0  0.81840  0.32330  0.68506  1.0000
  C   C589      1.0  0.50723  0.15969  0.82059  1.0000
  H   H1044     1.0  0.64922  0.27350  0.95823  1.0000
  C   C590      1.0  0.99216  0.30343  0.68647  1.0000
  H   H1045     1.0  0.95811  0.26679  0.51871  1.0000
  H   H1046     1.0  0.50194  0.14201  0.81467  1.0000
  H   H1047     1.0  0.92327  0.32000  0.51485  1.0000
  H   H1048     1.0  0.99205  0.27674  0.62110  1.0000
  C   C591      1.0  0.67808  0.29279  0.97856  1.0000
  C   C592      1.0  0.70192  0.29491  0.97967  1.0000
  C   C593      1.0  0.94091  0.32235  0.50359  1.0000
  H   H1049     1.0  0.97840  0.29385  0.49499  1.0000
  H   H1050     1.0  0.66715  0.14896  0.48593  1.0000
  H   H1051     1.0  0.82505  0.22331  0.48743  1.0000
  Fe  Fe65      1.0  0.80900  0.58604  0.01222  1.0000
  Fe  Fe66      1.0  0.79846  0.34238  0.99973  1.0000
  Fe  Fe67      1.0  0.79598  0.60233  0.09618  1.0000
  S   S132      1.0  0.75880  0.59561  0.08372  1.0000
  S   S133      1.0  0.80551  0.61312  0.16002  1.0000
  Fe  Fe68      1.0  0.77041  0.56246  0.05511  1.0000
  S   S134      1.0  0.75429  0.52713  0.06637  1.0000
  Fe  Fe69      1.0  0.76422  0.61281  0.02479  1.0000
  H   H1052     1.0  0.83245  0.42760  0.98897  1.0000
  S   S135      1.0  0.80680  0.56838  0.07093  1.0000
  S   S136      1.0  0.80115  0.62050  0.03821  1.0000
  H   H1053     1.0  0.80470  0.55039  0.48210  1.0000
  H   H1054     1.0  0.74216  0.44426  0.07483  1.0000
  Fe  Fe70      1.0  0.77167  0.38328  0.03231  1.0000
  S   S137      1.0  0.80421  0.36590  0.05032  1.0000
  S   S138      1.0  0.77669  0.42224  0.02357  1.0000
  C   C594      1.0  0.97068  0.64844  0.38379  1.0000
  H   H1055     1.0  0.98171  0.33574  0.46560  1.0000
  H   H1056     1.0  0.76708  0.38261  0.15173  1.0000
  S   S139      1.0  0.90605  0.63949  0.46435  1.0000
  S   S140      1.0  0.75105  0.36003  0.07151  1.0000
  C   C595      1.0  0.81501  0.45284  0.10833  1.0000
  H   H1057     1.0  0.99340  0.63958  0.26064  1.0000
  H   H1058     1.0  0.82624  0.45016  0.04755  1.0000
  C   C596      1.0  0.76087  0.49810  0.05368  1.0000
  C   C597      1.0  0.77815  0.49204  0.02717  1.0000
  C   C598      1.0  0.78232  0.46894  0.01777  1.0000
  C   C599      1.0  0.76959  0.45132  0.03496  1.0000
  C   C600      1.0  0.75231  0.45736  0.06144  1.0000
  C   C601      1.0  0.74800  0.48048  0.07055  1.0000
  H   H1059     1.0  0.78823  0.50521  0.01376  1.0000
  H   H1060     1.0  0.84166  0.64686  0.14550  1.0000
  Fe  Fe71      1.0  0.78381  0.34151  0.08676  1.0000
  H   H1061     1.0  0.72783  0.39510  0.16114  1.0000
  C   C602      1.0  0.82374  0.62946  0.19144  1.0000
  C   C603      1.0  0.82181  0.62713  0.23262  1.0000
  C   C604      1.0  0.82982  0.46050  0.07396  1.0000
  H   H1062     1.0  0.80957  0.61538  0.24446  1.0000
  H   H1063     1.0  0.73450  0.48478  0.09088  1.0000
  C   C605      1.0  0.81342  0.39343  0.15750  1.0000
  C   C606      1.0  0.97533  0.63967  0.42528  1.0000
  H   H1064     1.0  0.79572  0.46473  0.99732  1.0000
  Fe  Fe72      1.0  0.74865  0.33558  0.01988  1.0000
  H   H1065     1.0  0.82167  0.43793  0.19220  1.0000
  H   H1066     1.0  0.84217  0.40409  0.19465  1.0000
  H   H1067     1.0  0.76940  0.44261  0.19568  1.0000
  H   H1068     1.0  0.80188  0.41903  0.21305  1.0000
  C   C607      1.0  0.99305  0.65127  0.36003  1.0000
  H   H1069     1.0  0.80257  0.33652  0.23562  1.0000
  H   H1070     1.0  0.77798  0.47777  0.23041  1.0000
  H   H1071     1.0  0.80288  0.38500  0.18036  1.0000
  H   H1072     1.0  0.84467  0.39453  0.02751  1.0000
  H   H1073     1.0  0.78226  0.40654  0.10285  1.0000
  H   H1074     1.0  0.80801  0.47312  0.22416  1.0000
  H   H1075     1.0  0.88740  0.33578  0.39128  1.0000
  H   H1076     1.0  0.91384  0.35071  0.39516  1.0000
  C   C608      1.0  0.80461  0.43048  0.18739  1.0000
  H   H1077     1.0  0.76588  0.40417  0.18864  1.0000
  H   H1078     1.0  0.79713  0.45562  0.09980  1.0000
  S   S141      1.0  0.79307  0.33670  0.15255  1.0000
  H   H1079     1.0  0.95875  0.63668  0.36959  1.0000
  H   H1080     1.0  0.84070  0.35473  0.16533  1.0000
  N   N34       1.0  0.80456  0.41715  0.14947  1.0000
  C   C609      1.0  0.84381  0.36793  0.18789  1.0000
  H   H1081     1.0  0.81184  0.38267  0.13081  1.0000
  C   C610      1.0  0.81994  0.42778  0.11914  1.0000
  H   H1082     1.0  0.73717  0.40381  0.11298  1.0000
  C   C611      1.0  0.78659  0.44979  0.19170  1.0000
  H   H1083     1.0  0.81973  0.41753  0.09159  1.0000
  H   H1084     1.0  0.69638  0.63051  0.99488  1.0000
  H   H1085     1.0  0.95782  0.58837  0.27265  1.0000
  H   H1086     1.0  0.83780  0.42777  0.12932  1.0000
  H   H1087     1.0  0.85021  0.39422  0.14636  1.0000
  C   C612      1.0  0.76404  0.40102  0.15673  1.0000
  H   H1088     1.0  0.84810  0.45893  0.08145  1.0000
  C   C613      1.0  0.97241  0.59987  0.26792  1.0000
  C   C614      1.0  0.83845  0.39150  0.17146  1.0000
  H   H1089     1.0  0.86192  0.36688  0.19669  1.0000
  C   C615      1.0  0.83564  0.63964  0.25867  1.0000
  H   H1090     1.0  0.82595  0.47854  0.06693  1.0000
  C   C616      1.0  0.85163  0.65500  0.24407  1.0000
  C   C617      1.0  0.84936  0.39566  0.99597  1.0000
  H   H1091     1.0  0.78584  0.46107  0.16576  1.0000
  H   H1092     1.0  0.81899  0.46398  0.13358  1.0000
  H   H1093     1.0  0.83317  0.36442  0.21413  1.0000
  H   H1094     1.0  0.73518  0.42431  0.15229  1.0000
  C   C618      1.0  0.79142  0.46452  0.22751  1.0000
  H   H1095     1.0  0.98311  0.62246  0.42426  1.0000
  C   C619      1.0  0.83982  0.64473  0.17689  1.0000
  H   H1096     1.0  0.79156  0.45409  0.25472  1.0000
  C   C620      1.0  0.73957  0.40644  0.14500  1.0000
  S   S142      1.0  0.74508  0.64296  0.99398  1.0000
  C   C621      1.0  0.78118  0.41496  0.13205  1.0000
  H   H1097     1.0  0.77353  0.43180  0.12571  1.0000
  H   H1098     1.0  0.95447  0.66196  0.31844  1.0000
  C   C622      1.0  0.97121  0.61933  0.29746  1.0000
  H   H1099     1.0  0.97151  0.60651  0.23739  1.0000
  H   H1100     1.0  0.95478  0.62823  0.29286  1.0000
  C   C623      1.0  0.99160  0.63540  0.29239  1.0000
  S   S143      1.0  0.77273  0.57927  0.99567  1.0000
  H   H1101     1.0  0.83392  0.63732  0.29003  1.0000
  N   N35       1.0  0.99109  0.65675  0.31663  1.0000
  H   H1102     1.0  0.83354  0.55730  0.46935  1.0000
  H   H1103     1.0  0.98679  0.65133  0.44114  1.0000
  C   C624      1.0  0.85354  0.65736  0.20294  1.0000
  H   H1104     1.0  0.94619  0.33132  0.42648  1.0000
  H   H1105     1.0  0.81998  0.64995  0.36607  1.0000
  H   H1106     1.0  0.97149  0.61163  0.32720  1.0000
  H   H1107     1.0  0.90538  0.32908  0.45596  1.0000
  H   H1108     1.0  0.98836  0.58991  0.27165  1.0000
  H   H1109     1.0  0.95908  0.63869  0.44185  1.0000
  H   H1110     1.0  0.86671  0.40273  0.99379  1.0000
  C   C625      1.0  0.90611  0.33364  0.39342  1.0000
  H   H1111     1.0  0.79756  0.65320  0.40176  1.0000
  H   H1112     1.0  0.79092  0.64491  0.35217  1.0000
  C   C626      1.0  0.80213  0.65564  0.37039  1.0000
  Fe  Fe73      1.0  0.92289  0.35411  0.74161  1.0000
  S   S144      1.0  0.92472  0.36226  0.67759  1.0000
  H   H1113     1.0  0.86020  0.46162  0.57857  1.0000
  Fe  Fe74      1.0  0.87219  0.36451  0.74692  1.0000
  S   S145      1.0  0.86994  0.37326  0.68232  1.0000
  H   H1114     1.0  0.86270  0.44690  0.86128  1.0000
  Fe  Fe75      1.0  0.89243  0.34272  0.67191  1.0000
  C   C627      1.0  0.93311  0.58152  0.89010  1.0000
  Fe  Fe76      1.0  0.90239  0.39213  0.69328  1.0000
  S   S146      1.0  0.91231  0.42600  0.66727  1.0000
  C   C628      1.0  0.81296  0.35226  0.89046  1.0000
  S   S147      1.0  0.90315  0.38549  0.75835  1.0000
  Fe  Fe77      1.0  0.88469  0.54901  0.72538  1.0000
  S   S148      1.0  0.91226  0.55942  0.76657  1.0000
  S   S149      1.0  0.86583  0.51610  0.73123  1.0000
  Fe  Fe78      1.0  0.88562  0.59370  0.67938  1.0000
  S   S150      1.0  0.91333  0.60803  0.71695  1.0000
  S   S151      1.0  0.86574  0.61149  0.63090  1.0000
  Fe  Fe79      1.0  0.92926  0.57330  0.71245  1.0000
  S   S152      1.0  0.96508  0.56413  0.69430  1.0000
  Fe  Fe80      1.0  0.89403  0.59306  0.76821  1.0000
  S   S153      1.0  0.88823  0.61353  0.82379  1.0000
  S   S154      1.0  0.90292  0.56007  0.67115  1.0000
  S   S155      1.0  0.86510  0.58164  0.73108  1.0000
  C   C629      1.0  0.97052  0.55588  0.80899  1.0000
  C   C630      1.0  0.89440  0.63110  0.51001  1.0000
  H   H1115     1.0  0.79614  0.35086  0.90302  1.0000
  C   C631      1.0  0.87722  0.61822  0.58432  1.0000
  C   C632      1.0  0.90044  0.61627  0.57638  1.0000
  C   C633      1.0  0.90893  0.62239  0.53916  1.0000
  H   H1116     1.0  0.91187  0.61013  0.59892  1.0000
  H   H1117     1.0  0.92692  0.62082  0.53319  1.0000
  C   C634      1.0  0.87265  0.60194  0.86337  1.0000
  C   C635      1.0  0.86788  0.61541  0.89642  1.0000
  C   C636      1.0  0.85600  0.60646  0.92884  1.0000
  C   C637      1.0  0.84900  0.58389  0.92854  1.0000
  C   C638      1.0  0.85403  0.57037  0.89564  1.0000
  C   C639      1.0  0.86555  0.57940  0.86299  1.0000
  H   H1118     1.0  0.87357  0.63279  0.89712  1.0000
  H   H1119     1.0  0.85287  0.61678  0.95454  1.0000
  H   H1120     1.0  0.84903  0.55277  0.89547  1.0000
  H   H1121     1.0  0.86927  0.56879  0.83784  1.0000
  C   C640      1.0  0.82124  0.55600  0.49404  1.0000
  C   C641      1.0  0.82590  0.47452  0.89669  1.0000
  H   H1122     1.0  0.89495  0.52689  0.60327  1.0000
  C   C642      1.0  0.87113  0.63257  0.51770  1.0000
  H   H1123     1.0  0.97019  0.60416  0.74329  1.0000
  C   C643      1.0  0.76360  0.40753  0.91190  1.0000
  H   H1124     1.0  0.93267  0.63489  0.79173  1.0000
  C   C644      1.0  0.83194  0.34645  0.91300  1.0000
  C   C645      1.0  0.83360  0.45368  0.92146  1.0000
  H   H1125     1.0  0.93255  0.62643  0.86340  1.0000
  C   C646      1.0  0.83730  0.35981  0.83370  1.0000
  C   C647      1.0  0.85635  0.35486  0.85662  1.0000
  C   C648      1.0  0.83434  0.49660  0.91476  1.0000
  H   H1126     1.0  0.61024  0.66072  0.83217  1.0000
  H   H1127     1.0  0.89397  0.52135  0.55195  1.0000
  H   H1128     1.0  0.86644  0.41662  0.86422  1.0000
  C   C649      1.0  0.95795  0.55796  0.84902  1.0000
  C   C650      1.0  0.89975  0.45082  0.68665  1.0000
  C   C651      1.0  0.90921  0.47197  0.67765  1.0000
  C   C652      1.0  0.89937  0.49209  0.69220  1.0000
  C   C653      1.0  0.87953  0.49117  0.71475  1.0000
  C   C654      1.0  0.86987  0.47007  0.72325  1.0000
  C   C655      1.0  0.88013  0.44990  0.70976  1.0000
  H   H1129     1.0  0.92424  0.47277  0.65941  1.0000
  H   H1130     1.0  0.90689  0.50827  0.68536  1.0000
  H   H1131     1.0  0.85435  0.46937  0.74016  1.0000
  H   H1132     1.0  0.87258  0.43368  0.71642  1.0000
  H   H1133     1.0  0.93459  0.66028  0.56816  1.0000
  H   H1134     1.0  0.85268  0.41267  0.79585  1.0000
  H   H1135     1.0  0.98600  0.45134  0.75486  1.0000
  H   H1136     1.0  0.72030  0.60978  0.92320  1.0000
  H   H1137     1.0  0.85244  0.45401  0.92372  1.0000
  N   N36       1.0  0.78594  0.61549  0.87728  1.0000
  C   C656      1.0  0.78522  0.61604  0.83293  1.0000
  H   H1138     1.0  0.99584  0.40741  0.74173  1.0000
  H   H1139     1.0  0.81084  0.62276  0.95082  1.0000
  C   C657      1.0  0.79415  0.59283  0.89240  1.0000
  C   C658      1.0  0.77948  0.57205  0.88240  1.0000
  C   C659      1.0  0.80794  0.61089  0.81118  1.0000
  C   C660      1.0  0.96607  0.47008  0.71337  1.0000
  H   H1140     1.0  0.75547  0.42069  0.89309  1.0000
  H   H1141     1.0  0.93249  0.57144  0.56275  1.0000
  C   C661      1.0  0.79150  0.54996  0.89405  1.0000
  H   H1142     1.0  0.86309  0.53708  0.63992  1.0000
  H   H1143     1.0  0.77276  0.60380  0.82139  1.0000
  H   H1144     1.0  0.85970  0.63838  0.49496  1.0000
  H   H1145     1.0  0.94119  0.54983  0.84400  1.0000
  H   H1146     1.0  0.81174  0.58944  0.88232  1.0000
  H   H1147     1.0  0.79537  0.59304  0.92487  1.0000
  H   H1148     1.0  0.77580  0.57103  0.85059  1.0000
  H   H1149     1.0  0.76333  0.57285  0.89924  1.0000
  H   H1150     1.0  0.81466  0.59382  0.81889  1.0000
  H   H1151     1.0  0.83536  0.46931  0.60742  1.0000
  C   C662      1.0  0.97775  0.35523  0.76991  1.0000
  H   H1152     1.0  0.83580  0.50752  0.57613  1.0000
  H   H1153     1.0  0.74200  0.59606  0.86352  1.0000
  C   C663      1.0  0.98648  0.59568  0.74082  1.0000
  H   H1154     1.0  0.83268  0.47360  0.86630  1.0000
  C   C664      1.0  0.97477  0.53113  0.79775  1.0000
  H   H1155     1.0  0.86496  0.54309  0.51543  1.0000
  C   C665      1.0  0.67830  0.65823  0.96629  1.0000
  H   H1156     1.0  0.78038  0.53533  0.88773  1.0000
  N   N37       1.0  0.82564  0.43081  0.90741  1.0000
  H   H1157     1.0  0.95850  0.52180  0.79633  1.0000
  C   C666      1.0  0.82423  0.55647  0.66278  1.0000
  C   C667      1.0  0.82900  0.54648  0.62219  1.0000
  H   H1158     1.0  0.79260  0.59802  0.75747  1.0000
  H   H1159     1.0  0.93189  0.33161  0.58426  1.0000
  H   H1160     1.0  0.79139  0.44239  0.89570  1.0000
  H   H1161     1.0  0.91824  0.57840  0.87066  1.0000
  H   H1162     1.0  0.84799  0.44295  0.79293  1.0000
  H   H1163     1.0  0.98627  0.52276  0.81922  1.0000
  H   H1164     1.0  0.87313  0.35570  0.84371  1.0000
  C   C668      1.0  0.85327  0.54578  0.54086  1.0000
  C   C669      1.0  0.94775  0.33855  0.57145  1.0000
  C   C670      1.0  0.89905  0.55654  0.56695  1.0000
  S   S156      1.0  0.95314  0.33869  0.77239  1.0000
  H   H1165     1.0  0.96651  0.61044  0.65723  1.0000
  S   S157      1.0  0.83949  0.36578  0.78289  1.0000
  H   H1166     1.0  0.83198  0.54570  0.68606  1.0000
  H   H1167     1.0  0.79819  0.62823  0.75697  1.0000
  C   C671      1.0  0.98882  0.46001  0.72633  1.0000
  H   H1168     1.0  0.96695  0.54673  0.87034  1.0000
  H   H1169     1.0  0.63903  0.65651  0.84873  1.0000
  C   C672      1.0  0.88773  0.53324  0.57509  1.0000
  H   H1170     1.0  0.90222  0.57998  0.95095  1.0000
  C   C673      1.0  0.85576  0.43044  0.85167  1.0000
  H   H1171     1.0  0.85315  0.56444  0.54638  1.0000
  C   C674      1.0  0.83059  0.42754  0.86427  1.0000
  H   H1172     1.0  0.94402  0.56947  0.94828  1.0000
  H   H1173     1.0  0.82743  0.45696  0.95181  1.0000
  C   C675      1.0  0.78919  0.40650  0.90456  1.0000
  C   C676      1.0  0.80464  0.61137  0.76667  1.0000
  C   C677      1.0  0.71986  0.61888  0.89458  1.0000
  H   H1174     1.0  0.81659  0.53767  0.54785  1.0000
  H   H1175     1.0  0.86064  0.45891  0.63118  1.0000
  H   H1176     1.0  0.80081  0.36273  0.83346  1.0000
  H   H1177     1.0  0.79543  0.54986  0.92596  1.0000
  C   C678      1.0  0.81565  0.35889  0.85099  1.0000
  H   H1178     1.0  0.82020  0.62851  0.88127  1.0000
  H   H1179     1.0  0.93118  0.54262  0.54537  1.0000
  H   H1180     1.0  0.98284  0.53045  0.76824  1.0000
  C   C679      1.0  0.80035  0.42954  0.91401  1.0000
  H   H1181     1.0  0.80564  0.55735  0.66800  1.0000
  H   H1182     1.0  0.83111  0.57391  0.66479  1.0000
  H   H1183     1.0  0.71777  0.63734  0.90002  1.0000
  H   H1184     1.0  0.82079  0.55801  0.60062  1.0000
  C   C680      1.0  0.85420  0.46942  0.60643  1.0000
  H   H1185     1.0  0.88183  0.49240  0.61068  1.0000
  S   S158      1.0  0.89204  0.33255  0.73554  1.0000
  H   H1186     1.0  0.95337  0.45633  0.71117  1.0000
  H   H1187     1.0  0.83520  0.39560  0.91688  1.0000
  H   H1188     1.0  0.85701  0.50023  0.63900  1.0000
  H   H1189     1.0  0.70492  0.61297  0.87783  1.0000
  H   H1190     1.0  0.97264  0.63710  0.63390  1.0000
  H   H1191     1.0  0.80752  0.54784  0.87713  1.0000
  H   H1192     1.0  0.93660  0.59429  0.81540  1.0000
  H   H1193     1.0  0.76101  0.64030  0.89770  1.0000
  H   H1194     1.0  0.74030  0.62416  0.84342  1.0000
  C   C681      1.0  0.94848  0.62391  0.84650  1.0000
  C   C682      1.0  0.80263  0.63326  0.89028  1.0000
  H   H1195     1.0  0.75600  0.39088  0.90484  1.0000
  H   H1196     1.0  0.80985  0.33813  0.72885  1.0000
  C   C683      1.0  0.86304  0.49359  0.61032  1.0000
  H   H1197     1.0  0.93069  0.54850  0.59755  1.0000
  H   H1198     1.0  0.89452  0.56331  0.53754  1.0000
  H   H1199     1.0  0.86071  0.56286  0.61400  1.0000
  H   H1200     1.0  0.82103  0.52956  0.62122  1.0000
  C   C684      1.0  0.85478  0.54506  0.61398  1.0000
  H   H1201     1.0  0.81882  0.57300  0.50751  1.0000
  H   H1202     1.0  0.80714  0.47574  0.89518  1.0000
  N   N38       1.0  0.86204  0.53323  0.57667  1.0000
  H   H1203     1.0  0.89380  0.56931  0.58895  1.0000
  H   H1204     1.0  0.78709  0.64190  0.94797  1.0000
  H   H1205     1.0  0.98705  0.56456  0.80897  1.0000
  C   C685      1.0  0.85455  0.50880  0.57602  1.0000
  H   H1206     1.0  0.93724  0.54687  0.91497  1.0000
  H   H1207     1.0  0.97668  0.57399  0.91525  1.0000
  C   C686      1.0  0.92493  0.55454  0.56827  1.0000
  C   C687      1.0  0.81942  0.65775  0.94402  1.0000
  H   H1208     1.0  0.76140  0.61465  0.92491  1.0000
  H   H1209     1.0  0.68460  0.64909  0.69636  1.0000
  H   H1210     1.0  0.79598  0.43394  0.94493  1.0000
  H   H1211     1.0  0.85316  0.49653  0.91659  1.0000
  H   H1212     1.0  0.82602  0.41011  0.85494  1.0000
  H   H1213     1.0  0.77912  0.63304  0.82291  1.0000
  C   C688      1.0  0.95154  0.59883  0.83365  1.0000
  N   N39       1.0  0.95472  0.58155  0.86603  1.0000
  H   H1214     1.0  0.82898  0.51118  0.89618  1.0000
  H   H1215     1.0  0.97074  0.61142  0.60491  1.0000
  C   C689      1.0  0.97415  0.58747  0.89274  1.0000
  H   H1216     1.0  0.95974  0.48275  0.73499  1.0000
  H   H1217     1.0  0.79628  0.39277  0.92319  1.0000
  C   C690      1.0  0.69789  0.64696  0.98104  1.0000
  H   H1218     1.0  0.86021  0.50069  0.54806  1.0000
  H   H1219     1.0  0.96766  0.47829  0.68411  1.0000
  H   H1220     1.0  0.87632  0.43168  0.79866  1.0000
  C   C691      1.0  0.86259  0.62611  0.55469  1.0000
  H   H1221     1.0  0.79168  0.40188  0.87332  1.0000
  H   H1222     1.0  0.82101  0.62366  0.81811  1.0000
  H   H1223     1.0  0.96296  0.62957  0.86460  1.0000
  C   C692      1.0  0.76291  0.62155  0.89449  1.0000
  C   C693      1.0  0.83809  0.41257  0.93009  1.0000
  H   H1224     1.0  0.82117  0.60811  0.75185  1.0000
  H   H1225     1.0  0.81973  0.43902  0.84617  1.0000
  C   C694      1.0  0.74157  0.61427  0.87115  1.0000
  S   S159      1.0  0.82915  0.33506  0.96084  1.0000
  C   C695      1.0  0.85826  0.42936  0.80706  1.0000
  C   C696      1.0  0.93235  0.56420  0.92452  1.0000
  H   H1226     1.0  0.99387  0.44704  0.70438  1.0000
  H   H1227     1.0  0.96102  0.38418  0.74389  1.0000
  C   C697      1.0  0.97639  0.61861  0.63334  1.0000
  C   C698      1.0  0.82968  0.53894  0.52468  1.0000
  H   H1228     1.0  0.75993  0.41142  0.94320  1.0000
  H   H1229     1.0  0.94413  0.35571  0.55931  1.0000
  H   H1230     1.0  0.89666  0.55547  0.92066  1.0000
  H   H1231     1.0  0.79872  0.64976  0.87560  1.0000
  H   H1232     1.0  0.84456  0.62738  0.56046  1.0000
  H   H1233     1.0  0.96615  0.59864  0.81331  1.0000
  H   H1234     1.0  0.96039  0.34037  0.59528  1.0000
  C   C699      1.0  0.94715  0.63961  0.81075  1.0000
  C   C700      1.0  0.80391  0.63778  0.93518  1.0000
  C   C701      1.0  0.97693  0.37719  0.75441  1.0000
  H   H1235     1.0  0.96312  0.63870  0.79340  1.0000
  C   C702      1.0  0.98859  0.57617  0.71777  1.0000
  H   H1236     1.0  0.86916  0.34642  0.58009  1.0000
  C   C703      1.0  0.85365  0.34810  0.89606  1.0000
  H   H1237     1.0  0.85672  0.41517  0.92781  1.0000
  H   H1238     1.0  0.92988  0.59835  0.90372  1.0000
  H   H1239     1.0  0.96999  0.60303  0.90989  1.0000
  H   H1240     1.0  0.85427  0.34357  0.51193  1.0000
  H   H1241     1.0  0.94451  0.65738  0.82060  1.0000
  H   H1242     1.0  0.95999  0.56353  0.78542  1.0000
  H   H1243     1.0  0.83101  0.52210  0.51016  1.0000
  H   H1244     1.0  0.83669  0.65470  0.93191  1.0000
  H   H1245     1.0  0.86844  0.34366  0.91331  1.0000
  H   H1246     1.0  0.70670  0.65648  0.73037  1.0000
  H   H1247     1.0  0.82705  0.49906  0.94462  1.0000
  C   C704      1.0  0.71938  0.65676  0.97732  1.0000
  S   S160      1.0  0.83511  0.57136  0.96914  1.0000
  H   H1248     1.0  0.82080  0.65993  0.97632  1.0000
  C   C705      1.0  0.90854  0.56289  0.94221  1.0000
  C   C706      1.0  0.87087  0.33069  0.56401  1.0000
  H   H1249     1.0  0.94104  0.33996  0.49162  1.0000
  H   H1250     1.0  0.66195  0.65018  0.96910  1.0000
  C   C707      1.0  0.83228  0.41085  0.97448  1.0000
  S   S161      1.0  0.76682  0.36030  0.97971  1.0000
  H   H1251     1.0  0.90876  0.55184  0.96866  1.0000
  H   H1252     1.0  0.81521  0.40348  0.97869  1.0000
  H   H1253     1.0  0.97398  0.32910  0.53084  1.0000
  H   H1254     1.0  0.87544  0.66204  0.69209  1.0000
  H   H1255     1.0  0.66814  0.66144  0.75904  1.0000
  H   H1256     1.0  0.96652  0.32955  0.67314  1.0000
  C   C708      1.0  0.86240  0.32901  0.52545  1.0000
  H   H1257     1.0  0.84939  0.37831  0.98341  1.0000
  Fe  Fe81      1.0  0.63178  0.85364  0.26254  1.0000
  S   S162      1.0  0.63054  0.87927  0.21324  1.0000
  S   S163      1.0  0.66468  0.84178  0.29124  1.0000
  Fe  Fe82      1.0  0.58002  0.84950  0.26540  1.0000
  S   S164      1.0  0.57473  0.87527  0.21820  1.0000
  S   S165      1.0  0.55245  0.83228  0.29993  1.0000
  Fe  Fe83      1.0  0.60346  0.85683  0.18724  1.0000
  S   S166      1.0  0.59438  0.84671  0.12466  1.0000
  Fe  Fe84      1.0  0.60198  0.89510  0.24809  1.0000
  S   S167      1.0  0.59946  0.93057  0.27276  1.0000
  S   S168      1.0  0.60717  0.82991  0.23360  1.0000
  S   S169      1.0  0.60483  0.87061  0.29820  1.0000
  H   H1258     1.0  0.65804  0.77050  0.08178  1.0000
  S   S170      1.0  0.89974  0.70419  0.44213  1.0000
  Fe  Fe85      1.0  0.87896  0.68105  0.33959  1.0000
  S   S171      1.0  0.88553  0.71805  0.35249  1.0000
  H   H1259     1.0  0.52271  0.89550  0.28249  1.0000
  Fe  Fe86      1.0  0.91778  0.70660  0.38366  1.0000
  S   S172      1.0  0.95288  0.72260  0.37140  1.0000
  Fe  Fe87      1.0  0.86700  0.71264  0.41005  1.0000
  S   S173      1.0  0.83449  0.73108  0.43328  1.0000
  H   H1260     1.0  0.71177  0.72621  0.99696  1.0000
  S   S174      1.0  0.85963  0.67579  0.39611  1.0000
  H   H1261     1.0  0.72890  0.96088  0.40193  1.0000
  H   H1262     1.0  0.78101  0.68489  0.36323  1.0000
  C   C709      1.0  0.63994  0.70384  0.05325  1.0000
  H   H1263     1.0  0.67345  0.92637  0.30822  1.0000
  H   H1264     1.0  0.69834  0.94581  0.35988  1.0000
  H   H1265     1.0  0.52898  0.89444  0.22091  1.0000
  H   H1266     1.0  0.54369  0.97151  0.20636  1.0000
  C   C710      1.0  0.82154  0.75656  0.45259  1.0000
  C   C711      1.0  0.57498  0.80426  0.41478  1.0000
  H   H1267     1.0  0.60776  0.68722  0.04345  1.0000
  H   H1268     1.0  0.83164  0.70333  0.25723  1.0000
  H   H1269     1.0  0.74516  0.74601  0.37007  1.0000
  C   C712      1.0  0.59247  0.97219  0.17811  1.0000
  H   H1270     1.0  0.64862  0.68707  0.05472  1.0000
  H   H1271     1.0  0.62990  0.76942  0.31272  1.0000
  C   C713      1.0  0.80602  0.69832  0.18792  1.0000
  H   H1272     1.0  0.52411  0.87912  0.15495  1.0000
  H   H1273     1.0  0.61312  0.81528  0.45271  1.0000
  H   H1274     1.0  0.94321  0.70654  0.28162  1.0000
  H   H1275     1.0  0.74554  0.69104  0.09329  1.0000
  C   C714      1.0  0.61770  0.95453  0.38949  1.0000
  H   H1276     1.0  0.63488  0.70892  0.08335  1.0000
  C   C715      1.0  0.66827  0.84392  0.34275  1.0000
  C   C716      1.0  0.65391  0.85750  0.36569  1.0000
  C   C717      1.0  0.65541  0.85690  0.40689  1.0000
  C   C718      1.0  0.67173  0.84320  0.42555  1.0000
  C   C719      1.0  0.68714  0.83078  0.40261  1.0000
  C   C720      1.0  0.68535  0.83109  0.36134  1.0000
  H   H1277     1.0  0.64131  0.86811  0.35174  1.0000
  H   H1278     1.0  0.64353  0.86664  0.42442  1.0000
  H   H1279     1.0  0.69969  0.82002  0.41668  1.0000
  H   H1280     1.0  0.69674  0.82072  0.34384  1.0000
  C   C721      1.0  0.63619  0.80717  0.03363  1.0000
  C   C722      1.0  0.61256  0.80559  0.03440  1.0000
  C   C723      1.0  0.60001  0.81693  0.06373  1.0000
  C   C724      1.0  0.61097  0.82955  0.09294  1.0000
  C   C725      1.0  0.63468  0.83014  0.09332  1.0000
  C   C726      1.0  0.64722  0.81906  0.06364  1.0000
  H   H1281     1.0  0.77871  0.73084  0.27923  1.0000
  H   H1282     1.0  0.58168  0.81624  0.06344  1.0000
  H   H1283     1.0  0.64329  0.83994  0.11548  1.0000
  H   H1284     1.0  0.66552  0.82028  0.06332  1.0000
  C   C727      1.0  0.59433  0.95248  0.20138  1.0000
  C   C728      1.0  0.59813  0.95439  0.24174  1.0000
  C   C729      1.0  0.60020  0.97588  0.25862  1.0000
  H   H1285     1.0  0.59267  0.93591  0.18819  1.0000
  H   H1286     1.0  0.60297  0.97730  0.28984  1.0000
  C   C730      1.0  0.51359  0.84777  0.33403  1.0000
  C   C731      1.0  0.52499  0.84439  0.29847  1.0000
  H   H1287     1.0  0.51560  0.90659  0.13643  1.0000
  H   H1288     1.0  0.52194  0.84369  0.36141  1.0000
  H   H1289     1.0  0.96510  0.66360  0.24599  1.0000
  H   H1290     1.0  0.52257  0.84670  0.23540  1.0000
  C   C732      1.0  0.71511  0.71037  0.07871  1.0000
  H   H1291     1.0  0.65363  0.91424  0.34304  1.0000
  H   H1292     1.0  0.73485  0.92190  0.38702  1.0000
  C   C733      1.0  0.51446  0.96460  0.24500  1.0000
  H   H1293     1.0  0.55076  0.97071  0.25770  1.0000
  C   C734      1.0  0.59107  0.85194  0.42057  1.0000
  H   H1294     1.0  0.54917  0.93018  0.26481  1.0000
  C   C735      1.0  0.80646  0.68475  0.31614  1.0000
  C   C736      1.0  0.69903  0.74006  0.99424  1.0000
  H   H1295     1.0  0.50872  0.81153  0.98668  1.0000
  H   H1296     1.0  0.85130  0.75575  0.35390  1.0000
  H   H1297     1.0  0.82393  0.67767  0.31229  1.0000
  H   H1298     1.0  0.77939  0.72185  0.36877  1.0000
  H   H1299     1.0  0.58936  0.97075  0.14693  1.0000
  N   N40       1.0  0.70570  0.93430  0.41911  1.0000
  H   H1300     1.0  0.69378  0.69848  0.03095  1.0000
  C   C737      1.0  0.98752  0.70348  0.41830  1.0000
  H   H1301     1.0  0.75678  0.88438  0.43227  1.0000
  H   H1302     1.0  0.66638  0.90549  0.43309  1.0000
  H   H1303     1.0  0.68557  0.89663  0.37980  1.0000
  H   H1304     1.0  0.57527  0.80809  0.44679  1.0000
  H   H1305     1.0  0.65987  0.78896  0.44072  1.0000
  H   H1306     1.0  0.61177  0.95447  0.42049  1.0000
  N   N41       1.0  0.67662  0.72771  0.05634  1.0000
  H   H1307     1.0  0.78365  0.74792  0.34342  1.0000
  H   H1308     1.0  0.73971  0.72025  0.34349  1.0000
  H   H1309     1.0  0.70220  0.93054  0.48210  1.0000
  H   H1310     1.0  0.60483  0.85114  0.44268  1.0000
  H   H1311     1.0  0.83949  0.77964  0.32768  1.0000
  N   N42       1.0  0.59734  0.81065  0.39587  1.0000
  H   H1312     1.0  0.53556  0.77891  0.98918  1.0000
  H   H1313     1.0  0.80396  0.67532  0.23616  1.0000
  H   H1314     1.0  0.70544  0.90713  0.34473  1.0000
  H   H1315     1.0  0.71982  0.67477  0.09520  1.0000
  H   H1316     1.0  0.54040  0.75702  0.43009  1.0000
  H   H1317     1.0  0.96198  0.66515  0.38676  1.0000
  S   S175      1.0  0.91224  0.67032  0.36692  1.0000
  C   C738      1.0  0.61643  0.86740  0.99128  1.0000
  C   C739      1.0  0.57777  0.87185  0.01717  1.0000
  H   H1318     1.0  0.54423  0.90188  0.15430  1.0000
  C   C740      1.0  0.72891  0.68829  0.07890  1.0000
  C   C741      1.0  0.64836  0.76328  0.14095  1.0000
  C   C742      1.0  0.58600  0.89055  0.04584  1.0000
  H   H1319     1.0  0.82460  0.69632  0.18320  1.0000
  H   H1320     1.0  0.59705  0.99309  0.36368  1.0000
  C   C743      1.0  0.74941  0.73631  0.34304  1.0000
  H   H1321     1.0  0.68995  0.97870  0.39142  1.0000
  C   C744      1.0  0.56799  0.89597  0.07693  1.0000
  S   S176      1.0  0.66983  0.83900  0.47683  1.0000
  C   C745      1.0  0.51850  0.90439  0.20021  1.0000
  H   H1322     1.0  0.62325  0.88476  0.99572  1.0000
  H   H1323     1.0  0.61839  0.85858  0.02012  1.0000
  H   H1324     1.0  0.57736  0.85580  0.03448  1.0000
  H   H1325     1.0  0.55976  0.87583  0.00993  1.0000
  H   H1326     1.0  0.62217  0.69553  0.99908  1.0000
  H   H1327     1.0  0.78935  0.74048  0.46279  1.0000
  C   C746      1.0  0.69172  0.92911  0.45516  1.0000
  H   H1328     1.0  0.68458  0.97691  0.44333  1.0000
  H   H1329     1.0  0.75061  0.93469  0.45318  1.0000
  C   C747      1.0  0.77490  0.73137  0.34183  1.0000
  H   H1330     1.0  0.59001  0.90660  0.03055  1.0000
  H   H1331     1.0  0.60155  0.88474  0.06144  1.0000
  H   H1332     1.0  0.85064  0.77799  0.44608  1.0000
  Fe  Fe88      1.0  0.89336  0.66804  0.42448  1.0000
  C   C748      1.0  0.52607  0.89770  0.15885  1.0000
  H   H1333     1.0  0.66042  0.85270  0.00564  1.0000
  C   C749      1.0  0.96586  0.67841  0.26592  1.0000
  H   H1334     1.0  0.53355  0.94521  0.30087  1.0000
  C   C750      1.0  0.79868  0.75611  0.46504  1.0000
  H   H1335     1.0  0.69175  0.89166  0.45190  1.0000
  C   C751      1.0  0.67964  0.90597  0.45609  1.0000
  H   H1336     1.0  0.55245  0.91634  0.34660  1.0000
  C   C752      1.0  0.52167  0.93009  0.20715  1.0000
  H   H1337     1.0  0.56279  0.88031  0.09262  1.0000
  H   H1338     1.0  0.57504  0.90792  0.09882  1.0000
  H   H1339     1.0  0.55282  0.90396  0.06323  1.0000
  C   C753      1.0  0.67064  0.73617  0.09693  1.0000
  H   H1340     1.0  0.50049  0.89941  0.20342  1.0000
  H   H1341     1.0  0.68288  0.69383  0.07856  1.0000
  H   H1342     1.0  0.58609  0.80114  0.33793  1.0000
  C   C754      1.0  0.65562  0.72161  0.03361  1.0000
  C   C755      1.0  0.69809  0.97806  0.42073  1.0000
  H   H1343     1.0  0.54524  0.80252  0.01805  1.0000
  H   H1344     1.0  0.60393  0.79620  0.01174  1.0000
  C   C756      1.0  0.53203  0.78929  0.01580  1.0000
  C   C757      1.0  0.67055  0.91215  0.32903  1.0000
  C   C758      1.0  0.78768  0.77568  0.48053  1.0000
  C   C759      1.0  0.72550  0.91803  0.41472  1.0000
  N   N43       1.0  0.51476  0.93899  0.24702  1.0000
  C   C760      1.0  0.71523  0.95789  0.42402  1.0000
  H   H1345     1.0  0.55051  0.77641  0.46682  1.0000
  H   H1346     1.0  0.83150  0.81230  0.47347  1.0000
  H   H1347     1.0  0.70242  0.75371  0.05314  1.0000
  H   H1348     1.0  0.77274  0.90806  0.41346  1.0000
  H   H1349     1.0  0.97049  0.68646  0.32707  1.0000
  S   S177      1.0  0.86919  0.67211  0.27536  1.0000
  H   H1350     1.0  0.82427  0.68132  0.46592  1.0000
  H   H1351     1.0  0.53992  0.93365  0.20142  1.0000
  C   C761      1.0  0.62848  0.97725  0.37901  1.0000
  N   N44       1.0  0.80564  0.70895  0.30153  1.0000
  H   H1352     1.0  0.99552  0.73718  0.33875  1.0000
  H   H1353     1.0  0.66421  0.76996  0.15395  1.0000
  H   H1354     1.0  0.62691  0.77231  0.40664  1.0000
  H   H1355     1.0  0.57479  0.84783  0.43525  1.0000
  C   C762      1.0  0.59458  0.99376  0.19509  1.0000
  H   H1356     1.0  0.58579  0.88788  0.43147  1.0000
  H   H1357     1.0  0.54318  0.88730  0.34344  1.0000
  H   H1358     1.0  0.51237  0.93929  0.18348  1.0000
  H   H1359     1.0  0.67385  0.94049  0.38904  1.0000
  H   H1360     1.0  0.63034  0.94063  0.38572  1.0000
  C   C763      1.0  0.68874  0.74641  0.03473  1.0000
  H   H1361     1.0  0.86577  0.66909  0.19101  1.0000
  C   C764      1.0  0.61686  0.80716  0.42394  1.0000
  C   C765      1.0  0.58947  0.87649  0.40628  1.0000
  C   C766      1.0  0.53761  0.97598  0.23626  1.0000
  H   H1362     1.0  0.71968  0.90028  0.41167  1.0000
  C   C767      1.0  0.69126  0.93402  0.38235  1.0000
  C   C768      1.0  0.79989  0.69347  0.23075  1.0000
  H   H1363     1.0  0.60802  0.71666  0.02932  1.0000
  C   C769      1.0  0.60077  0.79789  0.35786  1.0000
  H   H1364     1.0  0.71336  0.71610  0.10959  1.0000
  C   C770      1.0  0.59604  0.83559  0.38583  1.0000
  H   H1365     1.0  0.53320  0.77826  0.04223  1.0000
  H   H1366     1.0  0.57563  0.87839  0.38448  1.0000
  C   C771      1.0  0.62262  0.80350  0.33435  1.0000
  H   H1367     1.0  0.60092  0.77932  0.36280  1.0000
  H   H1368     1.0  0.64201  0.74906  0.15926  1.0000
  C   C772      1.0  0.68921  0.91108  0.36012  1.0000
  C   C773      1.0  0.62644  0.78666  0.30089  1.0000
  H   H1369     1.0  0.78133  0.69606  0.23434  1.0000
  H   H1370     1.0  0.72508  0.76610  0.99436  1.0000
  H   H1371     1.0  0.67692  0.76078  0.02916  1.0000
  H   H1372     1.0  0.83956  0.74628  0.28468  1.0000
  H   H1373     1.0  0.72330  0.95967  0.45340  1.0000
  H   H1374     1.0  0.58284  0.83867  0.36305  1.0000
  H   H1375     1.0  0.61215  0.84129  0.37257  1.0000
  H   H1376     1.0  0.63222  0.81599  0.41298  1.0000
  C   C774      1.0  0.52702  0.90986  0.30162  1.0000
  H   H1377     1.0  0.50772  0.97177  0.27306  1.0000
  C   C775      1.0  0.81348  0.70876  0.25916  1.0000
  H   H1378     1.0  0.62114  0.82062  0.32102  1.0000
  H   H1379     1.0  0.63794  0.80293  0.35311  1.0000
  H   H1380     1.0  0.97937  0.69000  0.25568  1.0000
  C   C776      1.0  0.94330  0.69132  0.26239  1.0000
  C   C777      1.0  0.62371  0.78240  0.43352  1.0000
  H   H1381     1.0  0.81280  0.72618  0.24660  1.0000
  H   H1382     1.0  0.68602  0.74280  0.11170  1.0000
  H   H1383     1.0  0.67052  0.89608  0.31200  1.0000
  C   C778      1.0  0.79925  0.68065  0.35928  1.0000
  H   H1384     1.0  0.64131  0.79201  0.28312  1.0000
  H   H1385     1.0  0.60571  0.88177  0.39253  1.0000
  H   H1386     1.0  0.61135  0.78614  0.28144  1.0000
  H   H1387     1.0  0.82263  0.76522  0.36399  1.0000
  H   H1388     1.0  0.63540  0.77712  0.14116  1.0000
  H   H1389     1.0  0.60313  0.95105  0.36977  1.0000
  H   H1390     1.0  0.79723  0.68609  0.16854  1.0000
  H   H1391     1.0  0.66034  0.71438  0.00461  1.0000
  C   C779      1.0  0.83317  0.77709  0.45571  1.0000
  H   H1392     1.0  0.94075  0.69697  0.23158  1.0000
  C   C780      1.0  0.53190  0.93185  0.27797  1.0000
  H   H1393     1.0  0.67805  0.94200  0.45894  1.0000
  C   C781      1.0  0.50856  0.80048  0.01308  1.0000
  H   H1394     1.0  0.76923  0.70481  0.29872  1.0000
  H   H1395     1.0  0.58025  0.76693  0.41686  1.0000
  H   H1396     1.0  0.80073  0.71579  0.17955  1.0000
  H   H1397     1.0  0.80950  0.69072  0.38004  1.0000
  H   H1398     1.0  0.81103  0.75478  0.29635  1.0000
  H   H1399     1.0  0.83922  0.71382  0.32508  1.0000
  C   C782      1.0  0.61818  0.70069  0.02971  1.0000
  H   H1400     1.0  0.51252  0.91270  0.32205  1.0000
  H   H1401     1.0  0.81747  0.72395  0.35579  1.0000
  H   H1402     1.0  0.92886  0.68030  0.27081  1.0000
  C   C783      1.0  0.78176  0.71855  0.30361  1.0000
  H   H1403     1.0  0.73216  0.68246  0.04839  1.0000
  H   H1404     1.0  0.64544  0.73708  0.02655  1.0000
  S   S178      1.0  0.65237  0.79581  0.99442  1.0000
  C   C784      1.0  0.97002  0.67085  0.30894  1.0000
  H   H1405     1.0  0.72511  0.72310  0.06229  1.0000
  H   H1406     1.0  0.61030  0.77429  0.45142  1.0000
  H   H1407     1.0  0.74419  0.74662  0.31719  1.0000
  C   C785      1.0  0.54749  0.90264  0.32613  1.0000
  H   H1408     1.0  0.50281  0.97073  0.22154  1.0000
  C   C786      1.0  0.82670  0.74704  0.30864  1.0000
  H   H1409     1.0  0.63598  0.74986  0.08689  1.0000
  C   C787      1.0  0.69142  0.70679  0.06006  1.0000
  C   C788      1.0  0.83559  0.76280  0.34055  1.0000
  H   H1410     1.0  0.77447  0.90051  0.46470  1.0000
  H   H1411     1.0  0.56177  0.77671  0.37847  1.0000
  C   C789      1.0  0.51391  0.84955  0.26303  1.0000
  C   C790      1.0  0.82246  0.72270  0.32450  1.0000
  C   C791      1.0  0.74314  0.91775  0.44847  1.0000
  H   H1412     1.0  0.56085  0.81485  0.40249  1.0000
  H   H1413     1.0  0.64346  0.97937  0.39819  1.0000
  C   C792      1.0  0.76293  0.90167  0.43902  1.0000
  C   C793      1.0  0.54618  0.77464  0.43525  1.0000
  H   H1414     1.0  0.79513  0.67383  0.29850  1.0000
  H   H1415     1.0  0.56206  0.89841  0.30668  1.0000
  H   H1416     1.0  0.73522  0.91199  0.47628  1.0000
  H   H1417     1.0  0.53201  0.78647  0.42791  1.0000
  C   C794      1.0  0.56688  0.77949  0.40950  1.0000
  H   H1418     1.0  0.63398  0.97602  0.34791  1.0000
  C   C795      1.0  0.98177  0.71701  0.38585  1.0000
  H   H1419     1.0  0.97418  0.69630  0.43615  1.0000
  H   H1420     1.0  0.64994  0.76377  0.46514  1.0000
  C   C796      1.0  0.65250  0.75548  0.09875  1.0000
  H   H1421     1.0  0.66485  0.72201  0.11602  1.0000
  H   H1422     1.0  0.50617  0.81113  0.03960  1.0000
  C   C797      1.0  0.64554  0.78161  0.45769  1.0000
  C   C798      1.0  0.82219  0.79663  0.47127  1.0000
  C   C799      1.0  0.59864  0.99547  0.23535  1.0000
  H   H1423     1.0  0.67183  0.72313  0.70381  1.0000
  Fe  Fe89      1.0  0.70130  0.84128  0.51486  1.0000
  C   C800      1.0  0.63423  0.68457  0.80739  1.0000
  Fe  Fe90      1.0  0.71887  0.83452  0.59933  1.0000
  S   S179      1.0  0.75017  0.85515  0.58473  1.0000
  S   S180      1.0  0.71549  0.82059  0.66315  1.0000
  Fe  Fe91      1.0  0.72715  0.88035  0.55321  1.0000
  S   S181      1.0  0.71950  0.91903  0.56120  1.0000
  Fe  Fe92      1.0  0.75193  0.83485  0.52803  1.0000
  H   H1424     1.0  0.86227  0.67868  0.49438  1.0000
  S   S182      1.0  0.69618  0.86057  0.57107  1.0000
  S   S183      1.0  0.72176  0.81333  0.54402  1.0000
  Fe  Fe93      1.0  0.63704  0.76888  0.85472  1.0000
  S   S184      1.0  0.61583  0.73724  0.86184  1.0000
  S   S185      1.0  0.64427  0.78230  0.79166  1.0000
  Fe  Fe94      1.0  0.63652  0.77611  0.94450  1.0000
  S   S186      1.0  0.61520  0.74559  0.95633  1.0000
  Fe  Fe95      1.0  0.63905  0.72823  0.91325  1.0000
  S   S187      1.0  0.65408  0.69264  0.92860  1.0000
  Fe  Fe96      1.0  0.59384  0.75711  0.90461  1.0000
  S   S188      1.0  0.55483  0.76445  0.90152  1.0000
  S   S189      1.0  0.66106  0.75857  0.90333  1.0000
  S   S190      1.0  0.61434  0.78905  0.89563  1.0000
  C   C801      1.0  0.52565  0.75550  0.90467  1.0000
  H   H1425     1.0  0.63554  0.67399  0.78075  1.0000
  C   C802      1.0  0.51942  0.73384  0.91760  1.0000
  H   H1426     1.0  0.51249  0.78749  0.88351  1.0000
  H   H1427     1.0  0.53248  0.72182  0.92613  1.0000
  C   C803      1.0  0.69519  0.81045  0.69858  1.0000
  C   C804      1.0  0.70287  0.80332  0.73591  1.0000
  C   C805      1.0  0.68767  0.79500  0.76484  1.0000
  C   C806      1.0  0.66438  0.79369  0.75703  1.0000
  C   C807      1.0  0.65670  0.80099  0.71981  1.0000
  C   C808      1.0  0.67189  0.80929  0.69089  1.0000
  H   H1428     1.0  0.72079  0.80410  0.74244  1.0000
  H   H1429     1.0  0.69403  0.78949  0.79307  1.0000
  H   H1430     1.0  0.63879  0.80013  0.71317  1.0000
  H   H1431     1.0  0.66555  0.81468  0.66256  1.0000
  C   C809      1.0  0.72528  0.94857  0.55194  1.0000
  C   C810      1.0  0.70908  0.96520  0.56296  1.0000
  C   C811      1.0  0.74551  0.95597  0.53460  1.0000
  H   H1432     1.0  0.69333  0.95990  0.57634  1.0000
  H   H1433     1.0  0.82337  0.66406  0.50968  1.0000
  H   H1434     1.0  0.66153  0.87887  0.62517  1.0000
  C   C812      1.0  0.87431  0.70032  0.61314  1.0000
  C   C813      1.0  0.67959  0.67968  0.94798  1.0000
  H   H1435     1.0  0.69343  0.73641  0.78158  1.0000
  H   H1436     1.0  0.89201  0.73232  0.56871  1.0000
  C   C814      1.0  0.74953  0.97945  0.52905  1.0000
  C   C815      1.0  0.74140  0.95829  0.65278  1.0000
  H   H1437     1.0  0.88783  0.68986  0.68999  1.0000
  C   C816      1.0  0.70107  0.68953  0.94439  1.0000
  H   H1438     1.0  0.67197  0.74835  0.73350  1.0000
  N   N45       1.0  0.66883  0.70928  0.78520  1.0000
  C   C817      1.0  0.66140  0.73413  0.72327  1.0000
  H   H1439     1.0  0.75832  0.94364  0.52621  1.0000
  H   H1440     1.0  0.76541  0.98478  0.51612  1.0000
  C   C818      1.0  0.85658  0.73995  0.56026  1.0000
  C   C819      1.0  0.86157  0.76392  0.54572  1.0000
  H   H1441     1.0  0.84160  0.73394  0.54374  1.0000
  H   H1442     1.0  0.56983  0.90513  0.88177  1.0000
  H   H1443     1.0  0.86655  0.76364  0.51422  1.0000
  H   H1444     1.0  0.84611  0.77474  0.54874  1.0000
  H   H1445     1.0  0.87542  0.77160  0.56311  1.0000
  H   H1446     1.0  0.65261  0.70779  0.84242  1.0000
  C   C820      1.0  0.87743  0.72403  0.55406  1.0000
  H   H1447     1.0  0.64043  0.73205  0.77568  1.0000
  H   H1448     1.0  0.88183  0.72420  0.52222  1.0000
  H   H1449     1.0  0.66869  0.68334  0.83065  1.0000
  H   H1450     1.0  0.64002  0.70786  0.74532  1.0000
  H   H1451     1.0  0.56373  0.82147  0.90122  1.0000
  C   C821      1.0  0.68244  0.72803  0.80380  1.0000
  C   C822      1.0  0.65164  0.72042  0.75833  1.0000
  C   C823      1.0  0.64233  0.74433  0.69832  1.0000
  C   C824      1.0  0.87403  0.67911  0.67832  1.0000
  C   C825      1.0  0.71377  0.74032  0.85014  1.0000
  H   H1452     1.0  0.72577  0.74417  0.82585  1.0000
  H   H1453     1.0  0.70383  0.75590  0.85714  1.0000
  H   H1454     1.0  0.72373  0.73535  0.87647  1.0000
  N   N46       1.0  0.71850  0.89975  0.68942  1.0000
  C   C826      1.0  0.72987  0.87686  0.68510  1.0000
  C   C827      1.0  0.69610  0.89947  0.66793  1.0000
  C   C828      1.0  0.73337  0.91701  0.66917  1.0000
  C   C829      1.0  0.71523  0.90668  0.73186  1.0000
  C   C830      1.0  0.71176  0.88739  0.76248  1.0000
  C   C831      1.0  0.75515  0.87561  0.69770  1.0000
  C   C832      1.0  0.72327  0.94132  0.66528  1.0000
  C   C833      1.0  0.67856  0.88176  0.68180  1.0000
  C   C834      1.0  0.65727  0.88255  0.65628  1.0000
  C   C835      1.0  0.70444  0.89691  0.80230  1.0000
  C   C836      1.0  0.76329  0.85110  0.70274  1.0000
  H   H1455     1.0  0.73340  0.97514  0.64737  1.0000
  H   H1456     1.0  0.72911  0.87124  0.65400  1.0000
  H   H1457     1.0  0.72055  0.86358  0.70138  1.0000
  H   H1458     1.0  0.68729  0.91616  0.67039  1.0000
  H   H1459     1.0  0.69915  0.89677  0.63590  1.0000
  H   H1460     1.0  0.73794  0.91115  0.63900  1.0000
  H   H1461     1.0  0.74975  0.91873  0.68499  1.0000
  H   H1462     1.0  0.73014  0.91637  0.74252  1.0000
  H   H1463     1.0  0.70064  0.91876  0.73444  1.0000
  H   H1464     1.0  0.72785  0.87783  0.76703  1.0000
  H   H1465     1.0  0.69888  0.87500  0.75326  1.0000
  H   H1466     1.0  0.76596  0.88350  0.67472  1.0000
  H   H1467     1.0  0.75794  0.88477  0.72565  1.0000
  H   H1468     1.0  0.71578  0.94722  0.69343  1.0000
  H   H1469     1.0  0.70986  0.94170  0.64244  1.0000
  H   H1470     1.0  0.68551  0.86424  0.68030  1.0000
  H   H1471     1.0  0.67296  0.88556  0.71217  1.0000
  H   H1472     1.0  0.64511  0.86955  0.66667  1.0000
  H   H1473     1.0  0.64891  0.89948  0.65808  1.0000
  H   H1474     1.0  0.70266  0.88281  0.82374  1.0000
  H   H1475     1.0  0.71731  0.90888  0.81358  1.0000
  H   H1476     1.0  0.68779  0.90581  0.79983  1.0000
  H   H1477     1.0  0.75314  0.84231  0.72562  1.0000
  H   H1478     1.0  0.76176  0.84174  0.67459  1.0000
  H   H1479     1.0  0.78139  0.85081  0.71170  1.0000
  H   H1480     1.0  0.59264  0.90469  0.96767  1.0000
  C   C837      1.0  0.71309  0.98869  0.55730  1.0000
  C   C838      1.0  0.58827  0.90757  0.88670  1.0000
  H   H1481     1.0  0.70897  0.70616  0.83131  1.0000
  C   C839      1.0  0.69807  0.72097  0.83857  1.0000
  H   H1482     1.0  0.68776  0.71653  0.86476  1.0000
  H   H1483     1.0  0.67089  0.74164  0.81511  1.0000
  C   C840      1.0  0.65699  0.69627  0.81766  1.0000
  H   H1484     1.0  0.62080  0.69759  0.80218  1.0000
  H   H1485     1.0  0.59098  0.92436  0.90059  1.0000
  H   H1486     1.0  0.58852  0.83230  0.98175  1.0000
  H   H1487     1.0  0.70268  0.70574  0.92988  1.0000
  H   H1488     1.0  0.63192  0.73075  0.68508  1.0000
  C   C841      1.0  0.91848  0.69369  0.56720  1.0000
  H   H1489     1.0  0.64971  0.75472  0.67431  1.0000
  H   H1490     1.0  0.56821  0.89128  0.95001  1.0000
  N   N47       1.0  0.87491  0.70002  0.56880  1.0000
  C   C842      1.0  0.55453  0.82224  0.92974  1.0000
  H   H1491     1.0  0.63121  0.75549  0.71647  1.0000
  H   H1492     1.0  0.88804  0.71116  0.62499  1.0000
  H   H1493     1.0  0.85828  0.70841  0.62364  1.0000
  C   C843      1.0  0.89463  0.68599  0.55390  1.0000
  H   H1494     1.0  0.91964  0.69495  0.59959  1.0000
  H   H1495     1.0  0.95383  0.68350  0.56114  1.0000
  H   H1496     1.0  0.92252  0.71047  0.55423  1.0000
  H   H1497     1.0  0.85732  0.68662  0.68651  1.0000
  H   H1498     1.0  0.68008  0.90132  0.51958  1.0000
  H   H1499     1.0  0.83820  0.69801  0.56833  1.0000
  H   H1500     1.0  0.85217  0.67163  0.56350  1.0000
  C   C844      1.0  0.87608  0.67681  0.63377  1.0000
  C   C845      1.0  0.84971  0.68984  0.50922  1.0000
  C   C846      1.0  0.82607  0.68151  0.49838  1.0000
  H   H1501     1.0  0.69604  0.70440  0.74311  1.0000
  H   H1502     1.0  0.93605  0.67461  0.52112  1.0000
  H   H1503     1.0  0.85193  0.74106  0.59178  1.0000
  C   C847      1.0  0.49625  0.72756  0.91925  1.0000
  H   H1504     1.0  0.75437  0.96011  0.67611  1.0000
  C   C848      1.0  0.50809  0.77074  0.89381  1.0000
  H   H1505     1.0  0.55368  0.85854  0.93059  1.0000
  H   H1506     1.0  0.85159  0.70704  0.49696  1.0000
  H   H1507     1.0  0.59511  0.87239  0.89679  1.0000
  H   H1508     1.0  0.86241  0.66535  0.62402  1.0000
  S   S191      1.0  0.78653  0.82173  0.50345  1.0000
  H   H1509     1.0  0.69872  0.77460  0.97111  1.0000
  C   C849      1.0  0.93681  0.67695  0.55349  1.0000
  C   C850      1.0  0.71091  0.76033  0.97554  1.0000
  C   C851      1.0  0.85318  0.68965  0.55434  1.0000
  H   H1510     1.0  0.89510  0.68606  0.52132  1.0000
  H   H1511     1.0  0.53611  0.82048  0.92388  1.0000
  C   C852      1.0  0.67462  0.67471  0.73888  1.0000
  H   H1512     1.0  0.89248  0.66789  0.56197  1.0000
  C   C853      1.0  0.59793  0.88854  0.91247  1.0000
  H   H1513     1.0  0.66071  0.68080  0.71964  1.0000
  C   C854      1.0  0.68515  0.69413  0.76299  1.0000
  C   C855      1.0  0.72069  0.67819  0.95889  1.0000
  C   C856      1.0  0.66756  0.90238  0.49537  1.0000
  H   H1514     1.0  0.56015  0.80767  0.94813  1.0000
  H   H1515     1.0  0.54822  0.84507  0.97736  1.0000
  H   H1516     1.0  0.59430  0.84287  0.93447  1.0000
  H   H1517     1.0  0.59697  0.90744  0.85771  1.0000
  C   C857      1.0  0.55903  0.84466  0.95063  1.0000
  H   H1518     1.0  0.81284  0.69309  0.51053  1.0000
  H   H1519     1.0  0.69722  0.68573  0.78347  1.0000
  S   S192      1.0  0.73118  0.86171  0.49569  1.0000
  H   H1520     1.0  0.74986  0.95269  0.62521  1.0000
  H   H1521     1.0  0.65804  0.88625  0.49471  1.0000
  H   H1522     1.0  0.65537  0.91642  0.50141  1.0000
  C   C858      1.0  0.63272  0.85424  0.96330  1.0000
  H   H1523     1.0  0.61640  0.89162  0.91515  1.0000
  H   H1524     1.0  0.62207  0.67992  0.86733  1.0000
  H   H1525     1.0  0.66862  0.84704  0.95568  1.0000
  H   H1526     1.0  0.69912  0.67565  0.69072  1.0000
  H   H1527     1.0  0.71792  0.75538  0.94646  1.0000
  C   C859      1.0  0.62601  0.66950  0.84101  1.0000
  H   H1528     1.0  0.63076  0.85914  0.93221  1.0000
  H   H1529     1.0  0.81232  0.67364  0.93128  1.0000
  C   C860      1.0  0.58683  0.88878  0.95369  1.0000
  H   H1530     1.0  0.89265  0.66844  0.62763  1.0000
  H   H1531     1.0  0.66230  0.87578  0.97062  1.0000
  H   H1532     1.0  0.73710  0.68605  0.95558  1.0000
  H   H1533     1.0  0.62927  0.83581  0.96521  1.0000
  C   C861      1.0  0.58446  0.84662  0.96153  1.0000
  H   H1534     1.0  0.68556  0.73469  0.97373  1.0000
  N   N48       1.0  0.59161  0.86867  0.98002  1.0000
  C   C862      1.0  0.65751  0.85775  0.97460  1.0000
  H   H1535     1.0  0.77016  0.77488  0.48994  1.0000
  C   C863      1.0  0.69243  0.66335  0.71254  1.0000
  C   C864      1.0  0.79934  0.79621  0.48387  1.0000
  H   H1536     1.0  0.64342  0.79130  0.48544  1.0000
