data_image0
_chemical_formula_structural       CHSHCSFeSFeCH2SCHFeHFeSH2FeH2C7H8C2H3C2H2C2H2NHCH3C3HCH2CH4CSNHCH2C2HSHCH2CHCHC3SHN2H4CH2CH2CH2C2HCH4CH4C3H2CH3CH2SHCHSNH3CH4C3FeH5C2H4SCHC2HCH5CHCH2CHCH2C2H4CH2SH2SFeSFeSNHCS3FeSFeSC5HC6H6CHCHCH2C2HC2SH2CHCHCH5SCHNC5HC3SHCH10C2H10CHCH3C3H4FeH5FeCH2CH4CHCH5SH2C2H4FeSFeSHFeSFeS2HSFeS2FeCFeS2HCH3SH2SCH4C2H2C2H2CHCH3C2HCH2C2HCH4CH5C2H2CHCHC3HC2H2C2HCH2CHNCH4SHC5H3CH4CH2CHC2H9SCFeCFeS2HFeCS2FeSFe2SH2S2H2C5H4CH7C3H4CH5CH2CH8SH2CH2SH2CH3CH5CH2CH2CNSCNHCHC3H5C2HC2SC2HC2H2CH4C3H7CH6CH2C2H5C3H3NHCHSC2H2CHSHFeCFeCSH4SC2HFeS2FeS2FeSFeS4HCHC4HCHCNCH4SCSCH2C2HCH2C6H7FeH2CH2FeHCH2CHC3HNC7HCHCHCH13C2H4CH2NC7H9C2H3C2HNH4CHCH4CH3C2HCH9CH2C2H2CH8CHC2SH5CH5C3H2CH2C2HCH2SHSH2CH2CHNC2H2CH9CHC2H3C2H2CHCHCH2C2H2CH4C2HSH2CH2CH5CH5C2H2NSC2HCNH3C2HCHC2H4SH2CH4CH6CH4CSCFeCHFeCHC3HC2HSH2CH4NH3C3S2FeHSH2CSHSCHFeSHS2CHFeS2FeS2FeSFeS3HSH2CHC2HCH2CH4CH3CSC3Fe2H2C6H4C5H2SH7SHCFeNC8HC3H17CH10NC7H20CFeHC2SHC7H3C2H4CH5CH6C2HCH2C3HCHC3HFeCNCH4CH3CH3CH3NH5SH2CH3CSH2CH2SFeCHCHSCH2C2H2S2H5CHCHC2H3FeH4C2HCHC2HFeH2C2H2CHFeCH3SHSHFe2S2FeS2FeHFeS3HCSCH4SHCHCH3C6H4CH3SH5FeCH3CH4CH4CH5CH3CH3CH2CH2CHCH3NC8HC2H12CH9CHNC10H18C2H3CHCHCHCH5NH4C2HC3H3CHC4H2C2HSCFeH3C2NHC2H2C2H5NH3SHCH3SHS2HC2HC6HC3HCSCH9C2H2C2HNCHCHCH2SC5H2SC3H2CHC2H2SH3C2FeCHC2HC2HCHC2HNH10C2H3CH3CH6C2H2FeH7CHSH2CNCH3NHCH2CFeCHCHCH5CHC2HSHFeC2FeC2SCFeCSCHSFeS2FeHSFe3S3HCHCHCHC5HSHCH2FeC2H2CHC7H4CH10CHSH5CH2CSH3CHCNC11H19CH4NC11H6CH15S2H3CH7C3H4SH2CHCSHC2HCHCH3FeHSHFeHSH3CH3CHCNHC3SH3CH3CH3CHCH3C2HCH2SCNCH3C2H4C2NC2H2SHCH3CH3CHC2H8CH8C3HFeHCH7SHCHCHNCH2CHSH4C2HC3HCH2FeCH2FeHCHSH2SC5HSCFeS2FeS2FeSFeS3H2CH2FeHSC2H3FeCH2CHCH2C3HC2HC6H4CH3CHC2H6SHNC2H3CH3SH6SH5C2H2CHNC6HC4H5CH20CH3SH2C3SH2NCH5C2HC2HCHCHFeC3H7CSH3CH2C2HNCHCH3CH2CH3C4NCH4CHCH2FeHSHC3H2C2H8CH4C4H4CH5CSHCH2C4HCHCH9CH4CH2C2HFeH3SH7CH2C3H3SHFeH2SH3Fe2S3FeS2FeH2FeSFeS5FeCHCH4CHC2HSH6C9H5FeC2H2NC3H7CHC6H2C2HCSH3CH3FeCHC4SHCNC3HC2H5CH11CH4CS2FeH4SC2H3FeCSC2NC12H30C2HC2HSH3CHC3HCHCHCH4C2H4CH4CH2C3HCHCH5CNHCH3SH2CHCH2NC8HCH12C2H4NCHC2HSCH3CSFeH7SCHCHCHCNH2CH5CHCH5C2H2C2HCH2C3HC2HCH2CH7CSHCHCHFeC3H2C2HCSHC2Fe2SHSFeS2FeS2FeSFeS4H3SHC2H5CH4CHC2H2C3H2C6H4CHC2HCH2CH6C2HCH2C2H2NC8H8CH4SH3NH3FeHCNH5C2H2SC3HCH2CHCSH2C2H2C2H6CHC2H10CNC12H31CH3CSC2HCH2CH4CH3CH3CHCHCH3CHC2HCHSH2C4H2FeCH3SCHC2H6C2HCH2NC3HCH5C2HCHSHCH2CH5NHC2H10C2HCHCH5SH2CHSH2C2H4CHC2FeCHSFeH3CH7CH3SH2FeHFeHSH2SHFeS2CFeS2FeS2FeHFeS3HSCHC2HC2HSFeHCH4CHCH2CHC7H4C2HCH6C2H3CHFeC3H7SCHCHC2H4CSH4CNCH2SCH4FeH6S2NC7HC2H13CH4C3HC2NC9HC2H28C2HCH5NH2FeCH2CH4C5H2C4H4NC8HCHCH15C2HCH6CHFeSHNHCH2CSCHSC2HCH2CHCFeH2SHSCHCHCH3CH3CHCHC2HCH4CHC2H2SH2CH3C3SH2SFeSFeSCHFeH2FeCSHCHS2CHCH2CFeCH3C3HC2H2CH3CH4SH5SHCH3C3H4CH2C2HSHFeCH2CH4CHCH3C2H2CHCH8NC4H2CHSCHCH7NH2C2HC2SCHSCHC2H5C3H4CHCH2CH6CNH2SH3CHFeSH2Fe2NFeHSH2CS2CH2C3H5CSCH3C2HCH2CH2FeHCHC2SHCH2NH5C2H2CHC3FeCH2C2HCH3C2H8CSHSHCH2CH4CSHC3H3CHC2H4CH2CHCHSHCH2SHCSHC2FeSFeSH3SCH2FeSHCHCHFeC4HC6H5CH2CH2CHCHNCH2CH2C3HC2H2SH3CH3CHCH4CH3CH2CH2SNHCHCHCH5CH4CH7C4H3CHCHCHFeSH2CHSH2CH5C3HSCNFeH9CHCH2CHSCHSC2SHFeSFeHCFeHSH3C2FeSH2C11H7C2HCH2C2H2CH4SCH5CH7CNC2FeCH2C2HCHCHSH2CH3SH2FeH4CH3CH2C3H4CSH3NHCH4SH6C2SHCHCH2
_chemical_formula_sum              "C1296 H2304 S288 Fe144 N72"
_cell_length_a       58.5118
_cell_length_b       58.3565
_cell_length_c       64.7356
_cell_angle_alpha    90.4642
_cell_angle_beta     89.7284
_cell_angle_gamma    116.582

_space_group_name_H-M_alt    "P 1"
_space_group_IT_number       1

loop_
  _space_group_symop_operation_xyz
  'x, y, z'

loop_
  _atom_site_type_symbol
  _atom_site_label
  _atom_site_symmetry_multiplicity
  _atom_site_fract_x
  _atom_site_fract_y
  _atom_site_fract_z
  _atom_site_occupancy
  C   C1        1.0  0.46461  0.23881  0.01537  1.0000
  H   H1        1.0  0.49848  0.46562  0.14303  1.0000
  S   S1        1.0  0.44179  0.31804  0.04988  1.0000
  H   H2        1.0  0.23660  0.45341  0.11459  1.0000
  C   C2        1.0  0.40863  0.32117  0.99691  1.0000
  S   S2        1.0  0.48278  0.35558  0.01653  1.0000
  Fe  Fe1       1.0  0.45492  0.35887  0.03921  1.0000
  S   S3        1.0  0.43367  0.38101  0.02648  1.0000
  Fe  Fe2       1.0  0.47194  0.31587  0.02887  1.0000
  C   C3        1.0  0.48733  0.08717  0.02478  1.0000
  H   H3        1.0  0.40517  0.43491  0.09979  1.0000
  H   H4        1.0  0.47911  0.22811  0.13798  1.0000
  S   S4        1.0  0.30448  0.45502  0.05356  1.0000
  C   C4        1.0  0.40983  0.46929  0.08488  1.0000
  H   H5        1.0  0.46081  0.20146  0.02386  1.0000
  Fe  Fe3       1.0  0.31255  0.48138  0.02611  1.0000
  H   H6        1.0  0.30087  0.46238  0.22683  1.0000
  Fe  Fe4       1.0  0.34301  0.45528  0.04698  1.0000
  S   S5        1.0  0.35043  0.42000  0.05261  1.0000
  H   H7        1.0  0.33494  0.29501  0.04322  1.0000
  H   H8        1.0  0.50114  0.12771  0.01744  1.0000
  Fe  Fe5       1.0  0.47375  0.33493  0.07352  1.0000
  H   H9        1.0  0.42149  0.37010  0.12728  1.0000
  H   H10       1.0  0.43096  0.46383  0.10953  1.0000
  C   C5        1.0  0.26761  0.47439  0.18689  1.0000
  C   C6        1.0  0.41131  0.39245  0.03482  1.0000
  C   C7        1.0  0.39504  0.38215  0.05176  1.0000
  C   C8        1.0  0.37682  0.39100  0.05704  1.0000
  C   C9        1.0  0.37484  0.41064  0.04578  1.0000
  C   C10       1.0  0.39157  0.42138  0.02914  1.0000
  C   C11       1.0  0.40946  0.41219  0.02363  1.0000
  H   H11       1.0  0.39608  0.36699  0.06056  1.0000
  H   H12       1.0  0.36398  0.38243  0.06988  1.0000
  H   H13       1.0  0.39013  0.43616  0.02009  1.0000
  H   H14       1.0  0.42181  0.42031  0.01044  1.0000
  H   H15       1.0  0.01471  0.42053  0.01212  1.0000
  H   H16       1.0  0.21489  0.48630  0.18412  1.0000
  H   H17       1.0  0.37427  0.24661  0.02175  1.0000
  H   H18       1.0  0.19237  0.42978  0.00260  1.0000
  C   C12       1.0  0.48963  0.44110  0.11561  1.0000
  C   C13       1.0  0.33611  0.49027  0.13339  1.0000
  H   H19       1.0  0.33816  0.47705  0.12260  1.0000
  H   H20       1.0  0.47821  0.22088  0.10461  1.0000
  H   H21       1.0  0.45909  0.39105  0.10383  1.0000
  C   C14       1.0  0.46767  0.42933  0.07167  1.0000
  C   C15       1.0  0.24375  0.46682  0.14637  1.0000
  H   H22       1.0  0.16845  0.49452  0.02219  1.0000
  H   H23       1.0  0.45985  0.31625  0.15149  1.0000
  C   C16       1.0  0.48483  0.11215  0.02546  1.0000
  C   C17       1.0  0.37527  0.29231  0.02122  1.0000
  H   H24       1.0  0.25467  0.45353  0.18520  1.0000
  H   H25       1.0  0.22001  0.44356  0.04773  1.0000
  N   N1        1.0  0.48853  0.05308  0.99910  1.0000
  H   H26       1.0  0.43848  0.37937  0.08182  1.0000
  C   C18       1.0  0.25238  0.49211  0.15902  1.0000
  H   H27       1.0  0.25288  0.48430  0.07949  1.0000
  H   H28       1.0  0.44732  0.03673  0.99661  1.0000
  H   H29       1.0  0.45411  0.46866  0.07533  1.0000
  C   C19       1.0  0.23503  0.45135  0.05982  1.0000
  C   C20       1.0  0.47862  0.24671  0.14043  1.0000
  C   C21       1.0  0.47210  0.45146  0.10570  1.0000
  H   H30       1.0  0.48751  0.43044  0.03240  1.0000
  C   C22       1.0  0.01224  0.43400  0.00137  1.0000
  H   H31       1.0  0.22487  0.45200  0.15154  1.0000
  H   H32       1.0  0.17135  0.49481  0.04991  1.0000
  C   C23       1.0  0.22606  0.47648  0.18995  1.0000
  H   H33       1.0  0.40020  0.33482  0.99655  1.0000
  H   H34       1.0  0.21624  0.45672  0.18355  1.0000
  H   H35       1.0  0.35215  0.47891  0.15907  1.0000
  H   H36       1.0  0.40074  0.35841  0.10493  1.0000
  C   C24       1.0  0.48850  0.32993  0.12754  1.0000
  S   S6        1.0  0.46636  0.28583  0.00327  1.0000
  N   N2        1.0  0.25325  0.48983  0.18224  1.0000
  H   H37       1.0  0.38598  0.28866  0.03395  1.0000
  C   C25       1.0  0.23316  0.45414  0.00237  1.0000
  H   H38       1.0  0.35280  0.32744  0.05233  1.0000
  H   H39       1.0  0.23751  0.44139  0.01181  1.0000
  C   C26       1.0  0.47997  0.32338  0.14801  1.0000
  C   C27       1.0  0.28137  0.47890  0.20804  1.0000
  H   H40       1.0  0.46141  0.45459  0.11876  1.0000
  S   S7        1.0  0.34947  0.47900  0.01807  1.0000
  H   H41       1.0  0.41349  0.48248  0.02775  1.0000
  C   C28       1.0  0.49507  0.20824  0.06841  1.0000
  H   H42       1.0  0.22854  0.43853  0.07342  1.0000
  H   H43       1.0  0.28327  0.47872  0.17538  1.0000
  C   C29       1.0  0.42129  0.45342  0.09529  1.0000
  H   H44       1.0  0.42907  0.43914  0.06649  1.0000
  C   C30       1.0  0.49715  0.32542  0.16399  1.0000
  H   H45       1.0  0.42959  0.41319  0.11471  1.0000
  C   C31       1.0  0.44015  0.44926  0.08051  1.0000
  C   C32       1.0  0.43399  0.41002  0.09848  1.0000
  C   C33       1.0  0.19426  0.46446  0.21952  1.0000
  S   S8        1.0  0.48464  0.37538  0.06406  1.0000
  H   H46       1.0  0.39976  0.45980  0.07043  1.0000
  N   N3        1.0  0.45384  0.43484  0.08929  1.0000
  N   N4        1.0  0.38848  0.29408  0.00065  1.0000
  H   H47       1.0  0.41432  0.23257  0.07920  1.0000
  H   H48       1.0  0.41793  0.26279  0.09006  1.0000
  H   H49       1.0  0.22658  0.47774  0.12081  1.0000
  H   H50       1.0  0.25283  0.45142  0.05378  1.0000
  C   C34       1.0  0.46287  0.21420  0.01119  1.0000
  H   H51       1.0  0.39578  0.47124  0.09546  1.0000
  H   H52       1.0  0.47799  0.41860  0.07701  1.0000
  C   C35       1.0  0.43980  0.38649  0.09796  1.0000
  H   H53       1.0  0.42492  0.48878  0.08118  1.0000
  H   H54       1.0  0.47066  0.07268  0.03314  1.0000
  C   C36       1.0  0.48741  0.25534  0.16259  1.0000
  H   H55       1.0  0.26949  0.47937  0.22119  1.0000
  H   H56       1.0  0.45700  0.26861  0.11139  1.0000
  C   C37       1.0  0.42044  0.36439  0.11077  1.0000
  C   C38       1.0  0.42440  0.25374  0.07765  1.0000
  H   H57       1.0  0.46675  0.10954  0.01800  1.0000
  C   C39       1.0  0.45595  0.00474  0.00115  1.0000
  H   H58       1.0  0.45354  0.41651  0.06024  1.0000
  H   H59       1.0  0.48434  0.47096  0.09962  1.0000
  H   H60       1.0  0.42481  0.34774  0.10965  1.0000
  H   H61       1.0  0.45853  0.24361  0.13923  1.0000
  C   C40       1.0  0.46141  0.25673  0.09992  1.0000
  H   H62       1.0  0.25782  0.45897  0.14776  1.0000
  H   H63       1.0  0.46729  0.22251  0.06891  1.0000
  H   H64       1.0  0.41553  0.40329  0.09006  1.0000
  H   H65       1.0  0.22798  0.45897  0.21923  1.0000
  C   C41       1.0  0.24163  0.47143  0.12343  1.0000
  C   C42       1.0  0.46205  0.03318  0.00508  1.0000
  C   C43       1.0  0.25203  0.49752  0.04829  1.0000
  H   H66       1.0  0.47511  0.24031  0.17357  1.0000
  H   H67       1.0  0.36195  0.30320  0.06038  1.0000
  C   C44       1.0  0.40192  0.27722  0.00171  1.0000
  H   H68       1.0  0.44071  0.49813  0.99634  1.0000
  H   H69       1.0  0.18204  0.44578  0.21198  1.0000
  H   H70       1.0  0.46230  0.28439  0.07675  1.0000
  C   C45       1.0  0.43351  0.49765  0.02892  1.0000
  H   H71       1.0  0.48465  0.11816  0.04176  1.0000
  H   H72       1.0  0.27191  0.49985  0.04704  1.0000
  S   S9        1.0  0.46561  0.32395  0.10755  1.0000
  H   H73       1.0  0.44601  0.48852  0.03275  1.0000
  C   C46       1.0  0.22230  0.47359  0.21361  1.0000
  H   H74       1.0  0.45837  0.03457  0.02177  1.0000
  S   S10       1.0  0.36419  0.48921  0.06793  1.0000
  N   N5        1.0  0.48892  0.26135  0.10215  1.0000
  H   H75       1.0  0.47775  0.46253  0.05126  1.0000
  H   H76       1.0  0.41759  0.28508  0.01332  1.0000
  H   H77       1.0  0.35601  0.27553  0.02130  1.0000
  C   C47       1.0  0.48738  0.45276  0.05964  1.0000
  H   H78       1.0  0.44814  0.23645  0.10362  1.0000
  H   H79       1.0  0.41494  0.24254  0.02205  1.0000
  H   H80       1.0  0.29870  0.49764  0.20782  1.0000
  H   H81       1.0  0.45916  0.25508  0.06562  1.0000
  C   C48       1.0  0.23966  0.47837  0.06609  1.0000
  C   C49       1.0  0.49199  0.23788  0.09598  1.0000
  C   C50       1.0  0.49621  0.26695  0.12468  1.0000
  Fe  Fe6       1.0  0.32689  0.49065  0.07267  1.0000
  H   H82       1.0  0.41931  0.25895  0.06249  1.0000
  H   H83       1.0  0.27304  0.43908  0.21363  1.0000
  H   H84       1.0  0.01967  0.45327  0.00868  1.0000
  H   H85       1.0  0.20428  0.48589  0.03206  1.0000
  H   H86       1.0  0.46388  0.24472  0.03108  1.0000
  C   C51       1.0  0.45331  0.26331  0.07882  1.0000
  C   C52       1.0  0.38480  0.24862  0.00705  1.0000
  H   H87       1.0  0.22097  0.47714  0.07086  1.0000
  H   H88       1.0  0.36474  0.32418  0.01650  1.0000
  H   H89       1.0  0.23340  0.49191  0.22185  1.0000
  H   H90       1.0  0.30242  0.45738  0.19953  1.0000
  S   S11       1.0  0.28605  0.48674  0.00179  1.0000
  C   C53       1.0  0.48893  0.07896  0.00215  1.0000
  H   H91       1.0  0.26019  0.48621  0.11753  1.0000
  C   C54       1.0  0.37224  0.31619  0.02865  1.0000
  C   C55       1.0  0.46648  0.25534  0.99917  1.0000
  H   H92       1.0  0.47803  0.42372  0.12475  1.0000
  C   C56       1.0  0.28987  0.45810  0.21220  1.0000
  H   H93       1.0  0.49155  0.20262  0.05185  1.0000
  H   H94       1.0  0.50092  0.43661  0.10388  1.0000
  H   H95       1.0  0.19211  0.46200  0.23653  1.0000
  H   H96       1.0  0.23929  0.50040  0.15466  1.0000
  H   H97       1.0  0.49946  0.24592  0.06251  1.0000
  C   C57       1.0  0.25311  0.47703  0.99537  1.0000
  H   H98       1.0  0.24286  0.48814  0.03363  1.0000
  C   C58       1.0  0.35437  0.30995  0.04729  1.0000
  H   H99       1.0  0.18768  0.47884  0.21495  1.0000
  H   H100      1.0  0.48594  0.27323  0.16633  1.0000
  C   C59       1.0  0.34395  0.49130  0.15412  1.0000
  H   H101      1.0  0.42219  0.32782  0.01014  1.0000
  C   C60       1.0  0.48779  0.22990  0.07290  1.0000
  H   H102      1.0  0.49018  0.31978  0.17955  1.0000
  H   H103      1.0  0.39113  0.33141  0.03353  1.0000
  C   C61       1.0  0.20749  0.44758  0.99706  1.0000
  C   C62       1.0  0.40079  0.23407  0.00940  1.0000
  H   H104      1.0  0.48341  0.19117  0.07791  1.0000
  H   H105      1.0  0.38822  0.21371  0.01315  1.0000
  H   H106      1.0  0.49685  0.28567  0.12924  1.0000
  H   H107      1.0  0.41107  0.23464  0.99478  1.0000
  C   C63       1.0  0.50134  0.44441  0.04345  1.0000
  H   H108      1.0  0.07576  0.42549  0.46661  1.0000
  H   H109      1.0  0.25047  0.46205  0.30055  1.0000
  S   S12       1.0  0.45933  0.30012  0.42500  1.0000
  H   H110      1.0  0.43282  0.29121  0.46668  1.0000
  H   H111      1.0  0.39357  0.48802  0.31708  1.0000
  S   S13       1.0  0.47793  0.34094  0.46407  1.0000
  Fe  Fe7       1.0  0.48294  0.30593  0.45397  1.0000
  S   S14       1.0  0.48584  0.27658  0.47699  1.0000
  Fe  Fe8       1.0  0.45671  0.33685  0.43415  1.0000
  S   S15       1.0  0.41928  0.34114  0.43225  1.0000
  N   N6        1.0  0.11616  0.41417  0.47998  1.0000
  H   H112      1.0  0.40246  0.26448  0.44056  1.0000
  C   C64       1.0  0.10692  0.40238  0.45894  1.0000
  S   S16       1.0  0.32372  0.43800  0.43262  1.0000
  S   S17       1.0  0.37805  0.48765  0.42137  1.0000
  S   S18       1.0  0.35834  0.47602  0.46917  1.0000
  Fe  Fe9       1.0  0.36496  0.45390  0.44289  1.0000
  S   S19       1.0  0.39428  0.43743  0.44631  1.0000
  Fe  Fe10      1.0  0.31798  0.46296  0.45726  1.0000
  S   S20       1.0  0.28531  0.45023  0.48152  1.0000
  C   C65       1.0  0.41504  0.27504  0.47222  1.0000
  C   C66       1.0  0.45001  0.22451  0.47949  1.0000
  C   C67       1.0  0.23385  0.48076  0.48320  1.0000
  C   C68       1.0  0.16353  0.48321  0.46073  1.0000
  C   C69       1.0  0.12393  0.39643  0.49166  1.0000
  H   H113      1.0  0.09765  0.45319  0.48128  1.0000
  C   C70       1.0  0.41299  0.36847  0.43554  1.0000
  C   C71       1.0  0.38806  0.36570  0.43212  1.0000
  C   C72       1.0  0.38198  0.38646  0.43508  1.0000
  C   C73       1.0  0.40076  0.41047  0.44159  1.0000
  C   C74       1.0  0.42574  0.41331  0.44475  1.0000
  C   C75       1.0  0.43184  0.39259  0.44172  1.0000
  H   H114      1.0  0.37323  0.34722  0.42738  1.0000
  H   H115      1.0  0.36263  0.38370  0.43276  1.0000
  H   H116      1.0  0.44052  0.43167  0.44978  1.0000
  H   H117      1.0  0.45110  0.39523  0.44445  1.0000
  H   H118      1.0  0.45986  0.50032  0.40661  1.0000
  H   H119      1.0  0.16465  0.49449  0.44670  1.0000
  C   C76       1.0  0.48713  0.32692  0.32421  1.0000
  H   H120      1.0  0.31001  0.46192  0.33536  1.0000
  C   C77       1.0  0.38989  0.46416  0.34363  1.0000
  H   H121      1.0  0.37699  0.25232  0.45929  1.0000
  C   C78       1.0  0.33737  0.49523  0.31915  1.0000
  H   H122      1.0  0.05788  0.34775  0.43658  1.0000
  H   H123      1.0  0.26444  0.48313  0.46285  1.0000
  C   C79       1.0  0.39521  0.26906  0.45513  1.0000
  C   C80       1.0  0.08323  0.37574  0.45859  1.0000
  H   H124      1.0  0.06685  0.37627  0.46690  1.0000
  C   C81       1.0  0.25999  0.45829  0.48851  1.0000
  C   C82       1.0  0.43871  0.49094  0.40529  1.0000
  S   S21       1.0  0.49172  0.36201  0.41590  1.0000
  H   H125      1.0  0.43944  0.47559  0.37530  1.0000
  H   H126      1.0  0.16047  0.49327  0.47435  1.0000
  C   C83       1.0  0.49012  0.32530  0.34571  1.0000
  H   H127      1.0  0.48643  0.25021  0.27857  1.0000
  C   C84       1.0  0.48302  0.14752  0.48223  1.0000
  H   H128      1.0  0.28132  0.46376  0.30672  1.0000
  C   C85       1.0  0.46475  0.12161  0.47294  1.0000
  H   H129      1.0  0.43895  0.01383  0.48038  1.0000
  H   H130      1.0  0.47710  0.16205  0.47680  1.0000
  H   H131      1.0  0.47568  0.32513  0.35631  1.0000
  H   H132      1.0  0.09019  0.36569  0.42742  1.0000
  H   H133      1.0  0.47035  0.32806  0.31842  1.0000
  S   S22       1.0  0.32420  0.46774  0.37809  1.0000
  C   C86       1.0  0.44026  0.19966  0.48814  1.0000
  H   H134      1.0  0.27341  0.46668  0.28034  1.0000
  N   N7        1.0  0.38974  0.43324  0.37247  1.0000
  C   C87       1.0  0.39781  0.44337  0.35088  1.0000
  C   C88       1.0  0.39708  0.41198  0.37703  1.0000
  C   C89       1.0  0.36092  0.42218  0.37352  1.0000
  C   C90       1.0  0.40070  0.45428  0.38846  1.0000
  C   C91       1.0  0.32705  0.47994  0.33681  1.0000
  H   H135      1.0  0.43712  0.45488  0.39682  1.0000
  C   C92       1.0  0.34786  0.40634  0.39309  1.0000
  C   C93       1.0  0.42227  0.41400  0.36738  1.0000
  C   C94       1.0  0.43004  0.39480  0.37725  1.0000
  S   S23       1.0  0.32847  0.49640  0.43590  1.0000
  H   H136      1.0  0.14541  0.44722  0.44469  1.0000
  C   C95       1.0  0.31880  0.39542  0.39162  1.0000
  H   H137      1.0  0.38977  0.42719  0.33957  1.0000
  H   H138      1.0  0.41883  0.45168  0.34897  1.0000
  H   H139      1.0  0.39788  0.40968  0.39407  1.0000
  H   H140      1.0  0.38210  0.39324  0.37121  1.0000
  H   H141      1.0  0.35215  0.40960  0.35983  1.0000
  H   H142      1.0  0.35482  0.43772  0.37289  1.0000
  H   H143      1.0  0.39365  0.46882  0.38596  1.0000
  H   H144      1.0  0.39366  0.44655  0.40403  1.0000
  H   H145      1.0  0.43051  0.48442  0.42091  1.0000
  H   H146      1.0  0.06881  0.38052  0.42870  1.0000
  C   C96       1.0  0.13960  0.43982  0.47795  1.0000
  C   C97       1.0  0.07459  0.36699  0.43643  1.0000
  H   H147      1.0  0.35407  0.41839  0.40721  1.0000
  H   H148      1.0  0.35225  0.38988  0.39511  1.0000
  H   H149      1.0  0.41949  0.40961  0.35057  1.0000
  H   H150      1.0  0.43846  0.43328  0.36912  1.0000
  H   H151      1.0  0.41456  0.37493  0.37561  1.0000
  H   H152      1.0  0.44751  0.39583  0.36961  1.0000
  H   H153      1.0  0.43426  0.39922  0.39394  1.0000
  H   H154      1.0  0.43932  0.22849  0.46765  1.0000
  H   H155      1.0  0.43657  0.49559  0.47021  1.0000
  H   H156      1.0  0.22933  0.49352  0.47394  1.0000
  C   C98       1.0  0.14157  0.45622  0.45862  1.0000
  H   H157      1.0  0.42089  0.48214  0.32135  1.0000
  C   C99       1.0  0.27114  0.47145  0.29663  1.0000
  H   H158      1.0  0.31309  0.41106  0.38971  1.0000
  H   H159      1.0  0.31144  0.38192  0.37834  1.0000
  H   H160      1.0  0.30990  0.38489  0.40600  1.0000
  C   C100      1.0  0.39968  0.47333  0.32183  1.0000
  C   C101      1.0  0.43014  0.46817  0.39037  1.0000
  C   C102      1.0  0.08335  0.43280  0.48221  1.0000
  H   H161      1.0  0.10197  0.41504  0.44919  1.0000
  H   H162      1.0  0.46970  0.10637  0.47838  1.0000
  H   H163      1.0  0.12269  0.40047  0.45056  1.0000
  H   H164      1.0  0.12387  0.45811  0.45585  1.0000
  Fe  Fe11      1.0  0.33710  0.47294  0.41202  1.0000
  H   H165      1.0  0.15742  0.43728  0.47760  1.0000
  H   H166      1.0  0.40504  0.30077  0.49011  1.0000
  H   H167      1.0  0.46547  0.12233  0.45581  1.0000
  H   H168      1.0  0.18201  0.48237  0.46258  1.0000
  H   H169      1.0  0.36879  0.45659  0.34317  1.0000
  Fe  Fe12      1.0  0.49616  0.32639  0.40887  1.0000
  C   C103      1.0  0.25387  0.47491  0.47685  1.0000
  H   H170      1.0  0.48829  0.01885  0.45972  1.0000
  H   H171      1.0  0.39159  0.28593  0.45229  1.0000
  C   C104      1.0  0.47327  0.24416  0.48633  1.0000
  H   H172      1.0  0.42209  0.18489  0.48283  1.0000
  H   H173      1.0  0.13788  0.39249  0.48232  1.0000
  H   H174      1.0  0.41866  0.25807  0.47412  1.0000
  H   H175      1.0  0.08764  0.36093  0.46566  1.0000
  C   C105      1.0  0.33859  0.48767  0.35633  1.0000
  H   H176      1.0  0.39786  0.48123  0.35391  1.0000
  C   C106      1.0  0.28209  0.50052  0.29908  1.0000
  H   H177      1.0  0.39170  0.45714  0.31063  1.0000
  H   H178      1.0  0.32854  0.48882  0.30422  1.0000
  H   H179      1.0  0.44491  0.11670  0.47796  1.0000
  H   H180      1.0  0.05232  0.44298  0.48738  1.0000
  H   H181      1.0  0.29061  0.49995  0.33119  1.0000
  S   S24       1.0  0.50088  0.32855  0.28321  1.0000
  H   H182      1.0  0.14163  0.45190  0.49185  1.0000
  H   H183      1.0  0.25975  0.49776  0.32643  1.0000
  C   C107      1.0  0.09549  0.41689  0.49224  1.0000
  C   C108      1.0  0.40596  0.28231  0.49274  1.0000
  H   H184      1.0  0.10722  0.37759  0.49437  1.0000
  H   H185      1.0  0.45663  0.29902  0.49390  1.0000
  H   H186      1.0  0.03733  0.34046  0.59710  1.0000
  H   H187      1.0  0.47692  0.11905  0.63076  1.0000
  Fe  Fe13      1.0  0.48513  0.11041  0.53601  1.0000
  S   S25       1.0  0.44446  0.09779  0.52653  1.0000
  Fe  Fe14      1.0  0.47847  0.13479  0.57652  1.0000
  S   S26       1.0  0.43709  0.12332  0.56910  1.0000
  H   H188      1.0  0.39057  0.07445  0.73152  1.0000
  Fe  Fe15      1.0  0.43502  0.08469  0.55941  1.0000
  S   S27       1.0  0.40674  0.04462  0.57165  1.0000
  Fe  Fe16      1.0  0.45103  0.13760  0.53661  1.0000
  S   S28       1.0  0.43948  0.16198  0.51455  1.0000
  S   S29       1.0  0.47588  0.09600  0.56850  1.0000
  H   H189      1.0  0.49837  0.01760  0.49645  1.0000
  S   S30       1.0  0.12919  0.47560  0.52663  1.0000
  Fe  Fe17      1.0  0.15492  0.47541  0.58181  1.0000
  S   S31       1.0  0.14645  0.44330  0.55869  1.0000
  S   S32       1.0  0.17529  0.47787  0.61246  1.0000
  Fe  Fe18      1.0  0.16618  0.47425  0.53504  1.0000
  C   C109      1.0  0.45361  0.19370  0.50364  1.0000
  Fe  Fe19      1.0  0.10997  0.44669  0.55182  1.0000
  S   S33       1.0  0.07223  0.41034  0.54528  1.0000
  S   S34       1.0  0.11740  0.47644  0.57665  1.0000
  H   H190      1.0  0.47217  0.29267  0.52671  1.0000
  C   C110      1.0  0.14830  0.49060  0.64235  1.0000
  H   H191      1.0  0.29615  0.48384  0.52019  1.0000
  H   H192      1.0  0.25028  0.43504  0.51591  1.0000
  H   H193      1.0  0.21537  0.44567  0.52713  1.0000
  S   S35       1.0  0.49716  0.15533  0.70120  1.0000
  H   H194      1.0  0.12777  0.49969  0.66632  1.0000
  H   H195      1.0  0.05457  0.37399  0.59072  1.0000
  S   S36       1.0  0.49213  0.15030  0.54453  1.0000
  C   C111      1.0  0.31444  0.49970  0.52568  1.0000
  H   H196      1.0  0.33808  0.47360  0.54641  1.0000
  H   H197      1.0  0.40609  0.24731  0.54703  1.0000
  H   H198      1.0  0.13224  0.48283  0.63187  1.0000
  H   H199      1.0  0.44843  0.32296  0.50360  1.0000
  C   C112      1.0  0.38183  0.27714  0.53340  1.0000
  C   C113      1.0  0.22596  0.45392  0.51314  1.0000
  H   H200      1.0  0.06643  0.44088  0.73926  1.0000
  H   H201      1.0  0.03355  0.35170  0.57197  1.0000
  C   C114      1.0  0.03796  0.39729  0.54458  1.0000
  C   C115      1.0  0.48554  0.13534  0.66165  1.0000
  H   H202      1.0  0.03368  0.42804  0.56002  1.0000
  H   H203      1.0  0.03499  0.36344  0.52891  1.0000
  C   C116      1.0  0.47715  0.21321  0.51020  1.0000
  H   H204      1.0  0.42867  0.22237  0.55569  1.0000
  C   C117      1.0  0.02451  0.37302  0.53548  1.0000
  H   H205      1.0  0.42120  0.29450  0.54400  1.0000
  H   H206      1.0  0.39470  0.10708  0.73030  1.0000
  H   H207      1.0  0.10312  0.42627  0.50733  1.0000
  C   C118      1.0  0.42866  0.22800  0.53934  1.0000
  C   C119      1.0  0.46863  0.30970  0.52474  1.0000
  H   H208      1.0  0.40307  0.24260  0.50982  1.0000
  C   C120      1.0  0.34077  0.02173  0.59084  1.0000
  H   H209      1.0  0.35325  0.27100  0.55702  1.0000
  H   H210      1.0  0.12082  0.40534  0.52430  1.0000
  C   C121      1.0  0.24582  0.44789  0.50669  1.0000
  C   C122      1.0  0.42122  0.25848  0.51556  1.0000
  H   H211      1.0  0.43647  0.25674  0.50630  1.0000
  C   C123      1.0  0.21968  0.47034  0.50138  1.0000
  H   H212      1.0  0.47616  0.11694  0.66918  1.0000
  H   H213      1.0  0.47371  0.11202  0.74005  1.0000
  H   H214      1.0  0.49954  0.01816  0.53646  1.0000
  H   H215      1.0  0.08000  0.39777  0.49648  1.0000
  C   C124      1.0  0.07936  0.43183  0.74157  1.0000
  H   H216      1.0  0.43975  0.26741  0.54651  1.0000
  H   H217      1.0  0.44757  0.23229  0.53255  1.0000
  H   H218      1.0  0.37596  0.25632  0.53172  1.0000
  H   H219      1.0  0.38390  0.27616  0.56700  1.0000
  H   H220      1.0  0.48099  0.04348  0.55456  1.0000
  C   C125      1.0  0.33507  0.46977  0.52956  1.0000
  C   C126      1.0  0.13575  0.40589  0.51338  1.0000
  H   H221      1.0  0.48755  0.20932  0.52230  1.0000
  H   H222      1.0  0.31633  0.45288  0.52685  1.0000
  C   C127      1.0  0.49426  0.33204  0.51895  1.0000
  H   H223      1.0  0.13179  0.36867  0.52338  1.0000
  C   C128      1.0  0.19180  0.50001  0.65069  1.0000
  H   H224      1.0  0.37945  0.30284  0.55704  1.0000
  C   C129      1.0  0.38636  0.00526  0.54204  1.0000
  C   C130      1.0  0.43750  0.01358  0.49750  1.0000
  C   C131      1.0  0.02372  0.40929  0.55297  1.0000
  H   H225      1.0  0.32955  0.02333  0.60417  1.0000
  C   C132      1.0  0.37424  0.28216  0.55497  1.0000
  C   C133      1.0  0.14577  0.50001  0.66196  1.0000
  H   H226      1.0  0.41362  0.21157  0.53087  1.0000
  H   H227      1.0  0.41401  0.31337  0.52665  1.0000
  C   C134      1.0  0.44860  0.30445  0.50753  1.0000
  C   C135      1.0  0.42390  0.25165  0.53830  1.0000
  H   H228      1.0  0.48046  0.14571  0.49921  1.0000
  C   C136      1.0  0.03620  0.35644  0.58871  1.0000
  H   H229      1.0  0.34630  0.03887  0.58094  1.0000
  H   H230      1.0  0.35035  0.46522  0.52346  1.0000
  C   C137      1.0  0.39467  0.01221  0.56243  1.0000
  H   H231      1.0  0.37077  0.28234  0.52203  1.0000
  N   N8        1.0  0.42173  0.28425  0.51174  1.0000
  C   C138      1.0  0.14683  0.38877  0.52216  1.0000
  H   H232      1.0  0.38892  0.02004  0.53100  1.0000
  H   H233      1.0  0.46252  0.31466  0.53964  1.0000
  H   H234      1.0  0.35856  0.02159  0.59661  1.0000
  H   H235      1.0  0.15461  0.39569  0.53784  1.0000
  S   S37       1.0  0.19435  0.47833  0.50832  1.0000
  H   H236      1.0  0.16267  0.38945  0.51223  1.0000
  C   C139      1.0  0.41088  0.29332  0.52942  1.0000
  C   C140      1.0  0.01427  0.36127  0.59712  1.0000
  C   C141      1.0  0.48587  0.13647  0.63984  1.0000
  C   C142      1.0  0.48678  0.23816  0.50169  1.0000
  C   C143      1.0  0.49745  0.15775  0.67375  1.0000
  H   H237      1.0  0.38590  0.26753  0.49497  1.0000
  H   H238      1.0  0.01720  0.36516  0.61394  1.0000
  H   H239      1.0  0.49219  0.34989  0.51673  1.0000
  C   C144      1.0  0.17136  0.49054  0.63659  1.0000
  H   H240      1.0  0.10447  0.49820  0.61408  1.0000
  H   H241      1.0  0.15139  0.42569  0.51304  1.0000
  H   H242      1.0  0.33379  0.48844  0.50171  1.0000
  H   H243      1.0  0.30974  0.49061  0.70377  1.0000
  C   C145      1.0  0.33607  0.49315  0.51839  1.0000
  H   H244      1.0  0.01553  0.37887  0.58964  1.0000
  H   H245      1.0  0.08440  0.42688  0.72616  1.0000
  C   C146      1.0  0.38756  0.08955  0.73994  1.0000
  H   H246      1.0  0.06808  0.44101  0.51059  1.0000
  C   C147      1.0  0.06115  0.43205  0.49521  1.0000
  C   C148      1.0  0.49817  0.16011  0.62986  1.0000
  H   H247      1.0  0.45693  0.02396  0.50424  1.0000
  H   H248      1.0  0.31345  0.49827  0.54274  1.0000
  H   H249      1.0  0.42631  0.02395  0.50214  1.0000
  H   H250      1.0  0.50060  0.04444  0.52108  1.0000
  H   H251      1.0  0.04627  0.41201  0.49736  1.0000
  H   H252      1.0  0.20963  0.49981  0.64652  1.0000
  H   H253      1.0  0.11348  0.46735  0.74291  1.0000
  H   H254      1.0  0.00201  0.32588  0.63019  1.0000
  H   H255      1.0  0.36672  0.08262  0.74241  1.0000
  S   S38       1.0  0.50130  0.16272  0.60247  1.0000
  C   C149      1.0  0.35587  0.30088  0.97748  1.0000
  Fe  Fe20      1.0  0.46663  0.15103  0.95954  1.0000
  C   C150      1.0  0.46588  0.22248  0.97460  1.0000
  Fe  Fe21      1.0  0.45309  0.09468  0.94425  1.0000
  S   S39       1.0  0.48428  0.11007  0.92008  1.0000
  S   S40       1.0  0.43734  0.05041  0.94787  1.0000
  H   H256      1.0  0.42374  0.07745  0.83430  1.0000
  Fe  Fe22      1.0  0.47187  0.14048  0.91355  1.0000
  C   C151      1.0  0.45063  0.18300  0.78709  1.0000
  S   S41       1.0  0.47864  0.12078  0.96919  1.0000
  S   S42       1.0  0.43853  0.12375  0.93607  1.0000
  Fe  Fe23      1.0  0.14521  0.46814  0.95718  1.0000
  S   S43       1.0  0.16823  0.45390  0.97819  1.0000
  Fe  Fe24      1.0  0.09003  0.45674  0.94136  1.0000
  Fe  Fe25      1.0  0.13804  0.47986  0.91209  1.0000
  S   S44       1.0  0.04528  0.43797  0.94196  1.0000
  H   H257      1.0  0.29610  0.47828  0.93118  1.0000
  H   H258      1.0  0.46481  0.10589  0.81688  1.0000
  S   S45       1.0  0.11960  0.44371  0.93124  1.0000
  S   S46       1.0  0.11418  0.47835  0.96890  1.0000
  H   H259      1.0  0.21678  0.49923  0.96808  1.0000
  H   H260      1.0  0.39284  0.07760  0.77004  1.0000
  C   C152      1.0  0.09762  0.45703  0.77475  1.0000
  C   C153      1.0  0.43040  0.10439  0.75797  1.0000
  C   C154      1.0  0.10369  0.45029  0.75275  1.0000
  C   C155      1.0  0.41168  0.01865  0.95114  1.0000
  C   C156      1.0  0.38644  0.01408  0.95510  1.0000
  H   H261      1.0  0.17681  0.42597  0.89979  1.0000
  H   H262      1.0  0.45657  0.13217  0.81861  1.0000
  H   H263      1.0  0.46623  0.21640  0.95883  1.0000
  H   H264      1.0  0.38192  0.03011  0.95622  1.0000
  C   C157      1.0  0.09108  0.47507  0.81852  1.0000
  H   H265      1.0  0.32382  0.27003  0.96167  1.0000
  H   H266      1.0  0.11638  0.44079  0.75373  1.0000
  H   H267      1.0  0.44347  0.10513  0.84967  1.0000
  H   H268      1.0  0.20912  0.43050  0.92780  1.0000
  H   H269      1.0  0.24133  0.47811  0.88420  1.0000
  H   H270      1.0  0.08338  0.44556  0.84179  1.0000
  H   H271      1.0  0.17747  0.44286  0.78439  1.0000
  C   C158      1.0  0.43969  0.35404  0.97207  1.0000
  C   C159      1.0  0.23091  0.43187  0.86573  1.0000
  C   C160      1.0  0.22566  0.46159  0.89198  1.0000
  H   H272      1.0  0.50106  0.08498  0.96127  1.0000
  H   H273      1.0  0.49561  0.12738  0.86562  1.0000
  H   H274      1.0  0.45239  0.35670  0.95857  1.0000
  H   H275      1.0  0.20985  0.49313  0.92992  1.0000
  C   C161      1.0  0.14507  0.48079  0.78089  1.0000
  H   H276      1.0  0.19563  0.48232  0.90534  1.0000
  H   H277      1.0  0.08073  0.46100  0.77357  1.0000
  H   H278      1.0  0.46398  0.08878  0.77530  1.0000
  H   H279      1.0  0.28661  0.45946  0.95445  1.0000
  H   H280      1.0  0.25149  0.44382  0.89415  1.0000
  C   C162      1.0  0.15036  0.45850  0.78861  1.0000
  H   H281      1.0  0.35023  0.28958  0.94495  1.0000
  H   H282      1.0  0.37075  0.23900  0.99456  1.0000
  C   C163      1.0  0.08694  0.46589  0.84092  1.0000
  H   H283      1.0  0.16701  0.44558  0.91550  1.0000
  H   H284      1.0  0.43718  0.11835  0.74499  1.0000
  H   H285      1.0  0.11365  0.45496  0.81312  1.0000
  H   H286      1.0  0.41617  0.10433  0.83648  1.0000
  H   H287      1.0  0.42382  0.15014  0.77079  1.0000
  H   H288      1.0  0.24944  0.49363  0.93701  1.0000
  H   H289      1.0  0.41139  0.27718  0.98676  1.0000
  H   H290      1.0  0.19128  0.47720  0.78227  1.0000
  S   S47       1.0  0.10724  0.49129  0.92044  1.0000
  H   H291      1.0  0.47290  0.07946  0.99331  1.0000
  H   H292      1.0  0.13393  0.43963  0.78541  1.0000
  C   C164      1.0  0.45717  0.14398  0.77796  1.0000
  H   H293      1.0  0.49354  0.48458  0.95426  1.0000
  H   H294      1.0  0.25223  0.44308  0.92800  1.0000
  S   S48       1.0  0.46924  0.15619  0.88169  1.0000
  H   H295      1.0  0.49712  0.05382  0.93370  1.0000
  H   H296      1.0  0.16026  0.49883  0.78744  1.0000
  C   C165      1.0  0.21390  0.48893  0.91385  1.0000
  H   H297      1.0  0.10979  0.50209  0.74881  1.0000
  H   H298      1.0  0.06923  0.41388  0.75051  1.0000
  H   H299      1.0  0.07367  0.46287  0.80956  1.0000
  C   C166      1.0  0.15836  0.40891  0.92817  1.0000
  H   H300      1.0  0.43611  0.18972  0.79099  1.0000
  H   H301      1.0  0.20075  0.45182  0.94159  1.0000
  H   H302      1.0  0.24277  0.45335  0.95130  1.0000
  H   H303      1.0  0.50011  0.03410  0.97517  1.0000
  H   H304      1.0  0.34342  0.30122  0.99031  1.0000
  C   C167      1.0  0.42499  0.32552  0.97705  1.0000
  H   H305      1.0  0.18397  0.48137  0.84347  1.0000
  H   H306      1.0  0.17193  0.45696  0.76145  1.0000
  C   C168      1.0  0.17602  0.43247  0.91580  1.0000
  H   H307      1.0  0.43183  0.08707  0.75203  1.0000
  H   H308      1.0  0.24480  0.44851  0.85681  1.0000
  C   C169      1.0  0.23186  0.43869  0.88867  1.0000
  N   N9        1.0  0.44736  0.11529  0.77674  1.0000
  S   S49       1.0  0.15467  0.47767  0.88020  1.0000
  C   C170      1.0  0.22114  0.48650  0.97752  1.0000
  N   N10       1.0  0.22285  0.46833  0.91408  1.0000
  H   H309      1.0  0.13187  0.48829  0.81780  1.0000
  C   C171      1.0  0.24834  0.47914  0.92521  1.0000
  H   H310      1.0  0.02542  0.38207  0.94780  1.0000
  C   C172      1.0  0.49827  0.14236  0.85474  1.0000
  C   C173      1.0  0.43190  0.09865  0.83532  1.0000
  C   C174      1.0  0.20300  0.44575  0.92566  1.0000
  H   H311      1.0  0.39707  0.10993  0.76879  1.0000
  H   H312      1.0  0.15637  0.41442  0.94430  1.0000
  H   H313      1.0  0.13910  0.39999  0.92099  1.0000
  H   H314      1.0  0.16590  0.39451  0.92837  1.0000
  H   H315      1.0  0.49501  0.14070  0.75345  1.0000
  C   C175      1.0  0.44879  0.11115  0.81659  1.0000
  C   C176      1.0  0.01360  0.41169  0.94359  1.0000
  H   H316      1.0  0.26426  0.48979  0.91424  1.0000
  C   C177      1.0  0.28286  0.47292  0.94460  1.0000
  C   C178      1.0  0.36920  0.28417  0.98335  1.0000
  S   S50       1.0  0.46023  0.17390  0.98659  1.0000
  C   C179      1.0  0.16428  0.49994  0.85937  1.0000
  C   C180      1.0  0.40128  0.09546  0.76077  1.0000
  H   H317      1.0  0.41310  0.31597  0.96340  1.0000
  C   C181      1.0  0.11506  0.47406  0.80913  1.0000
  C   C182      1.0  0.43346  0.10208  0.79616  1.0000
  H   H318      1.0  0.46528  0.15271  0.76282  1.0000
  H   H319      1.0  0.41574  0.10425  0.79841  1.0000
  C   C183      1.0  0.20118  0.46361  0.98456  1.0000
  H   H320      1.0  0.06849  0.49049  0.95675  1.0000
  H   H321      1.0  0.46443  0.18822  0.80008  1.0000
  H   H322      1.0  0.42625  0.36210  0.96830  1.0000
  H   H323      1.0  0.23590  0.41572  0.86368  1.0000
  C   C184      1.0  0.48760  0.15905  0.85897  1.0000
  C   C185      1.0  0.33872  0.28982  0.95859  1.0000
  C   C186      1.0  0.43750  0.15399  0.78366  1.0000
  H   H324      1.0  0.42698  0.08103  0.79471  1.0000
  H   H325      1.0  0.09067  0.43890  0.78368  1.0000
  H   H326      1.0  0.47476  0.49728  0.98345  1.0000
  H   H327      1.0  0.32905  0.30190  0.95488  1.0000
  H   H328      1.0  0.35357  0.26504  0.98732  1.0000
  H   H329      1.0  0.21810  0.42129  0.89677  1.0000
  H   H330      1.0  0.07014  0.46748  0.84751  1.0000
  C   C187      1.0  0.24682  0.49302  0.98279  1.0000
  H   H331      1.0  0.37802  0.28067  0.96915  1.0000
  H   H332      1.0  0.45165  0.36487  0.98537  1.0000
  H   H333      1.0  0.10394  0.47784  0.85048  1.0000
  H   H334      1.0  0.28682  0.49035  0.95394  1.0000
  H   H335      1.0  0.14863  0.48262  0.76402  1.0000
  H   H336      1.0  0.42700  0.14528  0.79805  1.0000
  C   C188      1.0  0.25507  0.46010  0.93733  1.0000
  H   H337      1.0  0.47431  0.04037  0.96804  1.0000
  H   H338      1.0  0.46084  0.19303  0.77290  1.0000
  C   C189      1.0  0.00928  0.38630  0.94651  1.0000
  C   C190      1.0  0.47016  0.10980  0.77428  1.0000
  H   H339      1.0  0.47349  0.15257  0.78895  1.0000
  H   H340      1.0  0.43921  0.31797  0.97921  1.0000
  H   H341      1.0  0.09353  0.49508  0.81872  1.0000
  H   H342      1.0  0.15372  0.46025  0.80556  1.0000
  H   H343      1.0  0.48405  0.11872  0.78707  1.0000
  C   C191      1.0  0.46707  0.24689  0.97877  1.0000
  C   C192      1.0  0.17422  0.45898  0.77850  1.0000
  C   C193      1.0  0.48580  0.11948  0.75400  1.0000
  H   H344      1.0  0.20818  0.45804  0.88296  1.0000
  H   H345      1.0  0.46835  0.25928  0.96603  1.0000
  H   H346      1.0  0.21140  0.42589  0.85946  1.0000
  N   N11       1.0  0.11905  0.47871  0.78614  1.0000
  H   H347      1.0  0.02370  0.43552  0.98724  1.0000
  C   C194      1.0  0.49278  0.04867  0.97657  1.0000
  H   H348      1.0  0.48217  0.19077  0.84729  1.0000
  S   S51       1.0  0.49882  0.16864  0.93667  1.0000
  C   C195      1.0  0.49058  0.17790  0.84431  1.0000
  C   C196      1.0  0.46353  0.20576  0.99079  1.0000
  H   H349      1.0  0.00402  0.36848  0.87527  1.0000
  H   H350      1.0  0.36984  0.32073  0.97361  1.0000
  C   C197      1.0  0.17847  0.49675  0.84291  1.0000
  H   H351      1.0  0.49888  0.08982  0.75291  1.0000
  S   S52       1.0  0.32702  0.55678  0.21807  1.0000
  H   H352      1.0  0.21413  0.67219  0.16330  1.0000
  Fe  Fe26      1.0  0.34610  0.53135  0.22158  1.0000
  C   C198      1.0  0.47678  0.83641  0.14550  1.0000
  Fe  Fe27      1.0  0.18937  0.64161  0.23048  1.0000
  C   C199      1.0  0.24050  0.65949  0.17537  1.0000
  S   S53       1.0  0.17026  0.62132  0.20018  1.0000
  H   H353      1.0  0.22641  0.63892  0.17505  1.0000
  H   H354      1.0  0.05365  0.54338  0.09259  1.0000
  H   H355      1.0  0.40523  0.80599  0.09434  1.0000
  H   H356      1.0  0.29038  0.57030  0.18784  1.0000
  S   S54       1.0  0.35058  0.50800  0.19463  1.0000
  C   C200      1.0  0.19984  0.73426  0.19556  1.0000
  C   C201      1.0  0.21328  0.71659  0.19419  1.0000
  H   H357      1.0  0.29766  0.53096  0.02778  1.0000
  Fe  Fe28      1.0  0.14066  0.66157  0.08797  1.0000
  S   S55       1.0  0.11987  0.67741  0.06742  1.0000
  S   S56       1.0  0.14424  0.67248  0.12231  1.0000
  Fe  Fe29      1.0  0.14895  0.63205  0.05195  1.0000
  S   S57       1.0  0.12847  0.64541  0.02966  1.0000
  S   S58       1.0  0.16503  0.60451  0.04287  1.0000
  Fe  Fe30      1.0  0.15159  0.68447  0.04421  1.0000
  S   S59       1.0  0.17095  0.71870  0.02184  1.0000
  Fe  Fe31      1.0  0.09873  0.63702  0.05476  1.0000
  S   S60       1.0  0.05643  0.60800  0.04865  1.0000
  S   S61       1.0  0.17332  0.67112  0.06557  1.0000
  S   S62       1.0  0.11843  0.62135  0.07625  1.0000
  S   S63       1.0  0.44814  0.86997  0.05715  1.0000
  H   H358      1.0  0.07475  0.61281  0.18734  1.0000
  C   C202      1.0  0.07942  0.58279  0.00208  1.0000
  H   H359      1.0  0.43784  0.74656  0.15541  1.0000
  C   C203      1.0  0.46805  0.82621  0.18237  1.0000
  C   C204      1.0  0.08474  0.54755  0.01754  1.0000
  C   C205      1.0  0.46196  0.67716  0.99739  1.0000
  C   C206      1.0  0.49365  0.76000  0.23478  1.0000
  H   H360      1.0  0.28391  0.53359  0.07121  1.0000
  C   C207      1.0  0.43597  0.86621  0.03193  1.0000
  H   H361      1.0  0.43430  0.51091  0.04163  1.0000
  C   C208      1.0  0.42769  0.74926  0.19691  1.0000
  N   N12       1.0  0.45872  0.67384  0.02056  1.0000
  C   C209      1.0  0.23121  0.67731  0.04144  1.0000
  H   H362      1.0  0.45494  0.75408  0.23110  1.0000
  H   H363      1.0  0.16725  0.70729  0.21337  1.0000
  H   H364      1.0  0.33252  0.84020  0.02195  1.0000
  H   H365      1.0  0.47058  0.83993  0.13066  1.0000
  S   S64       1.0  0.23208  0.65720  0.23296  1.0000
  C   C210      1.0  0.38670  0.75438  0.19423  1.0000
  S   S65       1.0  0.44629  0.81908  0.20351  1.0000
  C   C211      1.0  0.20259  0.74369  0.01693  1.0000
  H   H366      1.0  0.22135  0.71630  0.20962  1.0000
  H   H367      1.0  0.08901  0.52650  0.05593  1.0000
  C   C212      1.0  0.24757  0.76963  0.02589  1.0000
  C   C213      1.0  0.02397  0.60136  0.05446  1.0000
  H   H368      1.0  0.19311  0.73053  0.22881  1.0000
  C   C214      1.0  0.46134  0.69886  0.02963  1.0000
  H   H369      1.0  0.03195  0.63881  0.06609  1.0000
  H   H370      1.0  0.41363  0.88626  0.03887  1.0000
  C   C215      1.0  0.16237  0.63531  0.17869  1.0000
  C   C216      1.0  0.16181  0.62537  0.15870  1.0000
  C   C217      1.0  0.15616  0.63635  0.14126  1.0000
  C   C218      1.0  0.15079  0.65731  0.14366  1.0000
  C   C219      1.0  0.15079  0.66685  0.16370  1.0000
  C   C220      1.0  0.15638  0.65584  0.18109  1.0000
  H   H371      1.0  0.16611  0.60929  0.15667  1.0000
  H   H372      1.0  0.15614  0.62869  0.12599  1.0000
  H   H373      1.0  0.14639  0.68286  0.16580  1.0000
  H   H374      1.0  0.15588  0.66310  0.19643  1.0000
  H   H375      1.0  0.43717  0.76789  0.20529  1.0000
  H   H376      1.0  0.08275  0.57112  0.09958  1.0000
  H   H377      1.0  0.43432  0.64816  0.05847  1.0000
  Fe  Fe32      1.0  0.48355  0.86428  0.06160  1.0000
  H   H378      1.0  0.10080  0.57990  0.03944  1.0000
  H   H379      1.0  0.20290  0.70281  0.15604  1.0000
  C   C221      1.0  0.41411  0.69806  0.17349  1.0000
  H   H380      1.0  0.07766  0.52657  0.01903  1.0000
  H   H381      1.0  0.25420  0.70699  0.19509  1.0000
  Fe  Fe33      1.0  0.44438  0.80769  0.23780  1.0000
  H   H382      1.0  0.49612  0.76015  0.12497  1.0000
  C   C222      1.0  0.35341  0.83311  0.04749  1.0000
  H   H383      1.0  0.07901  0.59130  0.01739  1.0000
  H   H384      1.0  0.41768  0.65934  0.02455  1.0000
  C   C223      1.0  0.41635  0.56670  0.01460  1.0000
  H   H385      1.0  0.25196  0.53687  0.17078  1.0000
  C   C224      1.0  0.43811  0.71380  0.18666  1.0000
  C   C225      1.0  0.26738  0.51663  0.19097  1.0000
  C   C226      1.0  0.22628  0.67591  0.17720  1.0000
  H   H386      1.0  0.04091  0.55516  0.02568  1.0000
  N   N13       1.0  0.04962  0.61414  0.12685  1.0000
  C   C227      1.0  0.40831  0.75243  0.18223  1.0000
  C   C228      1.0  0.06652  0.61985  0.14569  1.0000
  C   C229      1.0  0.05085  0.63924  0.11960  1.0000
  C   C230      1.0  0.05909  0.60279  0.10969  1.0000
  C   C231      1.0  0.04779  0.57308  0.10875  1.0000
  C   C232      1.0  0.32246  0.52279  0.14119  1.0000
  C   C233      1.0  0.07792  0.66098  0.11509  1.0000
  H   H387      1.0  0.45364  0.70895  0.18165  1.0000
  C   C234      1.0  0.06291  0.56461  0.09388  1.0000
  H   H388      1.0  0.07782  0.58880  0.14564  1.0000
  C   C235      1.0  0.07648  0.68316  0.10373  1.0000
  H   H389      1.0  0.47728  0.66369  0.04539  1.0000
  C   C236      1.0  0.25283  0.53341  0.08995  1.0000
  H   H390      1.0  0.08671  0.63307  0.14174  1.0000
  H   H391      1.0  0.06052  0.63001  0.15759  1.0000
  H   H392      1.0  0.04175  0.64685  0.13116  1.0000
  H   H393      1.0  0.03972  0.63625  0.10508  1.0000
  H   H394      1.0  0.05517  0.60862  0.09428  1.0000
  H   H395      1.0  0.08030  0.61089  0.11039  1.0000
  H   H396      1.0  0.46830  0.61804  0.99553  1.0000
  H   H397      1.0  0.04761  0.56455  0.12396  1.0000
  H   H398      1.0  0.29418  0.55102  0.99530  1.0000
  H   H399      1.0  0.42397  0.98924  0.02287  1.0000
  H   H400      1.0  0.08917  0.65384  0.10550  1.0000
  H   H401      1.0  0.08840  0.66893  0.12973  1.0000
  H   H402      1.0  0.44350  0.93239  0.00625  1.0000
  C   C237      1.0  0.44272  0.85322  0.01672  1.0000
  C   C238      1.0  0.34911  0.80564  0.01731  1.0000
  H   H403      1.0  0.34499  0.72478  0.23383  1.0000
  H   H404      1.0  0.30053  0.58037  0.00923  1.0000
  H   H405      1.0  0.24863  0.67434  0.04019  1.0000
  H   H406      1.0  0.44005  0.62520  0.04354  1.0000
  C   C239      1.0  0.30370  0.56297  0.00904  1.0000
  H   H407      1.0  0.09608  0.69887  0.10158  1.0000
  H   H408      1.0  0.06764  0.67680  0.08826  1.0000
  N   N14       1.0  0.23360  0.72322  0.17773  1.0000
  C   C240      1.0  0.24504  0.70469  0.17966  1.0000
  C   C241      1.0  0.25372  0.75044  0.18182  1.0000
  C   C242      1.0  0.22091  0.72101  0.15705  1.0000
  C   C243      1.0  0.23705  0.72266  0.13763  1.0000
  C   C244      1.0  0.28173  0.75729  0.17574  1.0000
  C   C245      1.0  0.29916  0.78588  0.17881  1.0000
  C   C246      1.0  0.01722  0.61969  0.06287  1.0000
  H   H409      1.0  0.26067  0.70898  0.16835  1.0000
  H   H410      1.0  0.24839  0.76444  0.17427  1.0000
  H   H411      1.0  0.25473  0.75503  0.19868  1.0000
  H   H412      1.0  0.21468  0.73633  0.15540  1.0000
  H   H413      1.0  0.24459  0.70831  0.13792  1.0000
  H   H414      1.0  0.25308  0.74215  0.13631  1.0000
  H   H415      1.0  0.28925  0.74683  0.18577  1.0000
  H   H416      1.0  0.28332  0.75228  0.15947  1.0000
  H   H417      1.0  0.29886  0.79145  0.19524  1.0000
  C   C247      1.0  0.47903  0.66691  0.02847  1.0000
  C   C248      1.0  0.40080  0.80196  0.07765  1.0000
  H   H418      1.0  0.27816  0.74443  0.05296  1.0000
  H   H419      1.0  0.45385  0.73375  0.05488  1.0000
  H   H420      1.0  0.30919  0.78999  0.04397  1.0000
  C   C249      1.0  0.29471  0.74108  0.05749  1.0000
  C   C250      1.0  0.27150  0.54501  0.10789  1.0000
  H   H421      1.0  0.37269  0.84796  0.04309  1.0000
  N   N15       1.0  0.25185  0.52319  0.05035  1.0000
  H   H422      1.0  0.39437  0.77186  0.20411  1.0000
  H   H423      1.0  0.39865  0.60459  0.06092  1.0000
  H   H424      1.0  0.27540  0.55878  0.06644  1.0000
  H   H425      1.0  0.25552  0.52732  0.01704  1.0000
  C   C251      1.0  0.46794  0.74736  0.22360  1.0000
  H   H426      1.0  0.41834  0.81397  0.06872  1.0000
  C   C252      1.0  0.10149  0.54726  0.05367  1.0000
  H   H427      1.0  0.21424  0.65842  0.04330  1.0000
  H   H428      1.0  0.04883  0.58153  0.16018  1.0000
  H   H429      1.0  0.01966  0.57796  0.13782  1.0000
  H   H430      1.0  0.35968  0.88241  0.03807  1.0000
  C   C253      1.0  0.44094  0.58720  0.01380  1.0000
  H   H431      1.0  0.08494  0.58824  0.18292  1.0000
  H   H432      1.0  0.38052  0.54675  0.99865  1.0000
  H   H433      1.0  0.10409  0.55438  0.01063  1.0000
  C   C254      1.0  0.42857  0.63604  0.04442  1.0000
  C   C255      1.0  0.34084  0.86938  0.04483  1.0000
  H   H434      1.0  0.37836  0.67684  0.22173  1.0000
  C   C256      1.0  0.40068  0.61623  0.04691  1.0000
  H   H435      1.0  0.18218  0.52468  0.03592  1.0000
  H   H436      1.0  0.44698  0.68904  0.06129  1.0000
  H   H437      1.0  0.33432  0.75416  0.05027  1.0000
  H   H438      1.0  0.28326  0.56593  0.10568  1.0000
  H   H439      1.0  0.48210  0.95484  0.02930  1.0000
  H   H440      1.0  0.10546  0.55700  0.06897  1.0000
  H   H441      1.0  0.35036  0.69689  0.22975  1.0000
  H   H442      1.0  0.35232  0.83426  0.06460  1.0000
  H   H443      1.0  0.32626  0.87481  0.03866  1.0000
  C   C257      1.0  0.06799  0.59675  0.15607  1.0000
  H   H444      1.0  0.26204  0.57405  0.19362  1.0000
  H   H445      1.0  0.38501  0.82856  0.07625  1.0000
  C   C258      1.0  0.46466  0.70241  0.05333  1.0000
  C   C259      1.0  0.18205  0.72755  0.21428  1.0000
  H   H446      1.0  0.21102  0.69410  0.02455  1.0000
  H   H447      1.0  0.48049  0.77532  0.19907  1.0000
  C   C260      1.0  0.46038  0.83062  0.16281  1.0000
  H   H448      1.0  0.24103  0.51292  0.09332  1.0000
  H   H449      1.0  0.16504  0.55837  0.02669  1.0000
  H   H450      1.0  0.21382  0.75473  0.19705  1.0000
  H   H451      1.0  0.37208  0.78532  0.04422  1.0000
  H   H452      1.0  0.49470  0.76121  0.16271  1.0000
  H   H453      1.0  0.25192  0.66396  0.16092  1.0000
  H   H454      1.0  0.18800  0.73187  0.18161  1.0000
  H   H455      1.0  0.31432  0.53520  0.13627  1.0000
  C   C261      1.0  0.20710  0.50599  0.03299  1.0000
  H   H456      1.0  0.25333  0.66278  0.18883  1.0000
  C   C262      1.0  0.18069  0.50502  0.03552  1.0000
  C   C263      1.0  0.40720  0.87171  0.00761  1.0000
  S   S66       1.0  0.26178  0.72846  0.23564  1.0000
  H   H457      1.0  0.19788  0.69699  0.19185  1.0000
  H   H458      1.0  0.24451  0.67398  0.00052  1.0000
  H   H459      1.0  0.21390  0.66933  0.19105  1.0000
  H   H460      1.0  0.45611  0.84568  0.02023  1.0000
  H   H461      1.0  0.46267  0.75229  0.12331  1.0000
  C   C264      1.0  0.15764  0.59005  0.01816  1.0000
  H   H462      1.0  0.09992  0.59085  0.99775  1.0000
  H   H463      1.0  0.39440  0.60301  0.03337  1.0000
  H   H464      1.0  0.41819  0.77036  0.17318  1.0000
  H   H465      1.0  0.48531  0.78306  0.13357  1.0000
  H   H466      1.0  0.34162  0.87185  0.06189  1.0000
  C   C265      1.0  0.22315  0.74945  0.03041  1.0000
  C   C266      1.0  0.47625  0.75093  0.15446  1.0000
  C   C267      1.0  0.26432  0.53860  0.03125  1.0000
  H   H467      1.0  0.26113  0.55604  0.03061  1.0000
  H   H468      1.0  0.27017  0.51648  0.20789  1.0000
  C   C268      1.0  0.08371  0.60498  0.17594  1.0000
  H   H469      1.0  0.17231  0.74008  0.21474  1.0000
  H   H470      1.0  0.37283  0.75576  0.18329  1.0000
  C   C269      1.0  0.25213  0.78425  0.00771  1.0000
  C   C270      1.0  0.31873  0.75887  0.04562  1.0000
  H   H471      1.0  0.27491  0.56085  0.21269  1.0000
  C   C271      1.0  0.40792  0.66967  0.17329  1.0000
  H   H472      1.0  0.40424  0.71712  0.24113  1.0000
  H   H473      1.0  0.26078  0.54195  0.12263  1.0000
  S   S67       1.0  0.40805  0.54635  0.03612  1.0000
  H   H474      1.0  0.02779  0.56455  0.10310  1.0000
  S   S68       1.0  0.37124  0.62556  0.22624  1.0000
  H   H475      1.0  0.39031  0.65861  0.16414  1.0000
  H   H476      1.0  0.44436  0.70182  0.02580  1.0000
  C   C272      1.0  0.29350  0.54759  0.02884  1.0000
  H   H477      1.0  0.41672  0.70466  0.15727  1.0000
  H   H478      1.0  0.00846  0.59039  0.10059  1.0000
  C   C273      1.0  0.15916  0.56702  0.01441  1.0000
  H   H479      1.0  0.46014  0.72646  0.22617  1.0000
  N   N16       1.0  0.44746  0.74247  0.18714  1.0000
  C   C274      1.0  0.45454  0.75420  0.16591  1.0000
  C   C275      1.0  0.47135  0.75400  0.20024  1.0000
  H   H480      1.0  0.31912  0.79015  0.17472  1.0000
  H   H481      1.0  0.01699  0.60516  0.14684  1.0000
  C   C276      1.0  0.39013  0.65365  0.24038  1.0000
  H   H482      1.0  0.31445  0.75452  0.02896  1.0000
  H   H483      1.0  0.46051  0.77521  0.16704  1.0000
  H   H484      1.0  0.29781  0.74418  0.07441  1.0000
  H   H485      1.0  0.28707  0.52597  0.18446  1.0000
  H   H486      1.0  0.21283  0.73139  0.11668  1.0000
  H   H487      1.0  0.39953  0.73632  0.17116  1.0000
  H   H488      1.0  0.06518  0.69077  0.11279  1.0000
  H   H489      1.0  0.02199  0.50419  0.00151  1.0000
  H   H490      1.0  0.23612  0.52740  0.19548  1.0000
  C   C277      1.0  0.22088  0.71746  0.11805  1.0000
  H   H491      1.0  0.41674  0.73503  0.20892  1.0000
  C   C278      1.0  0.41856  0.87582  0.02721  1.0000
  C   C279      1.0  0.48575  0.93781  0.02713  1.0000
  H   H492      1.0  0.22008  0.73874  0.04457  1.0000
  H   H493      1.0  0.39730  0.69934  0.18034  1.0000
  H   H494      1.0  0.46680  0.92083  0.02886  1.0000
  C   C280      1.0  0.22494  0.52055  0.05132  1.0000
  C   C281      1.0  0.32561  0.78730  0.04997  1.0000
  H   H495      1.0  0.45391  0.59057  0.02659  1.0000
  H   H496      1.0  0.40451  0.66191  0.18926  1.0000
  C   C282      1.0  0.27163  0.56159  0.19590  1.0000
  H   H497      1.0  0.14946  0.61911  0.00472  1.0000
  C   C283      1.0  0.43238  0.65213  0.02455  1.0000
  H   H498      1.0  0.29000  0.72081  0.05393  1.0000
  C   C284      1.0  0.33362  0.84156  0.03898  1.0000
  H   H499      1.0  0.43297  0.70583  0.20249  1.0000
  H   H500      1.0  0.38808  0.62579  0.04860  1.0000
  C   C285      1.0  0.22830  0.69105  0.02237  1.0000
  C   C286      1.0  0.44160  0.51199  0.00843  1.0000
  H   H501      1.0  0.39368  0.87906  0.00417  1.0000
  H   H502      1.0  0.39078  0.81848  0.04024  1.0000
  C   C287      1.0  0.26718  0.53771  0.06901  1.0000
  H   H503      1.0  0.32087  0.69662  0.22142  1.0000
  H   H504      1.0  0.49868  0.82429  0.19928  1.0000
  H   H505      1.0  0.47777  0.71534  0.02238  1.0000
  H   H506      1.0  0.30450  0.55986  0.04195  1.0000
  C   C288      1.0  0.15017  0.60116  0.00218  1.0000
  C   C289      1.0  0.49113  0.94147  0.06621  1.0000
  H   H507      1.0  0.23285  0.71923  0.10423  1.0000
  S   S69       1.0  0.33325  0.51685  0.04573  1.0000
  H   H508      1.0  0.11995  0.54990  0.04688  1.0000
  H   H509      1.0  0.32533  0.79014  0.06696  1.0000
  C   C290      1.0  0.31399  0.75435  0.23862  1.0000
  H   H510      1.0  0.36082  0.82493  0.01054  1.0000
  H   H511      1.0  0.29303  0.79750  0.16882  1.0000
  C   C291      1.0  0.35911  0.78794  0.00653  1.0000
  H   H512      1.0  0.06993  0.55512  0.04693  1.0000
  H   H513      1.0  0.47172  0.73040  0.15289  1.0000
  H   H514      1.0  0.36197  0.79579  0.08104  1.0000
  H   H515      1.0  0.39545  0.78143  0.07463  1.0000
  H   H516      1.0  0.31430  0.82955  0.04536  1.0000
  C   C292      1.0  0.37331  0.80431  0.04829  1.0000
  H   H517      1.0  0.32911  0.53762  0.17255  1.0000
  H   H518      1.0  0.20489  0.69773  0.11827  1.0000
  H   H519      1.0  0.35510  0.77595  0.24111  1.0000
  H   H520      1.0  0.42381  0.66682  0.16623  1.0000
  H   H521      1.0  0.10345  0.61974  0.17261  1.0000
  C   C293      1.0  0.37894  0.80824  0.07179  1.0000
  C   C294      1.0  0.39009  0.67675  0.23455  1.0000
  H   H522      1.0  0.23285  0.68906  0.05546  1.0000
  H   H523      1.0  0.37649  0.73723  0.20401  1.0000
  N   N17       1.0  0.06799  0.55393  0.00337  1.0000
  S   S70       1.0  0.28357  0.80980  0.00313  1.0000
  C   C295      1.0  0.44911  0.60285  0.99629  1.0000
  C   C296      1.0  0.33067  0.52409  0.16183  1.0000
  H   H524      1.0  0.42386  0.96678  0.00362  1.0000
  C   C297      1.0  0.08845  0.55889  0.03973  1.0000
  N   N18       1.0  0.35022  0.80700  0.04072  1.0000
  H   H525      1.0  0.26297  0.77422  0.03675  1.0000
  H   H526      1.0  0.28435  0.53569  0.10906  1.0000
  H   H527      1.0  0.44162  0.82973  0.16107  1.0000
  C   C298      1.0  0.33579  0.70352  0.23360  1.0000
  C   C299      1.0  0.32505  0.50583  0.12684  1.0000
  H   H528      1.0  0.35203  0.76899  0.01394  1.0000
  C   C300      1.0  0.02226  0.59713  0.13294  1.0000
  H   H529      1.0  0.22562  0.53993  0.05240  1.0000
  C   C301      1.0  0.02647  0.51530  0.01617  1.0000
  C   C302      1.0  0.48023  0.76229  0.13276  1.0000
  H   H530      1.0  0.24000  0.54284  0.08972  1.0000
  H   H531      1.0  0.31404  0.75413  0.22192  1.0000
  H   H532      1.0  0.02900  0.54823  0.00031  1.0000
  H   H533      1.0  0.08077  0.63139  0.00145  1.0000
  S   S71       1.0  0.48541  0.82868  0.07244  1.0000
  H   H534      1.0  0.47628  0.64831  0.02162  1.0000
  H   H535      1.0  0.24538  0.70997  0.02184  1.0000
  C   C303      1.0  0.49743  0.57702  0.99587  1.0000
  H   H536      1.0  0.21485  0.51054  0.06549  1.0000
  H   H537      1.0  0.46584  0.54842  0.02134  1.0000
  H   H538      1.0  0.42682  0.63773  0.01172  1.0000
  H   H539      1.0  0.06347  0.57269  0.07833  1.0000
  C   C304      1.0  0.04110  0.54429  0.01154  1.0000
  H   H540      1.0  0.48140  0.52862  0.01795  1.0000
  H   H541      1.0  0.48566  0.74778  0.19453  1.0000
  H   H542      1.0  0.32924  0.80002  0.01188  1.0000
  H   H543      1.0  0.32455  0.56898  0.00772  1.0000
  H   H544      1.0  0.21481  0.51545  0.01802  1.0000
  H   H545      1.0  0.47069  0.92767  0.06831  1.0000
  C   C305      1.0  0.39956  0.56250  0.99811  1.0000
  H   H546      1.0  0.48105  0.69953  0.05894  1.0000
  H   H547      1.0  0.38036  0.79711  0.00714  1.0000
  H   H548      1.0  0.41499  0.99143  0.99652  1.0000
  H   H549      1.0  0.21133  0.65543  0.00578  1.0000
  C   C306      1.0  0.43158  0.84935  0.99701  1.0000
  S   S72       1.0  0.37929  0.56071  0.23980  1.0000
  C   C307      1.0  0.34117  0.50810  0.16851  1.0000
  Fe  Fe34      1.0  0.35845  0.58509  0.23808  1.0000
  C   C308      1.0  0.25483  0.53474  0.18742  1.0000
  H   H550      1.0  0.49973  0.91642  0.04683  1.0000
  Fe  Fe35      1.0  0.36882  0.51274  0.03954  1.0000
  C   C309      1.0  0.42802  0.98705  0.00639  1.0000
  H   H551      1.0  0.48784  0.74397  0.05254  1.0000
  C   C310      1.0  0.46853  0.53521  0.01009  1.0000
  C   C311      1.0  0.49239  0.82745  0.18435  1.0000
  C   C312      1.0  0.46983  0.72962  0.05970  1.0000
  H   H552      1.0  0.00897  0.56235  0.04361  1.0000
  C   C313      1.0  0.22616  0.67526  0.00242  1.0000
  C   C314      1.0  0.20719  0.75816  0.99867  1.0000
  H   H553      1.0  0.18126  0.66814  0.99586  1.0000
  S   S73       1.0  0.31251  0.50342  0.10144  1.0000
  H   H554      1.0  0.47186  0.73178  0.07674  1.0000
  H   H555      1.0  0.49319  0.96133  0.06647  1.0000
  C   C315      1.0  0.00423  0.57674  0.05011  1.0000
  H   H556      1.0  0.42715  0.51878  0.00461  1.0000
  H   H557      1.0  0.03741  0.50875  0.02646  1.0000
  H   H558      1.0  0.27158  0.50563  0.15304  1.0000
  H   H559      1.0  0.46802  0.99911  0.01102  1.0000
  N   N19       1.0  0.49649  0.93798  0.00577  1.0000
  H   H560      1.0  0.48551  0.58590  0.00201  1.0000
  H   H561      1.0  0.49547  0.90090  0.00954  1.0000
  H   H562      1.0  0.00432  0.51850  0.04228  1.0000
  C   C316      1.0  0.00198  0.59327  0.11608  1.0000
  C   C317      1.0  0.15258  0.55484  0.99495  1.0000
  C   C318      1.0  0.50119  0.83788  0.14750  1.0000
  S   S74       1.0  0.18869  0.67686  0.24404  1.0000
  S   S75       1.0  0.48585  0.85296  0.30627  1.0000
  Fe  Fe36      1.0  0.35534  0.54311  0.26840  1.0000
  H   H563      1.0  0.37219  0.60796  0.33224  1.0000
  S   S76       1.0  0.16021  0.71673  0.49214  1.0000
  H   H564      1.0  0.24571  0.55878  0.33845  1.0000
  H   H565      1.0  0.25100  0.58809  0.32572  1.0000
  C   C319      1.0  0.34464  0.62999  0.28568  1.0000
  S   S77       1.0  0.33713  0.56995  0.26775  1.0000
  H   H566      1.0  0.17268  0.53470  0.38579  1.0000
  S   S78       1.0  0.22768  0.67603  0.28045  1.0000
  C   C320      1.0  0.19185  0.57639  0.38317  1.0000
  H   H567      1.0  0.29168  0.58532  0.32747  1.0000
  Fe  Fe37      1.0  0.18524  0.65815  0.27527  1.0000
  S   S79       1.0  0.15474  0.65361  0.29937  1.0000
  H   H568      1.0  0.23609  0.55827  0.31183  1.0000
  S   S80       1.0  0.42923  0.78446  0.29496  1.0000
  S   S81       1.0  0.44055  0.72837  0.27469  1.0000
  C   C321      1.0  0.40803  0.56049  0.47825  1.0000
  H   H569      1.0  0.15313  0.55210  0.47593  1.0000
  Fe  Fe38      1.0  0.14286  0.66568  0.42431  1.0000
  S   S82       1.0  0.11986  0.68245  0.44115  1.0000
  S   S83       1.0  0.16867  0.68072  0.39585  1.0000
  Fe  Fe39      1.0  0.13519  0.62785  0.45930  1.0000
  S   S84       1.0  0.11171  0.64168  0.47871  1.0000
  S   S85       1.0  0.14562  0.59514  0.46330  1.0000
  Fe  Fe40      1.0  0.09140  0.64134  0.44884  1.0000
  S   S86       1.0  0.04813  0.61953  0.44030  1.0000
  Fe  Fe41      1.0  0.14186  0.68170  0.46985  1.0000
  S   S87       1.0  0.43461  0.82951  0.26251  1.0000
  S   S88       1.0  0.11381  0.62537  0.43011  1.0000
  S   S89       1.0  0.16599  0.66725  0.45246  1.0000
  H   H570      1.0  0.30216  0.50919  0.29366  1.0000
  S   S90       1.0  0.39560  0.54997  0.45328  1.0000
  H   H571      1.0  0.39366  0.84480  0.48551  1.0000
  H   H572      1.0  0.35894  0.89988  0.47089  1.0000
  C   C322      1.0  0.31904  0.54954  0.48449  1.0000
  H   H573      1.0  0.29941  0.54793  0.48499  1.0000
  C   C323      1.0  0.35946  0.51852  0.32073  1.0000
  C   C324      1.0  0.27648  0.68635  0.32570  1.0000
  H   H574      1.0  0.27290  0.73407  0.27934  1.0000
  C   C325      1.0  0.14212  0.58041  0.48761  1.0000
  H   H575      1.0  0.28859  0.55053  0.29575  1.0000
  H   H576      1.0  0.33869  0.52689  0.49098  1.0000
  C   C326      1.0  0.25389  0.59983  0.26751  1.0000
  H   H577      1.0  0.21043  0.66729  0.42132  1.0000
  H   H578      1.0  0.18731  0.60847  0.42275  1.0000
  H   H579      1.0  0.20805  0.64791  0.44354  1.0000
  H   H580      1.0  0.16981  0.62723  0.42199  1.0000
  C   C327      1.0  0.18740  0.62623  0.41668  1.0000
  H   H581      1.0  0.31388  0.71353  0.29721  1.0000
  H   H582      1.0  0.38935  0.76305  0.33322  1.0000
  H   H583      1.0  0.45001  0.76346  0.41477  1.0000
  C   C328      1.0  0.46746  0.77488  0.42401  1.0000
  S   S91       1.0  0.26558  0.52924  0.25204  1.0000
  C   C329      1.0  0.01511  0.60629  0.44819  1.0000
  C   C330      1.0  0.27727  0.57304  0.31616  1.0000
  C   C331      1.0  0.49006  0.77184  0.41489  1.0000
  Fe  Fe42      1.0  0.43907  0.76584  0.26824  1.0000
  Fe  Fe43      1.0  0.48610  0.87020  0.46645  1.0000
  H   H584      1.0  0.49508  0.80710  0.36716  1.0000
  H   H585      1.0  0.29324  0.62143  0.25840  1.0000
  C   C332      1.0  0.15903  0.66139  0.32615  1.0000
  C   C333      1.0  0.18325  0.67549  0.33484  1.0000
  C   C334      1.0  0.18572  0.68141  0.35613  1.0000
  C   C335      1.0  0.16411  0.67307  0.36906  1.0000
  C   C336      1.0  0.13990  0.65893  0.36040  1.0000
  C   C337      1.0  0.13741  0.65321  0.33906  1.0000
  H   H586      1.0  0.20004  0.68202  0.32510  1.0000
  H   H587      1.0  0.20454  0.69246  0.36263  1.0000
  H   H588      1.0  0.12309  0.65261  0.37009  1.0000
  H   H589      1.0  0.11858  0.64242  0.33248  1.0000
  C   C338      1.0  0.32837  0.66318  0.29177  1.0000
  C   C339      1.0  0.42692  0.58578  0.48110  1.0000
  C   C340      1.0  0.28025  0.50821  0.32184  1.0000
  C   C341      1.0  0.31383  0.75619  0.28170  1.0000
  C   C342      1.0  0.40487  0.69961  0.24536  1.0000
  H   H590      1.0  0.28153  0.58462  0.30182  1.0000
  H   H591      1.0  0.20855  0.64381  0.35378  1.0000
  S   S92       1.0  0.25208  0.62639  0.27900  1.0000
  H   H592      1.0  0.44338  0.79070  0.45839  1.0000
  H   H593      1.0  0.35741  0.62507  0.27587  1.0000
  H   H594      1.0  0.45378  0.55303  0.47850  1.0000
  H   H595      1.0  0.46861  0.79868  0.49088  1.0000
  H   H596      1.0  0.39975  0.89819  0.47750  1.0000
  H   H597      1.0  0.43277  0.67660  0.27999  1.0000
  H   H598      1.0  0.35358  0.86943  0.48160  1.0000
  S   S93       1.0  0.44563  0.86358  0.47341  1.0000
  H   H599      1.0  0.04317  0.55580  0.47962  1.0000
  C   C343      1.0  0.32634  0.55085  0.46170  1.0000
  Fe  Fe44      1.0  0.36868  0.50826  0.44689  1.0000
  N   N20       1.0  0.19979  0.75847  0.43137  1.0000
  C   C344      1.0  0.21032  0.74349  0.44369  1.0000
  C   C345      1.0  0.18351  0.76595  0.44543  1.0000
  C   C346      1.0  0.18242  0.74062  0.41500  1.0000
  C   C347      1.0  0.22039  0.78169  0.42095  1.0000
  C   C348      1.0  0.24656  0.79540  0.43224  1.0000
  C   C349      1.0  0.22377  0.73039  0.43086  1.0000
  C   C350      1.0  0.16699  0.75098  0.40185  1.0000
  C   C351      1.0  0.19744  0.78487  0.46323  1.0000
  H   H600      1.0  0.39983  0.93945  0.48156  1.0000
  C   C352      1.0  0.26370  0.82093  0.42202  1.0000
  C   C353      1.0  0.24029  0.72243  0.44439  1.0000
  C   C354      1.0  0.15445  0.73348  0.38331  1.0000
  H   H601      1.0  0.19463  0.72801  0.45249  1.0000
  H   H602      1.0  0.22383  0.75567  0.45569  1.0000
  H   H603      1.0  0.17402  0.77552  0.43661  1.0000
  H   H604      1.0  0.16784  0.74840  0.45226  1.0000
  H   H605      1.0  0.16841  0.72236  0.42213  1.0000
  H   H606      1.0  0.19373  0.73522  0.40383  1.0000
  H   H607      1.0  0.22488  0.77652  0.40534  1.0000
  H   H608      1.0  0.21326  0.79614  0.41800  1.0000
  H   H609      1.0  0.25689  0.78344  0.43163  1.0000
  H   H610      1.0  0.24454  0.79926  0.44872  1.0000
  H   H611      1.0  0.20921  0.71273  0.42342  1.0000
  H   H612      1.0  0.23590  0.74305  0.41846  1.0000
  H   H613      1.0  0.17946  0.77046  0.39597  1.0000
  H   H614      1.0  0.15131  0.75165  0.41115  1.0000
  H   H615      1.0  0.20874  0.77809  0.47285  1.0000
  H   H616      1.0  0.21024  0.80398  0.45688  1.0000
  H   H617      1.0  0.29915  0.58343  0.24883  1.0000
  C   C355      1.0  0.00751  0.61046  0.46787  1.0000
  H   H618      1.0  0.27097  0.50664  0.28867  1.0000
  H   H619      1.0  0.28245  0.82995  0.43005  1.0000
  H   H620      1.0  0.26710  0.81792  0.40553  1.0000
  H   H621      1.0  0.25484  0.83423  0.42304  1.0000
  H   H622      1.0  0.25503  0.73926  0.45269  1.0000
  H   H623      1.0  0.22823  0.70785  0.45577  1.0000
  H   H624      1.0  0.25009  0.71383  0.43457  1.0000
  H   H625      1.0  0.16911  0.73210  0.37308  1.0000
  H   H626      1.0  0.14104  0.71394  0.38858  1.0000
  H   H627      1.0  0.14350  0.74126  0.37419  1.0000
  N   N21       1.0  0.16851  0.60522  0.38123  1.0000
  C   C356      1.0  0.17194  0.60970  0.35815  1.0000
  C   C357      1.0  0.14326  0.60458  0.38747  1.0000
  C   C358      1.0  0.16738  0.57971  0.38692  1.0000
  C   C359      1.0  0.11966  0.58741  0.37407  1.0000
  C   C360      1.0  0.19972  0.62311  0.34961  1.0000
  C   C361      1.0  0.20012  0.62115  0.32604  1.0000
  C   C362      1.0  0.09523  0.58715  0.38282  1.0000
  H   H628      1.0  0.16128  0.59133  0.34958  1.0000
  H   H629      1.0  0.16337  0.62239  0.35316  1.0000
  H   H630      1.0  0.14470  0.62424  0.38737  1.0000
  H   H631      1.0  0.13833  0.59785  0.40369  1.0000
  H   H632      1.0  0.16170  0.57527  0.40341  1.0000
  H   H633      1.0  0.15204  0.56401  0.37807  1.0000
  H   H634      1.0  0.19492  0.57533  0.36633  1.0000
  H   H635      1.0  0.11680  0.56733  0.37351  1.0000
  H   H636      1.0  0.12178  0.59462  0.35801  1.0000
  H   H637      1.0  0.21208  0.61505  0.35587  1.0000
  H   H638      1.0  0.22002  0.63172  0.32026  1.0000
  H   H639      1.0  0.19260  0.60084  0.32100  1.0000
  H   H640      1.0  0.18843  0.62963  0.31890  1.0000
  H   H641      1.0  0.20685  0.54916  0.38930  1.0000
  H   H642      1.0  0.07876  0.57520  0.37279  1.0000
  H   H643      1.0  0.09137  0.57898  0.39862  1.0000
  H   H644      1.0  0.09689  0.60687  0.38339  1.0000
  H   H645      1.0  0.34820  0.72465  0.27331  1.0000
  H   H646      1.0  0.38869  0.54376  0.34157  1.0000
  H   H647      1.0  0.48500  0.75117  0.41462  1.0000
  C   C363      1.0  0.30189  0.68554  0.32176  1.0000
  Fe  Fe45      1.0  0.30740  0.54008  0.24780  1.0000
  H   H648      1.0  0.30520  0.50853  0.48788  1.0000
  C   C364      1.0  0.18929  0.55139  0.39255  1.0000
  C   C365      1.0  0.28081  0.58099  0.25453  1.0000
  S   S94       1.0  0.32382  0.51199  0.25032  1.0000
  H   H649      1.0  0.36785  0.67030  0.28325  1.0000
  C   C366      1.0  0.36123  0.89027  0.48492  1.0000
  C   C367      1.0  0.48914  0.82624  0.34082  1.0000
  C   C368      1.0  0.34779  0.65652  0.27994  1.0000
  C   C369      1.0  0.25088  0.56913  0.32356  1.0000
  C   C370      1.0  0.36235  0.58728  0.32812  1.0000
  C   C371      1.0  0.29312  0.52868  0.36543  1.0000
  C   C372      1.0  0.18936  0.62717  0.39276  1.0000
  H   H650      1.0  0.18682  0.55157  0.40958  1.0000
  H   H651      1.0  0.49241  0.77862  0.39865  1.0000
  H   H652      1.0  0.30795  0.69857  0.25696  1.0000
  C   C373      1.0  0.23338  0.57532  0.26895  1.0000
  C   C374      1.0  0.49607  0.82488  0.36149  1.0000
  H   H653      1.0  0.18978  0.64557  0.38781  1.0000
  H   H654      1.0  0.44272  0.97284  0.48232  1.0000
  H   H655      1.0  0.36843  0.58495  0.31227  1.0000
  H   H656      1.0  0.26101  0.52921  0.34918  1.0000
  C   C375      1.0  0.38293  0.74216  0.33101  1.0000
  H   H657      1.0  0.35113  0.69352  0.32328  1.0000
  H   H658      1.0  0.20854  0.62905  0.38877  1.0000
  H   H659      1.0  0.20892  0.59217  0.39019  1.0000
  H   H660      1.0  0.00712  0.51634  0.49117  1.0000
  H   H661      1.0  0.49070  0.75587  0.25157  1.0000
  C   C376      1.0  0.49966  0.87085  0.34619  1.0000
  H   H662      1.0  0.43352  0.59854  0.46801  1.0000
  H   H663      1.0  0.21128  0.71896  0.48554  1.0000
  H   H664      1.0  0.30932  0.65184  0.28460  1.0000
  H   H665      1.0  0.36843  0.57660  0.33916  1.0000
  H   H666      1.0  0.48981  0.53973  0.47083  1.0000
  H   H667      1.0  0.02245  0.57005  0.47361  1.0000
  C   C377      1.0  0.48017  0.53658  0.48614  1.0000
  C   C378      1.0  0.48633  0.92986  0.49296  1.0000
  H   H668      1.0  0.22832  0.64871  0.42221  1.0000
  C   C379      1.0  0.02503  0.55634  0.48398  1.0000
  H   H669      1.0  0.44838  0.52088  0.45113  1.0000
  H   H670      1.0  0.32626  0.65523  0.30762  1.0000
  C   C380      1.0  0.32361  0.69298  0.25450  1.0000
  C   C381      1.0  0.26067  0.55644  0.25676  1.0000
  C   C382      1.0  0.28225  0.53919  0.34801  1.0000
  H   H671      1.0  0.32726  0.53870  0.33353  1.0000
  C   C383      1.0  0.36476  0.73268  0.31258  1.0000
  H   H672      1.0  0.44312  0.93215  0.47884  1.0000
  C   C384      1.0  0.31117  0.69363  0.29933  1.0000
  C   C385      1.0  0.45302  0.53446  0.48308  1.0000
  C   C386      1.0  0.29075  0.74236  0.24939  1.0000
  H   H673      1.0  0.27836  0.70588  0.32282  1.0000
  Fe  Fe46      1.0  0.46055  0.82127  0.28377  1.0000
  C   C387      1.0  0.14720  0.55915  0.48939  1.0000
  N   N22       1.0  0.29030  0.53659  0.32626  1.0000
  C   C388      1.0  0.31898  0.54883  0.32395  1.0000
  H   H674      1.0  0.28768  0.55939  0.35213  1.0000
  H   H675      1.0  0.32864  0.58218  0.34460  1.0000
  H   H676      1.0  0.34478  0.65671  0.26302  1.0000
  H   H677      1.0  0.29198  0.52494  0.39876  1.0000
  C   C389      1.0  0.42053  0.69972  0.26162  1.0000
  H   H678      1.0  0.40903  0.77695  0.45947  1.0000
  H   H679      1.0  0.26141  0.67244  0.31545  1.0000
  H   H680      1.0  0.37366  0.70250  0.30303  1.0000
  C   C390      1.0  0.33343  0.57776  0.32896  1.0000
  H   H681      1.0  0.25843  0.53302  0.30707  1.0000
  H   H682      1.0  0.38541  0.52456  0.49307  1.0000
  H   H683      1.0  0.35013  0.62990  0.30205  1.0000
  C   C391      1.0  0.27834  0.54740  0.31081  1.0000
  H   H684      1.0  0.32441  0.54653  0.30791  1.0000
  H   H685      1.0  0.42794  0.80932  0.46820  1.0000
  H   H686      1.0  0.32878  0.58870  0.31723  1.0000
  N   N23       1.0  0.33482  0.69125  0.29287  1.0000
  H   H687      1.0  0.32465  0.61528  0.28322  1.0000
  H   H688      1.0  0.40567  0.63593  0.26145  1.0000
  H   H689      1.0  0.26282  0.52263  0.38767  1.0000
  H   H690      1.0  0.34578  0.55215  0.45992  1.0000
  H   H691      1.0  0.36169  0.70380  0.26733  1.0000
  S   S95       1.0  0.18302  0.62161  0.26136  1.0000
  H   H692      1.0  0.16759  0.79697  0.46877  1.0000
  H   H693      1.0  0.32632  0.56810  0.45461  1.0000
  C   C392      1.0  0.37139  0.52594  0.34016  1.0000
  H   H694      1.0  0.48985  0.73849  0.48417  1.0000
  H   H695      1.0  0.41898  0.51340  0.46462  1.0000
  H   H696      1.0  0.49292  0.57880  0.46260  1.0000
  C   C393      1.0  0.34349  0.70399  0.27219  1.0000
  S   S96       1.0  0.47288  0.80241  0.25822  1.0000
  H   H697      1.0  0.02191  0.62207  0.47895  1.0000
  H   H698      1.0  0.34845  0.73693  0.31584  1.0000
  C   C394      1.0  0.29076  0.74292  0.27096  1.0000
  H   H699      1.0  0.31496  0.67180  0.25362  1.0000
  H   H700      1.0  0.37528  0.74388  0.29897  1.0000
  S   S97       1.0  0.36540  0.78434  0.28525  1.0000
  Fe  Fe47      1.0  0.22574  0.64073  0.26474  1.0000
  C   C395      1.0  0.42711  0.78002  0.48926  1.0000
  H   H701      1.0  0.22109  0.53468  0.26521  1.0000
  C   C396      1.0  0.21002  0.64898  0.42645  1.0000
  H   H702      1.0  0.43262  0.50529  0.39964  1.0000
  S   S98       1.0  0.37292  0.53891  0.29904  1.0000
  C   C397      1.0  0.23677  0.55363  0.26354  1.0000
  H   H703      1.0  0.21525  0.57304  0.27506  1.0000
  H   H704      1.0  0.48295  0.80962  0.33080  1.0000
  C   C398      1.0  0.33710  0.76790  0.27101  1.0000
  C   C399      1.0  0.17836  0.78858  0.47740  1.0000
  H   H705      1.0  0.47118  0.79529  0.42353  1.0000
  H   H706      1.0  0.29895  0.66572  0.32475  1.0000
  S   S99       1.0  0.41133  0.76976  0.24654  1.0000
  S   S100      1.0  0.49510  0.83853  0.45557  1.0000
  H   H707      1.0  0.31433  0.53861  0.36559  1.0000
  H   H708      1.0  0.31596  0.69871  0.33304  1.0000
  H   H709      1.0  0.28684  0.50780  0.36361  1.0000
  H   H710      1.0  0.31230  0.53366  0.45333  1.0000
  H   H711      1.0  0.48449  0.92899  0.47585  1.0000
  C   C400      1.0  0.33721  0.76670  0.24943  1.0000
  H   H712      1.0  0.42441  0.76002  0.48771  1.0000
  C   C401      1.0  0.27742  0.60259  0.25989  1.0000
  H   H713      1.0  0.40008  0.73901  0.32821  1.0000
  C   C402      1.0  0.42068  0.67665  0.26741  1.0000
  C   C403      1.0  0.40538  0.65361  0.25693  1.0000
  H   H714      1.0  0.31366  0.75739  0.29838  1.0000
  H   H715      1.0  0.37318  0.73215  0.34533  1.0000
  H   H716      1.0  0.46396  0.76799  0.44020  1.0000
  Fe  Fe48      1.0  0.40397  0.79131  0.27240  1.0000
  H   H717      1.0  0.49153  0.61918  0.47424  1.0000
  H   H718      1.0  0.27047  0.68118  0.34199  1.0000
  H   H719      1.0  0.29486  0.68178  0.28901  1.0000
  H   H720      1.0  0.37023  0.51694  0.37272  1.0000
  C   C404      1.0  0.35618  0.70386  0.30830  1.0000
  C   C405      1.0  0.42697  0.78990  0.46752  1.0000
  H   H721      1.0  0.18877  0.80173  0.49031  1.0000
  C   C406      1.0  0.28401  0.53276  0.38669  1.0000
  H   H722      1.0  0.16462  0.76999  0.48410  1.0000
  C   C407      1.0  0.38940  0.90117  0.49090  1.0000
  C   C408      1.0  0.36097  0.51075  0.35788  1.0000
  H   H723      1.0  0.47726  0.51719  0.49093  1.0000
  Fe  Fe49      1.0  0.23120  0.69128  0.24827  1.0000
  H   H724      1.0  0.29068  0.55350  0.38986  1.0000
  H   H725      1.0  0.33238  0.56780  0.49197  1.0000
  C   C409      1.0  0.49130  0.84938  0.33290  1.0000
  C   C410      1.0  0.43848  0.51486  0.46623  1.0000
  H   H726      1.0  0.00199  0.52371  0.46531  1.0000
  H   H727      1.0  0.49973  0.73582  0.43941  1.0000
  C   C411      1.0  0.00269  0.52962  0.48166  1.0000
  H   H728      1.0  0.18895  0.60825  0.61339  1.0000
  Fe  Fe50      1.0  0.19411  0.54038  0.72426  1.0000
  C   C412      1.0  0.37375  0.58385  0.70164  1.0000
  H   H729      1.0  0.41571  0.86976  0.59947  1.0000
  H   H730      1.0  0.45906  0.71781  0.51984  1.0000
  H   H731      1.0  0.24172  0.50359  0.53898  1.0000
  S   S101      1.0  0.23560  0.56232  0.71635  1.0000
  H   H732      1.0  0.39272  0.60093  0.70316  1.0000
  S   S102      1.0  0.41395  0.64898  0.72950  1.0000
  H   H733      1.0  0.42754  0.90444  0.53235  1.0000
  Fe  Fe51      1.0  0.45010  0.64501  0.72420  1.0000
  Fe  Fe52      1.0  0.29994  0.82778  0.54555  1.0000
  S   S103      1.0  0.31715  0.81510  0.57153  1.0000
  S   S104      1.0  0.27386  0.79592  0.52260  1.0000
  Fe  Fe53      1.0  0.33578  0.88602  0.55614  1.0000
  S   S105      1.0  0.35403  0.87613  0.58292  1.0000
  S   S106      1.0  0.35038  0.92668  0.54232  1.0000
  Fe  Fe54      1.0  0.35519  0.84600  0.56167  1.0000
  H   H734      1.0  0.20470  0.60641  0.64471  1.0000
  Fe  Fe55      1.0  0.31444  0.84602  0.59078  1.0000
  S   S107      1.0  0.29701  0.83514  0.62314  1.0000
  S   S108      1.0  0.33890  0.85702  0.53449  1.0000
  S   S109      1.0  0.29528  0.85773  0.56529  1.0000
  H   H735      1.0  0.41050  0.58208  0.67979  1.0000
  C   C413      1.0  0.27891  0.70688  0.73587  1.0000
  S   S110      1.0  0.13401  0.54137  0.55031  1.0000
  C   C414      1.0  0.43745  0.59463  0.50076  1.0000
  H   H736      1.0  0.19040  0.52913  0.60119  1.0000
  H   H737      1.0  0.29867  0.51299  0.69406  1.0000
  H   H738      1.0  0.19095  0.56721  0.58508  1.0000
  H   H739      1.0  0.47151  0.62932  0.61940  1.0000
  S   S111      1.0  0.35655  0.83404  0.70536  1.0000
  H   H740      1.0  0.45522  0.79746  0.56544  1.0000
  C   C415      1.0  0.33904  0.54784  0.52793  1.0000
  H   H741      1.0  0.22202  0.92723  0.58527  1.0000
  C   C416      1.0  0.40144  0.54213  0.67459  1.0000
  H   H742      1.0  0.24534  0.57152  0.59638  1.0000
  H   H743      1.0  0.41522  0.77547  0.53065  1.0000
  H   H744      1.0  0.29535  0.53979  0.55505  1.0000
  C   C417      1.0  0.31383  0.83627  0.64623  1.0000
  C   C418      1.0  0.34044  0.84971  0.64748  1.0000
  C   C419      1.0  0.35312  0.84942  0.66591  1.0000
  C   C420      1.0  0.33939  0.83546  0.68320  1.0000
  C   C421      1.0  0.31271  0.82262  0.68214  1.0000
  C   C422      1.0  0.30004  0.82327  0.66382  1.0000
  H   H745      1.0  0.35122  0.86041  0.63427  1.0000
  H   H746      1.0  0.37372  0.85990  0.66674  1.0000
  H   H747      1.0  0.30192  0.81245  0.69552  1.0000
  H   H748      1.0  0.27942  0.81370  0.66321  1.0000
  C   C423      1.0  0.13715  0.55608  0.52603  1.0000
  H   H749      1.0  0.38971  0.53726  0.71815  1.0000
  H   H750      1.0  0.22451  0.55326  0.57544  1.0000
  H   H751      1.0  0.41379  0.56905  0.71386  1.0000
  S   S112      1.0  0.16208  0.52091  0.70067  1.0000
  H   H752      1.0  0.35618  0.51899  0.69527  1.0000
  H   H753      1.0  0.21058  0.56549  0.67080  1.0000
  H   H754      1.0  0.18293  0.66673  0.70314  1.0000
  H   H755      1.0  0.33630  0.99802  0.56424  1.0000
  H   H756      1.0  0.43578  0.91061  0.49959  1.0000
  Fe  Fe56      1.0  0.47752  0.62609  0.54658  1.0000
  C   C424      1.0  0.39265  0.84323  0.51875  1.0000
  H   H757      1.0  0.48011  0.53547  0.56395  1.0000
  H   H758      1.0  0.37212  0.83586  0.51953  1.0000
  H   H759      1.0  0.14556  0.61960  0.59928  1.0000
  C   C425      1.0  0.36893  0.95936  0.55041  1.0000
  H   H760      1.0  0.36620  0.97415  0.52060  1.0000
  H   H761      1.0  0.44544  0.88215  0.61342  1.0000
  H   H762      1.0  0.37273  0.62993  0.69259  1.0000
  H   H763      1.0  0.38711  0.75850  0.64642  1.0000
  C   C426      1.0  0.27391  0.94010  0.59038  1.0000
  H   H764      1.0  0.44456  0.85977  0.54954  1.0000
  H   H765      1.0  0.41357  0.94935  0.53482  1.0000
  H   H766      1.0  0.39092  0.88978  0.50386  1.0000
  H   H767      1.0  0.44565  0.95430  0.53519  1.0000
  C   C427      1.0  0.31159  0.92529  0.61245  1.0000
  H   H768      1.0  0.14767  0.54203  0.59229  1.0000
  H   H769      1.0  0.21110  0.54778  0.62171  1.0000
  H   H770      1.0  0.21302  0.58808  0.60330  1.0000
  H   H771      1.0  0.33992  0.57305  0.68169  1.0000
  H   H772      1.0  0.34355  0.53655  0.68132  1.0000
  C   C428      1.0  0.48950  0.66612  0.67184  1.0000
  H   H773      1.0  0.29281  0.91781  0.62040  1.0000
  H   H774      1.0  0.48083  0.59334  0.62899  1.0000
  H   H775      1.0  0.44175  0.52814  0.49756  1.0000
  C   C429      1.0  0.39287  0.55748  0.71676  1.0000
  H   H776      1.0  0.33545  0.56503  0.52787  1.0000
  H   H777      1.0  0.14046  0.57689  0.58745  1.0000
  H   H778      1.0  0.32447  0.94403  0.61949  1.0000
  C   C430      1.0  0.19632  0.56890  0.60170  1.0000
  H   H779      1.0  0.20337  0.67407  0.72555  1.0000
  H   H780      1.0  0.39626  0.90336  0.53543  1.0000
  C   C431      1.0  0.34717  0.54474  0.55014  1.0000
  H   H781      1.0  0.15764  0.59247  0.62336  1.0000
  H   H782      1.0  0.36984  0.59425  0.66963  1.0000
  C   C432      1.0  0.48709  0.55635  0.56149  1.0000
  H   H783      1.0  0.47394  0.94342  0.51958  1.0000
  C   C433      1.0  0.43933  0.97092  0.49934  1.0000
  H   H784      1.0  0.48992  0.84337  0.51608  1.0000
  H   H785      1.0  0.48621  0.58040  0.60505  1.0000
  H   H786      1.0  0.47336  0.83788  0.54055  1.0000
  N   N24       1.0  0.24056  0.74007  0.68881  1.0000
  C   C434      1.0  0.23100  0.73499  0.66680  1.0000
  C   C435      1.0  0.22356  0.71757  0.70198  1.0000
  C   C436      1.0  0.23770  0.76321  0.69652  1.0000
  C   C437      1.0  0.26828  0.74548  0.69078  1.0000
  C   C438      1.0  0.27843  0.73172  0.67527  1.0000
  C   C439      1.0  0.24336  0.75817  0.65198  1.0000
  C   C440      1.0  0.25563  0.52074  0.54751  1.0000
  C   C441      1.0  0.22323  0.69145  0.69688  1.0000
  H   H787      1.0  0.20524  0.51668  0.68092  1.0000
  C   C442      1.0  0.30560  0.73655  0.68072  1.0000
  C   C443      1.0  0.23870  0.74986  0.62933  1.0000
  H   H788      1.0  0.20997  0.72865  0.66643  1.0000
  H   H789      1.0  0.23348  0.71883  0.65987  1.0000
  H   H790      1.0  0.10083  0.51854  0.59465  1.0000
  H   H791      1.0  0.20352  0.71507  0.70149  1.0000
  H   H792      1.0  0.21780  0.76049  0.69396  1.0000
  H   H793      1.0  0.25034  0.78052  0.68760  1.0000
  H   H794      1.0  0.28109  0.76632  0.68896  1.0000
  H   H795      1.0  0.27211  0.74100  0.70671  1.0000
  H   H796      1.0  0.27911  0.73909  0.65944  1.0000
  H   H797      1.0  0.26635  0.71077  0.67476  1.0000
  H   H798      1.0  0.23499  0.77169  0.65473  1.0000
  H   H799      1.0  0.26423  0.76878  0.65452  1.0000
  C   C444      1.0  0.20198  0.66972  0.70874  1.0000
  H   H800      1.0  0.22003  0.68645  0.68028  1.0000
  H   H801      1.0  0.24159  0.69185  0.70168  1.0000
  H   H802      1.0  0.48549  0.80032  0.54510  1.0000
  H   H803      1.0  0.31336  0.72871  0.66835  1.0000
  H   H804      1.0  0.31816  0.75740  0.68236  1.0000
  H   H805      1.0  0.30573  0.72696  0.69541  1.0000
  H   H806      1.0  0.21788  0.73976  0.62603  1.0000
  H   H807      1.0  0.24742  0.76705  0.61930  1.0000
  H   H808      1.0  0.24757  0.73706  0.62543  1.0000
  C   C445      1.0  0.30104  0.94812  0.55874  1.0000
  H   H809      1.0  0.43016  0.76517  0.56194  1.0000
  N   N25       1.0  0.37871  0.80294  0.63599  1.0000
  C   C446      1.0  0.34993  0.79151  0.63739  1.0000
  C   C447      1.0  0.39036  0.80812  0.65744  1.0000
  C   C448      1.0  0.38807  0.82826  0.62491  1.0000
  C   C449      1.0  0.38730  0.78616  0.62367  1.0000
  C   C450      1.0  0.33543  0.78808  0.61672  1.0000
  C   C451      1.0  0.41752  0.84447  0.62339  1.0000
  C   C452      1.0  0.37472  0.78960  0.67494  1.0000
  C   C453      1.0  0.39065  0.79398  0.69453  1.0000
  C   C454      1.0  0.30661  0.77292  0.61982  1.0000
  C   C455      1.0  0.42437  0.87115  0.61494  1.0000
  H   H810      1.0  0.34441  0.80370  0.64750  1.0000
  H   H811      1.0  0.34174  0.77264  0.64509  1.0000
  H   H812      1.0  0.40969  0.80878  0.65706  1.0000
  H   H813      1.0  0.39346  0.82743  0.66309  1.0000
  H   H814      1.0  0.38015  0.84033  0.63248  1.0000
  H   H815      1.0  0.38110  0.82542  0.60865  1.0000
  H   H816      1.0  0.38160  0.78537  0.60720  1.0000
  H   H817      1.0  0.40853  0.79476  0.62346  1.0000
  H   H818      1.0  0.33897  0.80707  0.61053  1.0000
  H   H819      1.0  0.34130  0.77779  0.60501  1.0000
  H   H820      1.0  0.42577  0.83517  0.61268  1.0000
  H   H821      1.0  0.42696  0.84706  0.63863  1.0000
  H   H822      1.0  0.35811  0.79313  0.67898  1.0000
  H   H823      1.0  0.40699  0.78954  0.69173  1.0000
  H   H824      1.0  0.39793  0.81414  0.69997  1.0000
  H   H825      1.0  0.30161  0.75323  0.62519  1.0000
  H   H826      1.0  0.29983  0.78283  0.63121  1.0000
  H   H827      1.0  0.29664  0.77155  0.60496  1.0000
  C   C456      1.0  0.23823  0.75271  0.50208  1.0000
  C   C457      1.0  0.20499  0.58760  0.64602  1.0000
  H   H828      1.0  0.32869  0.54694  0.71689  1.0000
  H   H829      1.0  0.34537  0.65038  0.72123  1.0000
  H   H830      1.0  0.38493  0.76888  0.74254  1.0000
  C   C458      1.0  0.49757  0.66389  0.63479  1.0000
  H   H831      1.0  0.40752  0.75199  0.61480  1.0000
  C   C459      1.0  0.22895  0.55302  0.59208  1.0000
  H   H832      1.0  0.37981  0.72325  0.62219  1.0000
  C   C460      1.0  0.46271  0.62839  0.65207  1.0000
  H   H833      1.0  0.49588  0.80484  0.51939  1.0000
  C   C461      1.0  0.37821  0.75839  0.63131  1.0000
  H   H834      1.0  0.35713  0.74804  0.63268  1.0000
  H   H835      1.0  0.36736  0.76921  0.67047  1.0000
  H   H836      1.0  0.12638  0.58455  0.53778  1.0000
  H   H837      1.0  0.40860  0.75103  0.72110  1.0000
  H   H838      1.0  0.17239  0.59138  0.57725  1.0000
  N   N26       1.0  0.45499  0.78864  0.52226  1.0000
  H   H839      1.0  0.41747  0.88180  0.62555  1.0000
  H   H840      1.0  0.37852  0.78125  0.70694  1.0000
  H   H841      1.0  0.26055  0.95877  0.56699  1.0000
  H   H842      1.0  0.30737  0.99831  0.57321  1.0000
  C   C462      1.0  0.42045  0.91696  0.56177  1.0000
  C   C463      1.0  0.29165  0.52612  0.52306  1.0000
  H   H843      1.0  0.26301  0.77132  0.72363  1.0000
  C   C464      1.0  0.42007  0.54956  0.65639  1.0000
  C   C465      1.0  0.42418  0.98606  0.50541  1.0000
  C   C466      1.0  0.38637  0.74304  0.61630  1.0000
  H   H844      1.0  0.30882  0.58232  0.73247  1.0000
  H   H845      1.0  0.35549  0.53100  0.55022  1.0000
  H   H846      1.0  0.29576  0.96281  0.55269  1.0000
  C   C467      1.0  0.42654  0.94165  0.52860  1.0000
  H   H847      1.0  0.34966  0.68127  0.71244  1.0000
  C   C468      1.0  0.20564  0.54824  0.60541  1.0000
  C   C469      1.0  0.36767  0.57022  0.55848  1.0000
  C   C470      1.0  0.40590  0.74686  0.73743  1.0000
  C   C471      1.0  0.25981  0.66037  0.73529  1.0000
  H   H848      1.0  0.23344  0.94515  0.60914  1.0000
  H   H849      1.0  0.37482  0.95152  0.58183  1.0000
  C   C472      1.0  0.35427  0.61265  0.69002  1.0000
  C   C473      1.0  0.35265  0.53618  0.69630  1.0000
  H   H850      1.0  0.31800  0.65682  0.71848  1.0000
  S   S113      1.0  0.39167  0.84148  0.56118  1.0000
  C   C474      1.0  0.35887  0.58957  0.68431  1.0000
  Fe  Fe57      1.0  0.23570  0.59295  0.73763  1.0000
  H   H851      1.0  0.34399  0.61668  0.67727  1.0000
  H   H852      1.0  0.15074  0.61844  0.57190  1.0000
  H   H853      1.0  0.47061  0.56097  0.56165  1.0000
  C   C475      1.0  0.16001  0.59253  0.58983  1.0000
  C   C476      1.0  0.13218  0.57740  0.52429  1.0000
  N   N27       1.0  0.37757  0.56007  0.69887  1.0000
  H   H854      1.0  0.46206  0.75724  0.55294  1.0000
  C   C477      1.0  0.41701  0.91482  0.53833  1.0000
  C   C478      1.0  0.43343  0.85630  0.53556  1.0000
  H   H855      1.0  0.34241  0.60870  0.70421  1.0000
  H   H856      1.0  0.41119  0.53854  0.68792  1.0000
  C   C479      1.0  0.17054  0.59068  0.61144  1.0000
  C   C480      1.0  0.43446  0.79004  0.53563  1.0000
  H   H857      1.0  0.38216  0.56420  0.66555  1.0000
  H   H858      1.0  0.28187  0.50522  0.55279  1.0000
  H   H859      1.0  0.42454  0.53344  0.65247  1.0000
  H   H860      1.0  0.17878  0.75962  0.52075  1.0000
  H   H861      1.0  0.36353  0.58323  0.71624  1.0000
  N   N28       1.0  0.17436  0.56710  0.61505  1.0000
  H   H862      1.0  0.36801  0.55879  0.74235  1.0000
  H   H863      1.0  0.17951  0.54713  0.64135  1.0000
  H   H864      1.0  0.20371  0.65167  0.70642  1.0000
  S   S114      1.0  0.33139  0.77189  0.73990  1.0000
  H   H865      1.0  0.16417  0.56632  0.64732  1.0000
  C   C481      1.0  0.46912  0.64147  0.67116  1.0000
  H   H866      1.0  0.41877  0.78907  0.58772  1.0000
  H   H867      1.0  0.13070  0.60591  0.50392  1.0000
  H   H868      1.0  0.30540  0.93338  0.51846  1.0000
  S   S115      1.0  0.44147  0.58873  0.54270  1.0000
  H   H869      1.0  0.38461  0.52392  0.67043  1.0000
  S   S116      1.0  0.26075  0.63262  0.72562  1.0000
  S   S117      1.0  0.45220  0.62564  0.69385  1.0000
  H   H870      1.0  0.41169  0.55407  0.64256  1.0000
  C   C482      1.0  0.19179  0.73722  0.50180  1.0000
  C   C483      1.0  0.32296  0.90684  0.61691  1.0000
  H   H871      1.0  0.37385  0.56739  0.57404  1.0000
  C   C484      1.0  0.37336  0.97910  0.53620  1.0000
  C   C485      1.0  0.28539  0.92650  0.52396  1.0000
  C   C486      1.0  0.33845  0.66518  0.72300  1.0000
  C   C487      1.0  0.17973  0.56582  0.63768  1.0000
  C   C488      1.0  0.15082  0.54304  0.60926  1.0000
  C   C489      1.0  0.31944  0.97302  0.59091  1.0000
  H   H872      1.0  0.22182  0.58848  0.63748  1.0000
  C   C490      1.0  0.21998  0.77514  0.52247  1.0000
  C   C491      1.0  0.14468  0.54698  0.50852  1.0000
  C   C492      1.0  0.28397  0.92267  0.54735  1.0000
  H   H873      1.0  0.22942  0.72115  0.71846  1.0000
  C   C493      1.0  0.37798  0.96628  0.57062  1.0000
  S   S118      1.0  0.43487  0.72149  0.73141  1.0000
  C   C494      1.0  0.24180  0.77316  0.51558  1.0000
  H   H874      1.0  0.37774  0.74185  0.60083  1.0000
  H   H875      1.0  0.26368  0.91530  0.55207  1.0000
  H   H876      1.0  0.22213  0.79060  0.53283  1.0000
  H   H877      1.0  0.19239  0.58237  0.67828  1.0000
  H   H878      1.0  0.39679  0.58772  0.73886  1.0000
  H   H879      1.0  0.29396  0.90784  0.58387  1.0000
  H   H880      1.0  0.36012  0.58458  0.55974  1.0000
  H   H881      1.0  0.39766  0.78169  0.56574  1.0000
  H   H882      1.0  0.31370  0.97580  0.60682  1.0000
  C   C495      1.0  0.39034  0.99244  0.57661  1.0000
  C   C496      1.0  0.20875  0.58349  0.66882  1.0000
  H   H883      1.0  0.46620  0.86847  0.51522  1.0000
  H   H884      1.0  0.15355  0.52582  0.61266  1.0000
  C   C497      1.0  0.39964  0.54412  0.49522  1.0000
  C   C498      1.0  0.46530  0.75252  0.53698  1.0000
  H   H885      1.0  0.26078  0.91993  0.58612  1.0000
  N   N29       1.0  0.31657  0.52513  0.51850  1.0000
  C   C499      1.0  0.24428  0.77055  0.71958  1.0000
  H   H886      1.0  0.22649  0.59965  0.67472  1.0000
  C   C500      1.0  0.45156  0.76135  0.52067  1.0000
  H   H887      1.0  0.40341  0.54028  0.52802  1.0000
  C   C501      1.0  0.48462  0.54935  0.52264  1.0000
  H   H888      1.0  0.45354  0.81681  0.50117  1.0000
  H   H889      1.0  0.49473  0.67645  0.68637  1.0000
  S   S119      1.0  0.48011  0.66357  0.55846  1.0000
  C   C502      1.0  0.47215  0.94385  0.50257  1.0000
  C   C503      1.0  0.15848  0.61783  0.58743  1.0000
  C   C504      1.0  0.33255  0.53036  0.71361  1.0000
  C   C505      1.0  0.40686  0.84739  0.53687  1.0000
  C   C506      1.0  0.42895  0.57829  0.51775  1.0000
  H   H890      1.0  0.27830  0.94055  0.51960  1.0000
  H   H891      1.0  0.47783  0.52855  0.52559  1.0000
  S   S120      1.0  0.19353  0.57240  0.74370  1.0000
  C   C507      1.0  0.21352  0.73470  0.49556  1.0000
  C   C508      1.0  0.45639  0.72360  0.53571  1.0000
  C   C509      1.0  0.23388  0.94652  0.59201  1.0000
  H   H892      1.0  0.42288  0.98724  0.52245  1.0000
  H   H893      1.0  0.48625  0.76206  0.53410  1.0000
  C   C510      1.0  0.39302  0.56340  0.67935  1.0000
  H   H894      1.0  0.29355  0.68489  0.71828  1.0000
  C   C511      1.0  0.48152  0.80626  0.52987  1.0000
  C   C512      1.0  0.27879  0.68411  0.72879  1.0000
  H   H895      1.0  0.12197  0.55598  0.61877  1.0000
  H   H896      1.0  0.39632  0.99743  0.59249  1.0000
  S   S121      1.0  0.17664  0.50603  0.55852  1.0000
  H   H897      1.0  0.17775  0.63431  0.58882  1.0000
  H   H898      1.0  0.12675  0.53547  0.63707  1.0000
  H   H899      1.0  0.25500  0.53808  0.54118  1.0000
  C   C513      1.0  0.48812  0.83503  0.53169  1.0000
  C   C514      1.0  0.12574  0.53910  0.62037  1.0000
  Fe  Fe58      1.0  0.43994  0.68759  0.74256  1.0000
  C   C515      1.0  0.28259  0.52280  0.54583  1.0000
  H   H900      1.0  0.38469  0.57778  0.54817  1.0000
  C   C516      1.0  0.40995  0.55305  0.51494  1.0000
  C   C517      1.0  0.30826  0.92728  0.58882  1.0000
  H   H901      1.0  0.25476  0.75065  0.49672  1.0000
  C   C518      1.0  0.13458  0.58950  0.50512  1.0000
  C   C519      1.0  0.26134  0.95731  0.58400  1.0000
  H   H902      1.0  0.44097  0.92782  0.56587  1.0000
  C   C520      1.0  0.24561  0.79680  0.72445  1.0000
  H   H903      1.0  0.33094  0.53762  0.56107  1.0000
  C   C521      1.0  0.40487  0.84807  0.49946  1.0000
  C   C522      1.0  0.47667  0.63960  0.63395  1.0000
  H   H904      1.0  0.34260  0.91432  0.61048  1.0000
  N   N30       1.0  0.30038  0.94745  0.58207  1.0000
  H   H905      1.0  0.33902  0.52470  0.72791  1.0000
  H   H906      1.0  0.41313  0.89750  0.56847  1.0000
  H   H907      1.0  0.29266  0.54481  0.51833  1.0000
  H   H908      1.0  0.43088  0.74754  0.52085  1.0000
  H   H909      1.0  0.35655  0.55330  0.51827  1.0000
  H   H910      1.0  0.44681  0.60950  0.65124  1.0000
  H   H911      1.0  0.40955  0.92658  0.56869  1.0000
  H   H912      1.0  0.35512  0.50948  0.52087  1.0000
  H   H913      1.0  0.42319  0.81373  0.56945  1.0000
  H   H914      1.0  0.32094  0.95427  0.55330  1.0000
  C   C523      1.0  0.19530  0.75744  0.51556  1.0000
  C   C524      1.0  0.10265  0.51608  0.61148  1.0000
  H   H915      1.0  0.27198  0.97672  0.59083  1.0000
  H   H916      1.0  0.45829  0.98153  0.50680  1.0000
  H   H917      1.0  0.29048  0.90786  0.55043  1.0000
  C   C525      1.0  0.41765  0.79298  0.57115  1.0000
  H   H918      1.0  0.22934  0.75650  0.72977  1.0000
  H   H919      1.0  0.32391  0.90451  0.63385  1.0000
  H   H920      1.0  0.43594  0.71301  0.54010  1.0000
  C   C526      1.0  0.44569  0.86114  0.51618  1.0000
  H   H921      1.0  0.31088  0.88772  0.61003  1.0000
  H   H922      1.0  0.27416  0.94039  0.60756  1.0000
  H   H923      1.0  0.33856  0.97342  0.59270  1.0000
  H   H924      1.0  0.23449  0.53736  0.59458  1.0000
  H   H925      1.0  0.41038  0.77986  0.49752  1.0000
  H   H926      1.0  0.45195  0.61418  0.50279  1.0000
  C   C527      1.0  0.43592  0.78574  0.55902  1.0000
  C   C528      1.0  0.32501  0.99749  0.57826  1.0000
  H   H927      1.0  0.32651  0.93050  0.58114  1.0000
  H   H928      1.0  0.02669  0.56331  0.50018  1.0000
  Fe  Fe59      1.0  0.34050  0.81342  0.73591  1.0000
  H   H929      1.0  0.26141  0.81205  0.71569  1.0000
  H   H930      1.0  0.29353  0.72489  0.73066  1.0000
  H   H931      1.0  0.22726  0.79707  0.72057  1.0000
  H   H932      1.0  0.14875  0.53071  0.50973  1.0000
  H   H933      1.0  0.43823  0.56648  0.66053  1.0000
  H   H934      1.0  0.46705  0.55225  0.52340  1.0000
  H   H935      1.0  0.24930  0.80102  0.74121  1.0000
  C   C529      1.0  0.30713  0.50789  0.70754  1.0000
  H   H936      1.0  0.27338  0.90797  0.51614  1.0000
  S   S122      1.0  0.47615  0.68459  0.73563  1.0000
  H   H937      1.0  0.47702  0.56103  0.62802  1.0000
  H   H938      1.0  0.22539  0.95939  0.58751  1.0000
  C   C530      1.0  0.38847  0.56648  0.73841  1.0000
  N   N31       1.0  0.49683  0.55650  0.50157  1.0000
  C   C531      1.0  0.45237  0.79724  0.50079  1.0000
  H   H939      1.0  0.43390  0.80866  0.53345  1.0000
  H   H940      1.0  0.46787  0.71812  0.54644  1.0000
  H   H941      1.0  0.45891  0.75816  0.50552  1.0000
  N   N32       1.0  0.42736  0.94293  0.50531  1.0000
  H   H942      1.0  0.38689  0.93284  0.50692  1.0000
  C   C532      1.0  0.44362  0.93133  0.49603  1.0000
  H   H943      1.0  0.08496  0.51420  0.61928  1.0000
  H   H944      1.0  0.27601  0.51117  0.51370  1.0000
  C   C533      1.0  0.48847  0.58072  0.62207  1.0000
  Fe  Fe60      1.0  0.13866  0.50498  0.55178  1.0000
  C   C534      1.0  0.16626  0.50952  0.67604  1.0000
  H   H945      1.0  0.48158  0.58420  0.49978  1.0000
  C   C535      1.0  0.18935  0.50958  0.67024  1.0000
  H   H946      1.0  0.24963  0.51874  0.56396  1.0000
  C   C536      1.0  0.43137  0.85700  0.49807  1.0000
  H   H947      1.0  0.47868  0.91011  0.49899  1.0000
  H   H948      1.0  0.40457  0.97704  0.49893  1.0000
  H   H949      1.0  0.34989  0.89287  0.49775  1.0000
  H   H950      1.0  0.50011  0.56682  0.57437  1.0000
  H   H951      1.0  0.13174  0.54834  0.74205  1.0000
  C   C537      1.0  0.49958  0.58278  0.49634  1.0000
  H   H952      1.0  0.48218  0.96391  0.49718  1.0000
  C   C538      1.0  0.40062  0.93015  0.49635  1.0000
  C   C539      1.0  0.31994  0.52626  0.49527  1.0000
  H   H953      1.0  0.29346  0.50317  0.72063  1.0000
  S   S123      1.0  0.24583  0.57783  0.76608  1.0000
  H   H954      1.0  0.40848  0.95263  0.90057  1.0000
  Fe  Fe61      1.0  0.20348  0.55422  0.77083  1.0000
  C   C540      1.0  0.31289  0.54699  0.77250  1.0000
  C   C541      1.0  0.39255  0.75698  0.74951  1.0000
  Fe  Fe62      1.0  0.47126  0.66736  0.76762  1.0000
  C   C542      1.0  0.23986  0.71225  0.97972  1.0000
  C   C543      1.0  0.43260  0.59850  0.97964  1.0000
  S   S124      1.0  0.43733  0.67404  0.77516  1.0000
  C   C544      1.0  0.36800  0.94203  0.89844  1.0000
  Fe  Fe63      1.0  0.32963  0.81989  0.78181  1.0000
  C   C545      1.0  0.06522  0.50776  0.95784  1.0000
  S   S125      1.0  0.33551  0.84958  0.80707  1.0000
  C   C546      1.0  0.37211  0.96738  0.95647  1.0000
  H   H955      1.0  0.29349  0.97423  0.84866  1.0000
  S   S126      1.0  0.31833  0.77878  0.78863  1.0000
  Fe  Fe64      1.0  0.32212  0.84552  0.93096  1.0000
  S   S127      1.0  0.30030  0.86019  0.95174  1.0000
  S   S128      1.0  0.30626  0.82166  0.90169  1.0000
  Fe  Fe65      1.0  0.36376  0.85759  0.96323  1.0000
  H   H956      1.0  0.32582  0.97850  0.84589  1.0000
  S   S129      1.0  0.39963  0.85275  0.96777  1.0000
  Fe  Fe66      1.0  0.30775  0.83830  0.97753  1.0000
  Fe  Fe67      1.0  0.29787  0.76971  0.75830  1.0000
  Fe  Fe68      1.0  0.33944  0.89343  0.95863  1.0000
  S   S130      1.0  0.34624  0.93575  0.95983  1.0000
  S   S131      1.0  0.32757  0.82242  0.95627  1.0000
  S   S132      1.0  0.36017  0.87963  0.93614  1.0000
  H   H957      1.0  0.23464  0.78907  0.98001  1.0000
  C   C547      1.0  0.46110  0.70854  0.83040  1.0000
  H   H958      1.0  0.25920  0.71290  0.97982  1.0000
  C   C548      1.0  0.30201  0.94796  0.86690  1.0000
  H   H959      1.0  0.39875  0.56599  0.77048  1.0000
  C   C549      1.0  0.46048  0.54848  0.97555  1.0000
  H   H960      1.0  0.34762  0.98573  0.96094  1.0000
  C   C550      1.0  0.12712  0.54131  0.75817  1.0000
  C   C551      1.0  0.38983  0.75236  0.77073  1.0000
  C   C552      1.0  0.17797  0.53278  0.82436  1.0000
  C   C553      1.0  0.31413  0.92892  0.91366  1.0000
  C   C554      1.0  0.44849  0.55786  0.94001  1.0000
  H   H961      1.0  0.34555  0.91283  0.87590  1.0000
  S   S133      1.0  0.37469  0.76610  0.78641  1.0000
  H   H962      1.0  0.22580  0.68179  0.76601  1.0000
  C   C555      1.0  0.48419  0.51158  0.97117  1.0000
  H   H963      1.0  0.13812  0.59793  0.97041  1.0000
  H   H964      1.0  0.29509  0.93338  0.85430  1.0000
  Fe  Fe69      1.0  0.41444  0.63493  0.76144  1.0000
  C   C556      1.0  0.24080  0.65949  0.74892  1.0000
  C   C557      1.0  0.48792  0.76817  0.77089  1.0000
  H   H965      1.0  0.35852  0.77047  0.97670  1.0000
  H   H966      1.0  0.38664  0.84648  0.80943  1.0000
  C   C558      1.0  0.47750  0.74147  0.80158  1.0000
  H   H967      1.0  0.43278  0.56099  0.94709  1.0000
  C   C559      1.0  0.11885  0.50402  0.78181  1.0000
  C   C560      1.0  0.32747  0.84159  0.83336  1.0000
  C   C561      1.0  0.34019  0.85991  0.84886  1.0000
  C   C562      1.0  0.33417  0.85413  0.86990  1.0000
  C   C563      1.0  0.31495  0.83011  0.87557  1.0000
  C   C564      1.0  0.30213  0.81192  0.86006  1.0000
  C   C565      1.0  0.30848  0.81752  0.83909  1.0000
  H   H968      1.0  0.35496  0.87856  0.84454  1.0000
  H   H969      1.0  0.34442  0.86813  0.88171  1.0000
  H   H970      1.0  0.28712  0.79336  0.86428  1.0000
  H   H971      1.0  0.29831  0.80338  0.82731  1.0000
  C   C566      1.0  0.32582  0.65328  0.76044  1.0000
  H   H972      1.0  0.47268  0.65552  0.82629  1.0000
  H   H973      1.0  0.22606  0.64119  0.75399  1.0000
  H   H974      1.0  0.25030  0.85606  0.88204  1.0000
  H   H975      1.0  0.39821  0.82381  0.80108  1.0000
  H   H976      1.0  0.27219  0.59158  0.80735  1.0000
  H   H977      1.0  0.29871  0.59869  0.82471  1.0000
  H   H978      1.0  0.29028  0.57347  0.80568  1.0000
  H   H979      1.0  0.39559  0.67001  0.83161  1.0000
  H   H980      1.0  0.35278  0.61174  0.74500  1.0000
  H   H981      1.0  0.25153  0.52296  0.91082  1.0000
  C   C567      1.0  0.36693  0.98875  0.95778  1.0000
  H   H982      1.0  0.39471  0.57512  0.96788  1.0000
  S   S134      1.0  0.16445  0.50326  0.93760  1.0000
  H   H983      1.0  0.40176  0.95583  0.95108  1.0000
  H   H984      1.0  0.28736  0.74608  0.85616  1.0000
  H   H985      1.0  0.35792  0.81628  0.83722  1.0000
  H   H986      1.0  0.46832  0.75245  0.80908  1.0000
  H   H987      1.0  0.28578  0.94424  0.87741  1.0000
  C   C568      1.0  0.12524  0.51438  0.75950  1.0000
  H   H988      1.0  0.21929  0.62840  0.94031  1.0000
  H   H989      1.0  0.44635  0.66855  0.95587  1.0000
  C   C569      1.0  0.40103  0.83933  0.81234  1.0000
  S   S135      1.0  0.44285  0.61752  0.95730  1.0000
  H   H990      1.0  0.30397  0.87022  0.89901  1.0000
  H   H991      1.0  0.30204  0.52882  0.78007  1.0000
  H   H992      1.0  0.30136  0.94952  0.94815  1.0000
  C   C570      1.0  0.26713  0.85248  0.88487  1.0000
  H   H993      1.0  0.23513  0.55251  0.89801  1.0000
  C   C571      1.0  0.17736  0.68024  0.96545  1.0000
  N   N33       1.0  0.36755  0.79415  0.85900  1.0000
  C   C572      1.0  0.37147  0.80773  0.83855  1.0000
  C   C573      1.0  0.33989  0.77444  0.86147  1.0000
  C   C574      1.0  0.37353  0.81406  0.87588  1.0000
  C   C575      1.0  0.38528  0.78190  0.86156  1.0000
  C   C576      1.0  0.38524  0.76378  0.84397  1.0000
  C   C577      1.0  0.39865  0.82949  0.83443  1.0000
  C   C578      1.0  0.36801  0.80377  0.89835  1.0000
  C   C579      1.0  0.32492  0.76127  0.84157  1.0000
  C   C580      1.0  0.29890  0.73916  0.84663  1.0000
  C   C581      1.0  0.40500  0.75388  0.84794  1.0000
  C   C582      1.0  0.37425  0.82565  0.91384  1.0000
  H   H994      1.0  0.36674  0.79413  0.82535  1.0000
  H   H995      1.0  0.33832  0.75923  0.87247  1.0000
  H   H996      1.0  0.32842  0.78340  0.86858  1.0000
  H   H997      1.0  0.36261  0.82528  0.87327  1.0000
  H   H998      1.0  0.39407  0.82815  0.87556  1.0000
  H   H999      1.0  0.40531  0.79683  0.86377  1.0000
  H   H1000     1.0  0.38055  0.77036  0.87593  1.0000
  H   H1001     1.0  0.39016  0.77379  0.82896  1.0000
  H   H1002     1.0  0.36637  0.74682  0.84292  1.0000
  H   H1003     1.0  0.40281  0.84605  0.84488  1.0000
  H   H1004     1.0  0.41344  0.82276  0.83654  1.0000
  H   H1005     1.0  0.37987  0.79406  0.90245  1.0000
  H   H1006     1.0  0.34759  0.79007  0.90052  1.0000
  H   H1007     1.0  0.32132  0.77539  0.83254  1.0000
  H   H1008     1.0  0.33540  0.75376  0.83155  1.0000
  H   H1009     1.0  0.28835  0.73089  0.83206  1.0000
  H   H1010     1.0  0.30128  0.72386  0.85504  1.0000
  H   H1011     1.0  0.40093  0.74324  0.86273  1.0000
  H   H1012     1.0  0.40429  0.74067  0.83523  1.0000
  C   C583      1.0  0.33710  0.56384  0.77992  1.0000
  H   H1013     1.0  0.42035  0.85534  0.80989  1.0000
  H   H1014     1.0  0.39477  0.83966  0.91298  1.0000
  H   H1015     1.0  0.36234  0.83566  0.91081  1.0000
  H   H1016     1.0  0.37018  0.81788  0.92976  1.0000
  N   N34       1.0  0.33083  0.65972  0.78311  1.0000
  C   C584      1.0  0.31048  0.63852  0.79544  1.0000
  C   C585      1.0  0.33009  0.68465  0.78826  1.0000
  C   C586      1.0  0.28490  0.93341  0.94063  1.0000
  C   C587      1.0  0.35716  0.66258  0.78822  1.0000
  C   C588      1.0  0.36373  0.66406  0.81158  1.0000
  C   C589      1.0  0.30994  0.61178  0.79316  1.0000
  C   C590      1.0  0.47402  0.78409  0.77816  1.0000
  C   C591      1.0  0.30467  0.68574  0.78351  1.0000
  C   C592      1.0  0.30761  0.71293  0.78646  1.0000
  C   C593      1.0  0.39141  0.66904  0.81482  1.0000
  C   C594      1.0  0.29162  0.59281  0.80872  1.0000
  H   H1017     1.0  0.44740  0.52854  0.97096  1.0000
  H   H1018     1.0  0.29114  0.63573  0.79066  1.0000
  H   H1019     1.0  0.31198  0.64382  0.81211  1.0000
  H   H1020     1.0  0.33356  0.68912  0.80498  1.0000
  H   H1021     1.0  0.48582  0.79948  0.78913  1.0000
  H   H1022     1.0  0.07847  0.52223  0.94688  1.0000
  C   C595      1.0  0.20484  0.63927  0.96795  1.0000
  H   H1023     1.0  0.36035  0.64675  0.78120  1.0000
  H   H1024     1.0  0.37201  0.68021  0.78108  1.0000
  H   H1025     1.0  0.35138  0.64582  0.81944  1.0000
  H   H1026     1.0  0.36136  0.67977  0.81945  1.0000
  H   H1027     1.0  0.30334  0.60395  0.77745  1.0000
  H   H1028     1.0  0.32895  0.61251  0.79566  1.0000
  H   H1029     1.0  0.22039  0.53881  0.92232  1.0000
  H   H1030     1.0  0.46226  0.72618  0.79225  1.0000
  H   H1031     1.0  0.29830  0.67970  0.76747  1.0000
  H   H1032     1.0  0.28936  0.67307  0.79415  1.0000
  H   H1033     1.0  0.31579  0.72074  0.80185  1.0000
  H   H1034     1.0  0.32023  0.72568  0.77426  1.0000
  H   H1035     1.0  0.28865  0.71285  0.78533  1.0000
  H   H1036     1.0  0.39467  0.65324  0.80796  1.0000
  H   H1037     1.0  0.40475  0.68749  0.80772  1.0000
  S   S136      1.0  0.38149  0.60760  0.78062  1.0000
  S   S137      1.0  0.34503  0.87282  0.98611  1.0000
  H   H1038     1.0  0.23428  0.51198  0.88688  1.0000
  H   H1039     1.0  0.24117  0.67202  0.96261  1.0000
  H   H1040     1.0  0.28187  0.91519  0.94813  1.0000
  C   C596      1.0  0.16405  0.53614  0.84095  1.0000
  H   H1041     1.0  0.42456  0.77004  0.84845  1.0000
  H   H1042     1.0  0.44871  0.71717  0.83600  1.0000
  H   H1043     1.0  0.13239  0.51905  0.79242  1.0000
  H   H1044     1.0  0.43621  0.00034  0.94663  1.0000
  H   H1045     1.0  0.26585  0.76387  0.97092  1.0000
  H   H1046     1.0  0.21525  0.67389  0.95037  1.0000
  H   H1047     1.0  0.33023  0.94677  0.91958  1.0000
  C   C597      1.0  0.30997  0.97417  0.85707  1.0000
  C   C598      1.0  0.39733  0.97189  0.95236  1.0000
  C   C599      1.0  0.47021  0.56426  0.95545  1.0000
  H   H1048     1.0  0.48161  0.92962  0.97449  1.0000
  H   H1049     1.0  0.36738  0.94600  0.91515  1.0000
  H   H1050     1.0  0.49327  0.55884  0.89569  1.0000
  H   H1051     1.0  0.46703  0.70076  0.84385  1.0000
  S   S138      1.0  0.18397  0.55259  0.80211  1.0000
  H   H1052     1.0  0.44088  0.53764  0.93471  1.0000
  H   H1053     1.0  0.33610  0.69069  0.74598  1.0000
  C   C600      1.0  0.18551  0.51318  0.82563  1.0000
  H   H1054     1.0  0.34472  0.55866  0.79332  1.0000
  C   C601      1.0  0.41690  0.99727  0.94982  1.0000
  S   S139      1.0  0.36521  0.82554  0.76453  1.0000
  H   H1055     1.0  0.15957  0.70448  0.97492  1.0000
  C   C602      1.0  0.22103  0.66857  0.96514  1.0000
  C   C603      1.0  0.34257  0.91905  0.89161  1.0000
  H   H1056     1.0  0.34002  0.90321  0.90220  1.0000
  C   C604      1.0  0.49768  0.53878  0.98068  1.0000
  H   H1057     1.0  0.10872  0.54120  0.76264  1.0000
  C   C605      1.0  0.23229  0.51470  0.90366  1.0000
  H   H1058     1.0  0.20287  0.52731  0.89837  1.0000
  H   H1059     1.0  0.39770  0.73340  0.79618  1.0000
  H   H1060     1.0  0.14645  0.52272  0.87084  1.0000
  Fe  Fe70      1.0  0.48525  0.64222  0.95216  1.0000
  H   H1061     1.0  0.43669  0.83908  0.98533  1.0000
  S   S140      1.0  0.25922  0.73498  0.75705  1.0000
  H   H1062     1.0  0.26195  0.51074  0.97717  1.0000
  Fe  Fe71      1.0  0.35246  0.78371  0.77000  1.0000
  H   H1063     1.0  0.37192  0.95975  0.88983  1.0000
  S   S141      1.0  0.13647  0.55176  0.95436  1.0000
  H   H1064     1.0  0.27999  0.90281  0.88061  1.0000
  H   H1065     1.0  0.45010  0.69235  0.81974  1.0000
  H   H1066     1.0  0.17053  0.66047  0.95929  1.0000
  C   C606      1.0  0.49894  0.66699  0.85242  1.0000
  H   H1067     1.0  0.08474  0.55761  0.97277  1.0000
  H   H1068     1.0  0.32933  0.63654  0.75651  1.0000
  H   H1069     1.0  0.33487  0.96482  0.88731  1.0000
  C   C607      1.0  0.07021  0.51810  0.97996  1.0000
  H   H1070     1.0  0.31617  0.98942  0.86912  1.0000
  C   C608      1.0  0.49232  0.66634  0.83118  1.0000
  N   N35       1.0  0.48074  0.54928  0.99032  1.0000
  H   H1071     1.0  0.31357  0.91349  0.92397  1.0000
  C   C609      1.0  0.39985  0.73705  0.77976  1.0000
  C   C610      1.0  0.20069  0.62469  0.94750  1.0000
  C   C611      1.0  0.14492  0.56596  0.97904  1.0000
  S   S142      1.0  0.44832  0.62729  0.75551  1.0000
  H   H1072     1.0  0.27259  0.91659  0.91071  1.0000
  H   H1073     1.0  0.42218  0.56603  0.75229  1.0000
  H   H1074     1.0  0.26755  0.93627  0.94309  1.0000
  C   C612      1.0  0.43643  0.92951  0.97363  1.0000
  H   H1075     1.0  0.34592  0.70094  0.78034  1.0000
  H   H1076     1.0  0.18977  0.60377  0.95033  1.0000
  H   H1077     1.0  0.48435  0.65665  0.86373  1.0000
  C   C613      1.0  0.30247  0.55369  0.75558  1.0000
  H   H1078     1.0  0.15350  0.53695  0.99223  1.0000
  H   H1079     1.0  0.39267  0.53712  0.75634  1.0000
  H   H1080     1.0  0.45902  0.00118  0.98475  1.0000
  C   C614      1.0  0.48482  0.72850  0.81954  1.0000
  H   H1081     1.0  0.45570  0.57056  0.92637  1.0000
  C   C615      1.0  0.22197  0.53448  0.90579  1.0000
  H   H1082     1.0  0.33018  0.77435  0.98225  1.0000
  H   H1083     1.0  0.42079  0.71507  0.77466  1.0000
  H   H1084     1.0  0.48576  0.81185  0.75312  1.0000
  C   C616      1.0  0.39074  0.93622  0.89497  1.0000
  C   C617      1.0  0.40136  0.55833  0.75535  1.0000
  H   H1085     1.0  0.44673  0.93697  0.95886  1.0000
  C   C618      1.0  0.40764  0.57855  0.98072  1.0000
  H   H1086     1.0  0.18594  0.63499  0.97461  1.0000
  H   H1087     1.0  0.27425  0.84866  0.86992  1.0000
  S   S143      1.0  0.30563  0.81076  0.75277  1.0000
  C   C619      1.0  0.32483  0.94677  0.87817  1.0000
  N   N36       1.0  0.31914  0.92373  0.89168  1.0000
  C   C620      1.0  0.41282  0.72657  0.76761  1.0000
  H   H1088     1.0  0.25898  0.76191  0.94373  1.0000
  H   H1089     1.0  0.44097  0.70004  0.99207  1.0000
  H   H1090     1.0  0.49607  0.72206  0.77625  1.0000
  C   C621      1.0  0.41353  0.85826  0.99250  1.0000
  C   C622      1.0  0.28824  0.87530  0.89598  1.0000
  H   H1091     1.0  0.23496  0.71464  0.94591  1.0000
  H   H1092     1.0  0.30252  0.89579  0.86718  1.0000
  H   H1093     1.0  0.46996  0.51012  0.95934  1.0000
  H   H1094     1.0  0.05082  0.54143  0.97312  1.0000
  C   C623      1.0  0.31678  0.57719  0.74568  1.0000
  C   C624      1.0  0.19348  0.68392  0.98528  1.0000
  N   N37       1.0  0.21965  0.68499  0.98280  1.0000
  C   C625      1.0  0.14388  0.58918  0.98271  1.0000
  C   C626      1.0  0.35163  0.58709  0.76998  1.0000
  H   H1095     1.0  0.28040  0.87770  0.91104  1.0000
  H   H1096     1.0  0.33834  0.94797  0.86551  1.0000
  S   S144      1.0  0.50096  0.68280  0.94053  1.0000
  H   H1097     1.0  0.38815  0.91888  0.90362  1.0000
  C   C627      1.0  0.29731  0.89999  0.88288  1.0000
  H   H1098     1.0  0.30527  0.64680  0.75666  1.0000
  H   H1099     1.0  0.48901  0.76574  0.99229  1.0000
  H   H1100     1.0  0.26097  0.83510  0.89458  1.0000
  C   C628      1.0  0.44650  0.68598  0.96297  1.0000
  H   H1101     1.0  0.14180  0.68030  0.95596  1.0000
  H   H1102     1.0  0.47394  0.75165  0.76168  1.0000
  H   H1103     1.0  0.39302  0.93320  0.87827  1.0000
  C   C629      1.0  0.26170  0.75142  0.95700  1.0000
  H   H1104     1.0  0.15813  0.55123  0.84023  1.0000
  C   C630      1.0  0.34162  0.59374  0.75268  1.0000
  C   C631      1.0  0.46790  0.79685  0.75989  1.0000
  H   H1105     1.0  0.27843  0.74778  0.95368  1.0000
  H   H1106     1.0  0.44797  0.55561  0.98347  1.0000
  H   H1107     1.0  0.21464  0.63173  0.97864  1.0000
  H   H1108     1.0  0.45562  0.77155  0.78573  1.0000
  H   H1109     1.0  0.18834  0.69366  0.95308  1.0000
  H   H1110     1.0  0.18949  0.63036  0.93666  1.0000
  H   H1111     1.0  0.06570  0.58624  0.97096  1.0000
  H   H1112     1.0  0.49610  0.71870  0.81401  1.0000
  C   C632      1.0  0.28980  0.93245  0.91749  1.0000
  H   H1113     1.0  0.43140  0.68956  0.95543  1.0000
  H   H1114     1.0  0.14214  0.67136  0.98254  1.0000
  H   H1115     1.0  0.07134  0.63030  0.97489  1.0000
  H   H1116     1.0  0.49631  0.74299  0.83131  1.0000
  H   H1117     1.0  0.23965  0.72475  0.99271  1.0000
  H   H1118     1.0  0.29234  0.95093  0.91090  1.0000
  H   H1119     1.0  0.22128  0.73090  0.96191  1.0000
  H   H1120     1.0  0.47816  0.58507  0.95897  1.0000
  C   C633      1.0  0.15738  0.51998  0.85837  1.0000
  C   C634      1.0  0.23760  0.72617  0.96014  1.0000
  C   C635      1.0  0.15379  0.68433  0.97004  1.0000
  H   H1121     1.0  0.09972  0.50291  0.78514  1.0000
  Fe  Fe72      1.0  0.13218  0.51185  0.94751  1.0000
  H   H1122     1.0  0.35978  0.80172  0.97534  1.0000
  C   C636      1.0  0.35131  0.78335  0.98383  1.0000
  H   H1123     1.0  0.46524  0.70266  0.96000  1.0000
  H   H1124     1.0  0.49585  0.59075  0.89523  1.0000
  H   H1125     1.0  0.19158  0.75403  0.98806  1.0000
  H   H1126     1.0  0.14252  0.55476  0.76846  1.0000
  H   H1127     1.0  0.42645  0.90830  0.97281  1.0000
  H   H1128     1.0  0.48066  0.69344  0.99346  1.0000
  H   H1129     1.0  0.48514  0.56048  0.94778  1.0000
  S   S145      1.0  0.20104  0.52077  0.75175  1.0000
  H   H1130     1.0  0.45739  0.78252  0.74772  1.0000
  C   C637      1.0  0.06808  0.54364  0.98181  1.0000
  H   H1131     1.0  0.19640  0.51042  0.81315  1.0000
  C   C638      1.0  0.23169  0.77813  0.99403  1.0000
  H   H1132     1.0  0.19532  0.70166  0.99305  1.0000
  N   N38       1.0  0.49919  0.75847  0.78765  1.0000
  C   C639      1.0  0.24067  0.68246  0.75569  1.0000
  H   H1133     1.0  0.42177  0.93654  0.97552  1.0000
  H   H1134     1.0  0.10085  0.62910  0.98091  1.0000
  C   C640      1.0  0.25978  0.70624  0.74914  1.0000
  H   H1135     1.0  0.08986  0.52137  0.98413  1.0000
  S   S146      1.0  0.27245  0.53136  0.74630  1.0000
  H   H1136     1.0  0.36265  0.68328  0.74881  1.0000
  H   H1137     1.0  0.14375  0.51565  0.75405  1.0000
  H   H1138     1.0  0.45574  0.80592  0.76515  1.0000
  H   H1139     1.0  0.46227  0.65991  0.99011  1.0000
  C   C641      1.0  0.45500  0.93851  0.99185  1.0000
  C   C642      1.0  0.47443  0.92710  0.99067  1.0000
  H   H1140     1.0  0.46321  0.90600  0.99282  1.0000
  C   C643      1.0  0.41617  0.73177  0.74648  1.0000
  C   C644      1.0  0.06635  0.59371  0.98687  1.0000
  C   C645      1.0  0.44129  0.68231  0.98614  1.0000
  H   H1141     1.0  0.46466  0.95966  0.99152  1.0000
  C   C646      1.0  0.08081  0.62292  0.98601  1.0000
  H   H1142     1.0  0.42200  0.66609  0.98813  1.0000
  H   H1143     1.0  0.04657  0.58883  0.99195  1.0000
  Fe  Fe73      1.0  0.24276  0.54581  0.74523  1.0000
  C   C647      1.0  0.34197  0.67505  0.74525  1.0000
  H   H1144     1.0  0.05670  0.50301  0.99019  1.0000
  H   H1145     1.0  0.04517  0.50233  0.95328  1.0000
  Fe  Fe74      1.0  0.54780  0.33694  0.21339  1.0000
  H   H1146     1.0  0.65988  0.41479  0.03396  1.0000
  C   C648      1.0  0.92696  0.42145  0.02697  1.0000
  H   H1147     1.0  0.70252  0.25971  0.01156  1.0000
  S   S147      1.0  0.58944  0.35455  0.22233  1.0000
  H   H1148     1.0  0.50654  0.09467  0.99581  1.0000
  H   H1149     1.0  0.73795  0.22585  0.17697  1.0000
  S   S148      1.0  0.76099  0.43753  0.22496  1.0000
  C   C649      1.0  0.92174  0.33670  0.00804  1.0000
  C   C650      1.0  0.52302  0.33331  0.15957  1.0000
  C   C651      1.0  0.96745  0.42257  0.01479  1.0000
  C   C652      1.0  0.74843  0.22299  0.02475  1.0000
  C   C653      1.0  0.68244  0.21766  0.00768  1.0000
  H   H1150     1.0  0.95672  0.37075  0.00522  1.0000
  S   S149      1.0  0.68459  0.17258  0.20896  1.0000
  C   C654      1.0  0.62831  0.42350  0.04060  1.0000
  Fe  Fe75      1.0  0.62524  0.13677  0.04627  1.0000
  S   S150      1.0  0.64473  0.11566  0.03082  1.0000
  S   S151      1.0  0.58902  0.13974  0.03824  1.0000
  Fe  Fe76      1.0  0.66078  0.15177  0.08419  1.0000
  S   S152      1.0  0.68290  0.13152  0.07131  1.0000
  S   S153      1.0  0.66444  0.17690  0.11264  1.0000
  Fe  Fe77      1.0  0.68188  0.15014  0.04067  1.0000
  S   S154      1.0  0.71436  0.17102  0.01653  1.0000
  Fe  Fe78      1.0  0.64419  0.09871  0.06234  1.0000
  S   S155      1.0  0.62592  0.05649  0.07421  1.0000
  S   S156      1.0  0.66154  0.17147  0.05422  1.0000
  S   S157      1.0  0.62295  0.11869  0.07698  1.0000
  H   H1151     1.0  0.69384  0.26155  0.04822  1.0000
  H   H1152     1.0  0.55156  0.34649  0.13554  1.0000
  C   C655      1.0  0.92745  0.38147  0.01662  1.0000
  H   H1153     1.0  0.76234  0.23679  0.23999  1.0000
  H   H1154     1.0  0.54034  0.27750  0.08848  1.0000
  Fe  Fe79      1.0  0.51144  0.36985  0.04201  1.0000
  H   H1155     1.0  0.71877  0.21470  0.14160  1.0000
  S   S158      1.0  0.74025  0.36701  0.23122  1.0000
  C   C656      1.0  0.86733  0.43961  0.02709  1.0000
  C   C657      1.0  0.85794  0.41308  0.02409  1.0000
  H   H1156     1.0  0.53836  0.08937  0.00916  1.0000
  H   H1157     1.0  0.85089  0.40035  0.03718  1.0000
  H   H1158     1.0  0.70744  0.23958  0.04426  1.0000
  Fe  Fe80      1.0  0.86716  0.49014  0.05700  1.0000
  C   C658      1.0  0.60917  0.02350  0.06588  1.0000
  H   H1159     1.0  0.90600  0.41343  0.02423  1.0000
  H   H1160     1.0  0.62368  0.08863  0.11350  1.0000
  C   C659      1.0  0.98412  0.42413  0.99553  1.0000
  H   H1161     1.0  0.93480  0.44245  0.02446  1.0000
  C   C660      1.0  0.93616  0.36515  0.00276  1.0000
  H   H1162     1.0  0.55837  0.22185  0.23946  1.0000
  H   H1163     1.0  0.97422  0.44270  0.02022  1.0000
  C   C661      1.0  0.50774  0.04988  0.01271  1.0000
  C   C662      1.0  0.56547  0.01699  0.13033  1.0000
  C   C663      1.0  0.71151  0.31653  0.24031  1.0000
  H   H1164     1.0  0.74845  0.30430  0.21948  1.0000
  C   C664      1.0  0.80709  0.47874  0.17587  1.0000
  C   C665      1.0  0.55082  0.31553  0.07766  1.0000
  H   H1165     1.0  0.59701  0.10878  0.16865  1.0000
  C   C666      1.0  0.66793  0.17296  0.13944  1.0000
  C   C667      1.0  0.68252  0.16120  0.14670  1.0000
  C   C668      1.0  0.68717  0.16104  0.16804  1.0000
  C   C669      1.0  0.67699  0.17225  0.18239  1.0000
  C   C670      1.0  0.66169  0.18327  0.17520  1.0000
  C   C671      1.0  0.65754  0.18396  0.15381  1.0000
  H   H1166     1.0  0.69125  0.15333  0.13583  1.0000
  H   H1167     1.0  0.69910  0.15254  0.17345  1.0000
  H   H1168     1.0  0.65347  0.19167  0.18607  1.0000
  H   H1169     1.0  0.64637  0.19326  0.14835  1.0000
  C   C672      1.0  0.72359  0.25278  0.20790  1.0000
  H   H1170     1.0  0.61858  0.03006  0.03364  1.0000
  H   H1171     1.0  0.63621  0.47452  0.03229  1.0000
  H   H1172     1.0  0.71547  0.25920  0.22106  1.0000
  C   C673      1.0  0.59645  0.00425  0.08069  1.0000
  H   H1173     1.0  0.74197  0.47373  0.18285  1.0000
  C   C674      1.0  0.66045  0.45111  0.00376  1.0000
  C   C675      1.0  0.53162  0.34033  0.13916  1.0000
  H   H1174     1.0  0.73924  0.22042  0.03966  1.0000
  H   H1175     1.0  0.77450  0.26291  0.03031  1.0000
  H   H1176     1.0  0.59642  0.04777  0.11503  1.0000
  H   H1177     1.0  0.76147  0.25639  0.16724  1.0000
  H   H1178     1.0  0.76679  0.28811  0.18755  1.0000
  H   H1179     1.0  0.65922  0.26750  0.21158  1.0000
  S   S159      1.0  0.55103  0.40303  0.04028  1.0000
  H   H1180     1.0  0.72004  0.48112  0.04780  1.0000
  N   N39       1.0  0.67248  0.45433  0.02486  1.0000
  C   C676      1.0  0.55703  0.00423  0.00093  1.0000
  C   C677      1.0  0.85303  0.49872  0.17247  1.0000
  H   H1181     1.0  0.74219  0.32285  0.20036  1.0000
  H   H1182     1.0  0.61718  0.11712  0.20430  1.0000
  H   H1183     1.0  0.63972  0.06786  0.14209  1.0000
  C   C678      1.0  0.61680  0.08925  0.18128  1.0000
  H   H1184     1.0  0.77054  0.49004  0.21353  1.0000
  H   H1185     1.0  0.72182  0.26330  0.15550  1.0000
  H   H1186     1.0  0.57156  0.32143  0.07961  1.0000
  S   S160      1.0  0.53638  0.30655  0.23826  1.0000
  H   H1187     1.0  0.73151  0.21559  0.22953  1.0000
  H   H1188     1.0  0.79930  0.43487  0.04978  1.0000
  H   H1189     1.0  0.58833  0.15745  0.11668  1.0000
  H   H1190     1.0  0.55807  0.00573  0.11587  1.0000
  H   H1191     1.0  0.60389  0.13924  0.14410  1.0000
  H   H1192     1.0  0.61736  0.38319  0.04686  1.0000
  S   S161      1.0  0.86721  0.45162  0.05209  1.0000
  H   H1193     1.0  0.57820  0.01017  0.13802  1.0000
  H   H1194     1.0  0.66709  0.20184  0.01637  1.0000
  H   H1195     1.0  0.75174  0.22080  0.14231  1.0000
  H   H1196     1.0  0.59096  0.45210  0.02986  1.0000
  H   H1197     1.0  0.54897  0.01352  0.14057  1.0000
  C   C679      1.0  0.85698  0.40286  0.00419  1.0000
  C   C680      1.0  0.57999  0.13629  0.11822  1.0000
  H   H1198     1.0  0.57554  0.12770  0.10247  1.0000
  H   H1199     1.0  0.50753  0.25880  0.16480  1.0000
  C   C681      1.0  0.59923  0.12930  0.12891  1.0000
  H   H1200     1.0  0.61664  0.13708  0.11931  1.0000
  N   N40       1.0  0.66375  0.36262  0.21133  1.0000
  C   C682      1.0  0.65725  0.38156  0.20015  1.0000
  C   C683      1.0  0.64204  0.33574  0.20969  1.0000
  C   C684      1.0  0.80516  0.48537  0.15525  1.0000
  C   C685      1.0  0.68845  0.36343  0.20377  1.0000
  C   C686      1.0  0.69003  0.35813  0.18052  1.0000
  C   C687      1.0  0.67821  0.40979  0.19976  1.0000
  H   H1201     1.0  0.64125  0.45048  0.00482  1.0000
  C   C688      1.0  0.62590  0.32822  0.18958  1.0000
  C   C689      1.0  0.60660  0.29987  0.18977  1.0000
  C   C690      1.0  0.71724  0.36336  0.17455  1.0000
  C   C691      1.0  0.66794  0.42702  0.18983  1.0000
  H   H1202     1.0  0.62363  0.40324  0.06976  1.0000
  H   H1203     1.0  0.63977  0.38147  0.20708  1.0000
  H   H1204     1.0  0.65238  0.37599  0.18375  1.0000
  H   H1205     1.0  0.64919  0.32123  0.21237  1.0000
  H   H1206     1.0  0.62778  0.33251  0.22216  1.0000
  C   C692      1.0  0.71574  0.46190  0.04143  1.0000
  H   H1207     1.0  0.54563  0.30967  0.06130  1.0000
  H   H1208     1.0  0.70482  0.38217  0.20785  1.0000
  H   H1209     1.0  0.69224  0.34883  0.21189  1.0000
  H   H1210     1.0  0.68452  0.37031  0.17072  1.0000
  H   H1211     1.0  0.67750  0.33765  0.17705  1.0000
  H   H1212     1.0  0.68480  0.41759  0.21541  1.0000
  H   H1213     1.0  0.69503  0.41145  0.19068  1.0000
  H   H1214     1.0  0.79004  0.46869  0.18505  1.0000
  H   H1215     1.0  0.62482  0.43873  0.04814  1.0000
  H   H1216     1.0  0.61478  0.33937  0.18828  1.0000
  H   H1217     1.0  0.63787  0.33181  0.17558  1.0000
  H   H1218     1.0  0.59479  0.29508  0.17554  1.0000
  H   H1219     1.0  0.61655  0.28755  0.19039  1.0000
  H   H1220     1.0  0.59364  0.29569  0.20333  1.0000
  H   H1221     1.0  0.72356  0.35123  0.18374  1.0000
  H   H1222     1.0  0.71798  0.35898  0.15791  1.0000
  H   H1223     1.0  0.73073  0.38384  0.17734  1.0000
  H   H1224     1.0  0.68315  0.44706  0.18936  1.0000
  H   H1225     1.0  0.66142  0.42061  0.17379  1.0000
  H   H1226     1.0  0.65174  0.42677  0.19906  1.0000
  C   C693      1.0  0.74399  0.23568  0.23434  1.0000
  H   H1227     1.0  0.56703  0.05068  0.11642  1.0000
  H   H1228     1.0  0.54783  0.07381  0.04172  1.0000
  H   H1229     1.0  0.70460  0.28624  0.20379  1.0000
  S   S162      1.0  0.82965  0.49097  0.06257  1.0000
  H   H1230     1.0  0.67666  0.47816  0.05201  1.0000
  H   H1231     1.0  0.78654  0.48045  0.14875  1.0000
  C   C694      1.0  0.67580  0.47922  0.03487  1.0000
  C   C695      1.0  0.57834  0.13980  0.01289  1.0000
  C   C696      1.0  0.78116  0.25134  0.00006  1.0000
  S   S163      1.0  0.83462  0.48066  0.21139  1.0000
  H   H1232     1.0  0.95122  0.42404  0.05383  1.0000
  H   H1233     1.0  0.75359  0.46746  0.05054  1.0000
  N   N41       1.0  0.60539  0.09043  0.14227  1.0000
  C   C697      1.0  0.66988  0.09300  0.12252  1.0000
  H   H1234     1.0  0.99029  0.48798  0.02924  1.0000
  H   H1235     1.0  0.55144  0.04842  0.02794  1.0000
  H   H1236     1.0  0.73811  0.44209  0.03192  1.0000
  H   H1237     1.0  0.57411  0.01491  0.01076  1.0000
  H   H1238     1.0  0.52161  0.34482  0.10780  1.0000
  C   C698      1.0  0.74123  0.46163  0.03659  1.0000
  C   C699      1.0  0.53548  0.29338  0.09221  1.0000
  H   H1239     1.0  0.61039  0.47207  0.99633  1.0000
  C   C700      1.0  0.74041  0.20217  0.01097  1.0000
  C   C701      1.0  0.62848  0.10678  0.19992  1.0000
  H   H1240     1.0  0.69449  0.49520  0.03045  1.0000
  C   C702      1.0  0.74896  0.25385  0.21620  1.0000
  H   H1241     1.0  0.88444  0.47646  0.01250  1.0000
  C   C703      1.0  0.72190  0.25212  0.16938  1.0000
  H   H1242     1.0  0.70963  0.47075  0.01009  1.0000
  Fe  Fe81      1.0  0.66883  0.18542  0.23674  1.0000
  C   C704      1.0  0.74149  0.24141  0.16577  1.0000
  C   C705      1.0  0.82711  0.49857  0.14303  1.0000
  C   C706      1.0  0.83108  0.48585  0.18476  1.0000
  H   H1243     1.0  0.66857  0.24604  0.01597  1.0000
  H   H1244     1.0  0.70039  0.31607  0.22692  1.0000
  H   H1245     1.0  0.66202  0.08076  0.10861  1.0000
  H   H1246     1.0  0.67945  0.11338  0.11772  1.0000
  H   H1247     1.0  0.79454  0.32481  0.20957  1.0000
  H   H1248     1.0  0.59462  0.39420  0.05533  1.0000
  H   H1249     1.0  0.62961  0.08061  0.17708  1.0000
  C   C707      1.0  0.78182  0.33340  0.20495  1.0000
  S   S164      1.0  0.66346  0.22115  0.23826  1.0000
  H   H1250     1.0  0.65789  0.27917  0.18597  1.0000
  H   H1251     1.0  0.93221  0.45475  0.05991  1.0000
  H   H1252     1.0  0.90083  0.32963  0.00608  1.0000
  C   C708      1.0  0.69875  0.45582  0.02179  1.0000
  H   H1253     1.0  0.91938  0.39784  0.05496  1.0000
  H   H1254     1.0  0.76187  0.27334  0.22195  1.0000
  C   C709      1.0  0.76859  0.24720  0.01937  1.0000
  C   C710      1.0  0.87664  0.45596  0.01020  1.0000
  H   H1255     1.0  0.64837  0.12090  0.19637  1.0000
  N   N42       1.0  0.93874  0.40976  0.01194  1.0000
  C   C711      1.0  0.70388  0.27590  0.18914  1.0000
  H   H1256     1.0  0.66272  0.16495  0.00243  1.0000
  C   C712      1.0  0.55305  0.06805  0.02670  1.0000
  H   H1257     1.0  0.69993  0.21531  0.01077  1.0000
  H   H1258     1.0  0.84910  0.38233  0.00194  1.0000
  H   H1259     1.0  0.67349  0.22756  0.04894  1.0000
  C   C713      1.0  0.51461  0.33924  0.12335  1.0000
  H   H1260     1.0  0.63969  0.11775  0.12704  1.0000
  H   H1261     1.0  0.78358  0.34815  0.21666  1.0000
  C   C714      1.0  0.68583  0.24304  0.01807  1.0000
  H   H1262     1.0  0.90090  0.42764  0.06140  1.0000
  H   H1263     1.0  0.54727  0.33232  0.08125  1.0000
  H   H1264     1.0  0.72478  0.46830  0.20688  1.0000
  C   C715      1.0  0.58991  0.06188  0.14516  1.0000
  C   C716      1.0  0.55784  0.14570  0.00990  1.0000
  C   C717      1.0  0.58362  0.44176  0.01556  1.0000
  C   C718      1.0  0.65597  0.48914  0.02951  1.0000
  N   N43       1.0  0.72526  0.26805  0.18867  1.0000
  C   C719      1.0  0.69042  0.24283  0.04127  1.0000
  H   H1265     1.0  0.61873  0.41870  0.02534  1.0000
  H   H1266     1.0  0.66494  0.43605  0.05481  1.0000
  H   H1267     1.0  0.90615  0.37282  0.01597  1.0000
  H   H1268     1.0  0.56210  0.12959  0.12740  1.0000
  C   C720      1.0  0.58865  0.09981  0.13094  1.0000
  H   H1269     1.0  0.54734  0.01658  0.99851  1.0000
  C   C721      1.0  0.56304  0.41715  0.01613  1.0000
  H   H1270     1.0  0.64942  0.40961  0.00076  1.0000
  H   H1271     1.0  0.62905  0.09531  0.21334  1.0000
  Fe  Fe82      1.0  0.80203  0.45923  0.23422  1.0000
  H   H1272     1.0  0.59820  0.07359  0.18628  1.0000
  S   S165      1.0  0.54460  0.33152  0.17810  1.0000
  H   H1273     1.0  0.92800  0.32549  0.99746  1.0000
  C   C722      1.0  0.65737  0.43187  0.03877  1.0000
  C   C723      1.0  0.80925  0.44956  0.01861  1.0000
  C   C724      1.0  0.75009  0.29229  0.18716  1.0000
  H   H1274     1.0  0.68441  0.08813  0.12954  1.0000
  H   H1275     1.0  0.68359  0.38911  0.23625  1.0000
  C   C725      1.0  0.92169  0.43407  0.06370  1.0000
  C   C726      1.0  0.79767  0.42731  0.03378  1.0000
  H   H1276     1.0  0.70992  0.23222  0.20544  1.0000
  H   H1277     1.0  0.74336  0.24472  0.13215  1.0000
  H   H1278     1.0  0.65785  0.10012  0.15209  1.0000
  H   H1279     1.0  0.67404  0.23704  0.19638  1.0000
  H   H1280     1.0  0.70308  0.23483  0.16945  1.0000
  H   H1281     1.0  0.67195  0.24780  0.17090  1.0000
  H   H1282     1.0  0.82385  0.43289  0.99540  1.0000
  H   H1283     1.0  0.54200  0.30040  0.10813  1.0000
  C   C727      1.0  0.75406  0.31294  0.20395  1.0000
  H   H1284     1.0  0.79866  0.46124  0.01989  1.0000
  H   H1285     1.0  0.57331  0.08152  0.02338  1.0000
  H   H1286     1.0  0.56959  0.09252  0.13860  1.0000
  H   H1287     1.0  0.75150  0.30156  0.17190  1.0000
  C   C728      1.0  0.61533  0.39958  0.05397  1.0000
  C   C729      1.0  0.64865  0.08847  0.13816  1.0000
  C   C730      1.0  0.58023  0.04545  0.12519  1.0000
  C   C731      1.0  0.62896  0.09673  0.12935  1.0000
  H   H1288     1.0  0.70635  0.28973  0.17653  1.0000
  H   H1289     1.0  0.97282  0.41296  0.02735  1.0000
  H   H1290     1.0  0.60083  0.05368  0.15374  1.0000
  H   H1291     1.0  0.77715  0.41517  0.03031  1.0000
  C   C732      1.0  0.65647  0.26240  0.19489  1.0000
  H   H1292     1.0  0.70627  0.44752  0.05367  1.0000
  H   H1293     1.0  0.93236  0.37832  0.03256  1.0000
  H   H1294     1.0  0.83545  0.49171  0.99922  1.0000
  H   H1295     1.0  0.63697  0.24644  0.19286  1.0000
  H   H1296     1.0  0.78805  0.34296  0.18977  1.0000
  C   C733      1.0  0.61244  0.10402  0.16304  1.0000
  S   S166      1.0  0.54006  0.36440  0.23352  1.0000
  H   H1297     1.0  0.60445  0.12812  0.99819  1.0000
  C   C734      1.0  0.59456  0.45309  0.99662  1.0000
  H   H1298     1.0  0.75146  0.47527  0.02404  1.0000
  H   H1299     1.0  0.75941  0.24871  0.20424  1.0000
  C   C735      1.0  0.67632  0.25391  0.18731  1.0000
  C   C736      1.0  0.73861  0.22974  0.14413  1.0000
  C   C737      1.0  0.60868  0.01578  0.04526  1.0000
  C   C738      1.0  0.53599  0.06949  0.00944  1.0000
  H   H1300     1.0  0.64978  0.37174  0.23960  1.0000
  C   C739      1.0  0.93080  0.41809  0.05027  1.0000
  H   H1301     1.0  0.80810  0.41541  0.03302  1.0000
  C   C740      1.0  0.66699  0.37012  0.23393  1.0000
  H   H1302     1.0  0.58510  0.09226  0.11482  1.0000
  H   H1303     1.0  0.82929  0.46174  0.02350  1.0000
  H   H1304     1.0  0.62972  0.12283  0.16151  1.0000
  H   H1305     1.0  0.54933  0.15051  0.02307  1.0000
  H   H1306     1.0  0.60720  0.00463  0.16596  1.0000
  H   H1307     1.0  0.57287  0.05810  0.15494  1.0000
  H   H1308     1.0  0.92489  0.43160  0.08026  1.0000
  H   H1309     1.0  0.69730  0.43743  0.01549  1.0000
  H   H1310     1.0  0.72669  0.49368  0.19021  1.0000
  C   C741      1.0  0.80899  0.43985  0.99620  1.0000
  H   H1311     1.0  0.65769  0.49468  0.01300  1.0000
  H   H1312     1.0  0.59697  0.00971  0.09672  1.0000
  H   H1313     1.0  0.92573  0.33328  0.02418  1.0000
  H   H1314     1.0  0.51575  0.26892  0.12744  1.0000
  C   C742      1.0  0.55316  0.40399  0.99762  1.0000
  H   H1315     1.0  0.56333  0.26639  0.24287  1.0000
  H   H1316     1.0  0.53737  0.38496  0.99791  1.0000
  C   C743      1.0  0.58922  0.13350  0.99585  1.0000
  C   C744      1.0  0.73730  0.48330  0.19596  1.0000
  H   H1317     1.0  0.69141  0.49217  0.24210  1.0000
  Fe  Fe83      1.0  0.58088  0.37965  0.24383  1.0000
  H   H1318     1.0  0.64433  0.47237  0.23990  1.0000
  H   H1319     1.0  0.76239  0.44159  0.99954  1.0000
  H   H1320     1.0  0.52141  0.47854  0.12216  1.0000
  S   S167      1.0  0.50286  0.33036  0.05319  1.0000
  H   H1321     1.0  0.50709  0.03075  0.01022  1.0000
  H   H1322     1.0  0.51238  0.43544  0.05094  1.0000
  H   H1323     1.0  0.51491  0.46131  0.03464  1.0000
  H   H1324     1.0  0.50497  0.09049  0.03335  1.0000
  H   H1325     1.0  0.52070  0.45272  0.13767  1.0000
  H   H1326     1.0  0.51567  0.21458  0.07163  1.0000
  H   H1327     1.0  0.51117  0.24009  0.10060  1.0000
  C   C745      1.0  0.50635  0.28466  0.08997  1.0000
  H   H1328     1.0  0.50274  0.05025  0.02929  1.0000
  H   H1329     1.0  0.50273  0.30116  0.09449  1.0000
  C   C746      1.0  0.65369  0.46081  0.24428  1.0000
  C   C747      1.0  0.50867  0.46079  0.13051  1.0000
  C   C748      1.0  0.76160  0.50171  0.20718  1.0000
  H   H1330     1.0  0.50197  0.28195  0.07324  1.0000
  H   H1331     1.0  0.50199  0.46668  0.07016  1.0000
  H   H1332     1.0  0.52462  0.23550  0.43971  1.0000
  S   S168      1.0  0.57214  0.35312  0.27052  1.0000
  H   H1333     1.0  0.84481  0.30764  0.46877  1.0000
  Fe  Fe84      1.0  0.53194  0.33566  0.25918  1.0000
  H   H1334     1.0  0.59853  0.12257  0.38343  1.0000
  H   H1335     1.0  0.71254  0.24277  0.46494  1.0000
  S   S169      1.0  0.74758  0.42059  0.27387  1.0000
  H   H1336     1.0  0.58861  0.31117  0.33428  1.0000
  H   H1337     1.0  0.64007  0.40022  0.25852  1.0000
  H   H1338     1.0  0.59715  0.08092  0.41296  1.0000
  Fe  Fe85      1.0  0.78974  0.44402  0.28040  1.0000
  Fe  Fe86      1.0  0.65492  0.17327  0.28317  1.0000
  S   S170      1.0  0.65608  0.14780  0.30936  1.0000
  S   S171      1.0  0.71409  0.26584  0.28150  1.0000
  S   S172      1.0  0.64767  0.20759  0.28766  1.0000
  Fe  Fe87      1.0  0.65717  0.15682  0.43238  1.0000
  S   S173      1.0  0.68712  0.14294  0.43534  1.0000
  S   S174      1.0  0.64477  0.17155  0.40410  1.0000
  Fe  Fe88      1.0  0.64639  0.15154  0.47870  1.0000
  H   H1339     1.0  0.57234  0.04005  0.39387  1.0000
  H   H1340     1.0  0.63136  0.39297  0.47871  1.0000
  Fe  Fe89      1.0  0.70120  0.16887  0.46371  1.0000
  S   S175      1.0  0.74345  0.19927  0.46753  1.0000
  Fe  Fe90      1.0  0.65856  0.11226  0.45637  1.0000
  S   S176      1.0  0.64983  0.06962  0.45184  1.0000
  S   S177      1.0  0.67265  0.18426  0.45910  1.0000
  S   S178      1.0  0.62808  0.12521  0.45178  1.0000
  S   S179      1.0  0.86613  0.44877  0.45590  1.0000
  S   S180      1.0  0.54406  0.40387  0.45304  1.0000
  Fe  Fe91      1.0  0.62839  0.19707  0.25672  1.0000
  C   C749      1.0  0.59988  0.03497  0.46362  1.0000
  H   H1341     1.0  0.92202  0.49175  0.46187  1.0000
  C   C750      1.0  0.66219  0.47497  0.47585  1.0000
  H   H1342     1.0  0.61445  0.42812  0.48164  1.0000
  H   H1343     1.0  0.57452  0.41872  0.36089  1.0000
  H   H1344     1.0  0.58980  0.31858  0.30716  1.0000
  H   H1345     1.0  0.54664  0.32211  0.34513  1.0000
  C   C751      1.0  0.62356  0.03844  0.45579  1.0000
  H   H1346     1.0  0.53038  0.24645  0.33576  1.0000
  C   C752      1.0  0.64108  0.48357  0.48019  1.0000
  C   C753      1.0  0.50638  0.03388  0.46623  1.0000
  H   H1347     1.0  0.64461  0.01866  0.44434  1.0000
  S   S181      1.0  0.80502  0.44325  0.31291  1.0000
  H   H1348     1.0  0.70574  0.26845  0.47379  1.0000
  H   H1349     1.0  0.55255  0.18188  0.44292  1.0000
  H   H1350     1.0  0.58784  0.12612  0.47670  1.0000
  H   H1351     1.0  0.55005  0.29063  0.30296  1.0000
  H   H1352     1.0  0.58741  0.11797  0.40975  1.0000
  H   H1353     1.0  0.81541  0.36504  0.47228  1.0000
  C   C754      1.0  0.81165  0.46480  0.33424  1.0000
  C   C755      1.0  0.70552  0.29388  0.25122  1.0000
  C   C756      1.0  0.74476  0.27434  0.47931  1.0000
  C   C757      1.0  0.65341  0.15505  0.33562  1.0000
  C   C758      1.0  0.66471  0.14661  0.35103  1.0000
  C   C759      1.0  0.66265  0.15189  0.37208  1.0000
  C   C760      1.0  0.64879  0.16516  0.37789  1.0000
  C   C761      1.0  0.63756  0.17363  0.36248  1.0000
  C   C762      1.0  0.63990  0.16866  0.34146  1.0000
  H   H1354     1.0  0.67540  0.13627  0.34663  1.0000
  H   H1355     1.0  0.67179  0.14578  0.38381  1.0000
  H   H1356     1.0  0.62676  0.18387  0.36685  1.0000
  H   H1357     1.0  0.63087  0.17497  0.32977  1.0000
  H   H1358     1.0  0.84976  0.33910  0.46029  1.0000
  Fe  Fe92      1.0  0.75206  0.45350  0.25382  1.0000
  C   C763      1.0  0.59589  0.23118  0.25131  1.0000
  C   C764      1.0  0.73998  0.31753  0.27504  1.0000
  H   H1359     1.0  0.53123  0.24449  0.37455  1.0000
  H   H1360     1.0  0.75120  0.31794  0.28840  1.0000
  N   N44       1.0  0.78175  0.31669  0.49303  1.0000
  C   C765      1.0  0.52717  0.32546  0.31791  1.0000
  C   C766      1.0  0.56060  0.17463  0.45530  1.0000
  C   C767      1.0  0.56416  0.25710  0.35381  1.0000
  H   H1361     1.0  0.56950  0.44336  0.32799  1.0000
  H   H1362     1.0  0.69060  0.35274  0.24588  1.0000
  H   H1363     1.0  0.86693  0.49263  0.34400  1.0000
  H   H1364     1.0  0.53053  0.40851  0.37266  1.0000
  H   H1365     1.0  0.57766  0.45146  0.29127  1.0000
  H   H1366     1.0  0.63053  0.34575  0.32466  1.0000
  H   H1367     1.0  0.51156  0.28243  0.28050  1.0000
  C   C768      1.0  0.59679  0.30974  0.31912  1.0000
  H   H1368     1.0  0.90070  0.46511  0.36778  1.0000
  C   C769      1.0  0.53783  0.39398  0.37381  1.0000
  C   C770      1.0  0.59335  0.45192  0.30108  1.0000
  C   C771      1.0  0.61172  0.04552  0.39950  1.0000
  C   C772      1.0  0.58890  0.18302  0.45073  1.0000
  C   C773      1.0  0.81523  0.45681  0.35392  1.0000
  C   C774      1.0  0.55681  0.18416  0.47688  1.0000
  H   H1369     1.0  0.59953  0.20424  0.44998  1.0000
  H   H1370     1.0  0.55549  0.23376  0.29041  1.0000
  C   C775      1.0  0.57600  0.23692  0.24538  1.0000
  C   C776      1.0  0.57841  0.12842  0.49035  1.0000
  H   H1371     1.0  0.75799  0.26796  0.47177  1.0000
  C   C777      1.0  0.73187  0.33970  0.24660  1.0000
  S   S182      1.0  0.82225  0.48397  0.44341  1.0000
  H   H1372     1.0  0.74325  0.46426  0.48037  1.0000
  H   H1373     1.0  0.53673  0.42465  0.30075  1.0000
  H   H1374     1.0  0.89220  0.48827  0.33239  1.0000
  C   C778      1.0  0.51881  0.25396  0.29702  1.0000
  H   H1375     1.0  0.62075  0.03234  0.40040  1.0000
  H   H1376     1.0  0.52177  0.37460  0.37137  1.0000
  H   H1377     1.0  0.57070  0.09351  0.39062  1.0000
  Fe  Fe93      1.0  0.51294  0.36426  0.44531  1.0000
  C   C779      1.0  0.55039  0.26187  0.33523  1.0000
  H   H1378     1.0  0.67477  0.34647  0.28156  1.0000
  C   C780      1.0  0.51120  0.15481  0.47637  1.0000
  C   C781      1.0  0.62672  0.40251  0.46585  1.0000
  C   C782      1.0  0.55905  0.39916  0.35800  1.0000
  C   C783      1.0  0.52417  0.20004  0.46839  1.0000
  S   S183      1.0  0.51571  0.31971  0.38013  1.0000
  H   H1379     1.0  0.92516  0.48961  0.42418  1.0000
  C   C784      1.0  0.59909  0.38546  0.45943  1.0000
  N   N45       1.0  0.56872  0.40713  0.31864  1.0000
  C   C785      1.0  0.58708  0.39555  0.32080  1.0000
  C   C786      1.0  0.54884  0.39619  0.33554  1.0000
  C   C787      1.0  0.58241  0.43598  0.32106  1.0000
  H   H1380     1.0  0.60442  0.44468  0.29148  1.0000
  C   C788      1.0  0.61007  0.40527  0.30573  1.0000
  C   C789      1.0  0.62532  0.38992  0.30789  1.0000
  H   H1381     1.0  0.59697  0.24039  0.30217  1.0000
  H   H1382     1.0  0.54707  0.37748  0.29645  1.0000
  H   H1383     1.0  0.59595  0.39954  0.33637  1.0000
  H   H1384     1.0  0.57650  0.37426  0.31938  1.0000
  H   H1385     1.0  0.53657  0.37537  0.33283  1.0000
  C   C790      1.0  0.51411  0.02349  0.48514  1.0000
  H   H1386     1.0  0.59834  0.44143  0.33235  1.0000
  H   H1387     1.0  0.63914  0.40345  0.45250  1.0000
  H   H1388     1.0  0.56982  0.01585  0.42524  1.0000
  H   H1389     1.0  0.56652  0.38500  0.36088  1.0000
  H   H1390     1.0  0.60394  0.40371  0.28944  1.0000
  H   H1391     1.0  0.62337  0.42555  0.30929  1.0000
  H   H1392     1.0  0.61341  0.36962  0.30339  1.0000
  H   H1393     1.0  0.64227  0.39801  0.29756  1.0000
  H   H1394     1.0  0.63210  0.39089  0.32401  1.0000
  H   H1395     1.0  0.77898  0.38698  0.48669  1.0000
  H   H1396     1.0  0.54027  0.22109  0.31425  1.0000
  C   C791      1.0  0.67735  0.44242  0.47363  1.0000
  H   H1397     1.0  0.67377  0.42247  0.47675  1.0000
  H   H1398     1.0  0.59314  0.39443  0.44680  1.0000
  H   H1399     1.0  0.55638  0.18811  0.31738  1.0000
  H   H1400     1.0  0.51529  0.39129  0.30398  1.0000
  C   C792      1.0  0.79814  0.38846  0.48300  1.0000
  S   S184      1.0  0.63233  0.16051  0.25349  1.0000
  S   S185      1.0  0.51978  0.33047  0.43733  1.0000
  Fe  Fe94      1.0  0.85901  0.48373  0.45332  1.0000
  H   H1401     1.0  0.58868  0.19640  0.30929  1.0000
  H   H1402     1.0  0.51515  0.19086  0.45347  1.0000
  H   H1403     1.0  0.80609  0.40145  0.46959  1.0000
  H   H1404     1.0  0.79487  0.24013  0.46830  1.0000
  S   S186      1.0  0.60479  0.31233  0.26038  1.0000
  C   C793      1.0  0.74581  0.34029  0.26422  1.0000
  C   C794      1.0  0.57033  0.43846  0.48333  1.0000
  H   H1405     1.0  0.55679  0.27334  0.28325  1.0000
  H   H1406     1.0  0.54870  0.27988  0.33825  1.0000
  H   H1407     1.0  0.88845  0.45909  0.40486  1.0000
  Fe  Fe95      1.0  0.57745  0.32644  0.24822  1.0000
  C   C795      1.0  0.62579  0.32568  0.32038  1.0000
  S   S187      1.0  0.79348  0.47799  0.26188  1.0000
  C   C796      1.0  0.67152  0.35991  0.27133  1.0000
  C   C797      1.0  0.67169  0.35194  0.24881  1.0000
  N   N46       1.0  0.70624  0.24272  0.34788  1.0000
  C   C798      1.0  0.71069  0.21961  0.34334  1.0000
  C   C799      1.0  0.69916  0.24229  0.37040  1.0000
  C   C800      1.0  0.68345  0.24008  0.33530  1.0000
  C   C801      1.0  0.72887  0.26776  0.34230  1.0000
  C   C802      1.0  0.75590  0.26908  0.34415  1.0000
  C   C803      1.0  0.71299  0.21403  0.32016  1.0000
  C   C804      1.0  0.67397  0.26072  0.33917  1.0000
  C   C805      1.0  0.71932  0.24364  0.38642  1.0000
  C   C806      1.0  0.70844  0.23963  0.40835  1.0000
  C   C807      1.0  0.77671  0.29642  0.34091  1.0000
  C   C808      1.0  0.72482  0.19556  0.31734  1.0000
  C   C809      1.0  0.65488  0.25955  0.32262  1.0000
  H   H1408     1.0  0.69481  0.20208  0.34982  1.0000
  H   H1409     1.0  0.72798  0.22098  0.35129  1.0000
  H   H1410     1.0  0.69520  0.25876  0.37422  1.0000
  H   H1411     1.0  0.68109  0.22466  0.37362  1.0000
  H   H1412     1.0  0.66695  0.22102  0.33786  1.0000
  H   H1413     1.0  0.68788  0.24079  0.31854  1.0000
  H   H1414     1.0  0.72745  0.27296  0.32597  1.0000
  H   H1415     1.0  0.72864  0.28371  0.35171  1.0000
  H   H1416     1.0  0.75867  0.25688  0.33214  1.0000
  H   H1417     1.0  0.75907  0.26250  0.35934  1.0000
  H   H1418     1.0  0.69368  0.20496  0.31307  1.0000
  H   H1419     1.0  0.72472  0.23183  0.31153  1.0000
  H   H1420     1.0  0.69008  0.28031  0.33903  1.0000
  H   H1421     1.0  0.66403  0.25753  0.35430  1.0000
  H   H1422     1.0  0.72582  0.22873  0.38365  1.0000
  H   H1423     1.0  0.73597  0.26286  0.38609  1.0000
  H   H1424     1.0  0.70199  0.25435  0.41239  1.0000
  H   H1425     1.0  0.69206  0.22029  0.40984  1.0000
  H   H1426     1.0  0.72335  0.24103  0.41955  1.0000
  H   H1427     1.0  0.77558  0.30947  0.35302  1.0000
  H   H1428     1.0  0.79582  0.29678  0.34177  1.0000
  H   H1429     1.0  0.77471  0.30351  0.32545  1.0000
  H   H1430     1.0  0.71324  0.17729  0.32550  1.0000
  H   H1431     1.0  0.72529  0.19118  0.30067  1.0000
  H   H1432     1.0  0.74469  0.20423  0.32334  1.0000
  H   H1433     1.0  0.64803  0.27411  0.32601  1.0000
  H   H1434     1.0  0.66412  0.26369  0.30713  1.0000
  H   H1435     1.0  0.63817  0.24031  0.32231  1.0000
  H   H1436     1.0  0.65718  0.33177  0.24708  1.0000
  H   H1437     1.0  0.51594  0.00607  0.48022  1.0000
  C   C810      1.0  0.65139  0.42010  0.25453  1.0000
  C   C811      1.0  0.54804  0.27134  0.29887  1.0000
  H   H1438     1.0  0.50933  0.20394  0.47642  1.0000
  C   C812      1.0  0.63078  0.42995  0.47170  1.0000
  C   C813      1.0  0.81507  0.48997  0.33193  1.0000
  H   H1439     1.0  0.82480  0.46721  0.38604  1.0000
  S   S188      1.0  0.72660  0.47332  0.25282  1.0000
  H   H1440     1.0  0.75962  0.31158  0.46519  1.0000
  H   H1441     1.0  0.56155  0.17287  0.48846  1.0000
  H   H1442     1.0  0.59703  0.05160  0.46736  1.0000
  C   C814      1.0  0.88412  0.46811  0.37282  1.0000
  H   H1443     1.0  0.55440  0.04502  0.48233  1.0000
  C   C815      1.0  0.57217  0.20069  0.30707  1.0000
  C   C816      1.0  0.82232  0.47373  0.37103  1.0000
  C   C817      1.0  0.82654  0.49912  0.36858  1.0000
  H   H1444     1.0  0.62937  0.05048  0.32151  1.0000
  C   C818      1.0  0.79630  0.36210  0.47779  1.0000
  H   H1445     1.0  0.55301  0.26254  0.44887  1.0000
  C   C819      1.0  0.60141  0.28139  0.25530  1.0000
  H   H1446     1.0  0.67940  0.48889  0.48429  1.0000
  C   C820      1.0  0.54661  0.22621  0.46249  1.0000
  H   H1447     1.0  0.80296  0.32190  0.46448  1.0000
  H   H1448     1.0  0.79766  0.29381  0.47793  1.0000
  H   H1449     1.0  0.86856  0.33609  0.48108  1.0000
  H   H1450     1.0  0.59099  0.17494  0.43564  1.0000
  C   C821      1.0  0.87361  0.45276  0.39263  1.0000
  C   C822      1.0  0.62134  0.27566  0.26102  1.0000
  H   H1451     1.0  0.81259  0.43739  0.35591  1.0000
  H   H1452     1.0  0.87384  0.40601  0.46953  1.0000
  H   H1453     1.0  0.68702  0.37952  0.27410  1.0000
  H   H1454     1.0  0.68793  0.42051  0.26123  1.0000
  C   C823      1.0  0.55180  0.11473  0.49223  1.0000
  H   H1455     1.0  0.55885  0.22339  0.45059  1.0000
  H   H1456     1.0  0.61272  0.05281  0.41558  1.0000
  H   H1457     1.0  0.86896  0.45975  0.36092  1.0000
  H   H1458     1.0  0.70546  0.10709  0.39568  1.0000
  C   C824      1.0  0.86427  0.43558  0.48061  1.0000
  H   H1459     1.0  0.65283  0.35942  0.27536  1.0000
  H   H1460     1.0  0.63880  0.29049  0.26743  1.0000
  C   C825      1.0  0.52427  0.40287  0.27251  1.0000
  C   C826      1.0  0.53993  0.04362  0.49416  1.0000
  C   C827      1.0  0.69290  0.45751  0.25129  1.0000
  H   H1461     1.0  0.69356  0.09598  0.42141  1.0000
  C   C828      1.0  0.58988  0.28152  0.31344  1.0000
  H   H1462     1.0  0.56282  0.23757  0.35282  1.0000
  C   C829      1.0  0.89178  0.49701  0.37649  1.0000
  H   H1463     1.0  0.61783  0.49093  0.29168  1.0000
  H   H1464     1.0  0.81245  0.49645  0.31692  1.0000
  H   H1465     1.0  0.67819  0.44401  0.45645  1.0000
  H   H1466     1.0  0.76153  0.35812  0.26917  1.0000
  H   H1467     1.0  0.60038  0.48854  0.31526  1.0000
  C   C830      1.0  0.86906  0.41420  0.48293  1.0000
  N   N47       1.0  0.56192  0.26266  0.31419  1.0000
  H   H1468     1.0  0.52142  0.03958  0.45412  1.0000
  C   C831      1.0  0.50749  0.26199  0.27890  1.0000
  H   H1469     1.0  0.55085  0.15334  0.45475  1.0000
  H   H1470     1.0  0.87426  0.49835  0.38175  1.0000
  H   H1471     1.0  0.62770  0.48166  0.31518  1.0000
  S   S189      1.0  0.67553  0.13701  0.48485  1.0000
  H   H1472     1.0  0.78251  0.35390  0.46492  1.0000
  H   H1473     1.0  0.57185  0.20409  0.47893  1.0000
  C   C832      1.0  0.61866  0.25067  0.25893  1.0000
  H   H1474     1.0  0.63402  0.31794  0.33228  1.0000
  C   C833      1.0  0.58320  0.02861  0.39406  1.0000
  H   H1475     1.0  0.51121  0.15077  0.45954  1.0000
  H   H1476     1.0  0.65727  0.04879  0.33199  1.0000
  N   N48       1.0  0.62646  0.06722  0.38486  1.0000
  C   C834      1.0  0.62901  0.05600  0.36439  1.0000
  C   C835      1.0  0.52997  0.32342  0.33934  1.0000
  C   C836      1.0  0.61280  0.08348  0.38128  1.0000
  C   C837      1.0  0.65225  0.08381  0.39425  1.0000
  C   C838      1.0  0.67038  0.07107  0.39658  1.0000
  C   C839      1.0  0.64646  0.07548  0.34811  1.0000
  C   C840      1.0  0.60696  0.09539  0.40088  1.0000
  C   C841      1.0  0.69612  0.08992  0.40562  1.0000
  H   H1477     1.0  0.55894  0.23606  0.47580  1.0000
  C   C842      1.0  0.58982  0.10808  0.39577  1.0000
  H   H1478     1.0  0.60996  0.04559  0.35695  1.0000
  H   H1479     1.0  0.63584  0.04119  0.36667  1.0000
  H   H1480     1.0  0.92945  0.49812  0.35149  1.0000
  H   H1481     1.0  0.59476  0.07256  0.37254  1.0000
  H   H1482     1.0  0.62441  0.09997  0.37120  1.0000
  H   H1483     1.0  0.66241  0.10178  0.38533  1.0000
  H   H1484     1.0  0.64993  0.09025  0.41002  1.0000
  H   H1485     1.0  0.67426  0.06440  0.38149  1.0000
  H   H1486     1.0  0.66203  0.05446  0.40716  1.0000
  H   H1487     1.0  0.63858  0.08878  0.34350  1.0000
  H   H1488     1.0  0.66612  0.08695  0.35403  1.0000
  H   H1489     1.0  0.62503  0.11040  0.40737  1.0000
  C   C843      1.0  0.84929  0.32742  0.47390  1.0000
  C   C844      1.0  0.62651  0.01640  0.45051  1.0000
  H   H1490     1.0  0.59711  0.36660  0.45390  1.0000
  H   H1491     1.0  0.70890  0.08051  0.40672  1.0000
  H   H1492     1.0  0.66079  0.07614  0.31706  1.0000
  H   H1493     1.0  0.54163  0.32581  0.30735  1.0000
  N   N49       1.0  0.65594  0.44777  0.48176  1.0000
  C   C845      1.0  0.64853  0.06175  0.32851  1.0000
  H   H1494     1.0  0.54081  0.10195  0.47993  1.0000
  C   C846      1.0  0.50555  0.32689  0.31018  1.0000
  C   C847      1.0  0.55497  0.39865  0.29824  1.0000
  H   H1495     1.0  0.86741  0.43209  0.38947  1.0000
  S   S190      1.0  0.59191  0.19955  0.24978  1.0000
  C   C848      1.0  0.75690  0.30407  0.48122  1.0000
  H   H1496     1.0  0.56828  0.40647  0.28501  1.0000
  H   H1497     1.0  0.59754  0.17599  0.46288  1.0000
  H   H1498     1.0  0.62820  0.43812  0.45688  1.0000
  C   C849      1.0  0.72005  0.29424  0.26839  1.0000
  S   S191      1.0  0.69180  0.19503  0.26613  1.0000
  Fe  Fe96      1.0  0.68328  0.22870  0.26893  1.0000
  H   H1499     1.0  0.74228  0.30915  0.48808  1.0000
  H   H1500     1.0  0.63468  0.32568  0.30517  1.0000
  H   H1501     1.0  0.53560  0.40517  0.33522  1.0000
  H   H1502     1.0  0.57362  0.45284  0.47171  1.0000
  H   H1503     1.0  0.54537  0.39484  0.38967  1.0000
  H   H1504     1.0  0.54053  0.41589  0.26276  1.0000
  H   H1505     1.0  0.71105  0.47986  0.47625  1.0000
  S   S192      1.0  0.80193  0.42708  0.25338  1.0000
  C   C850      1.0  0.53216  0.40507  0.29517  1.0000
  H   H1506     1.0  0.66698  0.47800  0.45908  1.0000
  C   C851      1.0  0.53669  0.24424  0.45352  1.0000
  H   H1507     1.0  0.88700  0.49790  0.29580  1.0000
  C   C852      1.0  0.58015  0.22889  0.31204  1.0000
  H   H1508     1.0  0.59753  0.28153  0.29770  1.0000
  C   C853      1.0  0.55527  0.41249  0.47852  1.0000
  N   N50       1.0  0.53052  0.18205  0.48117  1.0000
  H   H1509     1.0  0.63406  0.24641  0.26358  1.0000
  H   H1510     1.0  0.56165  0.25529  0.38732  1.0000
  C   C854      1.0  0.78775  0.23808  0.48397  1.0000
  H   H1511     1.0  0.51430  0.23354  0.29464  1.0000
  H   H1512     1.0  0.68978  0.27616  0.24627  1.0000
  H   H1513     1.0  0.53978  0.06263  0.49410  1.0000
  H   H1514     1.0  0.85574  0.49180  0.30531  1.0000
  H   H1515     1.0  0.60132  0.27559  0.32374  1.0000
  C   C855      1.0  0.55163  0.25892  0.37415  1.0000
  H   H1516     1.0  0.58607  0.38210  0.47280  1.0000
  C   C856      1.0  0.68039  0.47203  0.24553  1.0000
  H   H1517     1.0  0.85687  0.45505  0.39846  1.0000
  H   H1518     1.0  0.58626  0.23232  0.32838  1.0000
  H   H1519     1.0  0.58451  0.27143  0.35462  1.0000
  H   H1520     1.0  0.51755  0.38284  0.26700  1.0000
  H   H1521     1.0  0.62303  0.47112  0.47214  1.0000
  C   C857      1.0  0.67837  0.43151  0.25603  1.0000
  C   C858      1.0  0.80225  0.31429  0.48031  1.0000
  H   H1522     1.0  0.73480  0.24116  0.24725  1.0000
  H   H1523     1.0  0.55276  0.27835  0.37617  1.0000
  C   C859      1.0  0.72040  0.26394  0.46633  1.0000
  C   C860      1.0  0.55818  0.23619  0.30750  1.0000
  H   H1524     1.0  0.72480  0.45098  0.45731  1.0000
  C   C861      1.0  0.61086  0.47997  0.30623  1.0000
  H   H1525     1.0  0.72452  0.27217  0.45056  1.0000
  H   H1526     1.0  0.56585  0.19631  0.29073  1.0000
  C   C862      1.0  0.82952  0.32695  0.48962  1.0000
  C   C863      1.0  0.51143  0.32323  0.35338  1.0000
  C   C864      1.0  0.57037  0.00741  0.40995  1.0000
  H   H1527     1.0  0.71898  0.43150  0.48026  1.0000
  C   C865      1.0  0.76270  0.21920  0.48825  1.0000
  C   C866      1.0  0.72396  0.45103  0.47446  1.0000
  H   H1528     1.0  0.56158  0.00760  0.47221  1.0000
  C   C867      1.0  0.70450  0.46006  0.48194  1.0000
  H   H1529     1.0  0.95403  0.43595  0.46772  1.0000
  H   H1530     1.0  0.92362  0.45511  0.46706  1.0000
  C   C868      1.0  0.55070  0.39402  0.49368  1.0000
  H   H1531     1.0  0.53912  0.37396  0.49009  1.0000
  H   H1532     1.0  0.51552  0.25908  0.26410  1.0000
  H   H1533     1.0  0.58131  0.01926  0.37876  1.0000
  H   H1534     1.0  0.52522  0.24866  0.46522  1.0000
  H   H1535     1.0  0.97163  0.48276  0.47322  1.0000
  H   H1536     1.0  0.50326  0.05074  0.47059  1.0000
  H   H1537     1.0  0.51653  0.14100  0.48425  1.0000
  C   C869      1.0  0.57881  0.26208  0.24722  1.0000
  S   S193      1.0  0.60548  0.42217  0.24721  1.0000
  H   H1538     1.0  0.50888  0.25560  0.31121  1.0000
  C   C870      1.0  0.63906  0.43483  0.24860  1.0000
  H   H1539     1.0  0.96351  0.49418  0.44369  1.0000
  C   C871      1.0  0.57983  0.00995  0.46650  1.0000
  H   H1540     1.0  0.50833  0.40811  0.27081  1.0000
  Fe  Fe97      1.0  0.76023  0.40648  0.24569  1.0000
  C   C872      1.0  0.95735  0.48175  0.48492  1.0000
  C   C873      1.0  0.93356  0.45557  0.48172  1.0000
  C   C874      1.0  0.94102  0.43360  0.48095  1.0000
  H   H1541     1.0  0.92358  0.41512  0.47900  1.0000
  H   H1542     1.0  0.73945  0.26508  0.49466  1.0000
  C   C875      1.0  0.94106  0.31772  0.59609  1.0000
  C   C876      1.0  0.58474  0.24255  0.65592  1.0000
  H   H1543     1.0  0.51761  0.11790  0.73787  1.0000
  C   C877      1.0  0.99642  0.39665  0.55258  1.0000
  S   S194      1.0  0.55333  0.22625  0.71678  1.0000
  H   H1544     1.0  0.59096  0.22651  0.68431  1.0000
  C   C878      1.0  0.57641  0.05088  0.51632  1.0000
  C   C879      1.0  0.68470  0.19892  0.70355  1.0000
  Fe  Fe98      1.0  0.52395  0.18616  0.72354  1.0000
  Fe  Fe99      1.0  0.79558  0.32789  0.72871  1.0000
  S   S195      1.0  0.79749  0.30594  0.69981  1.0000
  H   H1545     1.0  0.62031  0.41647  0.66262  1.0000
  S   S196      1.0  0.76263  0.33788  0.72836  1.0000
  Fe  Fe100     1.0  0.84990  0.30992  0.54894  1.0000
  S   S197      1.0  0.83985  0.33577  0.56927  1.0000
  S   S198      1.0  0.81372  0.27252  0.54074  1.0000
  Fe  Fe101     1.0  0.90818  0.34739  0.55207  1.0000
  S   S199      1.0  0.90094  0.37496  0.57203  1.0000
  S   S200      1.0  0.94895  0.35348  0.54340  1.0000
  Fe  Fe102     1.0  0.87269  0.34062  0.58947  1.0000
  S   S201      1.0  0.87629  0.34728  0.62447  1.0000
  Fe  Fe103     1.0  0.86855  0.36798  0.55053  1.0000
  S   S202      1.0  0.85844  0.40047  0.54461  1.0000
  S   S203      1.0  0.88152  0.31285  0.57070  1.0000
  S   S204      1.0  0.87712  0.34242  0.52890  1.0000
  S   S205      1.0  0.59242  0.43589  0.54232  1.0000
  H   H1546     1.0  0.93891  0.32319  0.58003  1.0000
  H   H1547     1.0  0.62587  0.08003  0.49966  1.0000
  H   H1548     1.0  0.66428  0.22791  0.63205  1.0000
  S   S206      1.0  0.50638  0.09843  0.51244  1.0000
  H   H1549     1.0  0.74112  0.27185  0.71616  1.0000
  C   C880      1.0  0.58235  0.16986  0.62882  1.0000
  C   C881      1.0  0.98318  0.37204  0.54363  1.0000
  H   H1550     1.0  0.63956  0.20015  0.67238  1.0000
  H   H1551     1.0  0.51904  0.20094  0.63446  1.0000
  H   H1552     1.0  0.98568  0.40587  0.55930  1.0000
  H   H1553     1.0  0.98795  0.34183  0.52798  1.0000
  H   H1554     1.0  0.56463  0.12914  0.68644  1.0000
  C   C882      1.0  0.86148  0.41392  0.51988  1.0000
  H   H1555     1.0  0.53895  0.13070  0.70090  1.0000
  H   H1556     1.0  0.61668  0.49084  0.67173  1.0000
  H   H1557     1.0  0.58296  0.04963  0.53219  1.0000
  H   H1558     1.0  0.94849  0.32366  0.63503  1.0000
  C   C883      1.0  0.63783  0.20499  0.65609  1.0000
  H   H1559     1.0  0.74409  0.44107  0.68760  1.0000
  C   C884      1.0  0.55354  0.13446  0.52559  1.0000
  C   C885      1.0  0.58022  0.14811  0.52372  1.0000
  H   H1560     1.0  0.54401  0.13667  0.53929  1.0000
  H   H1561     1.0  0.59125  0.16093  0.53600  1.0000
  C   C886      1.0  0.79509  0.25169  0.52019  1.0000
  C   C887      1.0  0.76810  0.22730  0.69809  1.0000
  C   C888      1.0  0.58875  0.29885  0.74410  1.0000
  H   H1562     1.0  0.59626  0.16856  0.66953  1.0000
  H   H1563     1.0  0.77121  0.34580  0.50386  1.0000
  C   C889      1.0  0.81919  0.31822  0.67880  1.0000
  C   C890      1.0  0.84269  0.33996  0.68089  1.0000
  C   C891      1.0  0.85986  0.34843  0.66410  1.0000
  C   C892      1.0  0.85365  0.33560  0.64493  1.0000
  C   C893      1.0  0.83001  0.31402  0.64273  1.0000
  C   C894      1.0  0.81299  0.30528  0.65965  1.0000
  H   H1564     1.0  0.84784  0.34998  0.69557  1.0000
  H   H1565     1.0  0.87812  0.36507  0.66602  1.0000
  H   H1566     1.0  0.82508  0.30379  0.62815  1.0000
  H   H1567     1.0  0.79497  0.28832  0.65789  1.0000
  C   C895      1.0  0.50205  0.05065  0.55364  1.0000
  H   H1568     1.0  0.60192  0.17861  0.62224  1.0000
  C   C896      1.0  0.58122  0.44595  0.50305  1.0000
  C   C897      1.0  0.75749  0.23580  0.71717  1.0000
  H   H1569     1.0  0.70919  0.28987  0.73072  1.0000
  C   C898      1.0  0.85816  0.44610  0.49799  1.0000
  H   H1570     1.0  0.67060  0.26199  0.71024  1.0000
  H   H1571     1.0  0.80337  0.35310  0.50880  1.0000
  C   C899      1.0  0.96568  0.36332  0.60329  1.0000
  H   H1572     1.0  0.70349  0.33414  0.74264  1.0000
  H   H1573     1.0  0.58103  0.20583  0.62830  1.0000
  H   H1574     1.0  0.98328  0.37869  0.61022  1.0000
  H   H1575     1.0  0.93483  0.28209  0.61144  1.0000
  H   H1576     1.0  0.62864  0.11053  0.50855  1.0000
  H   H1577     1.0  0.54484  0.07112  0.52903  1.0000
  C   C900      1.0  0.59981  0.41092  0.65983  1.0000
  C   C901      1.0  0.65208  0.42175  0.53794  1.0000
  H   H1578     1.0  0.55711  0.39488  0.69470  1.0000
  C   C902      1.0  0.72606  0.44261  0.69033  1.0000
  H   H1579     1.0  0.72226  0.44171  0.70719  1.0000
  H   H1580     1.0  0.51095  0.07190  0.55262  1.0000
  C   C903      1.0  0.50969  0.18254  0.64199  1.0000
  C   C904      1.0  0.63141  0.48573  0.66654  1.0000
  H   H1581     1.0  0.73964  0.29544  0.52064  1.0000
  H   H1582     1.0  0.93052  0.39462  0.62145  1.0000
  N   N51       1.0  0.58460  0.37959  0.69081  1.0000
  C   C905      1.0  0.56750  0.35209  0.69674  1.0000
  C   C906      1.0  0.57505  0.39656  0.70195  1.0000
  C   C907      1.0  0.61182  0.38759  0.69759  1.0000
  C   C908      1.0  0.62595  0.37383  0.68676  1.0000
  C   C909      1.0  0.56932  0.39144  0.72537  1.0000
  C   C910      1.0  0.56494  0.33069  0.68119  1.0000
  C   C911      1.0  0.55149  0.30427  0.69118  1.0000
  C   C912      1.0  0.65475  0.38794  0.69033  1.0000
  H   H1583     1.0  0.70499  0.46044  0.49907  1.0000
  H   H1584     1.0  0.58775  0.37036  0.65853  1.0000
  H   H1585     1.0  0.57354  0.34774  0.71194  1.0000
  H   H1586     1.0  0.54747  0.34916  0.69897  1.0000
  H   H1587     1.0  0.62344  0.40869  0.69594  1.0000
  H   H1588     1.0  0.61264  0.38422  0.71439  1.0000
  H   H1589     1.0  0.62311  0.37248  0.66983  1.0000
  H   H1590     1.0  0.61914  0.35428  0.69321  1.0000
  C   C913      1.0  0.66026  0.48553  0.63932  1.0000
  H   H1591     1.0  0.55265  0.37260  0.72803  1.0000
  H   H1592     1.0  0.55322  0.33085  0.66778  1.0000
  H   H1593     1.0  0.58356  0.33301  0.67522  1.0000
  H   H1594     1.0  0.76429  0.49899  0.64849  1.0000
  S   S207      1.0  0.67367  0.43826  0.72803  1.0000
  H   H1595     1.0  0.67794  0.17884  0.67390  1.0000
  H   H1596     1.0  0.66429  0.37781  0.68210  1.0000
  H   H1597     1.0  0.66258  0.40783  0.68439  1.0000
  N   N52       1.0  0.72982  0.23108  0.71653  1.0000
  H   H1598     1.0  0.71614  0.19054  0.71135  1.0000
  H   H1599     1.0  0.83045  0.31579  0.50312  1.0000
  H   H1600     1.0  0.95702  0.29623  0.65956  1.0000
  Fe  Fe104     1.0  0.64876  0.45771  0.73293  1.0000
  H   H1601     1.0  0.55885  0.38709  0.52486  1.0000
  C   C914      1.0  0.75359  0.41937  0.74187  1.0000
  N   N53       1.0  0.96582  0.33757  0.60521  1.0000
  H   H1602     1.0  0.72937  0.46655  0.66449  1.0000
  H   H1603     1.0  0.68526  0.35173  0.73769  1.0000
  H   H1604     1.0  0.58910  0.41706  0.70052  1.0000
  H   H1605     1.0  0.54378  0.14770  0.61673  1.0000
  H   H1606     1.0  0.59938  0.19059  0.68944  1.0000
  C   C915      1.0  0.56042  0.16408  0.68209  1.0000
  C   C916      1.0  0.66939  0.26289  0.72687  1.0000
  H   H1607     1.0  0.98547  0.32528  0.66595  1.0000
  H   H1608     1.0  0.57643  0.40802  0.63282  1.0000
  S   S208      1.0  0.62974  0.46802  0.70621  1.0000
  C   C917      1.0  0.64953  0.41998  0.51443  1.0000
  C   C918      1.0  0.66007  0.46716  0.67333  1.0000
  C   C919      1.0  0.59274  0.14479  0.50626  1.0000
  H   H1609     1.0  0.58404  0.04047  0.50603  1.0000
  C   C920      1.0  0.57710  0.19059  0.63992  1.0000
  H   H1610     1.0  0.98400  0.33945  0.57569  1.0000
  H   H1611     1.0  0.75967  0.20604  0.69748  1.0000
  C   C921      1.0  0.94280  0.36572  0.61348  1.0000
  H   H1612     1.0  0.74902  0.26635  0.54230  1.0000
  C   C922      1.0  0.91300  0.27244  0.58361  1.0000
  S   S209      1.0  0.67479  0.49476  0.61456  1.0000
  H   H1613     1.0  0.63330  0.50095  0.63578  1.0000
  H   H1614     1.0  0.62840  0.23437  0.66633  1.0000
  C   C923      1.0  0.66958  0.47303  0.65299  1.0000
  C   C924      1.0  0.77995  0.43092  0.73779  1.0000
  H   H1615     1.0  0.92437  0.31703  0.60486  1.0000
  H   H1616     1.0  0.51760  0.19884  0.67286  1.0000
  C   C925      1.0  0.58167  0.21917  0.66906  1.0000
  C   C926      1.0  0.93346  0.50206  0.50120  1.0000
  H   H1617     1.0  0.54135  0.22789  0.50678  1.0000
  H   H1618     1.0  0.72037  0.24277  0.67507  1.0000
  H   H1619     1.0  0.66358  0.41359  0.50867  1.0000
  H   H1620     1.0  0.68424  0.46786  0.64777  1.0000
  H   H1621     1.0  0.95100  0.40225  0.59905  1.0000
  H   H1622     1.0  0.58815  0.26749  0.68227  1.0000
  C   C927      1.0  0.80375  0.25425  0.49972  1.0000
  H   H1623     1.0  0.92530  0.35522  0.60410  1.0000
  C   C928      1.0  0.98115  0.31535  0.63314  1.0000
  C   C929      1.0  0.50920  0.18140  0.66377  1.0000
  H   H1624     1.0  0.53298  0.30125  0.69817  1.0000
  H   H1625     1.0  0.91062  0.25246  0.58338  1.0000
  H   H1626     1.0  0.89588  0.27247  0.59109  1.0000
  H   H1627     1.0  0.73293  0.28595  0.66143  1.0000
  H   H1628     1.0  0.80264  0.23108  0.71371  1.0000
  H   H1629     1.0  0.59255  0.46600  0.50670  1.0000
  H   H1630     1.0  0.56677  0.00897  0.53992  1.0000
  H   H1631     1.0  0.76339  0.32299  0.53393  1.0000
  H   H1632     1.0  0.58568  0.08314  0.49469  1.0000
  H   H1633     1.0  0.76824  0.48880  0.68534  1.0000
  C   C930      1.0  0.53812  0.05034  0.53202  1.0000
  N   N54       1.0  0.82183  0.38355  0.62609  1.0000
  C   C931      1.0  0.85056  0.39848  0.62474  1.0000
  C   C932      1.0  0.81373  0.37531  0.64814  1.0000
  C   C933      1.0  0.81400  0.35975  0.61283  1.0000
  C   C934      1.0  0.80849  0.39844  0.61770  1.0000
  C   C935      1.0  0.81470  0.42442  0.62827  1.0000
  C   C936      1.0  0.86186  0.40654  0.60274  1.0000
  C   C937      1.0  0.78608  0.33856  0.61549  1.0000
  C   C938      1.0  0.82951  0.39388  0.66572  1.0000
  C   C939      1.0  0.81576  0.38591  0.68649  1.0000
  C   C940      1.0  0.80283  0.43900  0.61642  1.0000
  C   C941      1.0  0.89085  0.42254  0.60356  1.0000
  C   C942      1.0  0.78018  0.31666  0.60008  1.0000
  H   H1634     1.0  0.85957  0.38700  0.63149  1.0000
  H   H1635     1.0  0.85780  0.41619  0.63425  1.0000
  H   H1636     1.0  0.79321  0.37062  0.65037  1.0000
  H   H1637     1.0  0.81511  0.35728  0.65147  1.0000
  H   H1638     1.0  0.82680  0.35063  0.61577  1.0000
  H   H1639     1.0  0.81643  0.36483  0.59614  1.0000
  H   H1640     1.0  0.81219  0.40178  0.60084  1.0000
  H   H1641     1.0  0.78744  0.38702  0.61896  1.0000
  H   H1642     1.0  0.83554  0.43696  0.62908  1.0000
  H   H1643     1.0  0.80642  0.42114  0.64406  1.0000
  H   H1644     1.0  0.85805  0.38950  0.59298  1.0000
  H   H1645     1.0  0.85381  0.41822  0.59504  1.0000
  H   H1646     1.0  0.77206  0.34615  0.61288  1.0000
  H   H1647     1.0  0.78291  0.33017  0.63120  1.0000
  H   H1648     1.0  0.84825  0.39347  0.66720  1.0000
  H   H1649     1.0  0.83344  0.41395  0.66293  1.0000
  H   H1650     1.0  0.82819  0.39841  0.69896  1.0000
  H   H1651     1.0  0.79777  0.38796  0.68638  1.0000
  H   H1652     1.0  0.81118  0.36575  0.69011  1.0000
  H   H1653     1.0  0.80707  0.45730  0.62456  1.0000
  H   H1654     1.0  0.81092  0.44353  0.60056  1.0000
  H   H1655     1.0  0.78174  0.42753  0.61544  1.0000
  H   H1656     1.0  0.89989  0.41140  0.61073  1.0000
  H   H1657     1.0  0.89843  0.42767  0.58760  1.0000
  H   H1658     1.0  0.89601  0.44049  0.61251  1.0000
  H   H1659     1.0  0.79338  0.30789  0.60234  1.0000
  H   H1660     1.0  0.76029  0.30161  0.60236  1.0000
  H   H1661     1.0  0.78212  0.32381  0.58401  1.0000
  H   H1662     1.0  0.60485  0.25426  0.65109  1.0000
  H   H1663     1.0  0.65916  0.38844  0.70700  1.0000
  H   H1664     1.0  0.71017  0.42602  0.68281  1.0000
  C   C943      1.0  0.56373  0.15786  0.61089  1.0000
  H   H1665     1.0  0.63057  0.18715  0.64677  1.0000
  H   H1666     1.0  0.77697  0.28401  0.51112  1.0000
  H   H1667     1.0  0.97377  0.29751  0.62385  1.0000
  C   C944      1.0  0.57637  0.26004  0.66810  1.0000
  S   S210      1.0  0.66113  0.48336  0.55696  1.0000
  C   C945      1.0  0.56196  0.40148  0.51331  1.0000
  C   C946      1.0  0.52850  0.18654  0.50395  1.0000
  H   H1668     1.0  0.63762  0.42696  0.54484  1.0000
  C   C947      1.0  0.54686  0.21325  0.51268  1.0000
  H   H1669     1.0  0.67149  0.43626  0.54254  1.0000
  H   H1670     1.0  0.57875  0.27658  0.65841  1.0000
  C   C948      1.0  0.61998  0.21816  0.65501  1.0000
  H   H1671     1.0  0.56373  0.30223  0.70340  1.0000
  H   H1672     1.0  0.58003  0.15406  0.63931  1.0000
  H   H1673     1.0  0.54760  0.15554  0.66868  1.0000
  H   H1674     1.0  0.56705  0.21869  0.50868  1.0000
  C   C949      1.0  0.61229  0.32080  0.74362  1.0000
  H   H1675     1.0  0.85167  0.44335  0.53087  1.0000
  H   H1676     1.0  0.54660  0.04964  0.54720  1.0000
  H   H1677     1.0  0.77472  0.29310  0.55497  1.0000
  C   C950      1.0  0.71380  0.20687  0.70456  1.0000
  H   H1678     1.0  0.67313  0.24064  0.65801  1.0000
  H   H1679     1.0  0.80659  0.25892  0.69905  1.0000
  H   H1680     1.0  0.57259  0.23610  0.64189  1.0000
  C   C951      1.0  0.58280  0.38345  0.66792  1.0000
  H   H1681     1.0  0.64883  0.40290  0.54423  1.0000
  C   C952      1.0  0.55894  0.14201  0.69547  1.0000
  H   H1682     1.0  0.73491  0.20239  0.51239  1.0000
  C   C953      1.0  0.86789  0.40351  0.50255  1.0000
  H   H1683     1.0  0.66710  0.45730  0.68361  1.0000
  H   H1684     1.0  0.72627  0.49040  0.62659  1.0000
  H   H1685     1.0  0.96597  0.36843  0.58672  1.0000
  C   C954      1.0  0.67095  0.17499  0.69009  1.0000
  H   H1686     1.0  0.79795  0.31360  0.52228  1.0000
  C   C955      1.0  0.73308  0.25939  0.68466  1.0000
  C   C956      1.0  0.59038  0.07972  0.51059  1.0000
  H   H1687     1.0  0.56095  0.20842  0.67230  1.0000
  C   C957      1.0  0.61932  0.08964  0.51155  1.0000
  H   H1688     1.0  0.93908  0.35785  0.62935  1.0000
  S   S211      1.0  0.61719  0.49487  0.57973  1.0000
  H   H1689     1.0  0.91423  0.27899  0.56738  1.0000
  H   H1690     1.0  0.63733  0.44904  0.51049  1.0000
  C   C958      1.0  0.58830  0.18147  0.67521  1.0000
  C   C959      1.0  0.75399  0.21679  0.50869  1.0000
  C   C960      1.0  0.85673  0.43527  0.51754  1.0000
  C   C961      1.0  0.75599  0.28669  0.54710  1.0000
  H   H1691     1.0  0.95334  0.28799  0.58782  1.0000
  H   H1692     1.0  0.87187  0.38724  0.50426  1.0000
  Fe  Fe105     1.0  0.62109  0.47671  0.55009  1.0000
  C   C962      1.0  0.72782  0.46758  0.68152  1.0000
  H   H1693     1.0  0.59485  0.42523  0.66737  1.0000
  H   H1694     1.0  0.67405  0.15885  0.69619  1.0000
  H   H1695     1.0  0.67723  0.21313  0.64978  1.0000
  S   S212      1.0  0.61910  0.22834  0.72200  1.0000
  C   C963      1.0  0.59655  0.41267  0.63658  1.0000
  H   H1696     1.0  0.56260  0.37828  0.66373  1.0000
  C   C964      1.0  0.53816  0.01001  0.51836  1.0000
  C   C965      1.0  0.96786  0.33241  0.62782  1.0000
  H   H1697     1.0  0.56490  0.17274  0.59974  1.0000
  H   H1698     1.0  0.75324  0.26437  0.68111  1.0000
  H   H1699     1.0  0.54759  0.28912  0.67935  1.0000
  H   H1700     1.0  0.70872  0.27859  0.68110  1.0000
  H   H1701     1.0  0.74186  0.29981  0.68684  1.0000
  H   H1702     1.0  0.55622  0.18247  0.64286  1.0000
  C   C966      1.0  0.66474  0.22284  0.64850  1.0000
  C   C967      1.0  0.64141  0.47408  0.68040  1.0000
  H   H1703     1.0  0.62250  0.22730  0.63958  1.0000
  C   C968      1.0  0.72880  0.28232  0.67817  1.0000
  H   H1704     1.0  0.65009  0.16910  0.69020  1.0000
  H   H1705     1.0  0.82286  0.26852  0.49604  1.0000
  N   N55       1.0  0.59185  0.20186  0.65954  1.0000
  C   C969      1.0  0.79712  0.23762  0.69934  1.0000
  C   C970      1.0  0.50882  0.03924  0.53461  1.0000
  C   C971      1.0  0.54522  0.21381  0.53625  1.0000
  H   H1706     1.0  0.57153  0.14946  0.70920  1.0000
  C   C972      1.0  0.56311  0.41187  0.73528  1.0000
  H   H1707     1.0  0.62987  0.40517  0.51088  1.0000
  H   H1708     1.0  0.80408  0.23063  0.68587  1.0000
  H   H1709     1.0  0.58581  0.39142  0.73355  1.0000
  H   H1710     1.0  0.97866  0.35070  0.63649  1.0000
  H   H1711     1.0  0.76366  0.23381  0.68335  1.0000
  C   C973      1.0  0.94756  0.39367  0.61471  1.0000
  C   C974      1.0  0.53940  0.11739  0.50999  1.0000
  H   H1712     1.0  0.76308  0.23038  0.54019  1.0000
  C   C975      1.0  0.77012  0.23272  0.52449  1.0000
  H   H1713     1.0  0.77030  0.25645  0.72028  1.0000
  S   S213      1.0  0.82354  0.36594  0.74172  1.0000
  H   H1714     1.0  0.60898  0.43253  0.63133  1.0000
  C   C976      1.0  0.72772  0.25404  0.70798  1.0000
  H   H1715     1.0  0.70982  0.46847  0.68509  1.0000
  H   H1716     1.0  0.58534  0.09152  0.52148  1.0000
  C   C977      1.0  0.97761  0.30790  0.65594  1.0000
  H   H1717     1.0  0.55591  0.24945  0.67256  1.0000
  H   H1718     1.0  0.55074  0.19964  0.54319  1.0000
  H   H1719     1.0  0.55841  0.23317  0.54214  1.0000
  H   H1720     1.0  0.52551  0.20944  0.54129  1.0000
  H   H1721     1.0  0.50186  0.32759  0.50449  1.0000
  N   N56       1.0  0.54754  0.03846  0.51530  1.0000
  H   H1722     1.0  0.93941  0.49664  0.51599  1.0000
  C   C978      1.0  0.99765  0.36067  0.53495  1.0000
  C   C979      1.0  0.57747  0.42744  0.51796  1.0000
  H   H1723     1.0  0.63724  0.48313  0.49695  1.0000
  H   H1724     1.0  0.91441  0.48615  0.49729  1.0000
  H   H1725     1.0  0.74209  0.28795  0.55821  1.0000
  H   H1726     1.0  0.67071  0.46159  0.51246  1.0000
  H   H1727     1.0  0.60219  0.39943  0.62801  1.0000
  H   H1728     1.0  0.68099  0.21443  0.69696  1.0000
  H   H1729     1.0  0.50908  0.18425  0.50786  1.0000
  H   H1730     1.0  0.67582  0.19415  0.71910  1.0000
  H   H1731     1.0  0.70838  0.25240  0.71105  1.0000
  H   H1732     1.0  0.72054  0.20821  0.68837  1.0000
  C   C980      1.0  0.93722  0.28971  0.59551  1.0000
  C   C981      1.0  0.64587  0.24867  0.73676  1.0000
  H   H1733     1.0  0.53915  0.00910  0.55243  1.0000
  C   C982      1.0  0.98784  0.33844  0.59242  1.0000
  H   H1734     1.0  0.56837  0.14375  0.60259  1.0000
  C   C983      1.0  0.75855  0.30333  0.52829  1.0000
  H   H1735     1.0  0.53132  0.17179  0.51297  1.0000
  H   H1736     1.0  0.96427  0.40500  0.62472  1.0000
  H   H1737     1.0  0.55295  0.17519  0.69153  1.0000
  H   H1738     1.0  0.54576  0.41160  0.72816  1.0000
  H   H1739     1.0  0.62537  0.08651  0.52708  1.0000
  S   S214      1.0  0.62625  0.16094  0.50494  1.0000
  H   H1740     1.0  0.50838  0.33547  0.53145  1.0000
  H   H1741     1.0  0.75069  0.48874  0.70753  1.0000
  C   C984      1.0  0.77973  0.30389  0.51352  1.0000
  H   H1742     1.0  0.57935  0.43125  0.73337  1.0000
  S   S215      1.0  0.79662  0.41335  0.73041  1.0000
  H   H1743     1.0  0.96593  0.48090  0.50007  1.0000
  H   H1744     1.0  0.74287  0.39874  0.74125  1.0000
  C   C985      1.0  0.65376  0.44588  0.50501  1.0000
  C   C986      1.0  0.71976  0.22714  0.73846  1.0000
  H   H1745     1.0  0.76066  0.22536  0.73035  1.0000
  H   H1746     1.0  0.50866  0.04514  0.56796  1.0000
  H   H1747     1.0  0.50471  0.25307  0.50728  1.0000
  H   H1748     1.0  0.70441  0.49334  0.70815  1.0000
  C   C987      1.0  0.75116  0.49106  0.69049  1.0000
  H   H1749     1.0  0.85411  0.46232  0.49637  1.0000
  C   C988      1.0  0.64074  0.49141  0.64611  1.0000
  C   C989      1.0  0.69123  0.27858  0.73841  1.0000
  Fe  Fe106     1.0  0.58009  0.21739  0.73620  1.0000
  C   C990      1.0  0.79354  0.45765  0.73789  1.0000
  H   H1750     1.0  0.81382  0.46669  0.73460  1.0000
  S   S216      1.0  0.55153  0.17650  0.74105  1.0000
  Fe  Fe107     1.0  0.78989  0.37489  0.74315  1.0000
  H   H1751     1.0  0.58776  0.28042  0.74001  1.0000
  H   H1752     1.0  0.62926  0.31909  0.73913  1.0000
  H   H1753     1.0  0.98787  0.29633  0.65944  1.0000
  C   C991      1.0  0.78120  0.47286  0.74225  1.0000
  H   H1754     1.0  0.79209  0.49349  0.74248  1.0000
  H   H1755     1.0  0.66920  0.31748  0.74129  1.0000
  H   H1756     1.0  0.70015  0.22575  0.73905  1.0000
  H   H1757     1.0  0.98982  0.32051  0.59382  1.0000
  H   H1758     1.0  0.71822  0.20870  0.74459  1.0000
  H   H1759     1.0  0.81097  0.39706  0.49642  1.0000
  H   H1760     1.0  0.83520  0.34690  0.49472  1.0000
  C   C992      1.0  0.78801  0.34441  0.49696  1.0000
  H   H1761     1.0  0.95054  0.43279  0.49555  1.0000
  H   H1762     1.0  0.91993  0.45152  0.49474  1.0000
  H   H1763     1.0  0.85255  0.49890  0.95369  1.0000
  S   S217      1.0  0.67771  0.43628  0.77904  1.0000
  H   H1764     1.0  0.55433  0.19400  0.85701  1.0000
  H   H1765     1.0  0.76036  0.27540  0.96637  1.0000
  Fe  Fe108     1.0  0.65269  0.45632  0.78070  1.0000
  H   H1766     1.0  0.74454  0.45743  0.95987  1.0000
  Fe  Fe109     1.0  0.53921  0.19031  0.76972  1.0000
  H   H1767     1.0  0.58575  0.38267  0.86259  1.0000
  S   S218      1.0  0.57058  0.23065  0.76632  1.0000
  H   H1768     1.0  0.75968  0.42712  0.97474  1.0000
  H   H1769     1.0  0.56076  0.48340  0.88949  1.0000
  S   S219      1.0  0.77960  0.36083  0.77559  1.0000
  H   H1770     1.0  0.76307  0.44445  0.78834  1.0000
  Fe  Fe110     1.0  0.81100  0.34878  0.77354  1.0000
  S   S220      1.0  0.83934  0.35914  0.80050  1.0000
  S   S221      1.0  0.53712  0.27306  0.75062  1.0000
  C   C993      1.0  0.90704  0.35572  0.81667  1.0000
  Fe  Fe111     1.0  0.85642  0.36644  0.95649  1.0000
  S   S222      1.0  0.87000  0.34500  0.97778  1.0000
  S   S223      1.0  0.86255  0.40719  0.96184  1.0000
  Fe  Fe112     1.0  0.84126  0.32565  0.92256  1.0000
  S   S224      1.0  0.85415  0.30137  0.94184  1.0000
  S   S225      1.0  0.82176  0.31091  0.89124  1.0000
  Fe  Fe113     1.0  0.83370  0.30944  0.96862  1.0000
  H   H1771     1.0  0.52639  0.36899  0.91733  1.0000
  Fe  Fe114     1.0  0.88917  0.33887  0.94930  1.0000
  S   S226      1.0  0.93102  0.34446  0.94745  1.0000
  S   S227      1.0  0.81938  0.33214  0.94889  1.0000
  S   S228      1.0  0.87696  0.36188  0.92855  1.0000
  H   H1772     1.0  0.97796  0.40540  0.98772  1.0000
  S   S229      1.0  0.54898  0.14112  0.94772  1.0000
  C   C994      1.0  0.65981  0.16573  0.98558  1.0000
  H   H1773     1.0  0.60335  0.18953  0.82129  1.0000
  C   C995      1.0  0.73552  0.24854  0.75421  1.0000
  C   C996      1.0  0.83754  0.48301  0.98445  1.0000
  H   H1774     1.0  0.89244  0.36298  0.81742  1.0000
  C   C997      1.0  0.96252  0.37100  0.94623  1.0000
  C   C998      1.0  0.96678  0.39638  0.94327  1.0000
  H   H1775     1.0  0.95060  0.40046  0.94183  1.0000
  S   S230      1.0  0.71661  0.29867  0.77505  1.0000
  Fe  Fe115     1.0  0.63339  0.49169  0.95323  1.0000
  H   H1776     1.0  0.92660  0.34106  0.83635  1.0000
  C   C999      1.0  0.56816  0.32485  0.75494  1.0000
  H   H1777     1.0  0.88261  0.45847  0.97721  1.0000
  H   H1778     1.0  0.55767  0.12518  0.90693  1.0000
  H   H1779     1.0  0.65002  0.21778  0.94847  1.0000
  H   H1780     1.0  0.73534  0.26680  0.74993  1.0000
  C   C1000     1.0  0.55966  0.13996  0.97289  1.0000
  H   H1781     1.0  0.63535  0.18474  0.95594  1.0000
  C   C1001     1.0  0.68968  0.27976  0.75991  1.0000
  H   H1782     1.0  0.79135  0.47385  0.96187  1.0000
  H   H1783     1.0  0.64173  0.26513  0.90205  1.0000
  C   C1002     1.0  0.54800  0.20062  0.89456  1.0000
  H   H1784     1.0  0.58199  0.46337  0.86785  1.0000
  C   C1003     1.0  0.67875  0.48332  0.83668  1.0000
  C   C1004     1.0  0.83296  0.34626  0.82597  1.0000
  C   C1005     1.0  0.81282  0.32218  0.83017  1.0000
  C   C1006     1.0  0.80964  0.31183  0.85024  1.0000
  C   C1007     1.0  0.82622  0.32550  0.86646  1.0000
  C   C1008     1.0  0.84594  0.34987  0.86239  1.0000
  C   C1009     1.0  0.84939  0.36006  0.84224  1.0000
  H   H1785     1.0  0.80008  0.31126  0.81786  1.0000
  H   H1786     1.0  0.79429  0.29298  0.85318  1.0000
  H   H1787     1.0  0.85848  0.36079  0.87475  1.0000
  H   H1788     1.0  0.86483  0.37882  0.83922  1.0000
  C   C1010     1.0  0.79161  0.46644  0.97763  1.0000
  C   C1011     1.0  0.64948  0.21188  0.98224  1.0000
  H   H1789     1.0  0.58759  0.37924  0.82461  1.0000
  C   C1012     1.0  0.66615  0.26562  0.76977  1.0000
  H   H1790     1.0  0.69140  0.25526  0.97742  1.0000
  H   H1791     1.0  0.66483  0.26656  0.78640  1.0000
  H   H1792     1.0  0.73524  0.27025  0.94827  1.0000
  H   H1793     1.0  0.95621  0.45511  0.99057  1.0000
  H   H1794     1.0  0.59485  0.49868  0.89329  1.0000
  H   H1795     1.0  0.79106  0.43995  0.79303  1.0000
  C   C1013     1.0  0.79620  0.42297  0.95135  1.0000
  C   C1014     1.0  0.63781  0.20413  0.96028  1.0000
  H   H1796     1.0  0.54937  0.35856  0.90817  1.0000
  H   H1797     1.0  0.51280  0.21595  0.91066  1.0000
  H   H1798     1.0  0.79479  0.48271  0.98827  1.0000
  C   C1015     1.0  0.64346  0.49168  0.84702  1.0000
  H   H1799     1.0  0.61843  0.47106  0.88862  1.0000
  Fe  Fe116     1.0  0.50870  0.13684  0.94480  1.0000
  C   C1016     1.0  0.55174  0.12663  0.89093  1.0000
  C   C1017     1.0  0.58010  0.13390  0.97584  1.0000
  C   C1018     1.0  0.56662  0.30075  0.74984  1.0000
  H   H1800     1.0  0.58225  0.22319  0.85964  1.0000
  H   H1801     1.0  0.55178  0.23301  0.87493  1.0000
  H   H1802     1.0  0.52553  0.05231  0.94331  1.0000
  H   H1803     1.0  0.86870  0.29906  0.88932  1.0000
  H   H1804     1.0  0.67635  0.43001  0.98513  1.0000
  H   H1805     1.0  0.59875  0.19109  0.97150  1.0000
  H   H1806     1.0  0.77947  0.42581  0.94661  1.0000
  S   S231      1.0  0.74045  0.48206  0.75025  1.0000
  C   C1019     1.0  0.51942  0.22324  0.89486  1.0000
  H   H1807     1.0  0.72485  0.22396  0.78139  1.0000
  C   C1020     1.0  0.51542  0.06444  0.94215  1.0000
  H   H1808     1.0  0.55584  0.37831  0.93124  1.0000
  C   C1021     1.0  0.57874  0.45835  0.88450  1.0000
  C   C1022     1.0  0.66323  0.14378  0.97534  1.0000
  H   H1809     1.0  0.53134  0.14838  0.89848  1.0000
  H   H1810     1.0  0.98058  0.38705  0.89657  1.0000
  H   H1811     1.0  0.51978  0.13134  0.83303  1.0000
  H   H1812     1.0  0.59129  0.22139  0.91457  1.0000
  C   C1023     1.0  0.93671  0.44457  0.96136  1.0000
  S   S232      1.0  0.67189  0.49291  0.94836  1.0000
  H   H1813     1.0  0.59318  0.36530  0.75918  1.0000
  H   H1814     1.0  0.89393  0.33282  0.84376  1.0000
  H   H1815     1.0  0.67739  0.19097  0.95952  1.0000
  H   H1816     1.0  0.60253  0.19597  0.94406  1.0000
  C   C1024     1.0  0.50701  0.11104  0.75261  1.0000
  N   N57       1.0  0.57233  0.19999  0.88725  1.0000
  C   C1025     1.0  0.67890  0.19196  0.97667  1.0000
  H   H1817     1.0  0.72065  0.42589  0.74884  1.0000
  H   H1818     1.0  0.83560  0.44610  0.96029  1.0000
  S   S233      1.0  0.78592  0.30968  0.76035  1.0000
  C   C1026     1.0  0.63967  0.42220  0.97274  1.0000
  H   H1819     1.0  0.92484  0.37064  0.80977  1.0000
  H   H1820     1.0  0.93923  0.46417  0.95790  1.0000
  H   H1821     1.0  0.64642  0.43930  0.96269  1.0000
  H   H1822     1.0  0.58874  0.12929  0.96265  1.0000
  Fe  Fe117     1.0  0.75515  0.32274  0.76064  1.0000
  H   H1823     1.0  0.65964  0.14316  0.95847  1.0000
  H   H1824     1.0  0.54254  0.15149  0.87229  1.0000
  H   H1825     1.0  0.50588  0.20992  0.88338  1.0000
  H   H1826     1.0  0.92285  0.44650  0.99170  1.0000
  H   H1827     1.0  0.64948  0.12527  0.98213  1.0000
  H   H1828     1.0  0.71001  0.49574  0.85842  1.0000
  S   S234      1.0  0.53120  0.16442  0.79806  1.0000
  S   S235      1.0  0.62455  0.42983  0.75725  1.0000
  N   N58       1.0  0.60288  0.42981  0.88581  1.0000
  C   C1027     1.0  0.59352  0.42333  0.86381  1.0000
  C   C1028     1.0  0.60105  0.45367  0.89307  1.0000
  C   C1029     1.0  0.63070  0.43520  0.88599  1.0000
  C   C1030     1.0  0.58862  0.40783  0.90032  1.0000
  C   C1031     1.0  0.55953  0.39879  0.90238  1.0000
  C   C1032     1.0  0.59615  0.40047  0.85359  1.0000
  C   C1033     1.0  0.64602  0.44774  0.90595  1.0000
  H   H1829     1.0  0.54989  0.39428  0.88715  1.0000
  C   C1034     1.0  0.58516  0.39541  0.83171  1.0000
  C   C1035     1.0  0.67254  0.44864  0.90516  1.0000
  H   H1830     1.0  0.60411  0.44035  0.85379  1.0000
  H   H1831     1.0  0.57315  0.41914  0.86246  1.0000
  H   H1832     1.0  0.60059  0.45436  0.91024  1.0000
  H   H1833     1.0  0.89961  0.33858  0.80640  1.0000
  H   H1834     1.0  0.64116  0.44807  0.87295  1.0000
  H   H1835     1.0  0.63248  0.41719  0.88343  1.0000
  H   H1836     1.0  0.59195  0.39104  0.89615  1.0000
  H   H1837     1.0  0.59618  0.41306  0.91629  1.0000
  H   H1838     1.0  0.55595  0.41380  0.91035  1.0000
  H   H1839     1.0  0.61653  0.40456  0.85220  1.0000
  H   H1840     1.0  0.63634  0.43717  0.92004  1.0000
  H   H1841     1.0  0.64874  0.46773  0.90764  1.0000
  H   H1842     1.0  0.59534  0.41259  0.82190  1.0000
  C   C1036     1.0  0.54713  0.37467  0.91558  1.0000
  H   H1843     1.0  0.56446  0.39034  0.83198  1.0000
  H   H1844     1.0  0.67098  0.42897  0.90473  1.0000
  H   H1845     1.0  0.68322  0.45928  0.89133  1.0000
  H   H1846     1.0  0.68362  0.45868  0.91908  1.0000
  C   C1037     1.0  0.51484  0.16340  0.82154  1.0000
  C   C1038     1.0  0.76428  0.44547  0.98272  1.0000
  C   C1039     1.0  0.56416  0.41526  0.97867  1.0000
  H   H1847     1.0  0.95241  0.44187  0.95380  1.0000
  C   C1040     1.0  0.65454  0.48152  0.83255  1.0000
  C   C1041     1.0  0.57177  0.17527  0.89466  1.0000
  N   N59       1.0  0.70935  0.36891  0.80041  1.0000
  C   C1042     1.0  0.68390  0.36383  0.80978  1.0000
  C   C1043     1.0  0.72077  0.35389  0.81185  1.0000
  C   C1044     1.0  0.72722  0.39708  0.80331  1.0000
  C   C1045     1.0  0.70750  0.36315  0.77744  1.0000
  C   C1046     1.0  0.68362  0.33936  0.76960  1.0000
  C   C1047     1.0  0.67192  0.38095  0.80178  1.0000
  C   C1048     1.0  0.75540  0.40548  0.79669  1.0000
  C   C1049     1.0  0.70228  0.32682  0.81981  1.0000
  C   C1050     1.0  0.71705  0.31388  0.82994  1.0000
  H   H1848     1.0  0.52067  0.11936  0.76561  1.0000
  C   C1051     1.0  0.64322  0.36927  0.80613  1.0000
  C   C1052     1.0  0.77121  0.43453  0.79831  1.0000
  H   H1849     1.0  0.68582  0.36669  0.82684  1.0000
  H   H1850     1.0  0.66981  0.34347  0.80744  1.0000
  H   H1851     1.0  0.73555  0.35181  0.80222  1.0000
  H   H1852     1.0  0.73108  0.36462  0.82592  1.0000
  H   H1853     1.0  0.72735  0.40283  0.81980  1.0000
  H   H1854     1.0  0.72049  0.40912  0.79432  1.0000
  H   H1855     1.0  0.70798  0.37961  0.76850  1.0000
  H   H1856     1.0  0.72453  0.36101  0.77201  1.0000
  H   H1857     1.0  0.66595  0.34151  0.77224  1.0000
  H   H1858     1.0  0.68146  0.32180  0.77734  1.0000
  H   H1859     1.0  0.68111  0.39994  0.80962  1.0000
  H   H1860     1.0  0.67487  0.38405  0.78495  1.0000
  H   H1861     1.0  0.75652  0.39982  0.78049  1.0000
  H   H1862     1.0  0.76459  0.39659  0.80665  1.0000
  H   H1863     1.0  0.68914  0.32804  0.83172  1.0000
  H   H1864     1.0  0.69067  0.31418  0.80725  1.0000
  H   H1865     1.0  0.72780  0.32505  0.84362  1.0000
  H   H1866     1.0  0.70350  0.29432  0.83500  1.0000
  H   H1867     1.0  0.73074  0.31215  0.81883  1.0000
  H   H1868     1.0  0.56001  0.44135  0.88595  1.0000
  H   H1869     1.0  0.55957  0.40807  0.75207  1.0000
  H   H1870     1.0  0.70421  0.23896  0.77620  1.0000
  H   H1871     1.0  0.63938  0.36607  0.82293  1.0000
  H   H1872     1.0  0.63560  0.38251  0.80067  1.0000
  H   H1873     1.0  0.63306  0.35081  0.79763  1.0000
  H   H1874     1.0  0.77183  0.44110  0.81454  1.0000
  H   H1875     1.0  0.74723  0.47183  0.98516  1.0000
  H   H1876     1.0  0.52757  0.08187  0.93319  1.0000
  C   C1053     1.0  0.81780  0.44862  0.95920  1.0000
  C   C1054     1.0  0.73990  0.27111  0.96496  1.0000
  H   H1877     1.0  0.82119  0.40926  0.93614  1.0000
  C   C1055     1.0  0.57384  0.20259  0.86397  1.0000
  H   H1878     1.0  0.58866  0.17311  0.88919  1.0000
  H   H1879     1.0  0.55106  0.32636  0.75945  1.0000
  H   H1880     1.0  0.53104  0.18529  0.88680  1.0000
  H   H1881     1.0  0.78890  0.39506  0.92671  1.0000
  H   H1882     1.0  0.62297  0.20701  0.89764  1.0000
  N   N60       1.0  0.81328  0.45915  0.97939  1.0000
  H   H1883     1.0  0.60810  0.22081  0.82989  1.0000
  H   H1884     1.0  0.88558  0.27974  0.89052  1.0000
  Fe  Fe118     1.0  0.54194  0.23694  0.74713  1.0000
  C   C1056     1.0  0.51043  0.07234  0.96360  1.0000
  H   H1885     1.0  0.91811  0.43054  0.95486  1.0000
  H   H1886     1.0  0.81052  0.42746  0.91964  1.0000
  C   C1057     1.0  0.72326  0.24559  0.97540  1.0000
  H   H1887     1.0  0.63730  0.24319  0.92302  1.0000
  H   H1888     1.0  0.88961  0.30228  0.91093  1.0000
  H   H1889     1.0  0.99494  0.43593  0.93963  1.0000
  H   H1890     1.0  0.62625  0.23926  0.76598  1.0000
  C   C1058     1.0  0.91223  0.34840  0.83816  1.0000
  C   C1059     1.0  0.69444  0.23831  0.97313  1.0000
  C   C1060     1.0  0.51185  0.14457  0.83618  1.0000
  C   C1061     1.0  0.74402  0.45399  0.97676  1.0000
  C   C1062     1.0  0.54636  0.22616  0.89099  1.0000
  H   H1891     1.0  0.57690  0.16904  0.85116  1.0000
  H   H1892     1.0  0.57297  0.17537  0.91186  1.0000
  C   C1063     1.0  0.75494  0.46160  0.74610  1.0000
  C   C1064     1.0  0.54770  0.15059  0.88852  1.0000
  C   C1065     1.0  0.80481  0.41320  0.93229  1.0000
  C   C1066     1.0  0.59455  0.20008  0.82995  1.0000
  H   H1893     1.0  0.69046  0.23552  0.95630  1.0000
  H   H1894     1.0  0.61315  0.22324  0.96133  1.0000
  H   H1895     1.0  0.57677  0.19718  0.82183  1.0000
  H   H1896     1.0  0.72766  0.23084  0.96793  1.0000
  N   N61       1.0  0.93112  0.36846  0.87404  1.0000
  C   C1067     1.0  0.95527  0.36553  0.87094  1.0000
  C   C1068     1.0  0.92117  0.37149  0.85325  1.0000
  C   C1069     1.0  0.93833  0.39307  0.88611  1.0000
  C   C1070     1.0  0.91089  0.34648  0.88599  1.0000
  C   C1071     1.0  0.90959  0.31949  0.88261  1.0000
  C   C1072     1.0  0.97032  0.36689  0.89102  1.0000
  C   C1073     1.0  0.91765  0.40278  0.88761  1.0000
  C   C1074     1.0  0.93077  0.41322  0.99049  1.0000
  H   H1897     1.0  0.82098  0.46234  0.94645  1.0000
  C   C1075     1.0  0.88690  0.29895  0.89403  1.0000
  H   H1898     1.0  0.68758  0.47569  0.82566  1.0000
  C   C1076     1.0  0.92370  0.42278  0.90478  1.0000
  H   H1899     1.0  0.96866  0.38082  0.86053  1.0000
  H   H1900     1.0  0.95134  0.34735  0.86283  1.0000
  H   H1901     1.0  0.90410  0.37499  0.85510  1.0000
  H   H1902     1.0  0.93588  0.38869  0.84530  1.0000
  H   H1903     1.0  0.95572  0.40897  0.87936  1.0000
  H   H1904     1.0  0.94359  0.39088  0.90224  1.0000
  H   H1905     1.0  0.91357  0.35012  0.90294  1.0000
  H   H1906     1.0  0.89159  0.34500  0.88271  1.0000
  H   H1907     1.0  0.92697  0.31884  0.88870  1.0000
  H   H1908     1.0  0.90788  0.31389  0.86615  1.0000
  H   H1909     1.0  0.63902  0.40586  0.96344  1.0000
  H   H1910     1.0  0.95735  0.35545  0.90355  1.0000
  H   H1911     1.0  0.89858  0.38681  0.89066  1.0000
  H   H1912     1.0  0.91670  0.41196  0.87287  1.0000
  H   H1913     1.0  0.72476  0.43882  0.98086  1.0000
  C   C1077     1.0  0.62149  0.22467  0.89347  1.0000
  C   C1078     1.0  0.68560  0.33554  0.74637  1.0000
  H   H1914     1.0  0.68289  0.14604  0.97801  1.0000
  C   C1079     1.0  0.59191  0.34688  0.75469  1.0000
  H   H1915     1.0  0.62491  0.49071  0.84386  1.0000
  H   H1916     1.0  0.63985  0.16215  0.98300  1.0000
  H   H1917     1.0  0.69827  0.19378  0.98010  1.0000
  H   H1918     1.0  0.90879  0.42965  0.90517  1.0000
  H   H1919     1.0  0.92379  0.41423  0.92001  1.0000
  H   H1920     1.0  0.94259  0.43940  0.90211  1.0000
  C   C1080     1.0  0.61149  0.20363  0.95928  1.0000
  H   H1921     1.0  0.93266  0.36716  0.98629  1.0000
  Fe  Fe119     1.0  0.65145  0.41228  0.75379  1.0000
  S   S236      1.0  0.64433  0.37137  0.74873  1.0000
  H   H1922     1.0  0.56656  0.12703  0.87995  1.0000
  N   N62       1.0  0.67633  0.21495  0.98490  1.0000
  H   H1923     1.0  0.50654  0.19490  0.81474  1.0000
  C   C1081     1.0  0.98404  0.36623  0.94777  1.0000
  H   H1924     1.0  0.60689  0.19372  0.85951  1.0000
  H   H1925     1.0  0.98120  0.34677  0.94995  1.0000
  C   C1082     1.0  0.58863  0.19013  0.85208  1.0000
  S   S237      1.0  0.63670  0.46542  0.81031  1.0000
  C   C1083     1.0  0.75310  0.20624  0.99173  1.0000
  H   H1926     1.0  0.53294  0.15072  0.98783  1.0000
  S   S238      1.0  0.59907  0.45271  0.95415  1.0000
  C   C1084     1.0  0.72426  0.24168  0.77594  1.0000
  C   C1085     1.0  0.74104  0.43475  0.74602  1.0000
  H   H1927     1.0  0.53357  0.10934  0.88760  1.0000
  C   C1086     1.0  0.69141  0.49467  0.85528  1.0000
  H   H1928     1.0  0.59531  0.24073  0.89237  1.0000
  H   H1929     1.0  0.78244  0.23304  0.97142  1.0000
  C   C1087     1.0  0.64426  0.25024  0.75823  1.0000
  H   H1930     1.0  0.54514  0.19641  0.91141  1.0000
  C   C1088     1.0  0.93721  0.44125  0.98470  1.0000
  Fe  Fe120     1.0  0.69774  0.46345  0.75344  1.0000
  H   H1931     1.0  0.74736  0.19047  0.98086  1.0000
  H   H1932     1.0  0.93918  0.40553  0.97857  1.0000
  S   S239      1.0  0.50984  0.19757  0.75250  1.0000
  H   H1933     1.0  0.73560  0.25757  0.78678  1.0000
  S   S240      1.0  0.67479  0.48564  0.75663  1.0000
  C   C1089     1.0  0.58497  0.43976  0.97812  1.0000
  H   H1934     1.0  0.79038  0.40770  0.96312  1.0000
  C   C1090     1.0  0.59438  0.22220  0.89751  1.0000
  H   H1935     1.0  0.62675  0.22929  0.87701  1.0000
  C   C1091     1.0  0.64144  0.24658  0.90626  1.0000
  H   H1936     1.0  0.66070  0.24792  0.90320  1.0000
  H   H1937     1.0  0.61997  0.41731  0.97811  1.0000
  H   H1938     1.0  0.55921  0.24116  0.90186  1.0000
  C   C1092     1.0  0.57704  0.48069  0.89570  1.0000
  H   H1939     1.0  0.55663  0.40487  0.96441  1.0000
  H   H1940     1.0  0.52910  0.08373  0.97112  1.0000
  H   H1941     1.0  0.75564  0.25171  0.75503  1.0000
  C   C1093     1.0  0.99204  0.41648  0.94195  1.0000
  H   H1942     1.0  0.98093  0.33658  0.88295  1.0000
  C   C1094     1.0  0.77313  0.23050  0.98628  1.0000
  H   H1943     1.0  0.90970  0.40169  0.98857  1.0000
  C   C1095     1.0  0.61401  0.34480  0.74903  1.0000
  C   C1096     1.0  0.54846  0.14570  0.98998  1.0000
  H   H1944     1.0  0.51929  0.24211  0.89329  1.0000
  C   C1097     1.0  0.99029  0.35715  0.88747  1.0000
  H   H1945     1.0  0.73729  0.28693  0.97252  1.0000
  H   H1946     1.0  0.72913  0.24743  0.99180  1.0000
  H   H1947     1.0  0.57397  0.47684  0.91253  1.0000
  H   H1948     1.0  0.64870  0.23007  0.98632  1.0000
  C   C1098     1.0  0.50431  0.18024  0.82579  1.0000
  H   H1949     1.0  0.85354  0.47809  0.98692  1.0000
  C   C1099     1.0  0.86547  0.41919  0.98721  1.0000
  C   C1100     1.0  0.87564  0.44576  0.99029  1.0000
  H   H1950     1.0  0.98313  0.43754  0.98395  1.0000
  H   H1951     1.0  0.54315  0.06536  0.99465  1.0000
  S   S241      1.0  0.80636  0.28282  0.99409  1.0000
  H   H1952     1.0  0.63610  0.19752  0.99330  1.0000
  H   H1953     1.0  0.79078  0.42232  0.99396  1.0000
  C   C1101     1.0  0.65748  0.42714  0.99121  1.0000
  H   H1954     1.0  0.00108  0.35916  0.90201  1.0000
  H   H1955     1.0  0.67192  0.46825  0.99411  1.0000
  H   H1956     1.0  0.75605  0.51032  0.22033  1.0000
  C   C1102     1.0  0.52592  0.67985  0.03556  1.0000
  C   C1103     1.0  0.58736  0.86492  0.16246  1.0000
  C   C1104     1.0  0.76604  0.60019  0.00407  1.0000
  S   S242      1.0  0.86280  0.55268  0.06997  1.0000
  H   H1957     1.0  0.55897  0.93499  0.12195  1.0000
  H   H1958     1.0  0.60504  0.86521  0.15585  1.0000
  S   S243      1.0  0.88164  0.52360  0.03535  1.0000
  Fe  Fe121     1.0  0.89868  0.54749  0.06405  1.0000
  S   S244      1.0  0.93880  0.58229  0.06702  1.0000
  Fe  Fe122     1.0  0.84478  0.52611  0.04281  1.0000
  S   S245      1.0  0.82080  0.52879  0.01523  1.0000
  C   C1105     1.0  0.78039  0.58770  0.23052  1.0000
  H   H1959     1.0  0.62631  0.98883  0.17304  1.0000
  Fe  Fe123     1.0  0.51574  0.83709  0.04788  1.0000
  H   H1960     1.0  0.79350  0.57301  0.19353  1.0000
  H   H1961     1.0  0.57056  0.85048  0.15396  1.0000
  Fe  Fe124     1.0  0.54130  0.89658  0.05891  1.0000
  C   C1106     1.0  0.51494  0.90675  0.14195  1.0000
  S   S246      1.0  0.56816  0.93712  0.04638  1.0000
  H   H1962     1.0  0.51077  0.70625  0.02856  1.0000
  C   C1107     1.0  0.00101  0.50897  0.02690  1.0000
  H   H1963     1.0  0.53478  0.98445  0.02707  1.0000
  S   S247      1.0  0.54820  0.86280  0.06892  1.0000
  S   S248      1.0  0.51150  0.87131  0.03601  1.0000
  C   C1108     1.0  0.51967  0.78217  0.01439  1.0000
  H   H1964     1.0  0.51163  0.57099  0.02602  1.0000
  C   C1109     1.0  0.59615  0.98944  0.03972  1.0000
  H   H1965     1.0  0.67987  0.52854  0.03933  1.0000
  H   H1966     1.0  0.51578  0.92481  0.13576  1.0000
  C   C1110     1.0  0.97143  0.58884  0.06216  1.0000
  Fe  Fe125     1.0  0.84932  0.51691  0.08949  1.0000
  C   C1111     1.0  0.84221  0.56873  0.14966  1.0000
  H   H1967     1.0  0.96345  0.55146  0.05045  1.0000
  H   H1968     1.0  0.98629  0.62794  0.07287  1.0000
  H   H1969     1.0  0.51896  0.61654  0.02499  1.0000
  C   C1112     1.0  0.75137  0.52997  0.02257  1.0000
  C   C1113     1.0  0.79034  0.52827  0.01090  1.0000
  C   C1114     1.0  0.77498  0.52981  0.02696  1.0000
  H   H1970     1.0  0.55255  0.79401  0.03409  1.0000
  C   C1115     1.0  0.74251  0.52826  0.00213  1.0000
  C   C1116     1.0  0.58321  0.97025  0.05448  1.0000
  H   H1971     1.0  0.54828  0.92502  0.16071  1.0000
  H   H1972     1.0  0.59672  0.98389  0.02381  1.0000
  C   C1117     1.0  0.54152  0.91042  0.14822  1.0000
  H   H1973     1.0  0.50427  0.97732  0.00013  1.0000
  H   H1974     1.0  0.76448  0.61392  0.01535  1.0000
  H   H1975     1.0  0.58576  0.85904  0.17888  1.0000
  C   C1118     1.0  0.72548  0.61580  0.99730  1.0000
  H   H1976     1.0  0.57342  0.96368  0.08665  1.0000
  H   H1977     1.0  0.85493  0.55739  0.21916  1.0000
  H   H1978     1.0  0.53911  0.89185  0.15436  1.0000
  H   H1979     1.0  0.60158  0.95403  0.11042  1.0000
  S   S249      1.0  0.52297  0.84582  0.12627  1.0000
  H   H1980     1.0  0.52349  0.68075  0.05253  1.0000
  H   H1981     1.0  0.81545  0.51628  0.21511  1.0000
  H   H1982     1.0  0.50274  0.78111  0.23273  1.0000
  H   H1983     1.0  0.79858  0.52666  0.23227  1.0000
  H   H1984     1.0  0.78552  0.51091  0.18087  1.0000
  S   S250      1.0  0.50835  0.80409  0.02446  1.0000
  H   H1985     1.0  0.50673  0.75234  0.22884  1.0000
  C   C1119     1.0  0.58818  0.89142  0.16106  1.0000
  H   H1986     1.0  0.52756  0.83420  0.16883  1.0000
  H   H1987     1.0  0.57109  0.89057  0.16904  1.0000
  H   H1988     1.0  0.54572  0.69388  0.03143  1.0000
  C   C1120     1.0  0.58322  0.97798  0.07504  1.0000
  C   C1121     1.0  0.60682  0.98566  0.16848  1.0000
  C   C1122     1.0  0.59846  0.96964  0.14865  1.0000
  H   H1989     1.0  0.75068  0.58102  0.00842  1.0000
  H   H1990     1.0  0.84239  0.56926  0.19066  1.0000
  H   H1991     1.0  0.57666  0.91708  0.08920  1.0000
  H   H1992     1.0  0.59387  0.89996  0.09781  1.0000
  C   C1123     1.0  0.50947  0.92069  0.00512  1.0000
  H   H1993     1.0  0.63382  0.93259  0.08231  1.0000
  H   H1994     1.0  0.60532  0.90502  0.16972  1.0000
  C   C1124     1.0  0.81319  0.53350  0.21985  1.0000
  C   C1125     1.0  0.82542  0.55168  0.18544  1.0000
  H   H1995     1.0  0.69360  0.62440  0.00362  1.0000
  S   S251      1.0  0.88590  0.51349  0.08539  1.0000
  H   H1996     1.0  0.96891  0.57266  0.13593  1.0000
  Fe  Fe126     1.0  0.51721  0.85553  0.09294  1.0000
  C   C1126     1.0  0.81856  0.55749  0.16353  1.0000
  H   H1997     1.0  0.61741  0.95095  0.07421  1.0000
  H   H1998     1.0  0.50660  0.89135  0.13012  1.0000
  C   C1127     1.0  0.51412  0.96493  0.99910  1.0000
  H   H1999     1.0  0.86815  0.51517  0.14258  1.0000
  H   H2000     1.0  0.74005  0.53175  0.03518  1.0000
  H   H2001     1.0  0.60846  0.91952  0.06354  1.0000
  H   H2002     1.0  0.76969  0.53045  0.18331  1.0000
  C   C1128     1.0  0.80017  0.56629  0.20718  1.0000
  H   H2003     1.0  0.59326  0.97593  0.18126  1.0000
  C   C1129     1.0  0.79666  0.59936  0.03155  1.0000
  H   H2004     1.0  0.81852  0.58283  0.21160  1.0000
  H   H2005     1.0  0.81445  0.59733  0.03407  1.0000
  H   H2006     1.0  0.78057  0.58285  0.03893  1.0000
  C   C1130     1.0  0.54169  0.78118  0.02177  1.0000
  C   C1131     1.0  0.66040  0.51291  0.04226  1.0000
  H   H2007     1.0  0.52501  0.92653  0.01669  1.0000
  H   H2008     1.0  0.55164  0.90253  0.11805  1.0000
  C   C1132     1.0  0.50698  0.68650  0.02405  1.0000
  H   H2009     1.0  0.57534  0.88362  0.12926  1.0000
  C   C1133     1.0  0.97825  0.57046  0.05398  1.0000
  H   H2010     1.0  0.85134  0.55566  0.14876  1.0000
  H   H2011     1.0  0.51095  0.68606  0.00739  1.0000
  H   H2012     1.0  0.57908  0.96722  0.14470  1.0000
  H   H2013     1.0  0.81052  0.57143  0.16410  1.0000
  H   H2014     1.0  0.83793  0.57038  0.23501  1.0000
  H   H2015     1.0  0.83661  0.57120  0.13377  1.0000
  H   H2016     1.0  0.54922  0.90787  0.99787  1.0000
  H   H2017     1.0  0.80441  0.53973  0.15587  1.0000
  N   N63       1.0  0.58747  0.92437  0.13387  1.0000
  C   C1134     1.0  0.59870  0.94333  0.15140  1.0000
  C   C1135     1.0  0.58985  0.90000  0.13822  1.0000
  C   C1136     1.0  0.60304  0.93634  0.11474  1.0000
  C   C1137     1.0  0.56003  0.91843  0.12952  1.0000
  H   H2018     1.0  0.73978  0.63599  0.99975  1.0000
  H   H2019     1.0  0.97843  0.55228  0.12049  1.0000
  C   C1138     1.0  0.59538  0.91930  0.09498  1.0000
  H   H2020     1.0  0.54964  0.96758  0.01317  1.0000
  S   S252      1.0  0.51277  0.89063  0.08412  1.0000
  C   C1139     1.0  0.54995  0.76380  0.01300  1.0000
  H   H2021     1.0  0.78148  0.53128  0.04277  1.0000
  C   C1140     1.0  0.61505  0.93142  0.07778  1.0000
  H   H2022     1.0  0.61893  0.94717  0.15400  1.0000
  H   H2023     1.0  0.58872  0.93526  0.16615  1.0000
  H   H2024     1.0  0.61195  0.98093  0.13631  1.0000
  H   H2025     1.0  0.60864  0.90175  0.13266  1.0000
  H   H2026     1.0  0.62371  0.94240  0.11780  1.0000
  H   H2027     1.0  0.76081  0.54955  0.21867  1.0000
  H   H2028     1.0  0.72247  0.60566  0.01228  1.0000
  N   N64       1.0  0.80442  0.54336  0.20152  1.0000
  H   H2029     1.0  0.85633  0.58769  0.15561  1.0000
  H   H2030     1.0  0.77600  0.59663  0.21698  1.0000
  C   C1141     1.0  0.50134  0.93609  0.04592  1.0000
  C   C1142     1.0  0.53912  0.97922  0.01154  1.0000
  H   H2031     1.0  0.83215  0.53668  0.18339  1.0000
  C   C1143     1.0  0.83871  0.55252  0.23002  1.0000
  C   C1144     1.0  0.78045  0.52221  0.19226  1.0000
  S   S253      1.0  0.71301  0.52980  0.99769  1.0000
  C   C1145     1.0  0.53642  0.74703  0.99674  1.0000
  H   H2032     1.0  0.52188  0.94949  0.04495  1.0000
  S   S254      1.0  0.82363  0.50935  0.11810  1.0000
  C   C1146     1.0  0.53262  0.61053  0.01766  1.0000
  H   H2033     1.0  0.96228  0.56876  0.10861  1.0000
  C   C1147     1.0  0.97639  0.57030  0.12067  1.0000
  C   C1148     1.0  0.99120  0.61347  0.06662  1.0000
  H   H2034     1.0  0.52328  0.66041  0.03109  1.0000
  H   H2035     1.0  0.65811  0.50838  0.05900  1.0000
  H   H2036     1.0  0.79887  0.61740  0.03908  1.0000
  H   H2037     1.0  0.56715  0.76354  0.01877  1.0000
  H   H2038     1.0  0.64623  0.51978  0.03776  1.0000
  C   C1149     1.0  0.78029  0.56231  0.22438  1.0000
  C   C1150     1.0  0.79199  0.59985  0.00838  1.0000
  C   C1151     1.0  0.50879  0.83319  0.16702  1.0000
  H   H2039     1.0  0.54818  0.61385  0.02881  1.0000
  H   H2040     1.0  0.53376  0.57719  0.00486  1.0000
  H   H2041     1.0  0.98909  0.51526  0.01740  1.0000
  H   H2042     1.0  0.79927  0.60116  0.23699  1.0000
  C   C1152     1.0  0.51909  0.58217  0.01167  1.0000
  H   H2043     1.0  0.79204  0.58233  0.00159  1.0000
  C   C1153     1.0  0.50596  0.76516  0.99829  1.0000
  H   H2044     1.0  0.80821  0.61689  0.00178  1.0000
  H   H2045     1.0  0.50210  0.90091  0.15563  1.0000
  C   C1154     1.0  0.85108  0.50484  0.15169  1.0000
  H   H2046     1.0  0.78412  0.55411  0.23855  1.0000
  H   H2047     1.0  0.54123  0.62247  0.00379  1.0000
  H   H2048     1.0  0.76559  0.58421  0.24254  1.0000
  H   H2049     1.0  0.99852  0.61049  0.11533  1.0000
  H   H2050     1.0  0.50215  0.93929  0.07933  1.0000
  H   H2051     1.0  0.87170  0.50428  0.17915  1.0000
  C   C1155     1.0  0.94678  0.53552  0.33836  1.0000
  N   N65       1.0  0.90381  0.51472  0.35841  1.0000
  H   H2052     1.0  0.91584  0.54276  0.39658  1.0000
  H   H2053     1.0  0.57910  0.79138  0.39255  1.0000
  S   S255      1.0  0.85486  0.54729  0.44595  1.0000
  H   H2054     1.0  0.98569  0.55240  0.32669  1.0000
  H   H2055     1.0  0.88438  0.53741  0.36652  1.0000
  H   H2056     1.0  0.92308  0.59192  0.37460  1.0000
  C   C1156     1.0  0.87542  0.50695  0.30238  1.0000
  H   H2057     1.0  0.97582  0.60382  0.48831  1.0000
  Fe  Fe127     1.0  0.88963  0.54211  0.45521  1.0000
  S   S256      1.0  0.92895  0.57318  0.46646  1.0000
  H   H2058     1.0  0.94148  0.56101  0.37919  1.0000
  H   H2059     1.0  0.92967  0.58863  0.40133  1.0000
  Fe  Fe128     1.0  0.53021  0.85697  0.47507  1.0000
  Fe  Fe129     1.0  0.83110  0.51497  0.46756  1.0000
  N   N66       1.0  0.95268  0.50522  0.48440  1.0000
  Fe  Fe130     1.0  0.54064  0.91261  0.46069  1.0000
  H   H2060     1.0  0.90487  0.50290  0.38998  1.0000
  S   S257      1.0  0.55673  0.95676  0.46621  1.0000
  H   H2061     1.0  0.79325  0.58584  0.46770  1.0000
  H   H2062     1.0  0.55838  0.76340  0.43419  1.0000
  C   C1157     1.0  0.53801  0.77692  0.39949  1.0000
  S   S258      1.0  0.51964  0.88738  0.48780  1.0000
  S   S259      1.0  0.55433  0.88360  0.44967  1.0000
  C   C1158     1.0  0.51802  0.73641  0.43405  1.0000
  H   H2063     1.0  0.58997  0.86000  0.43678  1.0000
  H   H2064     1.0  0.82001  0.56303  0.47639  1.0000
  C   C1159     1.0  0.96196  0.58496  0.45901  1.0000
  C   C1160     1.0  0.98123  0.59999  0.47315  1.0000
  C   C1161     1.0  0.96953  0.58046  0.43943  1.0000
  H   H2065     1.0  0.97610  0.54642  0.48283  1.0000
  H   H2066     1.0  0.95516  0.56949  0.42816  1.0000
  H   H2067     1.0  0.93928  0.52713  0.32295  1.0000
  H   H2068     1.0  0.77142  0.53029  0.46815  1.0000
  H   H2069     1.0  0.54055  0.74598  0.36705  1.0000
  C   C1162     1.0  0.74192  0.53025  0.48862  1.0000
  S   S260      1.0  0.88357  0.51307  0.43028  1.0000
  C   C1163     1.0  0.58288  0.98788  0.46154  1.0000
  H   H2070     1.0  0.82576  0.52660  0.34688  1.0000
  H   H2071     1.0  0.52529  0.63269  0.48039  1.0000
  H   H2072     1.0  0.79803  0.58540  0.43011  1.0000
  C   C1164     1.0  0.55772  0.76471  0.36896  1.0000
  C   C1165     1.0  0.81020  0.57995  0.44007  1.0000
  H   H2073     1.0  0.56449  0.80880  0.45980  1.0000
  C   C1166     1.0  0.56182  0.80885  0.42566  1.0000
  H   H2074     1.0  0.60584  0.84232  0.44750  1.0000
  H   H2075     1.0  0.52077  0.75901  0.39557  1.0000
  C   C1167     1.0  0.56121  0.77320  0.39162  1.0000
  H   H2076     1.0  0.94120  0.52280  0.37023  1.0000
  H   H2077     1.0  0.56279  0.82324  0.41396  1.0000
  Fe  Fe131     1.0  0.84750  0.51585  0.42229  1.0000
  H   H2078     1.0  0.54815  0.82630  0.45021  1.0000
  C   C1168     1.0  0.56420  0.82149  0.44728  1.0000
  H   H2079     1.0  0.60927  0.97480  0.44934  1.0000
  C   C1169     1.0  0.53974  0.76398  0.43608  1.0000
  C   C1170     1.0  0.51500  0.78784  0.42721  1.0000
  S   S261      1.0  0.80239  0.51236  0.49339  1.0000
  H   H2080     1.0  0.55565  0.77922  0.35915  1.0000
  C   C1171     1.0  0.50983  0.61859  0.47051  1.0000
  H   H2081     1.0  0.51593  0.72917  0.41794  1.0000
  H   H2082     1.0  0.50200  0.78460  0.47799  1.0000
  N   N67       1.0  0.53823  0.78380  0.42207  1.0000
  H   H2083     1.0  0.95474  0.50948  0.41115  1.0000
  H   H2084     1.0  0.94712  0.55461  0.33972  1.0000
  H   H2085     1.0  0.56356  0.75831  0.40064  1.0000
  H   H2086     1.0  0.00127  0.58771  0.41881  1.0000
  H   H2087     1.0  0.84103  0.63324  0.48748  1.0000
  C   C1172     1.0  0.97445  0.53963  0.33943  1.0000
  C   C1173     1.0  0.50592  0.86931  0.36704  1.0000
  H   H2088     1.0  0.90696  0.53630  0.31845  1.0000
  H   H2089     1.0  0.53935  0.76936  0.45255  1.0000
  C   C1174     1.0  0.50455  0.84639  0.37474  1.0000
  H   H2090     1.0  0.51468  0.62423  0.45412  1.0000
  C   C1175     1.0  0.82932  0.58437  0.47586  1.0000
  C   C1176     1.0  0.90426  0.54018  0.36375  1.0000
  C   C1177     1.0  0.91748  0.57855  0.38787  1.0000
  Fe  Fe132     1.0  0.51816  0.86568  0.43044  1.0000
  C   C1178     1.0  0.92093  0.55472  0.38258  1.0000
  H   H2091     1.0  0.52511  0.72406  0.46413  1.0000
  H   H2092     1.0  0.82949  0.53653  0.26104  1.0000
  C   C1179     1.0  0.60642  0.99138  0.45332  1.0000
  C   C1180     1.0  0.94275  0.50812  0.42487  1.0000
  H   H2093     1.0  0.57470  0.76253  0.36356  1.0000
  C   C1181     1.0  0.95769  0.50978  0.44456  1.0000
  H   H2094     1.0  0.84781  0.59009  0.46767  1.0000
  H   H2095     1.0  0.51903  0.80806  0.42450  1.0000
  H   H2096     1.0  0.97538  0.52109  0.33779  1.0000
  C   C1182     1.0  0.76318  0.52583  0.48345  1.0000
  C   C1183     1.0  0.88741  0.50305  0.33950  1.0000
  H   H2097     1.0  0.57943  0.80631  0.42365  1.0000
  H   H2098     1.0  0.91123  0.55377  0.35071  1.0000
  H   H2099     1.0  0.87619  0.53154  0.32750  1.0000
  H   H2100     1.0  0.58989  0.85538  0.46429  1.0000
  H   H2101     1.0  0.82922  0.58661  0.43258  1.0000
  H   H2102     1.0  0.53673  0.79207  0.38981  1.0000
  H   H2103     1.0  0.82165  0.61323  0.45933  1.0000
  H   H2104     1.0  0.89723  0.57307  0.39205  1.0000
  C   C1184     1.0  0.64919  0.51095  0.47287  1.0000
  S   S262      1.0  0.51547  0.84410  0.39999  1.0000
  H   H2105     1.0  0.98333  0.54883  0.35434  1.0000
  S   S263      1.0  0.86649  0.51236  0.47873  1.0000
  H   H2106     1.0  0.66686  0.52453  0.48091  1.0000
  C   C1185     1.0  0.58904  0.84631  0.44896  1.0000
  H   H2107     1.0  0.73413  0.53821  0.47716  1.0000
  H   H2108     1.0  0.80115  0.55872  0.44118  1.0000
  C   C1186     1.0  0.93034  0.51706  0.35545  1.0000
  H   H2109     1.0  0.65255  0.51236  0.45593  1.0000
  H   H2110     1.0  0.97491  0.52862  0.44443  1.0000
  H   H2111     1.0  0.54091  0.71695  0.44267  1.0000
  H   H2112     1.0  0.51265  0.88609  0.37690  1.0000
  C   C1187     1.0  0.81283  0.59219  0.46147  1.0000
  S   S264      1.0  0.83798  0.52195  0.38916  1.0000
  H   H2113     1.0  0.53132  0.56173  0.48545  1.0000
  C   C1188     1.0  0.84455  0.54084  0.24912  1.0000
  C   C1189     1.0  0.99581  0.59106  0.43410  1.0000
  C   C1190     1.0  0.82268  0.50705  0.34897  1.0000
  H   H2114     1.0  0.52608  0.59223  0.46984  1.0000
  H   H2115     1.0  0.63383  0.51662  0.47647  1.0000
  H   H2116     1.0  0.91980  0.53003  0.49221  1.0000
  C   C1191     1.0  0.97716  0.52915  0.48909  1.0000
  H   H2117     1.0  0.87027  0.57617  0.48585  1.0000
  C   C1192     1.0  0.94152  0.50776  0.46407  1.0000
  C   C1193     1.0  0.52317  0.71792  0.44766  1.0000
  H   H2118     1.0  0.93855  0.52530  0.46412  1.0000
  H   H2119     1.0  0.86316  0.55455  0.25581  1.0000
  H   H2120     1.0  0.55042  0.99472  0.40516  1.0000
  H   H2121     1.0  0.50698  0.69841  0.44646  1.0000
  C   C1194     1.0  0.51252  0.77928  0.48902  1.0000
  H   H2122     1.0  0.93745  0.52413  0.42435  1.0000
  H   H2123     1.0  0.86814  0.62749  0.48671  1.0000
  C   C1195     1.0  0.88754  0.52153  0.32229  1.0000
  H   H2124     1.0  0.51056  0.78484  0.44393  1.0000
  C   C1196     1.0  0.50738  0.59168  0.47375  1.0000
  H   H2125     1.0  0.87432  0.52035  0.29079  1.0000
  S   S265      1.0  0.50602  0.89584  0.43976  1.0000
  H   H2126     1.0  0.58075  0.99553  0.41137  1.0000
  C   C1197     1.0  0.50546  0.75306  0.49279  1.0000
  H   H2127     1.0  0.84581  0.52292  0.24493  1.0000
  H   H2128     1.0  0.50155  0.88887  0.34023  1.0000
  S   S266      1.0  0.63317  0.51259  0.53146  1.0000
  H   H2129     1.0  0.75554  0.50758  0.61241  1.0000
  C   C1198     1.0  0.54474  0.64744  0.65619  1.0000
  S   S267      1.0  0.67328  0.54245  0.56917  1.0000
  H   H2130     1.0  0.80420  0.56789  0.53489  1.0000
  C   C1199     1.0  0.56159  0.63481  0.64840  1.0000
  C   C1200     1.0  0.51800  0.74544  0.50788  1.0000
  Fe  Fe133     1.0  0.67369  0.52037  0.54014  1.0000
  S   S268      1.0  0.70423  0.53134  0.51416  1.0000
  Fe  Fe134     1.0  0.63169  0.53185  0.56158  1.0000
  S   S269      1.0  0.60793  0.55404  0.56903  1.0000
  H   H2131     1.0  0.91814  0.51616  0.53810  1.0000
  H   H2132     1.0  0.54033  0.96725  0.55502  1.0000
  H   H2133     1.0  0.77066  0.50282  0.52954  1.0000
  S   S270      1.0  0.54262  0.68464  0.55612  1.0000
  C   C1201     1.0  0.85947  0.63861  0.51672  1.0000
  H   H2134     1.0  0.72374  0.50405  0.66211  1.0000
  H   H2135     1.0  0.83189  0.54418  0.69591  1.0000
  Fe  Fe135     1.0  0.53518  0.64485  0.54512  1.0000
  S   S271      1.0  0.56527  0.63138  0.53505  1.0000
  H   H2136     1.0  0.88633  0.57896  0.53120  1.0000
  C   C1202     1.0  0.61398  0.60665  0.61977  1.0000
  H   H2137     1.0  0.53362  0.61187  0.60089  1.0000
  C   C1203     1.0  0.80490  0.58662  0.53060  1.0000
  H   H2138     1.0  0.51241  0.84364  0.55897  1.0000
  Fe  Fe136     1.0  0.51096  0.66383  0.57931  1.0000
  C   C1204     1.0  0.79508  0.54015  0.70717  1.0000
  C   C1205     1.0  0.77995  0.58646  0.53793  1.0000
  C   C1206     1.0  0.54805  0.65280  0.67941  1.0000
  C   C1207     1.0  0.88282  0.57066  0.51535  1.0000
  H   H2139     1.0  0.53575  0.66175  0.68456  1.0000
  C   C1208     1.0  0.59587  0.57502  0.55870  1.0000
  C   C1209     1.0  0.57577  0.57741  0.56912  1.0000
  C   C1210     1.0  0.56605  0.59426  0.56208  1.0000
  C   C1211     1.0  0.57638  0.60927  0.54452  1.0000
  C   C1212     1.0  0.59627  0.60670  0.53397  1.0000
  C   C1213     1.0  0.60592  0.58975  0.54094  1.0000
  H   H2140     1.0  0.56766  0.56605  0.58277  1.0000
  H   H2141     1.0  0.55055  0.59564  0.57023  1.0000
  H   H2142     1.0  0.60446  0.61808  0.52033  1.0000
  H   H2143     1.0  0.62135  0.58830  0.53269  1.0000
  H   H2144     1.0  0.54988  0.66592  0.64833  1.0000
  C   C1214     1.0  0.54576  0.00184  0.53894  1.0000
  H   H2145     1.0  0.59288  0.66736  0.62199  1.0000
  H   H2146     1.0  0.74649  0.54736  0.69862  1.0000
  C   C1215     1.0  0.53388  0.97264  0.54055  1.0000
  H   H2147     1.0  0.70253  0.51127  0.68604  1.0000
  H   H2148     1.0  0.51708  0.99952  0.51736  1.0000
  C   C1216     1.0  0.71108  0.51272  0.70147  1.0000
  H   H2149     1.0  0.58151  0.64763  0.65333  1.0000
  C   C1217     1.0  0.53796  0.76470  0.51898  1.0000
  H   H2150     1.0  0.84919  0.58829  0.52603  1.0000
  N   N68       1.0  0.75389  0.51738  0.68514  1.0000
  C   C1218     1.0  0.53371  0.61621  0.61764  1.0000
  H   H2151     1.0  0.67950  0.51649  0.71615  1.0000
  H   H2152     1.0  0.60416  0.58823  0.62817  1.0000
  C   C1219     1.0  0.74381  0.50893  0.62546  1.0000
  H   H2153     1.0  0.52417  0.63474  0.65345  1.0000
  H   H2154     1.0  0.56485  0.59513  0.63069  1.0000
  C   C1220     1.0  0.77407  0.51628  0.49823  1.0000
  C   C1221     1.0  0.54539  0.79093  0.51485  1.0000
  C   C1222     1.0  0.70063  0.52742  0.71507  1.0000
  H   H2155     1.0  0.61205  0.60272  0.60288  1.0000
  C   C1223     1.0  0.87914  0.66635  0.51303  1.0000
  C   C1224     1.0  0.60283  0.62499  0.62580  1.0000
  H   H2156     1.0  0.54789  0.75940  0.53063  1.0000
  H   H2157     1.0  0.59661  0.67930  0.56531  1.0000
  S   S272      1.0  0.50780  0.71177  0.51201  1.0000
  H   H2158     1.0  0.51985  0.69595  0.65464  1.0000
  H   H2159     1.0  0.60649  0.62943  0.64251  1.0000
  H   H2160     1.0  0.51868  0.56103  0.54243  1.0000
  C   C1225     1.0  0.78197  0.53608  0.68571  1.0000
  H   H2161     1.0  0.52420  0.62900  0.61873  1.0000
  H   H2162     1.0  0.83286  0.56100  0.51044  1.0000
  H   H2163     1.0  0.58931  0.64242  0.58750  1.0000
  C   C1226     1.0  0.55188  0.53689  0.51021  1.0000
  H   H2164     1.0  0.97965  0.53242  0.50610  1.0000
  C   C1227     1.0  0.52305  0.55746  0.50126  1.0000
  H   H2165     1.0  0.56821  0.66618  0.68311  1.0000
  H   H2166     1.0  0.56098  0.80548  0.52351  1.0000
  H   H2167     1.0  0.55230  0.51859  0.51416  1.0000
  H   H2168     1.0  0.53991  0.96437  0.52728  1.0000
  C   C1228     1.0  0.59483  0.68060  0.58233  1.0000
  H   H2169     1.0  0.56296  0.66619  0.61616  1.0000
  H   H2170     1.0  0.51271  0.96429  0.54089  1.0000
  H   H2171     1.0  0.94636  0.54299  0.50968  1.0000
  C   C1229     1.0  0.57420  0.65511  0.61454  1.0000
  H   H2172     1.0  0.56133  0.55080  0.52289  1.0000
  H   H2173     1.0  0.79298  0.52970  0.67501  1.0000
  C   C1230     1.0  0.57375  0.61285  0.62125  1.0000
  H   H2174     1.0  0.83281  0.55820  0.72096  1.0000
  H   H2175     1.0  0.74670  0.52474  0.71688  1.0000
  S   S273      1.0  0.50649  0.64428  0.52160  1.0000
  N   N69       1.0  0.56082  0.62972  0.62545  1.0000
  H   H2176     1.0  0.58561  0.69324  0.58566  1.0000
  C   C1231     1.0  0.74065  0.52655  0.70093  1.0000
  H   H2177     1.0  0.61348  0.64290  0.61700  1.0000
  C   C1232     1.0  0.51356  0.85021  0.54277  1.0000
  H   H2178     1.0  0.61431  0.68925  0.58912  1.0000
  C   C1233     1.0  0.57888  0.65382  0.59102  1.0000
  H   H2179     1.0  0.90680  0.53731  0.52692  1.0000
  H   H2180     1.0  0.77707  0.53267  0.64313  1.0000
  H   H2181     1.0  0.63463  0.61539  0.62369  1.0000
  H   H2182     1.0  0.50813  0.58538  0.53929  1.0000
  H   H2183     1.0  0.56050  0.64522  0.58255  1.0000
  C   C1234     1.0  0.92855  0.52564  0.50575  1.0000
  H   H2184     1.0  0.55622  0.61688  0.65730  1.0000
  H   H2185     1.0  0.54227  0.63468  0.68808  1.0000
  H   H2186     1.0  0.86845  0.62995  0.52707  1.0000
  H   H2187     1.0  0.73255  0.50947  0.53820  1.0000
  C   C1235     1.0  0.73051  0.52436  0.50837  1.0000
  H   H2188     1.0  0.57061  0.60588  0.60500  1.0000
  H   H2189     1.0  0.51424  0.59754  0.50645  1.0000
  H   H2190     1.0  0.78497  0.55525  0.68008  1.0000
  H   H2191     1.0  0.73812  0.52431  0.62203  1.0000
  H   H2192     1.0  0.51829  0.87088  0.54294  1.0000
  H   H2193     1.0  0.82077  0.60184  0.53922  1.0000
  H   H2194     1.0  0.74358  0.53727  0.66163  1.0000
  C   C1236     1.0  0.82412  0.55509  0.70533  1.0000
  C   C1237     1.0  0.91008  0.52028  0.52391  1.0000
  C   C1238     1.0  0.51650  0.59022  0.62804  1.0000
  C   C1239     1.0  0.75913  0.51480  0.64554  1.0000
  H   H2195     1.0  0.52922  0.84795  0.53470  1.0000
  H   H2196     1.0  0.86929  0.54993  0.51610  1.0000
  H   H2197     1.0  0.79061  0.52159  0.71465  1.0000
  C   C1240     1.0  0.74392  0.51849  0.66389  1.0000
  H   H2198     1.0  0.82956  0.57407  0.69816  1.0000
  C   C1241     1.0  0.76261  0.51031  0.51794  1.0000
  H   H2199     1.0  0.53666  0.57370  0.51094  1.0000
  C   C1242     1.0  0.74090  0.51404  0.52293  1.0000
  H   H2200     1.0  0.52246  0.57546  0.62299  1.0000
  Fe  Fe137     1.0  0.51130  0.68248  0.53460  1.0000
  S   S274      1.0  0.51749  0.67779  0.61294  1.0000
  H   H2201     1.0  0.70526  0.54642  0.70828  1.0000
  H   H2202     1.0  0.78857  0.55134  0.71753  1.0000
  C   C1243     1.0  0.52425  0.53248  0.50784  1.0000
  H   H2203     1.0  0.70879  0.53021  0.73088  1.0000
  S   S275      1.0  0.50571  0.62479  0.56945  1.0000
  H   H2204     1.0  0.90122  0.57262  0.50886  1.0000
  H   H2205     1.0  0.51448  0.52512  0.52277  1.0000
  C   C1244     1.0  0.80807  0.59013  0.50683  1.0000
  H   H2206     1.0  0.88651  0.60507  0.50095  1.0000
  H   H2207     1.0  0.77749  0.58262  0.55477  1.0000
  H   H2208     1.0  0.51752  0.59156  0.64512  1.0000
  H   H2209     1.0  0.54777  0.74121  0.73571  1.0000
  H   H2210     1.0  0.80245  0.60526  0.50220  1.0000
  C   C1245     1.0  0.50375  0.67713  0.65380  1.0000
  C   C1246     1.0  0.84609  0.58185  0.50970  1.0000
  C   C1247     1.0  0.53286  0.79853  0.49979  1.0000
  H   H2211     1.0  0.87103  0.67629  0.50305  1.0000
  S   S276      1.0  0.54263  0.83217  0.49578  1.0000
  C   C1248     1.0  0.87218  0.58465  0.50149  1.0000
  N   N70       1.0  0.83376  0.59534  0.49755  1.0000
  Fe  Fe138     1.0  0.65818  0.50422  0.58552  1.0000
  H   H2212     1.0  0.78014  0.60527  0.53499  1.0000
  H   H2213     1.0  0.51514  0.51730  0.49593  1.0000
  H   H2214     1.0  0.88470  0.67676  0.52803  1.0000
  H   H2215     1.0  0.56276  0.54426  0.49565  1.0000
  H   H2216     1.0  0.76332  0.57123  0.52984  1.0000
  H   H2217     1.0  0.50698  0.94006  0.49685  1.0000
  H   H2218     1.0  0.84289  0.63922  0.52462  1.0000
  H   H2219     1.0  0.79286  0.57194  0.50054  1.0000
  H   H2220     1.0  0.89659  0.66703  0.50560  1.0000
  C   C1249     1.0  0.50162  0.56451  0.54109  1.0000
  H   H2221     1.0  0.54534  0.00203  0.50560  1.0000
  C   C1250     1.0  0.85081  0.62375  0.49606  1.0000
  H   H2222     1.0  0.89140  0.50371  0.52035  1.0000
  H   H2223     1.0  0.50850  0.74440  0.74464  1.0000
  C   C1251     1.0  0.58950  0.65567  0.88885  1.0000
  H   H2224     1.0  0.75220  0.56866  0.97147  1.0000
  S   S277      1.0  0.51525  0.65044  0.97633  1.0000
  C   C1252     1.0  0.52157  0.91892  0.98416  1.0000
  H   H2225     1.0  0.80246  0.68707  0.97141  1.0000
  S   S278      1.0  0.69368  0.55493  0.94449  1.0000
  C   C1253     1.0  0.53661  0.69338  0.82301  1.0000
  C   C1254     1.0  0.52360  0.74998  0.75667  1.0000
  S   S279      1.0  0.64753  0.52340  0.97694  1.0000
  H   H2226     1.0  0.57044  0.64410  0.82001  1.0000
  Fe  Fe139     1.0  0.65321  0.54949  0.94979  1.0000
  S   S280      1.0  0.64725  0.58602  0.95045  1.0000
  Fe  Fe140     1.0  0.68688  0.52654  0.97001  1.0000
  H   H2227     1.0  0.59036  0.63601  0.85191  1.0000
  C   C1255     1.0  0.54010  0.73642  0.75166  1.0000
  Fe  Fe141     1.0  0.53218  0.69087  0.96376  1.0000
  H   H2228     1.0  0.57974  0.59290  0.88333  1.0000
  S   S281      1.0  0.55686  0.68201  0.94096  1.0000
  H   H2229     1.0  0.56255  0.65812  0.85450  1.0000
  H   H2230     1.0  0.78076  0.61024  0.93916  1.0000
  H   H2231     1.0  0.68509  0.59522  0.98912  1.0000
  C   C1256     1.0  0.51092  0.74226  0.77831  1.0000
  C   C1257     1.0  0.51132  0.67952  0.81634  1.0000
  Fe  Fe142     1.0  0.53728  0.64095  0.95166  1.0000
  S   S282      1.0  0.54883  0.60801  0.95496  1.0000
  H   H2232     1.0  0.63237  0.61103  0.90708  1.0000
  H   H2233     1.0  0.70199  0.62594  0.97667  1.0000
  C   C1258     1.0  0.51848  0.77984  0.80071  1.0000
  C   C1259     1.0  0.55712  0.82311  0.80389  1.0000
  C   C1260     1.0  0.79530  0.67522  0.95719  1.0000
  C   C1261     1.0  0.54308  0.69417  0.84391  1.0000
  C   C1262     1.0  0.84666  0.50484  0.96828  1.0000
  C   C1263     1.0  0.57657  0.60255  0.95329  1.0000
  C   C1264     1.0  0.60146  0.62249  0.95292  1.0000
  C   C1265     1.0  0.62270  0.61702  0.95195  1.0000
  C   C1266     1.0  0.61951  0.59158  0.95143  1.0000
  C   C1267     1.0  0.59459  0.57164  0.95170  1.0000
  C   C1268     1.0  0.57335  0.57711  0.95266  1.0000
  H   H2234     1.0  0.60441  0.64213  0.95378  1.0000
  H   H2235     1.0  0.64181  0.63266  0.95182  1.0000
  H   H2236     1.0  0.59169  0.55199  0.95130  1.0000
  H   H2237     1.0  0.55429  0.56146  0.95298  1.0000
  H   H2238     1.0  0.53654  0.93801  0.97947  1.0000
  H   H2239     1.0  0.65063  0.61621  0.88364  1.0000
  H   H2240     1.0  0.51308  0.51762  0.94757  1.0000
  C   C1269     1.0  0.78090  0.63441  0.97814  1.0000
  C   C1270     1.0  0.54981  0.61641  0.89405  1.0000
  H   H2241     1.0  0.50885  0.78876  0.81044  1.0000
  C   C1271     1.0  0.75765  0.52623  0.98609  1.0000
  H   H2242     1.0  0.53589  0.77079  0.75529  1.0000
  H   H2243     1.0  0.52748  0.77202  0.81196  1.0000
  C   C1272     1.0  0.50352  0.50439  0.96055  1.0000
  C   C1273     1.0  0.61750  0.62357  0.88091  1.0000
  H   H2244     1.0  0.56282  0.70505  0.84853  1.0000
  H   H2245     1.0  0.63152  0.69861  0.90567  1.0000
  C   C1274     1.0  0.76388  0.59268  0.94430  1.0000
  H   H2246     1.0  0.55147  0.70365  0.81185  1.0000
  H   H2247     1.0  0.56357  0.00018  0.98581  1.0000
  H   H2248     1.0  0.57713  0.66544  0.88668  1.0000
  H   H2249     1.0  0.60189  0.69994  0.91162  1.0000
  S   S283      1.0  0.54824  0.72582  0.98603  1.0000
  C   C1275     1.0  0.68004  0.50431  0.86994  1.0000
  H   H2250     1.0  0.53980  0.62861  0.89202  1.0000
  H   H2251     1.0  0.78893  0.68573  0.94621  1.0000
  H   H2252     1.0  0.53472  0.62795  0.85776  1.0000
  H   H2253     1.0  0.88599  0.52372  0.97948  1.0000
  H   H2254     1.0  0.61756  0.62157  0.86384  1.0000
  C   C1276     1.0  0.55425  0.63730  0.85110  1.0000
  H   H2255     1.0  0.61247  0.65304  0.91500  1.0000
  H   H2256     1.0  0.56400  0.60558  0.85447  1.0000
  H   H2257     1.0  0.87649  0.54367  0.96412  1.0000
  H   H2258     1.0  0.56498  0.81590  0.81649  1.0000
  H   H2259     1.0  0.55369  0.79373  0.78253  1.0000
  H   H2260     1.0  0.75733  0.65323  0.96860  1.0000
  H   H2261     1.0  0.62048  0.58803  0.88611  1.0000
  C   C1277     1.0  0.55153  0.63397  0.82767  1.0000
  N   N71       1.0  0.57518  0.62771  0.88295  1.0000
  C   C1278     1.0  0.59928  0.66139  0.91143  1.0000
  C   C1279     1.0  0.52452  0.68096  0.85884  1.0000
  Fe  Fe143     1.0  0.52403  0.67121  0.91850  1.0000
  C   C1280     1.0  0.53113  0.58838  0.88803  1.0000
  H   H2262     1.0  0.73026  0.60753  0.96529  1.0000
  H   H2263     1.0  0.55639  0.74260  0.76259  1.0000
  C   C1281     1.0  0.58968  0.61298  0.88909  1.0000
  C   C1282     1.0  0.53426  0.90109  0.98567  1.0000
  H   H2264     1.0  0.52519  0.74109  0.78907  1.0000
  C   C1283     1.0  0.63097  0.60875  0.89001  1.0000
  H   H2265     1.0  0.53893  0.64223  0.82195  1.0000
  C   C1284     1.0  0.77292  0.64935  0.96227  1.0000
  H   H2266     1.0  0.74649  0.55208  0.93585  1.0000
  S   S284      1.0  0.63659  0.51734  0.92640  1.0000
  H   H2267     1.0  0.76230  0.57361  0.91500  1.0000
  H   H2268     1.0  0.50695  0.91116  0.97182  1.0000
  C   C1285     1.0  0.61395  0.69024  0.91530  1.0000
  H   H2269     1.0  0.53416  0.80975  0.77671  1.0000
  H   H2270     1.0  0.54279  0.61334  0.82335  1.0000
  H   H2271     1.0  0.78108  0.56794  0.93451  1.0000
  S   S285      1.0  0.53547  0.68283  0.88483  1.0000
  H   H2272     1.0  0.58989  0.61126  0.90623  1.0000
  H   H2273     1.0  0.61957  0.69390  0.93182  1.0000
  Fe  Fe144     1.0  0.67620  0.52078  0.92306  1.0000
  H   H2274     1.0  0.64773  0.51147  0.87627  1.0000
  H   H2275     1.0  0.60610  0.66584  0.87838  1.0000
  H   H2276     1.0  0.74633  0.59439  0.94040  1.0000
  H   H2277     1.0  0.62905  0.64405  0.88495  1.0000
  C   C1286     1.0  0.54092  0.80133  0.78913  1.0000
  H   H2278     1.0  0.58308  0.65348  0.92246  1.0000
  H   H2279     1.0  0.79947  0.63529  0.97297  1.0000
  H   H2280     1.0  0.81112  0.67246  0.94986  1.0000
  C   C1287     1.0  0.51426  0.74783  0.98951  1.0000
  H   H2281     1.0  0.54556  0.83205  0.81073  1.0000
  H   H2282     1.0  0.79316  0.52549  0.97783  1.0000
  C   C1288     1.0  0.76346  0.57018  0.93173  1.0000
  C   C1289     1.0  0.57158  0.62583  0.85982  1.0000
  C   C1290     1.0  0.87004  0.52852  0.97608  1.0000
  H   H2283     1.0  0.55282  0.61645  0.91099  1.0000
  H   H2284     1.0  0.78532  0.58987  0.96958  1.0000
  H   H2285     1.0  0.57338  0.83807  0.79532  1.0000
  H   H2286     1.0  0.54343  0.90069  0.97071  1.0000
  C   C1291     1.0  0.76598  0.58871  0.96770  1.0000
  S   S286      1.0  0.69603  0.51731  0.89363  1.0000
  H   H2287     1.0  0.76597  0.63874  0.94759  1.0000
  H   H2288     1.0  0.50386  0.73557  0.97678  1.0000
  H   H2289     1.0  0.53934  0.57514  0.89200  1.0000
  N   N72       1.0  0.76196  0.60691  0.98231  1.0000
  H   H2290     1.0  0.75124  0.52484  0.97027  1.0000
  C   C1292     1.0  0.73448  0.60225  0.98072  1.0000
  H   H2291     1.0  0.51918  0.96517  0.98248  1.0000
  H   H2292     1.0  0.72147  0.58137  0.98211  1.0000
  H   H2293     1.0  0.52868  0.71531  0.75267  1.0000
  H   H2294     1.0  0.86535  0.53631  0.99030  1.0000
  S   S287      1.0  0.50565  0.68014  0.78930  1.0000
  H   H2295     1.0  0.52666  0.58649  0.87130  1.0000
  H   H2296     1.0  0.51824  0.50516  0.97171  1.0000
  H   H2297     1.0  0.51983  0.88125  0.98927  1.0000
  H   H2298     1.0  0.83136  0.51058  0.96490  1.0000
  H   H2299     1.0  0.51019  0.55206  0.96863  1.0000
  H   H2300     1.0  0.50705  0.58827  0.98198  1.0000
  C   C1293     1.0  0.65624  0.50326  0.86549  1.0000
  C   C1294     1.0  0.78146  0.52654  0.99045  1.0000
  S   S288      1.0  0.50569  0.63020  0.92832  1.0000
  H   H2301     1.0  0.50921  0.58071  0.91658  1.0000
  C   C1295     1.0  0.70002  0.61529  0.99126  1.0000
  H   H2302     1.0  0.51119  0.53797  0.99235  1.0000
  C   C1296     1.0  0.50583  0.57920  0.89964  1.0000
  H   H2303     1.0  0.50262  0.78007  0.75958  1.0000
  H   H2304     1.0  0.78547  0.64604  0.99264  1.0000
