data_image0
_chemical_formula_structural       FeS2HFeS2H2FeS2FeS2FeCFeS4H2FeS2FeSHFeHFeHS2C2SC3HSC6H4C3H2C4H3CNH4C6H4C2H8C4H3CH3C2H2SCHCH2CNH2C2H2CHC2HCFeH2SCHSCHNH4CSC2HCNH2CH3FeHCSCH2CNC12H28NC11FeH3CH10CH11CHC2H2CH2SCH2C2H2CHSCH2CH3CH7CH4CH7SCH2CH3CH6FeSH2C2SH2SH2FeS2NFeS2FeS2FeHFeS3FeS2FeSHFeCFeS3CFeSH4C2H4C6HCHC2HC3H2C5H5CHC6H5C2H2CH11CHC2NHCHCHCH2CHSCHCH5CHCHC3HC2NC9HC2H26C2HC2H4C2HSH2C2H2FeHCHCH2CH5CH2CH2C3HC6HCSHCH4CH13C3H4SH4CHC2NH2CH2C2H2CH2NH5CHCHSH2NH6CNH2CH2CHCH11SHCFeHSH8CHCHC2HCHCHC2FeS2FeS2FeCFeS3FeS2FeSCFeSFeS3HC2FeS2HFeS2HC2H7C6H4C3HCH2C4HSC6H4C6H5C4H4CHCH8CH6C3HCHNCH3CH8NC7H17CH2SH2C2HCNHCFeH4CH2C3H3SCHCH3C2H2SC2H3C2H7CH2CH2CH3CH10C2HCH2FeH6NH7C2H2C2H2C2H3CHCHNH4CH2SHC2H2SCHCH3C2HCH3CH2C3HC2HCH3C2SFeS3HSCHFeS2C2FeSHFeS2FeSFeS3FeS2FeS2FeSFeCS2CHC2H2CHC6H4CHCNH2C6H5NH3C6H5SH2C2H2CHC2HNC7H16FeHC3HC3H2NC4HC2H8CH6FeCH4NC2HCHCNC12H21CHCH2C2HC2H2CH8NCHCH7CH2CH3CH4C2H2CH2CH2CSHCH4FeH3CH5CH3CH8C4HC2H3CHSH2C3H3CH3CH6C2SHCHSH4SHCSH2SHSFeHFeS2FeS2FeSHFeSFeS3HCHC6H4C6H5CHC2H2C2HC2H3SC3HC3HC2H4CHCSFeSH4CH4C2H12SCH2CHC2H6NC3H2CHCHCHCH2CH6CH2SCHCH4C3H5FeHC2H5CHCFeH2CHCH2C2H3CFeHC3H8NC2HNC12H14C3H3CH2SH8CHCSCNH3CH7CNHFeSH2FeSCFeS2FeSFeS3FeHFeHSH2S2CHC9H4C2HC6H4CH2CH2SH2CH3CH2C5H2FeH5CHS2CH3CHCH6NH3CHCHC3HC2SH7CHC2HCHC2H3SHCHFeCH3CHC3H2C2SHC2HNH5CH3CHCH3CH2C2H5C2H2CHCH4C4NCHC3HCHCHCHCH2C2H4CH2NH3CH2SH4C2H3SH3C2H5CH2C2H3CH5CHCFeH2CHC2SCH2CH4SH4SHSHCH2CH3NC2HCHCH7CH2C3H4NC3H7CH13CHCH2CHCH2C2HCH3C3H3SH2C2FeH4CH11CHSC2H2SHNH9C2H2C5H3CHC3H2CH3CH2SFeH9CHC2HC4HC2H5C2H3CH3CH2CH7CH9C2HFeSH2SHCSC4H2CHCSHCHCH12CHC4H3CH2NCFeHC3H4CH3C3H3CH2CH2CH2CNH2CHCH2CH4CHSH7C2SHSH4CHCHCFeCHCHCH6C2H5FeSHSH2SHCHC2H3C2H2C3HCH8CHCFeH4SHC5HCHC4HNH6CSCH7C2H2CH2CHCHCHCH3CH5CSHCFe2SHFeSHFeSFeS3FeS2FeS2FeSFeS3FeS2H2CH2C6H4C3HC5H4C3H2C6H4C3H2SH5NCHCH3CHCH2C2HNH3CHC2HCHCHC2HC2H8NH6C2H2CH6C3HCHCHFeCHC3H2CH2CHCHFeH3C2H5CH3CH2C2H2NH5CH2C2H2CH3CH8CHC2HNH4CHC2H3NC11H16C2HC2H3CH5C2HCNH4C4SHCHCHC2H4SHCHSH2CH5CH8CH3CHCH2FeS2HCFeS2FeS2FeSFeS3FeSHFeSHFeSFeS2HCSCH2CH2CH2SHC5H2C7H4C2SHCH3C2H2SC7H4CHNH9CSC4HC3HCH4C2H4CHCH3C2NC12H29SH3CHC8H2CH7CH7SC2H2CHC2H3C2H6CH7CH7C3NHCH4C2H5CFeH2SFeHCHNH4CH6CH2C3H6CHFeH6SHFeS2FeS2FeSFeS3HSHSFeSFeSCHCH3C6H5C5H2C6H4CH2CHCHCH3CHCH2CSH2CHCH2C4H3CH3C2HCH4CH9CH3NHC4H3CH3CH3CH4CH6C2HCH5NC3HC3H8FeCHCH3C2H5SCNC4HCH12C2NH2CH2C3HCH13NH7C3HCH2CH2C3H3C2H2CH6CHFeHC2H3CH2CSH2C3HCFeH3FeS2FeS2FeS2FeSFeS3HSCSFeSFeNH2C2HC6H5C4H3C6H4FeCHSFeSH6CHC2H5CHS2HC2HCHSH3CH2CNC9HSCH24CH4CHC2NC2HC2HC2NH2CH8CHC3H6SHCH4CHCH2CH2CH2CH11CHC2H3NC3H3C2H6SHC3HC2HFeH4C2H4C2SCH8C2H3FeH12CH2CFeS2FeS2FeSFeS3FeSHFeSHFeSFeSHSH2SFeS2H5C3HCH7NHC2H2C6H4C6H4C2HCH2C3NC7H9CH7NC5HCHCHCH5CH3CH2CH3C2H5NC12H26CH2CHCHCH2NCHC8H5CH9CHCSCH2CHC3H8CH3CH2CHC2HCHCH3CH6SH4CH3CH2FeHC4SH3CH5CH2CH2CHFeS2CHCFeS2FeS2FeSFeS3FeSHFeSHFeSFeS3C3HNCHCNC6H4NHCH2CH4C2HC2H2CH4C6H5CHSHC3H2C2H3CHCH7CH6C2H2CH2CHCH2CNC12H19CH4CH3CH2FeH3CH2CH5SHFeH4NHCHC2H2C2H6C2H2CH8SH2C3HCSH3SC2HCH2CH2CHNC5H4C2H4C4H3CHSCH3CHFeHCH6C3H5S2H2CHCHCH2SH2C2H2C
_chemical_formula_sum              "Fe144 S288 H2304 C1296 N72"
_cell_length_a       49.7904
_cell_length_b       49.8668
_cell_length_c       75.4494
_cell_angle_alpha    90.6781
_cell_angle_beta     90.5254
_cell_angle_gamma    118.212

_space_group_name_H-M_alt    "P 1"
_space_group_IT_number       1

loop_
  _space_group_symop_operation_xyz
  'x, y, z'

loop_
  _atom_site_type_symbol
  _atom_site_label
  _atom_site_symmetry_multiplicity
  _atom_site_fract_x
  _atom_site_fract_y
  _atom_site_fract_z
  _atom_site_occupancy
  Fe  Fe1       1.0  0.28739  0.02177  0.21172  1.0000
  S   S1        1.0  0.24216  0.02073  0.20899  1.0000
  S   S2        1.0  0.03501  0.39189  0.02184  1.0000
  H   H1        1.0  0.21508  0.20661  0.23292  1.0000
  Fe  Fe2       1.0  0.27559  0.32236  0.22533  1.0000
  S   S3        1.0  0.28139  0.35438  0.20204  1.0000
  S   S4        1.0  0.24686  0.27110  0.22430  1.0000
  H   H2        1.0  0.37867  0.01917  0.16296  1.0000
  H   H3        1.0  0.25365  0.19645  0.22083  1.0000
  Fe  Fe3       1.0  0.33302  0.41415  0.09978  1.0000
  S   S5        1.0  0.31745  0.44985  0.09910  1.0000
  S   S6        1.0  0.33852  0.38971  0.12428  1.0000
  Fe  Fe4       1.0  0.34343  0.41736  0.05871  1.0000
  S   S7        1.0  0.32775  0.45251  0.05562  1.0000
  S   S8        1.0  0.36365  0.40025  0.03670  1.0000
  Fe  Fe5       1.0  0.35637  0.47475  0.08014  1.0000
  C   C1        1.0  0.28413  0.47266  0.02205  1.0000
  Fe  Fe6       1.0  0.29039  0.42481  0.07468  1.0000
  S   S9        1.0  0.23927  0.40666  0.06951  1.0000
  S   S10       1.0  0.37381  0.44096  0.08248  1.0000
  S   S11       1.0  0.30423  0.38778  0.07617  1.0000
  S   S12       1.0  0.37074  0.02069  0.02453  1.0000
  H   H4        1.0  0.39862  0.43638  0.12474  1.0000
  H   H5        1.0  0.39251  0.41827  0.19204  1.0000
  Fe  Fe7       1.0  0.04330  0.40254  0.09045  1.0000
  S   S13       1.0  0.07540  0.45148  0.09682  1.0000
  S   S14       1.0  0.02715  0.36446  0.11102  1.0000
  Fe  Fe8       1.0  0.04667  0.41457  0.04967  1.0000
  S   S15       1.0  0.08017  0.46439  0.05385  1.0000
  H   H6        1.0  0.42248  0.08327  0.12959  1.0000
  Fe  Fe9       1.0  0.10321  0.44867  0.07413  1.0000
  H   H7        1.0  0.22985  0.35770  0.01151  1.0000
  Fe  Fe10      1.0  0.04974  0.46303  0.07610  1.0000
  H   H8        1.0  0.13710  0.45001  0.15094  1.0000
  S   S16       1.0  0.07219  0.39926  0.06852  1.0000
  S   S17       1.0  0.01499  0.41360  0.07113  1.0000
  C   C2        1.0  0.46758  0.02203  0.04772  1.0000
  C   C3        1.0  0.20638  0.39880  0.02142  1.0000
  S   S18       1.0  0.31270  0.01224  0.18910  1.0000
  C   C4        1.0  0.36502  0.02577  0.00163  1.0000
  C   C5        1.0  0.40378  0.44268  0.16725  1.0000
  C   C6        1.0  0.42011  0.45608  0.12967  1.0000
  H   H9        1.0  0.45587  0.02705  0.13260  1.0000
  S   S19       1.0  0.02944  0.33865  0.23796  1.0000
  C   C7        1.0  0.21634  0.42485  0.07251  1.0000
  C   C8        1.0  0.18501  0.40843  0.06838  1.0000
  C   C9        1.0  0.16593  0.42202  0.07002  1.0000
  C   C10       1.0  0.17784  0.45203  0.07630  1.0000
  C   C11       1.0  0.20913  0.46836  0.08063  1.0000
  C   C12       1.0  0.22835  0.45494  0.07867  1.0000
  H   H10       1.0  0.33579  0.09568  0.02176  1.0000
  H   H11       1.0  0.14203  0.40930  0.06641  1.0000
  H   H12       1.0  0.36628  0.08592  0.02154  1.0000
  H   H13       1.0  0.42804  0.45717  0.17116  1.0000
  C   C13       1.0  0.34071  0.40477  0.00344  1.0000
  C   C14       1.0  0.35859  0.39518  0.01318  1.0000
  C   C15       1.0  0.37343  0.38133  0.00399  1.0000
  H   H14       1.0  0.32965  0.41595  0.01024  1.0000
  H   H15       1.0  0.38742  0.37390  0.01132  1.0000
  C   C16       1.0  0.35861  0.10196  0.01628  1.0000
  C   C17       1.0  0.26765  0.35886  0.02591  1.0000
  C   C18       1.0  0.02166  0.36188  0.13446  1.0000
  C   C19       1.0  0.02635  0.38692  0.14512  1.0000
  H   H16       1.0  0.14388  0.36800  0.01156  1.0000
  H   H17       1.0  0.02276  0.40257  0.17144  1.0000
  H   H18       1.0  0.28674  0.48182  0.00846  1.0000
  C   C20       1.0  0.44448  0.44437  0.10339  1.0000
  N   N1        1.0  0.23897  0.41856  0.01593  1.0000
  H   H19       1.0  0.43238  0.48015  0.10445  1.0000
  H   H20       1.0  0.34627  0.06873  0.11306  1.0000
  H   H21       1.0  0.47121  0.02251  0.06230  1.0000
  H   H22       1.0  0.01156  0.46979  0.19432  1.0000
  C   C21       1.0  0.29704  0.36317  0.18030  1.0000
  C   C22       1.0  0.29009  0.38209  0.16954  1.0000
  C   C23       1.0  0.30195  0.38994  0.15229  1.0000
  C   C24       1.0  0.32134  0.37927  0.14557  1.0000
  C   C25       1.0  0.32843  0.36050  0.15637  1.0000
  C   C26       1.0  0.31629  0.35236  0.17353  1.0000
  H   H23       1.0  0.27559  0.39098  0.17463  1.0000
  H   H24       1.0  0.29645  0.40460  0.14430  1.0000
  H   H25       1.0  0.34354  0.35222  0.15142  1.0000
  H   H26       1.0  0.32218  0.33807  0.18161  1.0000
  C   C27       1.0  0.25077  0.15194  0.22374  1.0000
  C   C28       1.0  0.43960  0.47580  0.00110  1.0000
  H   H27       1.0  0.38600  0.04604  0.19139  1.0000
  H   H28       1.0  0.45488  0.43362  0.11192  1.0000
  H   H29       1.0  0.28031  0.03185  0.13053  1.0000
  H   H30       1.0  0.43622  0.03507  0.15925  1.0000
  H   H31       1.0  0.40136  0.42186  0.16029  1.0000
  H   H32       1.0  0.15333  0.00809  0.17790  1.0000
  H   H33       1.0  0.22875  0.36233  0.03509  1.0000
  H   H34       1.0  0.36947  0.44283  0.14962  1.0000
  C   C29       1.0  0.25899  0.40485  0.02190  1.0000
  C   C30       1.0  0.00585  0.32991  0.16090  1.0000
  C   C31       1.0  0.44136  0.46930  0.11372  1.0000
  C   C32       1.0  0.00429  0.46170  0.16593  1.0000
  H   H35       1.0  0.07278  0.37436  0.18246  1.0000
  H   H36       1.0  0.36044  0.41816  0.18076  1.0000
  H   H37       1.0  0.02771  0.46474  0.11405  1.0000
  C   C33       1.0  0.13096  0.47731  0.13139  1.0000
  H   H38       1.0  0.38814  0.45217  0.19235  1.0000
  H   H39       1.0  0.99776  0.30780  0.16679  1.0000
  H   H40       1.0  0.42459  0.07285  0.18591  1.0000
  C   C34       1.0  0.24381  0.36965  0.02338  1.0000
  C   C35       1.0  0.29199  0.02180  0.15640  1.0000
  H   H41       1.0  0.41792  0.06221  0.10960  1.0000
  H   H42       1.0  0.98575  0.40867  0.01847  1.0000
  S   S20       1.0  0.15458  0.46986  0.07924  1.0000
  C   C36       1.0  0.09541  0.37927  0.17721  1.0000
  H   H43       1.0  0.48061  0.99706  0.10244  1.0000
  C   C37       1.0  0.01171  0.33348  0.14254  1.0000
  H   H44       1.0  0.28496  0.03640  0.16346  1.0000
  H   H45       1.0  0.14583  0.41094  0.15742  1.0000
  C   C38       1.0  0.35702  0.09974  0.99605  1.0000
  N   N2        1.0  0.41287  0.47777  0.14018  1.0000
  H   H46       1.0  0.23013  0.43728  0.99215  1.0000
  H   H47       1.0  0.00810  0.31393  0.13449  1.0000
  C   C39       1.0  0.42515  0.04741  0.15283  1.0000
  C   C40       1.0  0.18375  0.41151  0.01798  1.0000
  H   H48       1.0  0.23690  0.46059  0.02096  1.0000
  H   H49       1.0  0.43162  0.44643  0.13817  1.0000
  C   C41       1.0  0.01975  0.38321  0.16341  1.0000
  H   H50       1.0  0.20173  0.99152  0.16668  1.0000
  C   C42       1.0  0.30505  0.00672  0.16581  1.0000
  C   C43       1.0  0.39215  0.45999  0.15507  1.0000
  H   H51       1.0  0.38155  0.09691  0.12307  1.0000
  C   C44       1.0  0.16851  0.00637  0.18818  1.0000
  Fe  Fe11      1.0  0.99484  0.31668  0.21600  1.0000
  H   H52       1.0  0.32413  0.11610  0.99431  1.0000
  H   H53       1.0  0.11313  0.39958  0.18443  1.0000
  S   S21       1.0  0.24500  0.09435  0.22729  1.0000
  C   C45       1.0  0.38891  0.04923  0.99236  1.0000
  H   H54       1.0  0.41021  0.06351  0.99926  1.0000
  S   S22       1.0  0.00302  0.27601  0.21381  1.0000
  C   C46       1.0  0.18797  0.18308  0.21005  1.0000
  H   H55       1.0  0.17543  0.38503  0.06380  1.0000
  N   N3        1.0  0.41890  0.03858  0.13344  1.0000
  H   H56       1.0  0.36217  0.14526  0.99292  1.0000
  H   H57       1.0  0.25618  0.33416  0.02878  1.0000
  H   H58       1.0  0.26881  0.41352  0.03539  1.0000
  H   H59       1.0  0.44329  0.03271  0.11150  1.0000
  C   C47       1.0  0.29946  0.00121  0.12820  1.0000
  S   S23       1.0  0.99921  0.35094  0.19436  1.0000
  C   C48       1.0  0.44783  0.04137  0.12547  1.0000
  C   C49       1.0  0.98777  0.39913  0.00592  1.0000
  H   H60       1.0  0.38108  0.08212  0.10089  1.0000
  C   C50       1.0  0.25032  0.44913  0.02519  1.0000
  N   N4        1.0  0.99167  0.45738  0.13221  1.0000
  H   H61       1.0  0.16389  0.16721  0.20634  1.0000
  H   H62       1.0  0.00232  0.41323  0.11116  1.0000
  C   C51       1.0  0.38504  0.43226  0.18412  1.0000
  H   H63       1.0  0.19207  0.02515  0.18654  1.0000
  H   H64       1.0  0.19510  0.20473  0.20295  1.0000
  H   H65       1.0  0.14823  0.37875  0.03483  1.0000
  Fe  Fe12      1.0  0.03638  0.29744  0.23660  1.0000
  H   H66       1.0  0.03465  0.40900  0.13922  1.0000
  C   C52       1.0  0.26159  0.18305  0.22818  1.0000
  S   S24       1.0  0.36587  0.00790  0.07389  1.0000
  C   C53       1.0  0.00927  0.35465  0.17146  1.0000
  H   H67       1.0  0.28341  0.37127  0.03716  1.0000
  H   H68       1.0  0.09115  0.40428  0.15547  1.0000
  C   C54       1.0  0.37596  0.05079  0.12210  1.0000
  N   N5        1.0  0.18652  0.28702  0.18447  1.0000
  C   C55       1.0  0.21879  0.29295  0.18147  1.0000
  C   C56       1.0  0.18731  0.31071  0.19745  1.0000
  C   C57       1.0  0.16966  0.25645  0.19324  1.0000
  C   C58       1.0  0.16996  0.28648  0.16746  1.0000
  C   C59       1.0  0.18927  0.30773  0.15242  1.0000
  C   C60       1.0  0.22226  0.26769  0.17114  1.0000
  C   C61       1.0  0.13590  0.24612  0.19801  1.0000
  C   C62       1.0  0.20303  0.34411  0.19130  1.0000
  C   C63       1.0  0.20711  0.36600  0.20668  1.0000
  C   C64       1.0  0.16885  0.30807  0.13727  1.0000
  C   C65       1.0  0.25473  0.27931  0.16452  1.0000
  C   C66       1.0  0.12028  0.21331  0.20442  1.0000
  H   H69       1.0  0.23089  0.29613  0.19440  1.0000
  H   H70       1.0  0.23227  0.31471  0.17460  1.0000
  H   H71       1.0  0.16393  0.30607  0.20097  1.0000
  H   H72       1.0  0.19858  0.30968  0.21010  1.0000
  H   H73       1.0  0.18190  0.25611  0.20565  1.0000
  H   H74       1.0  0.16901  0.23810  0.18446  1.0000
  H   H75       1.0  0.15866  0.26311  0.16145  1.0000
  H   H76       1.0  0.15106  0.29180  0.17040  1.0000
  H   H77       1.0  0.20474  0.29968  0.14677  1.0000
  H   H78       1.0  0.20364  0.33147  0.15708  1.0000
  H   H79       1.0  0.21748  0.24838  0.18003  1.0000
  H   H80       1.0  0.20625  0.25885  0.15963  1.0000
  H   H81       1.0  0.12269  0.24735  0.18642  1.0000
  H   H82       1.0  0.13433  0.26042  0.20885  1.0000
  H   H83       1.0  0.22589  0.35103  0.18592  1.0000
  H   H84       1.0  0.18868  0.34721  0.18102  1.0000
  H   H85       1.0  0.18467  0.36109  0.21218  1.0000
  H   H86       1.0  0.22166  0.36408  0.21733  1.0000
  H   H87       1.0  0.21850  0.38977  0.20193  1.0000
  H   H88       1.0  0.18320  0.32250  0.12644  1.0000
  H   H89       1.0  0.15452  0.28470  0.13180  1.0000
  H   H90       1.0  0.15389  0.31751  0.14195  1.0000
  H   H91       1.0  0.27119  0.28728  0.17588  1.0000
  H   H92       1.0  0.25669  0.26068  0.15744  1.0000
  H   H93       1.0  0.26077  0.29838  0.15522  1.0000
  H   H94       1.0  0.13271  0.21090  0.21607  1.0000
  H   H95       1.0  0.09665  0.20699  0.20845  1.0000
  H   H96       1.0  0.11924  0.19739  0.19369  1.0000
  N   N6        1.0  0.13121  0.39880  0.12999  1.0000
  C   C67       1.0  0.10945  0.37042  0.11978  1.0000
  C   C68       1.0  0.12754  0.39202  0.14952  1.0000
  C   C69       1.0  0.12386  0.42407  0.12546  1.0000
  C   C70       1.0  0.16387  0.40872  0.12513  1.0000
  C   C71       1.0  0.17495  0.38463  0.12752  1.0000
  C   C72       1.0  0.11373  0.37117  0.09945  1.0000
  C   C73       1.0  0.42092  0.48403  0.01393  1.0000
  C   C74       1.0  0.09621  0.38509  0.15732  1.0000
  C   C75       1.0  0.14118  0.45400  0.13656  1.0000
  C   C76       1.0  0.20761  0.39664  0.12112  1.0000
  C   C77       1.0  0.08926  0.34219  0.09041  1.0000
  Fe  Fe13      1.0  0.25777  0.05579  0.23148  1.0000
  H   H97       1.0  0.08550  0.36563  0.12191  1.0000
  H   H98       1.0  0.11053  0.35007  0.12484  1.0000
  H   H99       1.0  0.13055  0.37175  0.15233  1.0000
  C   C78       1.0  0.26140  0.13412  0.23279  1.0000
  H   H100      1.0  0.09891  0.41615  0.12640  1.0000
  H   H101      1.0  0.12924  0.43058  0.11137  1.0000
  H   H102      1.0  0.16817  0.41686  0.11122  1.0000
  H   H103      1.0  0.17962  0.42875  0.13337  1.0000
  H   H104      1.0  0.16042  0.36335  0.11995  1.0000
  H   H105      1.0  0.17484  0.37902  0.14172  1.0000
  H   H106      1.0  0.11212  0.39068  0.09371  1.0000
  H   H107      1.0  0.13617  0.37309  0.09604  1.0000
  H   H108      1.0  0.19810  0.15119  0.23585  1.0000
  H   H109      1.0  0.36455  0.04499  0.13503  1.0000
  C   C79       1.0  0.33756  0.00768  0.99253  1.0000
  H   H110      1.0  0.07763  0.36443  0.15093  1.0000
  H   H111      1.0  0.16607  0.46456  0.13431  1.0000
  H   H112      1.0  0.25240  0.46787  0.08192  1.0000
  H   H113      1.0  0.98903  0.41538  0.14157  1.0000
  H   H114      1.0  0.22333  0.41806  0.12829  1.0000
  H   H115      1.0  0.21555  0.37957  0.12347  1.0000
  H   H116      1.0  0.20873  0.40100  0.10669  1.0000
  H   H117      1.0  0.09034  0.32186  0.09541  1.0000
  H   H118      1.0  0.06621  0.33971  0.09280  1.0000
  H   H119      1.0  0.09294  0.34344  0.07587  1.0000
  H   H120      1.0  0.20265  0.17307  0.20575  1.0000
  C   C80       1.0  0.39747  0.04278  0.16408  1.0000
  H   H121      1.0  0.29963  0.46260  0.02352  1.0000
  C   C81       1.0  0.28950  0.01927  0.13770  1.0000
  C   C82       1.0  0.47549  0.07384  0.12536  1.0000
  H   H122      1.0  0.23409  0.14158  0.21313  1.0000
  H   H123      1.0  0.09901  0.35931  0.17984  1.0000
  C   C83       1.0  0.40621  0.04911  0.18374  1.0000
  H   H124      1.0  0.17631  0.19960  0.23335  1.0000
  H   H125      1.0  0.41388  0.03300  0.18884  1.0000
  S   S25       1.0  0.30466  0.05900  0.23296  1.0000
  C   C84       1.0  0.37111  0.07634  0.11430  1.0000
  H   H126      1.0  0.37509  0.12537  0.02083  1.0000
  H   H127      1.0  0.20585  0.39447  0.03588  1.0000
  C   C85       1.0  0.24146  0.42367  0.99623  1.0000
  C   C86       1.0  0.43332  0.00408  0.04404  1.0000
  H   H128      1.0  0.44184  0.45665  0.00705  1.0000
  H   H129      1.0  0.19651  0.37598  0.01499  1.0000
  C   C87       1.0  0.00998  0.38965  0.00404  1.0000
  H   H130      1.0  0.39776  0.46443  0.01540  1.0000
  S   S26       1.0  0.29735  0.00004  0.10458  1.0000
  C   C88       1.0  0.15085  0.38735  0.02111  1.0000
  H   H131      1.0  0.15152  0.33724  0.23741  1.0000
  H   H132      1.0  0.45930  0.45439  0.09179  1.0000
  C   C89       1.0  0.98726  0.46761  0.15035  1.0000
  H   H133      1.0  0.44196  0.07192  0.15439  1.0000
  H   H134      1.0  0.38915  0.05888  0.16003  1.0000
  H   H135      1.0  0.18497  0.41928  0.00417  1.0000
  C   C90       1.0  0.02505  0.47054  0.12798  1.0000
  H   H136      1.0  0.27909  0.41223  0.01318  1.0000
  H   H137      1.0  0.47559  0.00029  0.02446  1.0000
  H   H138      1.0  0.36422  0.03064  0.11310  1.0000
  H   H139      1.0  0.18865  0.43085  0.02723  1.0000
  H   H140      1.0  0.03608  0.45991  0.13613  1.0000
  H   H141      1.0  0.42185  0.42653  0.09847  1.0000
  H   H142      1.0  0.42810  0.00474  0.02976  1.0000
  C   C91       1.0  0.41034  0.05991  0.12364  1.0000
  H   H143      1.0  0.02920  0.47247  0.16378  1.0000
  H   H144      1.0  0.42138  0.01422  0.05177  1.0000
  H   H145      1.0  0.39041  0.00049  0.11623  1.0000
  H   H146      1.0  0.48357  0.08218  0.13909  1.0000
  C   C92       1.0  0.99946  0.47460  0.18337  1.0000
  H   H147      1.0  0.13535  0.39745  0.01927  1.0000
  H   H148      1.0  0.38007  0.10515  0.99144  1.0000
  H   H149      1.0  0.26577  0.43777  0.99263  1.0000
  H   H150      1.0  0.24697  0.44592  0.03974  1.0000
  H   H151      1.0  0.28104  0.36244  0.01367  1.0000
  H   H152      1.0  0.10617  0.46810  0.13363  1.0000
  H   H153      1.0  0.38749  0.47533  0.16387  1.0000
  S   S27       1.0  0.08769  0.31545  0.23677  1.0000
  C   C93       1.0  0.19119  0.18944  0.23003  1.0000
  H   H154      1.0  0.46460  0.48608  0.11835  1.0000
  H   H155      1.0  0.37241  0.00257  0.13576  1.0000
  C   C94       1.0  0.39451  0.00598  0.13069  1.0000
  H   H156      1.0  0.13594  0.48338  0.11722  1.0000
  H   H157      1.0  0.99572  0.43695  0.16772  1.0000
  H   H158      1.0  0.16054  0.00920  0.20144  1.0000
  C   C95       1.0  0.39506  0.48846  0.12856  1.0000
  H   H159      1.0  0.37569  0.46858  0.12186  1.0000
  H   H160      1.0  0.46975  0.09028  0.11877  1.0000
  H   H161      1.0  0.34109  0.07574  0.99235  1.0000
  H   H162      1.0  0.47515  0.04564  0.04343  1.0000
  H   H163      1.0  0.15921  0.14279  0.23599  1.0000
  H   H164      1.0  0.31893  0.98963  0.99940  1.0000
  Fe  Fe14      1.0  0.28382  0.02154  0.25325  1.0000
  S   S28       1.0  0.23768  0.01988  0.25276  1.0000
  H   H165      1.0  0.43322  0.43262  0.32585  1.0000
  H   H166      1.0  0.25500  0.48213  0.35501  1.0000
  C   C96       1.0  0.08927  0.36333  0.45191  1.0000
  C   C97       1.0  0.41217  0.45039  0.36565  1.0000
  S   S29       1.0  0.29582  0.23555  0.24901  1.0000
  H   H167      1.0  0.17555  0.37604  0.42644  1.0000
  H   H168      1.0  0.30059  0.04401  0.40638  1.0000
  S   S30       1.0  0.33527  0.00849  0.44096  1.0000
  H   H169      1.0  0.38907  0.43034  0.36591  1.0000
  H   H170      1.0  0.43900  0.06658  0.43767  1.0000
  Fe  Fe15      1.0  0.27743  0.32411  0.26708  1.0000
  S   S31       1.0  0.28841  0.35922  0.29001  1.0000
  S   S32       1.0  0.24890  0.27315  0.26835  1.0000
  N   N7        1.0  0.43427  0.01023  0.45005  1.0000
  Fe  Fe16      1.0  0.34832  0.41713  0.43548  1.0000
  S   S33       1.0  0.32954  0.45023  0.43709  1.0000
  S   S34       1.0  0.37759  0.41277  0.45803  1.0000
  Fe  Fe17      1.0  0.33296  0.40611  0.39470  1.0000
  S   S35       1.0  0.31447  0.43940  0.39397  1.0000
  S   S36       1.0  0.33364  0.37646  0.37135  1.0000
  Fe  Fe18      1.0  0.35485  0.46916  0.41176  1.0000
  H   H171      1.0  0.38706  0.21934  0.47788  1.0000
  Fe  Fe19      1.0  0.29107  0.41754  0.41921  1.0000
  S   S37       1.0  0.23975  0.39747  0.42309  1.0000
  S   S38       1.0  0.37505  0.43759  0.41070  1.0000
  S   S39       1.0  0.30807  0.38278  0.41937  1.0000
  Fe  Fe20      1.0  0.04809  0.39603  0.38544  1.0000
  S   S40       1.0  0.08213  0.44572  0.38339  1.0000
  S   S41       1.0  0.03688  0.35964  0.36322  1.0000
  Fe  Fe21      1.0  0.04269  0.40229  0.42668  1.0000
  S   S42       1.0  0.07706  0.45210  0.42700  1.0000
  H   H172      1.0  0.37547  0.47128  0.47433  1.0000
  Fe  Fe22      1.0  0.05260  0.45505  0.40241  1.0000
  C   C98       1.0  0.38597  0.10158  0.35675  1.0000
  Fe  Fe23      1.0  0.10407  0.43891  0.40805  1.0000
  S   S43       1.0  0.15609  0.46040  0.40862  1.0000
  S   S44       1.0  0.01666  0.40544  0.40284  1.0000
  S   S45       1.0  0.07166  0.38904  0.40937  1.0000
  C   C99       1.0  0.06864  0.40889  0.26369  1.0000
  Fe  Fe24      1.0  0.22028  0.27736  0.24647  1.0000
  S   S46       1.0  0.01687  0.37243  0.45039  1.0000
  H   H173      1.0  0.33050  0.04593  0.33079  1.0000
  H   H174      1.0  0.15209  0.38149  0.29621  1.0000
  H   H175      1.0  0.07168  0.43243  0.26428  1.0000
  H   H176      1.0  0.47841  1.00000  0.39197  1.0000
  C   C100      1.0  0.35417  0.04135  0.47246  1.0000
  C   C101      1.0  0.25513  0.46432  0.36365  1.0000
  H   H177      1.0  0.14606  0.11792  0.26316  1.0000
  H   H178      1.0  0.42948  0.07766  0.40755  1.0000
  H   H179      1.0  0.32064  0.02815  0.38121  1.0000
  H   H180      1.0  0.03916  0.29301  0.43202  1.0000
  C   C102      1.0  0.21710  0.41574  0.41947  1.0000
  C   C103      1.0  0.22963  0.44575  0.41372  1.0000
  C   C104      1.0  0.21063  0.45908  0.41053  1.0000
  C   C105      1.0  0.17894  0.44253  0.41288  1.0000
  C   C106      1.0  0.16646  0.41255  0.41866  1.0000
  C   C107      1.0  0.18546  0.39930  0.42206  1.0000
  H   H181      1.0  0.25394  0.45871  0.41176  1.0000
  C   C108      1.0  0.05120  0.31823  0.43325  1.0000
  H   H182      1.0  0.14215  0.39958  0.42032  1.0000
  C   C109      1.0  0.33967  0.09263  0.32777  1.0000
  C   C110      1.0  0.36929  0.39667  0.47959  1.0000
  H   H183      1.0  0.10198  0.35529  0.31838  1.0000
  C   C111      1.0  0.06552  0.30899  0.29358  1.0000
  C   C112      1.0  0.39873  0.01957  0.35246  1.0000
  C   C113      1.0  0.17129  0.08113  0.27156  1.0000
  H   H184      1.0  0.19651  0.40190  0.27473  1.0000
  H   H185      1.0  0.24652  0.46641  0.37685  1.0000
  C   C114      1.0  0.01679  0.37562  0.33218  1.0000
  C   C115      1.0  0.02377  0.35480  0.34065  1.0000
  C   C116      1.0  0.02048  0.32911  0.33088  1.0000
  C   C117      1.0  0.01049  0.32431  0.31296  1.0000
  C   C118      1.0  0.13786  0.38594  0.28638  1.0000
  H   H186      1.0  0.45838  0.05471  0.42160  1.0000
  H   H187      1.0  0.05973  0.35772  0.28124  1.0000
  H   H188      1.0  0.32124  0.09233  0.33605  1.0000
  H   H189      1.0  0.47152  0.99964  0.45382  1.0000
  H   H190      1.0  0.45851  0.45863  0.37286  1.0000
  C   C119      1.0  0.10911  0.29608  0.24015  1.0000
  H   H191      1.0  0.17980  0.20387  0.26519  1.0000
  C   C120      1.0  0.29995  0.36270  0.31281  1.0000
  C   C121      1.0  0.30802  0.34232  0.32086  1.0000
  C   C122      1.0  0.31805  0.34681  0.33877  1.0000
  C   C123      1.0  0.31950  0.37125  0.34905  1.0000
  C   C124      1.0  0.31087  0.39130  0.34113  1.0000
  C   C125      1.0  0.30168  0.38732  0.32308  1.0000
  H   H192      1.0  0.30709  0.32342  0.31319  1.0000
  H   H193      1.0  0.32477  0.33119  0.34469  1.0000
  H   H194      1.0  0.31186  0.41020  0.34879  1.0000
  H   H195      1.0  0.29609  0.40359  0.31697  1.0000
  H   H196      1.0  0.06196  0.31108  0.30791  1.0000
  C   C126      1.0  0.28294  0.19685  0.24197  1.0000
  C   C127      1.0  0.06148  0.27701  0.29014  1.0000
  H   H197      1.0  0.36711  0.39493  0.31230  1.0000
  H   H198      1.0  0.11996  0.42167  0.30944  1.0000
  C   C128      1.0  0.39095  0.04391  0.34567  1.0000
  H   H199      1.0  0.12069  0.19184  0.27842  1.0000
  H   H200      1.0  0.08125  0.41034  0.29091  1.0000
  H   H201      1.0  0.41024  0.02713  0.46675  1.0000
  H   H202      1.0  0.00729  0.30403  0.30588  1.0000
  H   H203      1.0  0.07879  0.27355  0.29771  1.0000
  H   H204      1.0  0.10029  0.38728  0.34453  1.0000
  H   H205      1.0  0.27895  0.46838  0.36520  1.0000
  H   H206      1.0  0.07533  0.39133  0.47847  1.0000
  H   H207      1.0  0.44319  0.40884  0.38695  1.0000
  H   H208      1.0  0.32077  0.37949  0.47784  1.0000
  H   H209      1.0  0.41216  0.06599  0.34617  1.0000
  C   C129      1.0  0.41986  0.01671  0.43407  1.0000
  H   H210      1.0  0.14727  0.06801  0.26680  1.0000
  C   C130      1.0  0.07209  0.32812  0.44966  1.0000
  C   C131      1.0  0.43349  0.02932  0.46554  1.0000
  N   N8        1.0  0.18389  0.16302  0.26051  1.0000
  H   H211      1.0  0.39893  0.42194  0.29968  1.0000
  C   C132      1.0  0.36557  0.04507  0.35690  1.0000
  H   H212      1.0  0.22947  0.30807  0.38539  1.0000
  C   C133      1.0  0.33964  0.38175  0.48608  1.0000
  H   H213      1.0  0.36859  0.07189  0.32528  1.0000
  C   C134      1.0  0.12282  0.35831  0.47461  1.0000
  H   H214      1.0  0.14625  0.35859  0.26622  1.0000
  H   H215      1.0  0.37959  0.11999  0.35512  1.0000
  C   C135      1.0  0.42657  0.41756  0.38509  1.0000
  H   H216      1.0  0.02547  0.31265  0.33731  1.0000
  S   S47       1.0  0.98926  0.33951  0.28216  1.0000
  C   C136      1.0  0.46598  0.01525  0.44597  1.0000
  H   H217      1.0  0.26151  0.20562  0.30506  1.0000
  C   C137      1.0  0.33211  0.30799  0.47197  1.0000
  H   H218      1.0  0.40162  0.40486  0.33843  1.0000
  H   H219      1.0  0.06359  0.27332  0.27577  1.0000
  H   H220      1.0  0.08872  0.31938  0.44789  1.0000
  H   H221      1.0  0.17116  0.34847  0.48552  1.0000
  H   H222      1.0  0.04737  0.31076  0.28593  1.0000
  C   C138      1.0  0.41753  0.05382  0.41214  1.0000
  H   H223      1.0  0.41652  0.41065  0.48573  1.0000
  C   C139      1.0  0.28341  0.14814  0.24627  1.0000
  H   H224      1.0  0.47751  0.48801  0.44756  1.0000
  C   C140      1.0  0.26958  0.99115  0.32495  1.0000
  C   C141      1.0  0.34691  0.99003  0.47384  1.0000
  C   C142      1.0  0.09563  0.26481  0.24317  1.0000
  H   H225      1.0  0.39945  0.45984  0.32157  1.0000
  C   C143      1.0  0.32787  0.08622  0.30859  1.0000
  C   C144      1.0  0.09827  0.37102  0.30952  1.0000
  N   N9        1.0  0.21414  0.37526  0.36132  1.0000
  C   C145      1.0  0.18147  0.36950  0.36113  1.0000
  C   C146      1.0  0.22214  0.36682  0.34347  1.0000
  C   C147      1.0  0.21680  0.35481  0.37509  1.0000
  C   C148      1.0  0.23627  0.40770  0.36654  1.0000
  C   C149      1.0  0.23484  0.43285  0.35541  1.0000
  C   C150      1.0  0.16991  0.37689  0.37859  1.0000
  C   C151      1.0  0.24796  0.35470  0.37617  1.0000
  C   C152      1.0  0.20632  0.37117  0.32671  1.0000
  C   C153      1.0  0.21987  0.36609  0.30969  1.0000
  H   H226      1.0  0.40363  0.39779  0.38267  1.0000
  C   C154      1.0  0.13789  0.37340  0.37602  1.0000
  C   C155      1.0  0.24695  0.33138  0.38946  1.0000
  H   H227      1.0  0.16592  0.34515  0.35763  1.0000
  H   H228      1.0  0.17746  0.38271  0.35070  1.0000
  H   H229      1.0  0.24723  0.37935  0.34151  1.0000
  H   H230      1.0  0.21615  0.34224  0.34299  1.0000
  H   H231      1.0  0.19872  0.33086  0.37276  1.0000
  H   H232      1.0  0.21299  0.36137  0.38863  1.0000
  H   H233      1.0  0.23375  0.41214  0.38078  1.0000
  H   H234      1.0  0.26013  0.41161  0.36560  1.0000
  H   H235      1.0  0.21146  0.43013  0.35452  1.0000
  H   H236      1.0  0.24334  0.43266  0.34190  1.0000
  H   H237      1.0  0.16872  0.36121  0.38922  1.0000
  H   H238      1.0  0.18495  0.40066  0.38308  1.0000
  H   H239      1.0  0.26634  0.37723  0.38067  1.0000
  H   H240      1.0  0.25444  0.34893  0.36321  1.0000
  H   H241      1.0  0.18170  0.35425  0.32654  1.0000
  H   H242      1.0  0.20826  0.39419  0.32627  1.0000
  H   H243      1.0  0.45187  0.48470  0.42947  1.0000
  H   H244      1.0  0.21955  0.34364  0.30969  1.0000
  H   H245      1.0  0.20645  0.36669  0.29800  1.0000
  H   H246      1.0  0.37405  0.43271  0.33667  1.0000
  H   H247      1.0  0.30652  0.06427  0.30752  1.0000
  H   H248      1.0  0.39855  0.38780  0.30761  1.0000
  H   H249      1.0  0.12937  0.37719  0.38886  1.0000
  H   H250      1.0  0.13834  0.39057  0.36662  1.0000
  H   H251      1.0  0.12172  0.35019  0.37100  1.0000
  H   H252      1.0  0.26950  0.33188  0.39003  1.0000
  C   C156      1.0  0.36761  0.47417  0.35430  1.0000
  C   C157      1.0  0.14771  0.46231  0.45542  1.0000
  H   H253      1.0  0.04415  0.39284  0.26576  1.0000
  C   C158      1.0  0.00809  0.37839  0.47262  1.0000
  C   C159      1.0  0.32790  0.05278  0.38283  1.0000
  H   H254      1.0  0.30959  0.07966  0.39606  1.0000
  H   H255      1.0  0.46156  0.01674  0.48304  1.0000
  H   H256      1.0  0.03846  0.25987  0.29436  1.0000
  H   H257      1.0  0.35933  0.11590  0.32830  1.0000
  C   C160      1.0  0.43596  0.04966  0.42715  1.0000
  C   C161      1.0  0.16540  0.17868  0.26579  1.0000
  H   H258      1.0  0.07521  0.40473  0.25031  1.0000
  S   S48       1.0  0.30853  0.32168  0.24606  1.0000
  H   H259      1.0  0.40359  0.10606  0.34657  1.0000
  H   H260      1.0  0.10471  0.37127  0.44037  1.0000
  C   C162      1.0  0.08845  0.40514  0.27801  1.0000
  C   C163      1.0  0.40839  0.42241  0.32806  1.0000
  H   H261      1.0  0.34432  0.32377  0.46108  1.0000
  H   H262      1.0  0.42545  0.15667  0.37336  1.0000
  Fe  Fe25      1.0  0.99312  0.31360  0.25769  1.0000
  H   H263      1.0  0.41892  0.00226  0.42256  1.0000
  C   C164      1.0  0.30324  0.05541  0.39346  1.0000
  H   H264      1.0  0.14629  0.17299  0.25613  1.0000
  C   C165      1.0  0.39855  0.44645  0.33350  1.0000
  H   H265      1.0  0.38325  0.03787  0.33164  1.0000
  H   H266      1.0  0.09911  0.32850  0.27361  1.0000
  C   C166      1.0  0.14813  0.38157  0.26768  1.0000
  H   H267      1.0  0.18354  0.06821  0.26783  1.0000
  H   H268      1.0  0.42633  0.42968  0.39747  1.0000
  H   H269      1.0  0.26886  0.22558  0.28450  1.0000
  H   H270      1.0  0.26802  0.18893  0.28532  1.0000
  H   H271      1.0  0.34505  0.08528  0.29965  1.0000
  C   C167      1.0  0.08407  0.37229  0.27795  1.0000
  H   H272      1.0  0.14137  0.40652  0.32089  1.0000
  H   H273      1.0  0.15016  0.40787  0.45712  1.0000
  C   C168      1.0  0.17022  0.13126  0.26782  1.0000
  H   H274      1.0  0.18664  0.10849  0.24858  1.0000
  H   H275      1.0  0.01902  0.39542  0.33946  1.0000
  C   C169      1.0  0.21681  0.18190  0.26621  1.0000
  C   C170      1.0  0.22329  0.18697  0.28639  1.0000
  C   C171      1.0  0.44203  0.02157  0.48392  1.0000
  H   H276      1.0  0.06462  0.32757  0.42108  1.0000
  C   C172      1.0  0.14976  0.17103  0.28409  1.0000
  C   C173      1.0  0.13716  0.19282  0.28879  1.0000
  C   C174      1.0  0.25751  0.20270  0.29050  1.0000
  C   C175      1.0  0.43054  0.13770  0.37621  1.0000
  C   C176      1.0  0.10471  0.40649  0.33564  1.0000
  C   C177      1.0  0.18682  0.11244  0.26309  1.0000
  H   H277      1.0  0.16917  0.13161  0.28248  1.0000
  C   C178      1.0  0.29406  0.17923  0.25079  1.0000
  S   S49       1.0  0.24661  0.32803  0.24635  1.0000
  H   H278      1.0  0.10364  0.22647  0.24782  1.0000
  C   C179      1.0  0.09750  0.33355  0.28782  1.0000
  H   H279      1.0  0.23081  0.17197  0.26072  1.0000
  H   H280      1.0  0.22662  0.20501  0.26053  1.0000
  H   H281      1.0  0.21300  0.16522  0.29358  1.0000
  H   H282      1.0  0.21446  0.20211  0.29165  1.0000
  C   C180      1.0  0.98596  0.35345  0.48189  1.0000
  H   H283      1.0  0.21083  0.12402  0.26795  1.0000
  H   H284      1.0  0.39569  0.01065  0.43685  1.0000
  H   H285      1.0  0.07384  0.36499  0.31102  1.0000
  H   H286      1.0  0.13030  0.14755  0.28365  1.0000
  H   H287      1.0  0.16540  0.17229  0.29494  1.0000
  H   H288      1.0  0.15598  0.21658  0.28999  1.0000
  H   H289      1.0  0.14045  0.47663  0.44765  1.0000
  H   H290      1.0  0.12528  0.18644  0.30165  1.0000
  H   H291      1.0  0.44088  0.14142  0.38972  1.0000
  H   H292      1.0  0.10217  0.43020  0.46233  1.0000
  H   H293      1.0  0.18831  0.40032  0.25133  1.0000
  H   H294      1.0  0.43907  0.42708  0.35794  1.0000
  H   H295      1.0  0.14477  0.41047  0.28796  1.0000
  C   C181      1.0  0.34607  0.01320  0.46393  1.0000
  C   C182      1.0  0.12172  0.42964  0.45577  1.0000
  C   C183      1.0  0.14098  0.31307  0.23976  1.0000
  H   H296      1.0  0.00115  0.45613  0.47587  1.0000
  H   H297      1.0  0.11472  0.32929  0.29505  1.0000
  H   H298      1.0  0.12085  0.42810  0.34249  1.0000
  H   H299      1.0  0.05797  0.31679  0.46119  1.0000
  S   S50       1.0  0.00191  0.27346  0.25770  1.0000
  H   H300      1.0  0.08299  0.40711  0.33322  1.0000
  H   H301      1.0  0.38600  0.10802  0.38551  1.0000
  H   H302      1.0  0.31776  0.31645  0.47870  1.0000
  H   H303      1.0  0.18483  0.42811  0.26525  1.0000
  C   C184      1.0  0.43593  0.43914  0.36945  1.0000
  H   H304      1.0  0.04203  0.33929  0.48082  1.0000
  C   C185      1.0  0.13195  0.40849  0.46537  1.0000
  C   C186      1.0  0.39224  0.40586  0.31086  1.0000
  N   N10       1.0  0.10452  0.36635  0.29041  1.0000
  H   H305      1.0  0.04047  0.42598  0.47471  1.0000
  H   H306      1.0  0.24373  0.38425  0.30823  1.0000
  C   C187      1.0  0.30080  0.00229  0.29858  1.0000
  H   H307      1.0  0.11498  0.42191  0.44182  1.0000
  H   H308      1.0  0.24177  0.33683  0.40292  1.0000
  C   C188      1.0  0.02329  0.40657  0.48153  1.0000
  C   C189      1.0  0.11798  0.40309  0.31809  1.0000
  H   H309      1.0  0.11237  0.42209  0.27547  1.0000
  H   H310      1.0  0.17187  0.08341  0.28624  1.0000
  C   C190      1.0  0.00664  0.37071  0.31428  1.0000
  H   H311      1.0  0.33202  0.08970  0.36608  1.0000
  H   H312      1.0  0.41600  0.01820  0.34382  1.0000
  N   N11       1.0  0.35860  0.07090  0.35336  1.0000
  H   H313      1.0  0.30981  0.05237  0.35714  1.0000
  H   H314      1.0  0.16807  0.46309  0.44904  1.0000
  H   H315      1.0  0.08598  0.36547  0.26411  1.0000
  H   H316      1.0  0.44838  0.05389  0.46338  1.0000
  H   H317      1.0  0.36300  0.25233  0.48026  1.0000
  C   C191      1.0  0.18151  0.40446  0.26465  1.0000
  H   H318      1.0  0.39458  0.04899  0.41681  1.0000
  C   C192      1.0  0.33172  0.06736  0.36430  1.0000
  H   H319      1.0  0.37194  0.04498  0.37097  1.0000
  S   S51       1.0  0.31122  0.01757  0.27694  1.0000
  H   H320      1.0  0.37111  0.33064  0.48920  1.0000
  H   H321      1.0  0.34918  0.06308  0.39087  1.0000
  N   N12       1.0  0.41580  0.46778  0.34877  1.0000
  H   H322      1.0  0.31082  0.18961  0.26136  1.0000
  H   H323      1.0  0.13772  0.35792  0.46375  1.0000
  H   H324      1.0  0.35357  0.05946  0.46500  1.0000
  H   H325      1.0  0.14339  0.42043  0.47796  1.0000
  H   H326      1.0  0.13429  0.38459  0.25708  1.0000
  H   H327      1.0  0.40794  0.08940  0.37860  1.0000
  C   C193      1.0  0.40141  0.10714  0.37529  1.0000
  N   N13       1.0  0.10722  0.37651  0.46895  1.0000
  H   H328      1.0  0.35493  0.46316  0.34185  1.0000
  H   H329      1.0  0.31720  0.28504  0.46613  1.0000
  C   C194      1.0  0.34955  0.06895  0.33401  1.0000
  H   H330      1.0  0.36064  0.45685  0.36479  1.0000
  H   H331      1.0  0.10622  0.33410  0.47661  1.0000
  C   C195      1.0  0.27499  0.00011  0.30708  1.0000
  H   H332      1.0  0.46686  0.00881  0.43185  1.0000
  C   C196      1.0  0.00357  0.34516  0.30448  1.0000
  H   H333      1.0  0.28102  0.04402  0.38618  1.0000
  H   H334      1.0  0.41600  0.47933  0.45345  1.0000
  H   H335      1.0  0.41508  0.03843  0.40076  1.0000
  H   H336      1.0  0.15392  0.47207  0.46907  1.0000
  H   H337      1.0  0.36856  0.29787  0.47777  1.0000
  H   H338      1.0  0.44739  0.13800  0.36654  1.0000
  H   H339      1.0  0.32284  0.10450  0.30403  1.0000
  H   H340      1.0  0.03379  0.32613  0.43431  1.0000
  H   H341      1.0  0.34464  0.02298  0.35476  1.0000
  H   H342      1.0  0.07266  0.37203  0.44983  1.0000
  H   H343      1.0  0.22053  0.48237  0.40616  1.0000
  S   S52       1.0  0.34987  0.99270  0.39446  1.0000
  H   H344      1.0  0.40826  0.02522  0.36618  1.0000
  C   C197      1.0  0.35522  0.30684  0.48500  1.0000
  Fe  Fe26      1.0  0.27767  0.27024  0.24613  1.0000
  H   H345      1.0  0.00100  0.38685  0.30800  1.0000
  S   S53       1.0  0.16870  0.24939  0.24729  1.0000
  H   H346      1.0  0.29195  0.13494  0.25337  1.0000
  H   H347      1.0  0.25981  0.00643  0.30009  1.0000
  H   H348      1.0  0.98542  0.21462  0.29285  1.0000
  H   H349      1.0  0.46034  0.47274  0.34221  1.0000
  H   H350      1.0  0.41307  0.46440  0.37746  1.0000
  H   H351      1.0  0.25011  0.99059  0.33153  1.0000
  H   H352      1.0  0.35144  0.20022  0.48932  1.0000
  H   H353      1.0  0.37812  0.99687  0.35236  1.0000
  C   C198      1.0  0.08726  0.37869  0.48326  1.0000
  H   H354      1.0  0.07105  0.25150  0.24344  1.0000
  C   C199      1.0  0.14607  0.26783  0.24521  1.0000
  H   H355      1.0  0.18383  0.31251  0.24196  1.0000
  C   C200      1.0  0.11412  0.25072  0.24569  1.0000
  C   C201      1.0  0.32040  0.99423  0.30803  1.0000
  H   H356      1.0  0.34041  0.99577  0.30161  1.0000
  C   C202      1.0  0.15937  0.29908  0.24234  1.0000
  H   H357      1.0  0.42220  0.00110  0.48917  1.0000
  C   C203      1.0  0.18256  0.15990  0.24051  1.0000
  H   H358      1.0  0.33288  0.48655  0.36173  1.0000
  C   C204      1.0  0.44872  0.48685  0.34375  1.0000
  C   C205      1.0  0.40249  0.48923  0.35142  1.0000
  Fe  Fe27      1.0  0.38011  0.35783  0.55960  1.0000
  S   S54       1.0  0.43063  0.37392  0.55920  1.0000
  S   S55       1.0  0.34999  0.35521  0.53561  1.0000
  Fe  Fe28      1.0  0.37575  0.34344  0.60024  1.0000
  S   S56       1.0  0.42628  0.35983  0.60216  1.0000
  S   S57       1.0  0.34410  0.31507  0.62263  1.0000
  Fe  Fe29      1.0  0.43205  0.39855  0.58465  1.0000
  C   C206      1.0  0.33925  0.28774  0.50147  1.0000
  Fe  Fe30      1.0  0.42040  0.33365  0.57664  1.0000
  S   S58       1.0  0.44423  0.30434  0.57483  1.0000
  S   S59       1.0  0.38157  0.38412  0.58447  1.0000
  S   S60       1.0  0.36991  0.31569  0.57521  1.0000
  Fe  Fe31      1.0  0.39365  0.12774  0.55902  1.0000
  S   S61       1.0  0.35630  0.07903  0.56056  1.0000
  S   S62       1.0  0.37743  0.16298  0.55393  1.0000
  Fe  Fe32      1.0  0.44313  0.10968  0.56659  1.0000
  S   S63       1.0  0.40921  0.06045  0.56926  1.0000
  C   C207      1.0  0.43560  0.04606  0.64641  1.0000
  Fe  Fe33      1.0  0.38694  0.06654  0.54444  1.0000
  S   S64       1.0  0.37378  0.02779  0.52362  1.0000
  Fe  Fe34      1.0  0.38124  0.07685  0.58514  1.0000
  S   S65       1.0  0.35346  0.05106  0.60941  1.0000
  S   S66       1.0  0.42242  0.11541  0.54114  1.0000
  S   S67       1.0  0.41707  0.12592  0.58427  1.0000
  H   H359      1.0  0.25108  0.33916  0.67826  1.0000
  C   C208      1.0  0.22184  0.34185  0.70799  1.0000
  C   C209      1.0  0.39348  0.39926  0.49060  1.0000
  Fe  Fe35      1.0  0.28878  0.31387  0.72459  1.0000
  S   S68       1.0  0.25348  0.26463  0.72440  1.0000
  S   S69       1.0  0.30749  0.34277  0.69968  1.0000
  H   H360      1.0  0.31123  0.35779  0.50806  1.0000
  Fe  Fe36      1.0  0.29172  0.04850  0.71143  1.0000
  S   S70       1.0  0.24101  0.03143  0.71001  1.0000
  S   S71       1.0  0.32576  0.07584  0.68944  1.0000
  H   H361      1.0  0.43430  0.09410  0.62950  1.0000
  C   C210      1.0  0.15360  0.32179  0.69662  1.0000
  C   C211      1.0  0.24901  0.38008  0.67436  1.0000
  H   H362      1.0  0.19876  0.36623  0.71942  1.0000
  H   H363      1.0  0.37410  0.47491  0.51797  1.0000
  H   H364      1.0  0.47779  0.06688  0.57581  1.0000
  H   H365      1.0  0.30601  0.10289  0.65155  1.0000
  H   H366      1.0  0.23017  0.38970  0.70591  1.0000
  H   H367      1.0  0.39015  0.32758  0.51900  1.0000
  H   H368      1.0  0.28304  0.41546  0.65828  1.0000
  C   C212      1.0  0.34577  0.05903  0.63145  1.0000
  C   C213      1.0  0.32228  0.03559  0.64091  1.0000
  C   C214      1.0  0.31575  0.04024  0.65855  1.0000
  C   C215      1.0  0.33300  0.06836  0.66717  1.0000
  C   C216      1.0  0.35675  0.09177  0.65776  1.0000
  C   C217      1.0  0.36292  0.08730  0.64000  1.0000
  H   H369      1.0  0.30891  0.01358  0.63453  1.0000
  H   H370      1.0  0.29745  0.02195  0.66550  1.0000
  H   H371      1.0  0.37062  0.11347  0.66431  1.0000
  H   H372      1.0  0.38135  0.10543  0.63307  1.0000
  C   C218      1.0  0.36327  0.02306  0.50059  1.0000
  C   C219      1.0  0.39073  0.02728  0.66731  1.0000
  C   C220      1.0  0.38072  0.45972  0.51046  1.0000
  H   H373      1.0  0.24266  0.40474  0.73684  1.0000
  C   C221      1.0  0.19461  0.29714  0.68812  1.0000
  H   H374      1.0  0.25817  0.38116  0.64604  1.0000
  H   H375      1.0  0.40705  0.38967  0.51617  1.0000
  C   C222      1.0  0.48094  0.14543  0.61604  1.0000
  C   C223      1.0  0.40421  0.04434  0.65025  1.0000
  C   C224      1.0  0.42631  0.19610  0.61339  1.0000
  C   C225      1.0  0.38587  0.18625  0.66722  1.0000
  H   H376      1.0  0.06918  0.33100  0.49231  1.0000
  S   S72       1.0  0.29779  0.07752  0.73594  1.0000
  C   C226      1.0  0.33524  0.32357  0.64426  1.0000
  C   C227      1.0  0.34360  0.35329  0.65009  1.0000
  C   C228      1.0  0.33506  0.35864  0.66707  1.0000
  C   C229      1.0  0.31847  0.33452  0.67863  1.0000
  C   C230      1.0  0.31033  0.30481  0.67287  1.0000
  C   C231      1.0  0.31848  0.29941  0.65579  1.0000
  H   H377      1.0  0.35630  0.37213  0.64143  1.0000
  H   H378      1.0  0.34144  0.38171  0.67130  1.0000
  H   H379      1.0  0.29741  0.28597  0.68149  1.0000
  H   H380      1.0  0.31170  0.27632  0.65144  1.0000
  C   C232      1.0  0.39647  0.20204  0.56031  1.0000
  C   C233      1.0  0.42717  0.21692  0.56560  1.0000
  C   C234      1.0  0.44151  0.24823  0.57009  1.0000
  C   C235      1.0  0.42512  0.26473  0.56981  1.0000
  C   C236      1.0  0.39417  0.24955  0.56517  1.0000
  C   C237      1.0  0.38013  0.21861  0.56001  1.0000
  H   H381      1.0  0.44005  0.20449  0.56584  1.0000
  H   H382      1.0  0.46547  0.25974  0.57371  1.0000
  H   H383      1.0  0.38118  0.26176  0.56550  1.0000
  H   H384      1.0  0.35639  0.20735  0.55591  1.0000
  H   H385      1.0  0.07790  0.25793  0.73435  1.0000
  C   C238      1.0  0.33432  0.36949  0.50327  1.0000
  C   C239      1.0  0.35849  0.37228  0.51433  1.0000
  C   C240      1.0  0.38821  0.38742  0.50790  1.0000
  C   C241      1.0  0.31064  0.22820  0.60585  1.0000
  H   H386      1.0  0.18089  0.28844  0.67561  1.0000
  H   H387      1.0  0.31887  0.26659  0.49677  1.0000
  H   H388      1.0  0.34806  0.29902  0.53737  1.0000
  H   H389      1.0  0.32915  0.13072  0.70767  1.0000
  C   C242      1.0  0.34505  0.27671  0.53234  1.0000
  H   H390      1.0  0.34065  0.17164  0.58067  1.0000
  C   C243      1.0  0.35858  0.16439  0.67799  1.0000
  H   H391      1.0  0.37837  0.19568  0.65612  1.0000
  H   H392      1.0  0.03859  0.48425  0.56353  1.0000
  H   H393      1.0  0.04420  0.37199  0.50740  1.0000
  H   H394      1.0  0.22257  0.33511  0.66237  1.0000
  H   H395      1.0  0.40157  0.31060  0.50209  1.0000
  H   H396      1.0  0.29632  0.25896  0.52513  1.0000
  H   H397      1.0  0.45417  0.04047  0.51068  1.0000
  H   H398      1.0  0.40875  0.00341  0.58418  1.0000
  C   C244      1.0  0.18278  0.33898  0.68546  1.0000
  H   H399      1.0  0.36741  0.15584  0.68889  1.0000
  H   H400      1.0  0.99696  0.46905  0.50789  1.0000
  H   H401      1.0  0.27963  0.12072  0.61958  1.0000
  H   H402      1.0  0.36862  0.06801  0.49694  1.0000
  H   H403      1.0  0.14586  0.36048  0.70256  1.0000
  H   H404      1.0  0.37949  0.20536  0.60024  1.0000
  C   C245      1.0  0.29735  0.12677  0.63003  1.0000
  C   C246      1.0  0.22209  0.37116  0.71560  1.0000
  C   C247      1.0  0.29789  0.13152  0.58549  1.0000
  H   H405      1.0  0.40626  0.03874  0.67879  1.0000
  C   C248      1.0  0.35732  0.25024  0.50903  1.0000
  H   H406      1.0  0.38721  0.21590  0.50161  1.0000
  N   N14       1.0  0.33819  0.16634  0.60903  1.0000
  C   C249      1.0  0.29006  0.09780  0.64014  1.0000
  H   H407      1.0  0.47386  0.03374  0.62814  1.0000
  H   H408      1.0  0.43415  0.21670  0.60514  1.0000
  H   H409      1.0  0.26355  0.10419  0.70711  1.0000
  C   C250      1.0  0.33158  0.15317  0.59045  1.0000
  H   H410      1.0  0.38741  0.03249  0.63940  1.0000
  H   H411      1.0  0.26310  0.39039  0.68651  1.0000
  H   H412      1.0  0.40237  0.20529  0.67582  1.0000
  H   H413      1.0  0.37743  0.20034  0.62361  1.0000
  H   H414      1.0  0.39288  0.16588  0.59467  1.0000
  H   H415      1.0  0.17847  0.28607  0.69914  1.0000
  H   H416      1.0  0.33004  0.30143  0.50849  1.0000
  H   H417      1.0  0.32413  0.20491  0.58674  1.0000
  N   N15       1.0  0.31400  0.16150  0.69680  1.0000
  C   C251      1.0  0.30122  0.18143  0.70399  1.0000
  C   C252      1.0  0.34042  0.18033  0.68503  1.0000
  C   C253      1.0  0.29037  0.13503  0.68601  1.0000
  C   C254      1.0  0.25978  0.11515  0.69533  1.0000
  C   C255      1.0  0.28692  0.19388  0.69010  1.0000
  C   C256      1.0  0.23751  0.08977  0.68293  1.0000
  C   C257      1.0  0.27390  0.21280  0.69903  1.0000
  H   H418      1.0  0.31929  0.20168  0.71112  1.0000
  H   H419      1.0  0.28389  0.16926  0.71420  1.0000
  H   H420      1.0  0.35657  0.20202  0.69189  1.0000
  H   H421      1.0  0.33227  0.18738  0.67309  1.0000
  H   H422      1.0  0.28533  0.14290  0.67329  1.0000
  H   H423      1.0  0.24850  0.12865  0.69963  1.0000
  H   H424      1.0  0.06804  0.35916  0.51865  1.0000
  H   H425      1.0  0.30431  0.20893  0.68066  1.0000
  H   H426      1.0  0.26805  0.17516  0.68252  1.0000
  H   H427      1.0  0.23184  0.09943  0.67117  1.0000
  H   H428      1.0  0.24736  0.07497  0.67853  1.0000
  H   H429      1.0  0.21612  0.07551  0.69010  1.0000
  H   H430      1.0  0.25460  0.19828  0.70762  1.0000
  H   H431      1.0  0.29168  0.23163  0.70721  1.0000
  H   H432      1.0  0.26534  0.22287  0.68882  1.0000
  H   H433      1.0  0.19058  0.36372  0.68688  1.0000
  H   H434      1.0  0.28587  0.21250  0.60408  1.0000
  C   C258      1.0  0.12217  0.25976  0.73676  1.0000
  H   H435      1.0  0.46820  0.10465  0.64193  1.0000
  H   H436      1.0  0.32724  0.19373  0.62692  1.0000
  S   S73       1.0  0.28647  0.00864  0.72787  1.0000
  H   H437      1.0  0.45324  0.32298  0.51240  1.0000
  H   H438      1.0  0.00131  0.47291  0.57226  1.0000
  C   C259      1.0  0.46894  0.46200  0.52374  1.0000
  C   C260      1.0  0.41247  0.30229  0.52852  1.0000
  H   H439      1.0  0.38956  0.44888  0.52002  1.0000
  C   C261      1.0  0.47209  0.99631  0.54253  1.0000
  N   N16       1.0  0.35842  0.28014  0.51411  1.0000
  H   H440      1.0  0.00852  0.31996  0.64179  1.0000
  C   C262      1.0  0.44555  0.32617  0.52566  1.0000
  Fe  Fe37      1.0  0.23567  0.99334  0.72800  1.0000
  H   H441      1.0  0.30487  0.13768  0.72151  1.0000
  H   H442      1.0  0.16177  0.39275  0.49034  1.0000
  H   H443      1.0  0.38666  0.15317  0.61722  1.0000
  H   H444      1.0  0.40024  0.99838  0.62450  1.0000
  C   C263      1.0  0.24249  0.38348  0.73212  1.0000
  H   H445      1.0  0.27562  0.23590  0.55388  1.0000
  H   H446      1.0  0.31686  0.24816  0.59724  1.0000
  C   C264      1.0  0.14255  0.36948  0.49183  1.0000
  C   C265      1.0  0.01660  0.40954  0.49943  1.0000
  C   C266      1.0  0.32394  0.14907  0.71219  1.0000
  H   H447      1.0  0.40662  0.30525  0.54231  1.0000
  H   H448      1.0  0.41135  0.27962  0.52719  1.0000
  H   H449      1.0  0.45090  0.05918  0.65770  1.0000
  S   S74       1.0  0.00171  0.26458  0.72448  1.0000
  C   C267      1.0  0.23241  0.34501  0.67569  1.0000
  H   H450      1.0  0.42851  0.20289  0.62762  1.0000
  C   C268      1.0  0.33006  0.14132  0.62243  1.0000
  H   H451      1.0  0.31340  0.24663  0.56235  1.0000
  H   H452      1.0  0.37207  0.18449  0.71524  1.0000
  H   H453      1.0  0.36575  0.24167  0.52022  1.0000
  C   C269      1.0  0.45610  0.09293  0.62942  1.0000
  C   C270      1.0  0.39059  0.30608  0.51521  1.0000
  H   H454      1.0  0.44134  0.18571  0.61082  1.0000
  H   H455      1.0  0.30827  0.11135  0.56244  1.0000
  S   S75       1.0  0.46449  0.44890  0.59057  1.0000
  C   C271      1.0  0.47412  0.11233  0.61354  1.0000
  C   C272      1.0  0.39332  0.17316  0.60866  1.0000
  H   H456      1.0  0.34554  0.14989  0.63427  1.0000
  H   H457      1.0  0.28810  0.38217  0.66032  1.0000
  H   H458      1.0  0.29936  0.11918  0.68219  1.0000
  C   C273      1.0  0.21757  0.28438  0.68849  1.0000
  C   C274      1.0  0.20114  0.24978  0.69034  1.0000
  H   H459      1.0  0.24566  0.34529  0.70843  1.0000
  H   H460      1.0  0.23411  0.29477  0.69963  1.0000
  H   H461      1.0  0.23035  0.28930  0.67591  1.0000
  H   H462      1.0  0.18407  0.23881  0.67945  1.0000
  H   H463      1.0  0.21792  0.24106  0.68966  1.0000
  H   H464      1.0  0.18949  0.24335  0.70328  1.0000
  H   H465      1.0  0.02888  0.43135  0.50620  1.0000
  C   C275      1.0  0.35148  0.17262  0.72342  1.0000
  H   H466      1.0  0.13815  0.32517  0.49867  1.0000
  H   H467      1.0  0.12862  0.36946  0.50323  1.0000
  C   C276      1.0  0.40521  0.47776  0.49696  1.0000
  H   H468      1.0  0.11262  0.32388  0.70401  1.0000
  H   H469      1.0  0.15939  0.31999  0.71060  1.0000
  C   C277      1.0  0.00372  0.47484  0.54338  1.0000
  H   H470      1.0  0.44453  0.45581  0.52188  1.0000
  H   H471      1.0  0.33387  0.12264  0.61674  1.0000
  H   H472      1.0  0.37630  0.00168  0.59582  1.0000
  C   C278      1.0  0.37204  0.18777  0.61066  1.0000
  H   H473      1.0  0.47102  0.06814  0.49350  1.0000
  H   H474      1.0  0.13976  0.29825  0.69125  1.0000
  H   H475      1.0  0.30206  0.14341  0.55750  1.0000
  H   H476      1.0  0.34628  0.18990  0.72959  1.0000
  H   H477      1.0  0.43300  0.00197  0.61268  1.0000
  H   H478      1.0  0.27021  0.10699  0.56246  1.0000
  H   H479      1.0  0.30676  0.22997  0.53061  1.0000
  H   H480      1.0  0.29686  0.17039  0.61234  1.0000
  H   H481      1.0  0.44810  0.34949  0.52679  1.0000
  H   H482      1.0  0.39763  0.17395  0.66163  1.0000
  C   C279      1.0  0.42863  0.04403  0.61357  1.0000
  C   C280      1.0  0.45011  0.04747  0.49743  1.0000
  H   H483      1.0  0.35365  0.22975  0.60213  1.0000
  C   C281      1.0  0.47860  0.05775  0.62676  1.0000
  H   H484      1.0  0.43104  0.05304  0.49855  1.0000
  H   H485      1.0  0.36019  0.44145  0.50370  1.0000
  Fe  Fe38      1.0  0.24697  0.05798  0.73532  1.0000
  H   H486      1.0  0.23285  0.38926  0.67239  1.0000
  H   H487      1.0  0.40949  0.04959  0.61300  1.0000
  H   H488      1.0  0.44078  0.05247  0.60090  1.0000
  H   H489      1.0  0.28968  0.11006  0.59291  1.0000
  H   H490      1.0  0.28313  0.14212  0.58815  1.0000
  H   H491      1.0  0.34386  0.13982  0.58790  1.0000
  N   N17       1.0  0.20814  0.33140  0.68959  1.0000
  H   H492      1.0  0.34392  0.14485  0.66918  1.0000
  H   H493      1.0  0.31548  0.23668  0.61982  1.0000
  H   H494      1.0  0.20964  0.32382  0.71789  1.0000
  H   H495      1.0  0.29165  0.08060  0.63132  1.0000
  H   H496      1.0  0.11373  0.23627  0.73261  1.0000
  H   H497      1.0  0.29533  0.14305  0.63941  1.0000
  H   H498      1.0  0.12682  0.33925  0.68251  1.0000
  C   C282      1.0  0.32936  0.21229  0.60084  1.0000
  C   C283      1.0  0.32194  0.18476  0.61301  1.0000
  H   H499      1.0  0.43327  0.02280  0.64740  1.0000
  H   H500      1.0  0.26629  0.38876  0.72911  1.0000
  C   C284      1.0  0.27085  0.39022  0.65877  1.0000
  C   C285      1.0  0.29446  0.12286  0.56577  1.0000
  H   H501      1.0  0.45951  0.14684  0.61769  1.0000
  H   H502      1.0  0.36861  0.02695  0.66981  1.0000
  C   C286      1.0  0.13360  0.33742  0.69633  1.0000
  C   C287      1.0  0.31079  0.25331  0.53397  1.0000
  H   H503      1.0  0.17559  0.33364  0.67125  1.0000
  H   H504      1.0  0.35742  0.26968  0.54193  1.0000
  H   H505      1.0  0.30271  0.27560  0.55682  1.0000
  C   C288      1.0  0.30007  0.25289  0.55294  1.0000
  H   H506      1.0  0.00210  0.30782  0.67389  1.0000
  C   C289      1.0  0.39488  0.99530  0.59630  1.0000
  H   H507      1.0  0.26652  0.08779  0.64528  1.0000
  N   N18       1.0  0.44975  0.06021  0.62907  1.0000
  H   H508      1.0  0.40666  0.06752  0.65197  1.0000
  H   H509      1.0  0.46542  0.43591  0.63033  1.0000
  H   H510      1.0  0.17054  0.35732  0.50869  1.0000
  H   H511      1.0  0.00995  0.44496  0.56188  1.0000
  C   C290      1.0  0.06170  0.34840  0.49030  1.0000
  H   H512      1.0  0.47078  0.44852  0.53489  1.0000
  H   H513      1.0  0.46526  0.01375  0.53878  1.0000
  S   S76       1.0  0.22144  0.08524  0.73753  1.0000
  H   H514      1.0  0.46058  0.10340  0.60110  1.0000
  C   C291      1.0  0.37465  0.24981  0.49221  1.0000
  C   C292      1.0  0.37503  0.21943  0.49019  1.0000
  H   H515      1.0  0.10146  0.39261  0.49471  1.0000
  H   H516      1.0  0.46042  0.32374  0.53589  1.0000
  S   S77       1.0  0.98800  0.38967  0.53154  1.0000
  C   C293      1.0  0.35953  0.15709  0.73835  1.0000
  H   H517      1.0  0.02962  0.33223  0.51194  1.0000
  C   C294      1.0  0.99441  0.38457  0.50869  1.0000
  H   H518      1.0  0.33333  0.23235  0.50676  1.0000
  H   H519      1.0  0.39871  0.26790  0.49265  1.0000
  H   H520      1.0  0.36482  0.13933  0.73289  1.0000
  C   C295      1.0  0.05026  0.35332  0.50815  1.0000
  C   C296      1.0  0.10176  0.27199  0.73774  1.0000
  H   H521      1.0  0.20588  0.13360  0.73425  1.0000
  C   C297      1.0  0.01386  0.46879  0.56139  1.0000
  H   H522      1.0  0.47689  0.45584  0.51139  1.0000
  H   H523      1.0  0.41243  0.46185  0.49096  1.0000
  H   H524      1.0  0.38656  0.00338  0.66612  1.0000
  C   C298      1.0  0.15638  0.34875  0.49639  1.0000
  H   H525      1.0  0.01754  0.47072  0.53334  1.0000
  H   H526      1.0  0.47668  0.99800  0.55706  1.0000
  C   C299      1.0  0.41484  0.00885  0.61291  1.0000
  C   C300      1.0  0.99042  0.32124  0.64893  1.0000
  C   C301      1.0  0.36272  0.04630  0.49062  1.0000
  H   H527      1.0  0.47829  0.33857  0.65148  1.0000
  C   C302      1.0  0.98689  0.31441  0.66718  1.0000
  C   C303      1.0  0.35553  0.99500  0.49200  1.0000
  H   H528      1.0  0.48318  0.45360  0.65120  1.0000
  C   C304      1.0  0.22895  0.14334  0.73948  1.0000
  H   H529      1.0  0.35286  0.26237  0.86808  1.0000
  H   H530      1.0  0.25633  0.41809  0.96128  1.0000
  H   H531      1.0  0.43449  0.32059  0.84057  1.0000
  C   C305      1.0  0.28044  0.05461  0.93902  1.0000
  C   C306      1.0  0.11638  0.26182  0.78963  1.0000
  S   S78       1.0  0.00628  0.27596  0.76827  1.0000
  Fe  Fe39      1.0  0.28843  0.31769  0.76612  1.0000
  S   S79       1.0  0.25226  0.26889  0.76806  1.0000
  S   S80       1.0  0.31321  0.35025  0.78951  1.0000
  S   S81       1.0  0.26369  0.32823  0.74419  1.0000
  H   H532      1.0  0.11280  0.31125  0.78117  1.0000
  S   S82       1.0  0.31676  0.30832  0.74644  1.0000
  C   C307      1.0  0.37166  0.12451  0.95933  1.0000
  H   H533      1.0  0.39246  0.27639  0.78251  1.0000
  Fe  Fe40      1.0  0.28919  0.03688  0.75227  1.0000
  S   S83       1.0  0.23823  0.01898  0.75326  1.0000
  S   S84       1.0  0.32165  0.03958  0.77501  1.0000
  C   C308      1.0  0.98432  0.42216  0.83116  1.0000
  C   C309      1.0  0.04140  0.41504  0.88457  1.0000
  Fe  Fe41      1.0  0.42951  0.37634  0.91468  1.0000
  S   S85       1.0  0.39149  0.38721  0.90786  1.0000
  H   H534      1.0  0.41602  0.48308  0.97913  1.0000
  Fe  Fe42      1.0  0.38525  0.30993  0.92328  1.0000
  S   S86       1.0  0.34475  0.31715  0.91778  1.0000
  S   S87       1.0  0.37349  0.26180  0.93173  1.0000
  Fe  Fe43      1.0  0.36938  0.34146  0.89326  1.0000
  S   S88       1.0  0.33954  0.31999  0.86816  1.0000
  Fe  Fe44      1.0  0.36973  0.36161  0.93287  1.0000
  S   S89       1.0  0.34609  0.37954  0.95229  1.0000
  S   S90       1.0  0.40920  0.33249  0.89842  1.0000
  S   S91       1.0  0.40850  0.35269  0.94017  1.0000
  Fe  Fe45      1.0  0.37475  0.08291  0.87942  1.0000
  S   S92       1.0  0.42492  0.11544  0.87811  1.0000
  S   S93       1.0  0.33950  0.07768  0.85774  1.0000
  Fe  Fe46      1.0  0.38029  0.07209  0.91994  1.0000
  S   S94       1.0  0.43040  0.10495  0.92106  1.0000
  S   S95       1.0  0.35118  0.04307  0.94280  1.0000
  Fe  Fe47      1.0  0.41852  0.13481  0.90388  1.0000
  S   S96       1.0  0.43958  0.18630  0.90561  1.0000
  Fe  Fe48      1.0  0.43246  0.08287  0.89531  1.0000
  C   C310      1.0  0.14337  0.32007  0.74760  1.0000
  S   S97       1.0  0.36835  0.10384  0.90470  1.0000
  S   S98       1.0  0.38240  0.04840  0.89475  1.0000
  C   C311      1.0  0.04499  0.42338  0.86500  1.0000
  H   H535      1.0  0.02388  0.21881  0.75605  1.0000
  C   C312      1.0  0.24209  0.12438  0.74278  1.0000
  C   C313      1.0  0.35786  0.03654  0.96526  1.0000
  H   H536      1.0  0.38641  0.36982  0.79609  1.0000
  H   H537      1.0  0.35383  0.26057  0.77562  1.0000
  C   C314      1.0  0.02660  0.41055  0.82676  1.0000
  H   H538      1.0  0.30706  0.13677  0.81561  1.0000
  C   C315      1.0  0.39187  0.24114  0.92394  1.0000
  C   C316      1.0  0.41869  0.25489  0.91423  1.0000
  C   C317      1.0  0.43297  0.23774  0.90868  1.0000
  C   C318      1.0  0.42038  0.20666  0.91255  1.0000
  C   C319      1.0  0.39328  0.19277  0.92201  1.0000
  C   C320      1.0  0.37918  0.21000  0.92773  1.0000
  H   H539      1.0  0.42869  0.27885  0.91128  1.0000
  H   H540      1.0  0.45401  0.24868  0.90144  1.0000
  H   H541      1.0  0.38337  0.16888  0.92497  1.0000
  H   H542      1.0  0.35835  0.19933  0.93512  1.0000
  C   C321      1.0  0.35143  0.38530  0.97574  1.0000
  H   H543      1.0  0.38114  0.36530  0.97866  1.0000
  C   C322      1.0  0.16376  0.30781  0.74664  1.0000
  N   N19       1.0  0.34300  0.12071  0.96814  1.0000
  H   H544      1.0  0.47231  0.44700  0.89129  1.0000
  H   H545      1.0  0.34013  0.13074  0.81445  1.0000
  C   C323      1.0  0.32644  0.05102  0.79789  1.0000
  C   C324      1.0  0.35048  0.05078  0.80778  1.0000
  C   C325      1.0  0.35495  0.05894  0.82600  1.0000
  C   C326      1.0  0.33526  0.06731  0.83469  1.0000
  C   C327      1.0  0.31115  0.06750  0.82482  1.0000
  C   C328      1.0  0.30684  0.05959  0.80655  1.0000
  H   H546      1.0  0.36585  0.04425  0.80128  1.0000
  H   H547      1.0  0.37360  0.05865  0.83333  1.0000
  H   H548      1.0  0.29572  0.07391  0.83134  1.0000
  H   H549      1.0  0.28839  0.06014  0.79919  1.0000
  H   H550      1.0  0.36954  0.19431  0.77603  1.0000
  N   N20       1.0  0.45713  0.02776  0.94889  1.0000
  H   H551      1.0  0.46952  0.45116  0.98572  1.0000
  H   H552      1.0  0.47199  0.11654  0.95573  1.0000
  H   H553      1.0  0.98598  0.43646  0.81956  1.0000
  C   C329      1.0  0.31892  0.34198  0.81176  1.0000
  C   C330      1.0  0.30173  0.31315  0.81895  1.0000
  C   C331      1.0  0.30792  0.30728  0.83638  1.0000
  C   C332      1.0  0.33156  0.32992  0.84682  1.0000
  C   C333      1.0  0.34850  0.35886  0.83972  1.0000
  C   C334      1.0  0.34201  0.36488  0.82237  1.0000
  H   H554      1.0  0.28367  0.29541  0.81109  1.0000
  H   H555      1.0  0.29442  0.28492  0.84180  1.0000
  H   H556      1.0  0.36668  0.37658  0.84755  1.0000
  H   H557      1.0  0.35532  0.38735  0.81704  1.0000
  H   H558      1.0  0.38004  0.23040  0.80156  1.0000
  S   S99       1.0  0.46607  0.06437  0.89091  1.0000
  H   H559      1.0  0.02899  0.36959  0.98595  1.0000
  H   H560      1.0  0.32113  0.23639  0.88122  1.0000
  C   C335      1.0  0.02266  0.20649  0.76846  1.0000
  C   C336      1.0  0.30687  0.08637  0.94288  1.0000
  H   H561      1.0  0.33765  0.15895  0.80089  1.0000
  H   H562      1.0  0.41235  0.33812  0.79928  1.0000
  C   C337      1.0  0.36878  0.26224  0.78714  1.0000
  H   H563      1.0  0.37128  0.00147  0.92335  1.0000
  C   C338      1.0  0.36527  0.23008  0.79039  1.0000
  C   C339      1.0  0.38991  0.45596  0.92747  1.0000
  H   H564      1.0  0.35583  0.26406  0.89188  1.0000
  N   N21       1.0  0.36265  0.27758  0.80276  1.0000
  C   C340      1.0  0.33200  0.25730  0.81064  1.0000
  C   C341      1.0  0.38692  0.28458  0.81685  1.0000
  C   C342      1.0  0.36294  0.30632  0.79647  1.0000
  C   C343      1.0  0.30429  0.24445  0.79761  1.0000
  C   C344      1.0  0.38693  0.30463  0.83279  1.0000
  C   C345      1.0  0.41152  0.30909  0.84651  1.0000
  C   C346      1.0  0.27460  0.22498  0.80724  1.0000
  H   H565      1.0  0.32684  0.26984  0.82114  1.0000
  H   H566      1.0  0.33225  0.23776  0.81746  1.0000
  H   H567      1.0  0.41004  0.29569  0.81100  1.0000
  H   H568      1.0  0.35578  0.31676  0.80724  1.0000
  H   H569      1.0  0.34587  0.30117  0.78560  1.0000
  H   H570      1.0  0.34136  0.21357  0.79340  1.0000
  H   H571      1.0  0.30183  0.26294  0.79105  1.0000
  H   H572      1.0  0.30656  0.22978  0.78730  1.0000
  H   H573      1.0  0.39143  0.32756  0.82850  1.0000
  H   H574      1.0  0.36481  0.29393  0.83963  1.0000
  H   H575      1.0  0.40740  0.28690  0.85199  1.0000
  H   H576      1.0  0.41094  0.32362  0.85763  1.0000
  H   H577      1.0  0.25526  0.21614  0.79754  1.0000
  H   H578      1.0  0.27529  0.20530  0.81354  1.0000
  H   H579      1.0  0.27052  0.23874  0.81750  1.0000
  H   H580      1.0  0.40544  0.42497  0.95444  1.0000
  Fe  Fe49      1.0  0.03487  0.29854  0.74449  1.0000
  H   H581      1.0  0.26027  0.05072  0.94695  1.0000
  C   C347      1.0  0.47092  0.05967  0.95671  1.0000
  C   C348      1.0  0.43052  0.02271  0.93691  1.0000
  C   C349      1.0  0.05374  0.22049  0.77791  1.0000
  H   H582      1.0  0.01416  0.38611  0.83045  1.0000
  C   C350      1.0  0.02310  0.41140  0.80629  1.0000
  C   C351      1.0  0.28859  0.16856  0.75269  1.0000
  C   C352      1.0  0.45378  0.44140  0.97411  1.0000
  H   H583      1.0  0.39909  0.23223  0.77149  1.0000
  H   H584      1.0  0.28103  0.16958  0.96589  1.0000
  N   N22       1.0  0.09154  0.26914  0.79543  1.0000
  C   C353      1.0  0.06558  0.25480  0.78209  1.0000
  C   C354      1.0  0.10462  0.30331  0.79478  1.0000
  C   C355      1.0  0.08209  0.25764  0.81401  1.0000
  C   C356      1.0  0.04867  0.24823  0.81918  1.0000
  H   H585      1.0  0.04944  0.22388  0.84287  1.0000
  C   C357      1.0  0.08322  0.31648  0.80020  1.0000
  C   C358      1.0  0.04394  0.24219  0.83902  1.0000
  H   H586      1.0  0.05172  0.20761  0.79015  1.0000
  H   H587      1.0  0.07227  0.26668  0.76926  1.0000
  H   H588      1.0  0.04595  0.25787  0.78617  1.0000
  H   H589      1.0  0.12224  0.26822  0.77554  1.0000
  H   H590      1.0  0.10804  0.23683  0.78964  1.0000
  H   H591      1.0  0.08518  0.23722  0.81636  1.0000
  H   H592      1.0  0.03261  0.22697  0.81202  1.0000
  H   H593      1.0  0.04198  0.26585  0.81594  1.0000
  C   C359      1.0  0.44796  0.00602  0.96416  1.0000
  H   H594      1.0  0.02966  0.48006  0.86070  1.0000
  H   H595      1.0  0.06124  0.30537  0.79281  1.0000
  H   H596      1.0  0.07895  0.31378  0.81464  1.0000
  H   H597      1.0  0.10159  0.35445  0.78199  1.0000
  H   H598      1.0  0.44893  0.20288  0.86714  1.0000
  H   H599      1.0  0.03267  0.43496  0.80143  1.0000
  Fe  Fe50      1.0  0.22923  0.27879  0.74479  1.0000
  C   C360      1.0  0.27592  0.18769  0.74874  1.0000
  H   H600      1.0  0.43881  0.03173  0.92349  1.0000
  H   H601      1.0  0.37496  0.10423  0.96147  1.0000
  H   H602      1.0  0.32319  0.07179  0.96524  1.0000
  H   H603      1.0  0.38450  0.26314  0.82260  1.0000
  N   N23       1.0  0.01580  0.42909  0.83777  1.0000
  C   C361      1.0  0.47895  0.40843  0.96812  1.0000
  C   C362      1.0  0.27169  0.13700  0.74980  1.0000
  H   H604      1.0  0.06979  0.21756  0.76892  1.0000
  C   C363      1.0  0.42178  0.44916  0.95191  1.0000
  H   H605      1.0  0.41923  0.03608  0.94172  1.0000
  C   C364      1.0  0.22510  0.99707  0.80261  1.0000
  N   N24       1.0  0.35567  0.17888  0.86286  1.0000
  C   C365      1.0  0.33934  0.15797  0.84730  1.0000
  C   C366      1.0  0.34702  0.16021  0.87945  1.0000
  C   C367      1.0  0.34655  0.20375  0.86372  1.0000
  C   C368      1.0  0.38983  0.19343  0.86104  1.0000
  C   C369      1.0  0.40301  0.17125  0.85759  1.0000
  C   C370      1.0  0.34812  0.17222  0.82869  1.0000
  C   C371      1.0  0.35896  0.22580  0.88000  1.0000
  C   C372      1.0  0.31356  0.14788  0.88543  1.0000
  C   C373      1.0  0.30767  0.12920  0.90222  1.0000
  C   C374      1.0  0.43750  0.18870  0.85517  1.0000
  C   C375      1.0  0.33220  0.14816  0.81407  1.0000
  C   C376      1.0  0.34636  0.24843  0.88020  1.0000
  H   H606      1.0  0.31431  0.14913  0.84830  1.0000
  H   H607      1.0  0.34241  0.13724  0.84755  1.0000
  H   H608      1.0  0.35079  0.14003  0.87772  1.0000
  H   H609      1.0  0.36223  0.17336  0.89073  1.0000
  H   H610      1.0  0.32128  0.19390  0.86315  1.0000
  H   H611      1.0  0.35476  0.21833  0.85186  1.0000
  H   H612      1.0  0.39776  0.21074  0.85047  1.0000
  H   H613      1.0  0.40139  0.20638  0.87340  1.0000
  H   H614      1.0  0.39299  0.15701  0.84549  1.0000
  H   H615      1.0  0.39855  0.15599  0.86901  1.0000
  H   H616      1.0  0.34111  0.19012  0.82701  1.0000
  H   H617      1.0  0.37298  0.18240  0.82651  1.0000
  H   H618      1.0  0.38418  0.23920  0.87969  1.0000
  H   H619      1.0  0.35257  0.21341  0.89264  1.0000
  H   H620      1.0  0.30827  0.16667  0.88845  1.0000
  H   H621      1.0  0.29735  0.13289  0.87503  1.0000
  H   H622      1.0  0.28399  0.12162  0.90663  1.0000
  H   H623      1.0  0.31041  0.10867  0.89956  1.0000
  H   H624      1.0  0.32365  0.14308  0.91305  1.0000
  H   H625      1.0  0.44651  0.17234  0.85312  1.0000
  H   H626      1.0  0.44316  0.20352  0.84344  1.0000
  C   C377      1.0  0.03243  0.48548  0.84642  1.0000
  H   H627      1.0  0.11965  0.36321  0.80377  1.0000
  C   C378      1.0  0.09764  0.35049  0.79643  1.0000
  H   H628      1.0  0.45787  0.99005  0.91826  1.0000
  H   H629      1.0  0.09734  0.27500  0.82394  1.0000
  C   C379      1.0  0.31703  0.09012  0.96266  1.0000
  C   C380      1.0  0.38550  0.05448  0.97428  1.0000
  H   H630      1.0  0.06186  0.46657  0.83827  1.0000
  C   C381      1.0  0.37436  0.21818  0.77398  1.0000
  C   C382      1.0  0.39369  0.33113  0.78929  1.0000
  H   H631      1.0  0.03131  0.37261  0.80145  1.0000
  H   H632      1.0  0.06450  0.40939  0.79905  1.0000
  C   C383      1.0  0.14611  0.27564  0.80129  1.0000
  H   H633      1.0  0.40404  0.07265  0.96744  1.0000
  H   H634      1.0  0.12508  0.31499  0.80356  1.0000
  H   H635      1.0  0.40007  0.32283  0.77716  1.0000
  H   H636      1.0  0.34033  0.14639  0.74769  1.0000
  H   H637      1.0  0.36129  0.21879  0.76212  1.0000
  H   H638      1.0  0.17900  0.28952  0.78001  1.0000
  H   H639      1.0  0.08201  0.35941  0.80065  1.0000
  H   H640      1.0  0.15170  0.25719  0.80477  1.0000
  N   N25       1.0  0.44258  0.46310  0.96785  1.0000
  C   C384      1.0  0.01200  0.37709  0.98758  1.0000
  H   H641      1.0  0.28719  0.03687  0.94215  1.0000
  C   C385      1.0  0.17357  0.29990  0.79163  1.0000
  H   H642      1.0  0.16910  0.31852  0.78708  1.0000
  H   H643      1.0  0.14374  0.28529  0.81410  1.0000
  H   H644      1.0  0.27402  0.05236  0.92473  1.0000
  H   H645      1.0  0.05112  0.41798  0.82959  1.0000
  H   H646      1.0  0.45310  0.06345  0.96340  1.0000
  H   H647      1.0  0.19382  0.30977  0.80067  1.0000
  H   H648      1.0  0.03471  0.39498  0.78227  1.0000
  C   C386      1.0  0.33709  0.14638  0.96247  1.0000
  H   H649      1.0  0.31246  0.99922  0.96777  1.0000
  H   H650      1.0  0.42655  0.15526  0.94110  1.0000
  C   C387      1.0  0.39146  0.35963  0.78426  1.0000
  H   H651      1.0  0.06329  0.44725  0.86417  1.0000
  H   H652      1.0  0.34546  0.99427  0.76849  1.0000
  H   H653      1.0  0.32286  0.40689  0.97753  1.0000
  C   C388      1.0  0.11217  0.30221  0.74332  1.0000
  H   H654      1.0  0.29667  0.08435  0.97092  1.0000
  H   H655      1.0  0.28164  0.12244  0.75284  1.0000
  H   H656      1.0  0.32176  0.19316  0.96517  1.0000
  H   H657      1.0  0.33819  0.14848  0.94780  1.0000
  C   C389      1.0  0.33399  0.01320  0.97454  1.0000
  C   C390      1.0  0.36990  0.37640  0.98543  1.0000
  H   H658      1.0  0.47248  0.08206  0.93142  1.0000
  H   H659      1.0  0.36952  0.12543  0.94471  1.0000
  C   C391      1.0  0.03948  0.39619  0.79676  1.0000
  H   H660      1.0  0.35539  0.16856  0.96767  1.0000
  H   H661      1.0  0.03510  0.43029  0.89229  1.0000
  C   C392      1.0  0.42705  0.00985  0.97799  1.0000
  H   H662      1.0  0.01523  0.18228  0.76497  1.0000
  H   H663      1.0  0.99839  0.30771  0.81317  1.0000
  C   C393      1.0  0.99228  0.37407  0.97319  1.0000
  S   S100      1.0  0.29929  0.22733  0.75046  1.0000
  H   H664      1.0  0.01973  0.23483  0.84222  1.0000
  C   C394      1.0  0.01463  0.41951  0.85681  1.0000
  H   H665      1.0  0.31164  0.17815  0.75778  1.0000
  H   H666      1.0  0.23848  0.00117  0.81514  1.0000
  H   H667      1.0  0.37658  0.46782  0.92393  1.0000
  H   H668      1.0  0.99416  0.36424  0.96072  1.0000
  Fe  Fe51      1.0  0.27962  0.25984  0.74746  1.0000
  H   H669      1.0  0.29910  0.10303  0.93913  1.0000
  H   H670      1.0  0.43141  0.13383  0.95898  1.0000
  H   H671      1.0  0.43446  0.44791  0.94019  1.0000
  C   C395      1.0  0.42900  0.15423  0.95568  1.0000
  H   H672      1.0  0.37323  0.35406  0.77407  1.0000
  H   H673      1.0  0.99916  0.31082  0.84619  1.0000
  H   H674      1.0  0.05850  0.26321  0.84687  1.0000
  H   H675      1.0  0.21844  0.41474  0.96142  1.0000
  H   H676      1.0  0.23651  0.01733  0.79412  1.0000
  C   C396      1.0  0.15327  0.27747  0.74130  1.0000
  H   H677      1.0  0.32580  0.08935  0.93416  1.0000
  H   H678      1.0  0.02361  0.39104  0.88620  1.0000
  H   H679      1.0  0.06326  0.41752  0.89004  1.0000
  C   C397      1.0  0.40277  0.46505  0.94632  1.0000
  H   H680      1.0  0.00526  0.20747  0.77718  1.0000
  H   H681      1.0  0.99749  0.39509  0.85796  1.0000
  H   H682      1.0  0.28672  0.12307  0.96437  1.0000
  H   H683      1.0  0.41343  0.37679  0.77876  1.0000
  H   H684      1.0  0.37988  0.17416  0.74583  1.0000
  H   H685      1.0  0.05238  0.40819  0.85818  1.0000
  H   H686      1.0  0.40858  0.46230  0.91781  1.0000
  H   H687      1.0  0.45775  0.38742  0.97132  1.0000
  C   C398      1.0  0.40454  0.98945  0.93454  1.0000
  C   C399      1.0  0.40150  0.15344  0.96492  1.0000
  C   C400      1.0  0.23210  0.40307  0.96464  1.0000
  C   C401      1.0  0.03817  0.46229  0.83548  1.0000
  H   H688      1.0  0.45008  0.17487  0.96005  1.0000
  C   C402      1.0  0.33702  0.39968  0.98488  1.0000
  C   C403      1.0  0.98521  0.31806  0.83866  1.0000
  H   H689      1.0  0.00641  0.43182  0.86573  1.0000
  H   H690      1.0  0.01182  0.48610  0.84122  1.0000
  H   H691      1.0  0.40050  0.17440  0.96117  1.0000
  C   C404      1.0  0.30671  0.14467  0.96867  1.0000
  H   H692      1.0  0.38313  0.45825  0.95533  1.0000
  S   S101      1.0  0.08721  0.31844  0.74604  1.0000
  H   H693      1.0  0.45757  0.42249  0.94835  1.0000
  H   H694      1.0  0.99870  0.39894  0.80214  1.0000
  C   C405      1.0  0.98477  0.31618  0.81993  1.0000
  C   C406      1.0  0.47133  0.43240  0.96058  1.0000
  C   C407      1.0  0.42371  0.46613  0.98259  1.0000
  H   H695      1.0  0.37446  0.43106  0.92649  1.0000
  H   H696      1.0  0.30129  0.16922  0.94630  1.0000
  H   H697      1.0  0.40589  0.15436  0.97939  1.0000
  C   C408      1.0  0.34631  0.12175  0.98808  1.0000
  H   H698      1.0  0.43412  0.41995  0.97869  1.0000
  H   H699      1.0  0.39367  0.99411  0.90705  1.0000
  H   H700      1.0  0.03842  0.46878  0.82143  1.0000
  C   C409      1.0  0.30254  0.17076  0.96102  1.0000
  H   H701      1.0  0.18748  0.32166  0.75033  1.0000
  H   H702      1.0  0.40852  0.01255  0.97138  1.0000
  H   H703      1.0  0.15175  0.34346  0.75195  1.0000
  H   H704      1.0  0.22350  0.38202  0.95631  1.0000
  H   H705      1.0  0.40247  0.44420  0.98427  1.0000
  H   H706      1.0  0.23575  0.18953  0.73961  1.0000
  C   C410      1.0  0.22928  0.39482  0.98423  1.0000
  C   C411      1.0  0.47348  0.99410  0.92978  1.0000
  S   S102      1.0  0.48076  0.40865  0.91764  1.0000
  H   H707      1.0  0.20210  0.99394  0.80586  1.0000
  C   C412      1.0  0.24580  0.17497  0.74252  1.0000
  H   H708      1.0  0.23378  0.36676  0.74293  1.0000
  S   S103      1.0  0.01501  0.33106  0.74196  1.0000
  H   H709      1.0  0.46861  0.00860  0.97150  1.0000
  H   H710      1.0  0.44049  0.03037  0.98649  1.0000
  H   H711      1.0  0.24289  0.38280  0.98646  1.0000
  H   H712      1.0  0.20490  0.37915  0.98664  1.0000
  S   S104      1.0  0.17756  0.26025  0.74057  1.0000
  H   H713      1.0  0.30657  0.14659  0.98333  1.0000
  C   C413      1.0  0.48178  0.02531  0.93856  1.0000
  S   S105      1.0  0.41960  0.97988  0.09068  1.0000
  H   H714      1.0  0.44978  0.91012  0.06042  1.0000
  H   H715      1.0  0.14656  0.78975  0.22833  1.0000
  S   S106      1.0  0.35472  0.94688  0.05125  1.0000
  H   H716      1.0  0.42647  0.59082  0.08427  1.0000
  S   S107      1.0  0.32765  0.94122  0.09164  1.0000
  Fe  Fe52      1.0  0.37294  0.96716  0.07822  1.0000
  H   H717      1.0  0.04403  0.51354  0.14372  1.0000
  Fe  Fe53      1.0  0.30834  0.92401  0.06419  1.0000
  S   S108      1.0  0.27696  0.87269  0.06054  1.0000
  S   S109      1.0  0.29815  0.96254  0.05807  1.0000
  Fe  Fe54      1.0  0.04957  0.70819  0.09772  1.0000
  S   S110      1.0  0.09866  0.71825  0.09644  1.0000
  S   S111      1.0  0.02563  0.71929  0.12057  1.0000
  Fe  Fe55      1.0  0.03823  0.68989  0.05712  1.0000
  S   S112      1.0  0.08678  0.70002  0.05357  1.0000
  H   H718      1.0  0.99515  0.73924  0.14553  1.0000
  Fe  Fe56      1.0  0.08081  0.67524  0.07935  1.0000
  S   S113      1.0  0.10023  0.64186  0.08024  1.0000
  Fe  Fe57      1.0  0.10049  0.74184  0.07086  1.0000
  S   S114      1.0  0.13223  0.79193  0.06494  1.0000
  S   S115      1.0  0.03160  0.66352  0.08234  1.0000
  S   S116      1.0  0.05204  0.73338  0.07270  1.0000
  H   H719      1.0  0.01296  0.73156  0.01679  1.0000
  C   C414      1.0  0.02074  0.66760  0.00141  1.0000
  H   H720      1.0  0.04242  0.67317  0.00763  1.0000
  C   C415      1.0  0.08039  0.60134  0.08064  1.0000
  C   C416      1.0  0.09566  0.58493  0.07555  1.0000
  C   C417      1.0  0.08086  0.55281  0.07567  1.0000
  C   C418      1.0  0.05053  0.53666  0.08093  1.0000
  C   C419      1.0  0.03530  0.55304  0.08620  1.0000
  C   C420      1.0  0.05016  0.58517  0.08614  1.0000
  H   H721      1.0  0.07899  0.51050  0.11103  1.0000
  H   H722      1.0  0.09294  0.54058  0.07164  1.0000
  H   H723      1.0  0.01195  0.54082  0.09048  1.0000
  H   H724      1.0  0.03853  0.59749  0.09072  1.0000
  C   C421      1.0  0.23673  0.85079  0.06239  1.0000
  C   C422      1.0  0.21759  0.86417  0.06314  1.0000
  C   C423      1.0  0.18572  0.84575  0.06400  1.0000
  C   C424      1.0  0.17258  0.81380  0.06428  1.0000
  C   C425      1.0  0.19169  0.80040  0.06382  1.0000
  C   C426      1.0  0.22355  0.81882  0.06278  1.0000
  H   H725      1.0  0.22736  0.88869  0.06278  1.0000
  H   H726      1.0  0.17115  0.85637  0.06434  1.0000
  H   H727      1.0  0.18198  0.77588  0.06401  1.0000
  H   H728      1.0  0.23815  0.80824  0.06218  1.0000
  H   H729      1.0  0.07498  0.72873  0.17953  1.0000
  C   C427      1.0  0.44474  0.96520  0.08509  1.0000
  H   H730      1.0  0.16262  0.73435  0.01013  1.0000
  C   C428      1.0  0.03840  0.74021  0.18120  1.0000
  C   C429      1.0  0.43633  0.94084  0.07312  1.0000
  H   H731      1.0  0.35975  0.49032  0.14491  1.0000
  H   H732      1.0  0.41388  0.93041  0.06697  1.0000
  C   C430      1.0  0.42653  0.54764  0.08290  1.0000
  C   C431      1.0  0.44494  0.53347  0.08320  1.0000
  H   H733      1.0  0.07748  0.65371  0.02309  1.0000
  C   C432      1.0  0.44047  0.57956  0.08461  1.0000
  C   C433      1.0  0.15456  0.91558  0.17335  1.0000
  H   H734      1.0  0.23170  0.97711  0.11118  1.0000
  H   H735      1.0  0.07890  0.61961  0.01586  1.0000
  H   H736      1.0  0.15495  0.81845  0.99382  1.0000
  S   S117      1.0  0.38616  0.52647  0.08065  1.0000
  C   C434      1.0  0.14492  0.88361  0.16492  1.0000
  C   C435      1.0  0.18579  0.93786  0.14672  1.0000
  C   C436      1.0  0.21112  0.94725  0.17649  1.0000
  H   H737      1.0  0.13580  0.88248  0.15126  1.0000
  C   C437      1.0  0.01610  0.74338  0.17137  1.0000
  C   C438      1.0  0.01272  0.73704  0.15291  1.0000
  C   C439      1.0  0.03179  0.72785  0.14387  1.0000
  H   H738      1.0  0.03518  0.51727  0.12102  1.0000
  C   C440      1.0  0.07737  0.51663  0.12504  1.0000
  C   C441      1.0  0.45674  0.92938  0.06944  1.0000
  H   H739      1.0  0.36372  0.53820  0.13367  1.0000
  H   H740      1.0  0.25265  0.89336  0.09717  1.0000
  H   H741      1.0  0.21842  0.91139  0.16354  1.0000
  H   H742      1.0  0.26711  0.94608  0.17879  1.0000
  C   C442      1.0  0.07879  0.63323  0.02758  1.0000
  H   H743      1.0  0.43034  0.97941  0.99743  1.0000
  C   C443      1.0  0.37389  0.52613  0.12607  1.0000
  S   S118      1.0  0.00047  0.67244  0.03535  1.0000
  Fe  Fe58      1.0  0.31930  0.98046  0.08526  1.0000
  S   S119      1.0  0.18883  0.93737  0.22447  1.0000
  H   H744      1.0  0.25032  0.92236  0.11048  1.0000
  H   H745      1.0  0.08720  0.85079  0.22799  1.0000
  H   H746      1.0  0.01960  0.62676  0.02855  1.0000
  H   H747      1.0  0.41880  0.50395  0.00916  1.0000
  C   C444      1.0  0.00127  0.53825  0.02533  1.0000
  H   H748      1.0  0.31895  0.51616  0.03259  1.0000
  H   H749      1.0  0.10051  0.64079  0.03516  1.0000
  H   H750      1.0  0.19372  0.77649  0.13336  1.0000
  H   H751      1.0  0.21640  0.98634  0.14046  1.0000
  C   C445      1.0  0.05202  0.61411  0.03950  1.0000
  C   C446      1.0  0.15106  0.91985  0.23190  1.0000
  H   H752      1.0  0.09455  0.71472  0.01514  1.0000
  H   H753      1.0  0.18227  0.74804  0.09586  1.0000
  H   H754      1.0  0.01211  0.59907  0.06524  1.0000
  H   H755      1.0  0.20133  0.74054  0.11403  1.0000
  H   H756      1.0  0.16406  0.87836  0.16402  1.0000
  H   H757      1.0  0.23490  0.96289  0.14193  1.0000
  H   H758      1.0  0.06931  0.71820  0.14699  1.0000
  H   H759      1.0  0.14035  0.87835  0.21757  1.0000
  H   H760      1.0  0.13421  0.91894  0.17108  1.0000
  H   H761      1.0  0.12854  0.85664  0.18873  1.0000
  H   H762      1.0  0.10002  0.86275  0.17708  1.0000
  H   H763      1.0  0.18139  0.82319  0.02418  1.0000
  S   S120      1.0  0.04309  0.74653  0.20471  1.0000
  C   C447      1.0  0.21760  0.91988  0.17707  1.0000
  H   H764      1.0  0.09809  0.83393  0.11733  1.0000
  H   H765      1.0  0.14394  0.95787  0.18915  1.0000
  C   C448      1.0  0.11977  0.85836  0.17546  1.0000
  H   H766      1.0  0.18737  0.91677  0.14400  1.0000
  C   C449      1.0  0.47235  0.59708  0.08696  1.0000
  C   C450      1.0  0.05766  0.73132  0.17213  1.0000
  H   H767      1.0  0.20921  0.93661  0.11352  1.0000
  H   H768      1.0  0.19982  0.90138  0.18488  1.0000
  H   H769      1.0  0.14932  0.77706  0.00804  1.0000
  H   H770      1.0  0.26043  0.89592  0.12078  1.0000
  H   H771      1.0  0.25159  0.90818  0.18727  1.0000
  H   H772      1.0  0.01059  0.55518  0.05241  1.0000
  N   N26       1.0  0.10528  0.77588  0.01022  1.0000
  C   C451      1.0  0.07751  0.76017  0.02166  1.0000
  C   C452      1.0  0.12718  0.76381  0.01468  1.0000
  C   C453      1.0  0.12107  0.80933  0.01534  1.0000
  H   H773      1.0  0.18188  0.97425  0.19796  1.0000
  H   H774      1.0  0.05371  0.78199  0.00765  1.0000
  C   C454      1.0  0.05519  0.77385  0.02106  1.0000
  H   H775      1.0  0.20021  0.85542  0.00998  1.0000
  C   C455      1.0  0.02111  0.60535  0.03004  1.0000
  H   H776      1.0  0.14983  0.84995  0.00017  1.0000
  C   C456      1.0  0.38130  0.50653  0.13850  1.0000
  H   H777      1.0  0.02330  0.74205  0.03986  1.0000
  C   C457      1.0  0.14002  0.72040  0.01617  1.0000
  H   H778      1.0  0.08450  0.76102  0.03583  1.0000
  H   H779      1.0  0.06456  0.73547  0.01841  1.0000
  C   C458      1.0  0.11696  0.73023  0.00949  1.0000
  H   H780      1.0  0.13270  0.76682  0.02917  1.0000
  H   H781      1.0  0.12535  0.81230  0.02996  1.0000
  H   H782      1.0  0.10588  0.81954  0.01269  1.0000
  H   H783      1.0  0.11174  0.83614  0.16839  1.0000
  H   H784      1.0  0.18783  0.84439  0.17488  1.0000
  H   H785      1.0  0.13207  0.69615  0.01250  1.0000
  C   C459      1.0  0.44165  0.50379  0.14798  1.0000
  H   H786      1.0  0.06346  0.79366  0.03042  1.0000
  H   H787      1.0  0.00141  0.75060  0.17802  1.0000
  S   S121      1.0  0.99825  0.78958  0.22773  1.0000
  C   C460      1.0  0.29482  0.49954  0.03513  1.0000
  H   H788      1.0  0.45851  0.49578  0.15127  1.0000
  C   C461      1.0  0.10181  0.87404  0.23234  1.0000
  H   H789      1.0  0.02262  0.59792  0.01637  1.0000
  H   H790      1.0  0.39492  0.54342  0.11972  1.0000
  H   H791      1.0  0.08799  0.50654  0.13388  1.0000
  H   H792      1.0  0.21515  0.79461  0.11376  1.0000
  C   C462      1.0  0.02302  0.75089  0.02647  1.0000
  C   C463      1.0  0.99693  0.66617  0.01179  1.0000
  C   C464      1.0  0.40062  0.98123  0.13932  1.0000
  H   H793      1.0  0.18483  0.80676  0.17398  1.0000
  H   H794      1.0  0.07053  0.79481  0.11273  1.0000
  H   H795      1.0  0.17792  0.85724  0.02812  1.0000
  H   H796      1.0  0.11914  0.59716  0.07145  1.0000
  H   H797      1.0  0.44467  0.54560  0.13647  1.0000
  Fe  Fe59      1.0  0.34606  0.98692  0.04705  1.0000
  H   H798      1.0  0.11565  0.72739  0.99485  1.0000
  C   C465      1.0  0.21380  0.96341  0.13755  1.0000
  C   C466      1.0  0.17930  0.84202  0.01772  1.0000
  H   H799      1.0  0.48266  0.62158  0.08846  1.0000
  H   H800      1.0  0.09597  0.81702  0.09556  1.0000
  H   H801      1.0  0.42023  0.98021  0.13310  1.0000
  H   H802      1.0  0.43463  0.50912  0.08121  1.0000
  H   H803      1.0  0.40891  0.50240  0.11746  1.0000
  C   C467      1.0  0.47395  0.97830  0.09309  1.0000
  H   H804      1.0  0.16478  0.93481  0.13959  1.0000
  C   C468      1.0  0.37317  0.94967  0.13681  1.0000
  Fe  Fe60      1.0  0.22609  0.98566  0.23030  1.0000
  H   H805      1.0  0.23170  0.96735  0.17151  1.0000
  H   H806      1.0  0.28067  0.51121  0.03368  1.0000
  C   C469      1.0  0.24807  0.92850  0.18634  1.0000
  H   H807      1.0  0.19090  0.96044  0.11222  1.0000
  C   C470      1.0  0.13181  0.88978  0.22631  1.0000
  H   H808      1.0  0.22140  0.83979  0.17762  1.0000
  H   H809      1.0  0.00826  0.76200  0.02676  1.0000
  C   C471      1.0  0.13380  0.79878  0.23623  1.0000
  C   C472      1.0  0.21109  0.95896  0.11741  1.0000
  H   H810      1.0  0.39702  0.52165  0.14904  1.0000
  H   H811      1.0  0.09034  0.54181  0.12646  1.0000
  H   H812      1.0  0.46039  0.52762  0.12262  1.0000
  C   C473      1.0  0.15119  0.82989  0.00548  1.0000
  Fe  Fe61      1.0  0.02247  0.76110  0.22788  1.0000
  H   H813      1.0  0.15668  0.91430  0.18802  1.0000
  C   C474      1.0  0.45789  0.53287  0.13658  1.0000
  C   C475      1.0  0.41254  0.98255  0.99019  1.0000
  C   C476      1.0  0.17948  0.97081  0.16864  1.0000
  H   H814      1.0  0.05413  0.59379  0.04334  1.0000
  H   H815      1.0  0.40514  0.98557  0.15376  1.0000
  H   H816      1.0  0.37808  0.93241  0.14313  1.0000
  H   H817      1.0  0.16145  0.72987  0.11558  1.0000
  H   H818      1.0  0.35262  0.94878  0.14301  1.0000
  H   H819      1.0  0.36854  0.94376  0.12247  1.0000
  H   H820      1.0  0.16349  0.97142  0.15840  1.0000
  H   H821      1.0  0.05450  0.62804  0.05158  1.0000
  N   N27       1.0  0.18287  0.94233  0.16630  1.0000
  C   C477      1.0  0.04415  0.50572  0.12992  1.0000
  C   C478      1.0  0.05452  0.72533  0.15363  1.0000
  H   H822      1.0  0.24851  0.93742  0.19998  1.0000
  N   N28       1.0  0.17486  0.82035  0.12000  1.0000
  C   C479      1.0  0.20494  0.84304  0.11238  1.0000
  C   C480      1.0  0.16815  0.78865  0.11417  1.0000
  C   C481      1.0  0.15014  0.82619  0.11204  1.0000
  C   C482      1.0  0.17393  0.82275  0.13999  1.0000
  C   C483      1.0  0.20445  0.83379  0.15046  1.0000
  C   C484      1.0  0.21216  0.87690  0.11357  1.0000
  C   C485      1.0  0.11683  0.80224  0.11611  1.0000
  C   C486      1.0  0.19237  0.77861  0.11882  1.0000
  C   C487      1.0  0.18372  0.74736  0.11055  1.0000
  C   C488      1.0  0.19917  0.83097  0.17044  1.0000
  C   C489      1.0  0.24591  0.89834  0.11031  1.0000
  C   C490      1.0  0.09409  0.81284  0.11005  1.0000
  H   H823      1.0  0.20586  0.83764  0.09812  1.0000
  H   H824      1.0  0.22429  0.84124  0.11856  1.0000
  H   H825      1.0  0.14667  0.77127  0.12013  1.0000
  H   H826      1.0  0.16424  0.78598  0.09952  1.0000
  H   H827      1.0  0.15215  0.82768  0.09736  1.0000
  H   H828      1.0  0.15290  0.84864  0.11665  1.0000
  H   H829      1.0  0.16520  0.83878  0.14392  1.0000
  H   H830      1.0  0.15714  0.80047  0.14547  1.0000
  H   H831      1.0  0.22003  0.85813  0.14785  1.0000
  H   H832      1.0  0.21642  0.82073  0.14679  1.0000
  H   H833      1.0  0.19874  0.88136  0.10326  1.0000
  H   H834      1.0  0.20621  0.88261  0.12671  1.0000
  H   H835      1.0  0.11375  0.79758  0.13051  1.0000
  H   H836      1.0  0.11063  0.78057  0.10884  1.0000
  C   C491      1.0  0.99386  0.55239  0.04171  1.0000
  C   C492      1.0  0.99181  0.59475  0.05709  1.0000
  C   C493      1.0  0.31115  0.98500  0.13767  1.0000
  H   H837      1.0  0.32426  0.97615  0.16343  1.0000
  H   H838      1.0  0.43703  0.51171  0.16091  1.0000
  H   H839      1.0  0.35724  0.51176  0.11566  1.0000
  C   C494      1.0  0.16781  0.97542  0.18692  1.0000
  H   H840      1.0  0.14266  0.72287  0.03083  1.0000
  H   H841      1.0  0.20995  0.95348  0.19047  1.0000
  S   S122      1.0  0.27078  0.98533  0.23215  1.0000
  H   H842      1.0  0.02304  0.55445  0.01926  1.0000
  H   H843      1.0  0.39820  0.98640  0.00006  1.0000
  H   H844      1.0  0.02371  0.51685  0.04021  1.0000
  H   H845      1.0  0.12342  0.80864  0.22698  1.0000
  H   H846      1.0  0.21860  0.49163  0.08546  1.0000
  H   H847      1.0  0.31825  0.97051  0.13058  1.0000
  H   H848      1.0  0.42439  0.98004  0.04803  1.0000
  H   H849      1.0  0.99250  0.61732  0.05566  1.0000
  C   C495      1.0  0.00454  0.51035  0.03053  1.0000
  H   H850      1.0  0.00866  0.49965  0.18263  1.0000
  C   C496      1.0  0.09739  0.77249  0.99060  1.0000
  S   S123      1.0  0.03052  0.49618  0.08103  1.0000
  C   C497      1.0  0.47669  0.55086  0.08602  1.0000
  N   N29       1.0  0.99297  0.58194  0.03904  1.0000
  H   H851      1.0  0.47577  0.61861  0.03688  1.0000
  H   H852      1.0  0.46259  0.49575  0.00014  1.0000
  H   H853      1.0  0.29334  0.49167  0.04899  1.0000
  C   C498      1.0  0.31434  0.98811  0.15630  1.0000
  H   H854      1.0  0.14350  0.49838  0.13958  1.0000
  H   H855      1.0  0.00939  0.50017  0.01861  1.0000
  H   H856      1.0  0.47756  0.98503  0.04513  1.0000
  H   H857      1.0  0.98505  0.49323  0.12041  1.0000
  H   H858      1.0  0.98464  0.59667  0.09372  1.0000
  H   H859      1.0  0.99385  0.49229  0.15046  1.0000
  H   H860      1.0  0.43226  0.48981  0.02720  1.0000
  C   C499      1.0  0.16747  0.84471  0.28873  1.0000
  N   N30       1.0  0.02177  0.59751  0.35709  1.0000
  H   H861      1.0  0.47864  0.53671  0.45728  1.0000
  Fe  Fe62      1.0  0.02537  0.76099  0.26964  1.0000
  S   S124      1.0  0.05174  0.75066  0.29166  1.0000
  H   H862      1.0  0.08489  0.73530  0.31748  1.0000
  H   H863      1.0  0.36345  0.51504  0.34915  1.0000
  Fe  Fe63      1.0  0.03687  0.67516  0.43491  1.0000
  S   S125      1.0  0.08609  0.68633  0.43819  1.0000
  C   C500      1.0  0.14014  0.93435  0.24353  1.0000
  Fe  Fe64      1.0  0.04659  0.69606  0.39540  1.0000
  S   S126      1.0  0.09612  0.70831  0.39646  1.0000
  S   S127      1.0  0.02145  0.70229  0.37134  1.0000
  Fe  Fe65      1.0  0.08092  0.66442  0.41124  1.0000
  S   S128      1.0  0.10331  0.63490  0.40473  1.0000
  Fe  Fe66      1.0  0.09710  0.72901  0.42314  1.0000
  S   S129      1.0  0.13325  0.77613  0.43240  1.0000
  S   S130      1.0  0.03128  0.65074  0.40854  1.0000
  S   S131      1.0  0.04803  0.71938  0.42153  1.0000
  Fe  Fe67      1.0  0.36241  0.95493  0.39364  1.0000
  H   H864      1.0  0.18942  0.89610  0.37373  1.0000
  Fe  Fe68      1.0  0.29664  0.90791  0.40181  1.0000
  H   H865      1.0  0.40132  0.95500  0.42798  1.0000
  S   S132      1.0  0.26574  0.85629  0.40126  1.0000
  H   H866      1.0  0.16166  0.75228  0.34972  1.0000
  H   H867      1.0  0.29400  0.75502  0.43329  1.0000
  S   S133      1.0  0.32163  0.92561  0.37615  1.0000
  S   S134      1.0  0.33888  0.93455  0.41914  1.0000
  C   C501      1.0  0.07988  0.63214  0.35480  1.0000
  H   H868      1.0  0.01385  0.62299  0.30419  1.0000
  C   C502      1.0  0.43694  0.95801  0.39540  1.0000
  C   C503      1.0  0.02104  0.63384  0.33252  1.0000
  C   C504      1.0  0.00611  0.63347  0.31468  1.0000
  C   C505      1.0  0.16862  0.79906  0.42217  1.0000
  C   C506      1.0  0.18603  0.82965  0.42765  1.0000
  C   C507      1.0  0.21533  0.84791  0.42085  1.0000
  C   C508      1.0  0.22769  0.83556  0.40868  1.0000
  C   C509      1.0  0.20993  0.80514  0.40290  1.0000
  C   C510      1.0  0.18040  0.78708  0.40945  1.0000
  H   H869      1.0  0.17709  0.83913  0.43750  1.0000
  H   H870      1.0  0.22874  0.87123  0.42546  1.0000
  H   H871      1.0  0.21930  0.79545  0.39346  1.0000
  H   H872      1.0  0.16713  0.76362  0.40514  1.0000
  C   C511      1.0  0.37605  0.53257  0.46406  1.0000
  C   C512      1.0  0.35784  0.49788  0.35967  1.0000
  H   H873      1.0  0.10022  0.84663  0.34272  1.0000
  C   C513      1.0  0.05461  0.52983  0.40242  1.0000
  C   C514      1.0  0.03792  0.54562  0.40551  1.0000
  C   C515      1.0  0.05259  0.57770  0.40682  1.0000
  C   C516      1.0  0.08410  0.59442  0.40458  1.0000
  C   C517      1.0  0.10083  0.57867  0.40155  1.0000
  C   C518      1.0  0.08624  0.54656  0.40062  1.0000
  H   H874      1.0  0.01346  0.53291  0.40692  1.0000
  H   H875      1.0  0.03943  0.58943  0.40931  1.0000
  H   H876      1.0  0.12521  0.59134  0.39980  1.0000
  H   H877      1.0  0.19921  0.87725  0.26128  1.0000
  C   C519      1.0  0.42322  0.54216  0.40830  1.0000
  H   H878      1.0  0.09639  0.82824  0.29039  1.0000
  H   H879      1.0  0.02851  0.52114  0.33963  1.0000
  C   C520      1.0  0.44135  0.52884  0.40346  1.0000
  H   H880      1.0  0.04707  0.57450  0.34828  1.0000
  H   H881      1.0  0.08708  0.83119  0.41723  1.0000
  S   S135      1.0  0.05379  0.86827  0.25252  1.0000
  H   H882      1.0  0.10913  0.67032  0.37191  1.0000
  H   H883      1.0  0.24300  0.93043  0.26239  1.0000
  C   C521      1.0  0.43735  0.57361  0.41210  1.0000
  H   H884      1.0  0.12878  0.73298  0.36340  1.0000
  H   H885      1.0  0.99798  0.73343  0.31401  1.0000
  H   H886      1.0  0.35353  0.53223  0.43913  1.0000
  C   C522      1.0  0.31456  0.98451  0.32576  1.0000
  H   H887      1.0  0.43084  0.50469  0.40061  1.0000
  H   H888      1.0  0.03809  0.57010  0.37108  1.0000
  C   C523      1.0  0.13695  0.87174  0.28346  1.0000
  C   C524      1.0  0.04227  0.73594  0.31353  1.0000
  C   C525      1.0  0.03015  0.71466  0.34900  1.0000
  C   C526      1.0  0.05756  0.72024  0.34103  1.0000
  C   C527      1.0  0.06359  0.73092  0.32346  1.0000
  H   H889      1.0  0.07414  0.71651  0.34842  1.0000
  H   H890      1.0  0.38667  0.56821  0.44460  1.0000
  Fe  Fe69      1.0  0.30741  0.96195  0.37893  1.0000
  H   H891      1.0  0.36937  0.50965  0.37223  1.0000
  H   H892      1.0  0.19054  0.71828  0.37540  1.0000
  H   H893      1.0  0.09531  0.86968  0.30912  1.0000
  H   H894      1.0  0.22683  0.79947  0.45350  1.0000
  H   H895      1.0  0.09147  0.77585  0.40209  1.0000
  C   C528      1.0  0.39397  0.92093  0.44694  1.0000
  H   H896      1.0  0.14173  0.68911  0.45057  1.0000
  S   S136      1.0  0.99985  0.64898  0.45543  1.0000
  S   S137      1.0  0.41339  0.97381  0.38834  1.0000
  C   C529      1.0  0.09088  0.88826  0.24413  1.0000
  H   H897      1.0  0.13192  0.78542  0.38342  1.0000
  H   H898      1.0  0.21587  0.68977  0.43303  1.0000
  H   H899      1.0  0.98880  0.58577  0.33560  1.0000
  C   C530      1.0  0.44434  0.91564  0.40526  1.0000
  H   H900      1.0  0.44317  0.49082  0.47113  1.0000
  C   C531      1.0  0.46928  0.59160  0.41121  1.0000
  H   H901      1.0  0.03174  0.70158  0.47987  1.0000
  H   H902      1.0  0.14084  0.77882  0.31380  1.0000
  H   H903      1.0  0.18993  0.92136  0.28650  1.0000
  H   H904      1.0  0.48336  0.95715  0.32242  1.0000
  H   H905      1.0  0.08903  0.61747  0.36037  1.0000
  H   H906      1.0  0.40036  0.91313  0.40004  1.0000
  N   N31       1.0  0.41606  0.51447  0.47051  1.0000
  H   H907      1.0  0.12282  0.81319  0.40590  1.0000
  H   H908      1.0  0.12916  0.79753  0.28701  1.0000
  H   H909      1.0  0.09638  0.68074  0.35180  1.0000
  C   C532      1.0  0.00871  0.71925  0.33898  1.0000
  H   H910      1.0  0.21488  0.90491  0.28992  1.0000
  C   C533      1.0  0.99703  0.65477  0.47864  1.0000
  H   H911      1.0  0.17614  0.89435  0.25564  1.0000
  C   C534      1.0  0.39268  0.49093  0.48242  1.0000
  C   C535      1.0  0.01466  0.72978  0.32140  1.0000
  C   C536      1.0  0.16330  0.68757  0.45115  1.0000
  H   H912      1.0  0.45071  0.97525  0.33822  1.0000
  C   C537      1.0  0.15857  0.80064  0.30851  1.0000
  C   C538      1.0  0.43772  0.54171  0.48169  1.0000
  S   S138      1.0  0.28102  0.94341  0.40403  1.0000
  H   H913      1.0  0.21301  0.71200  0.40305  1.0000
  H   H914      1.0  0.17522  0.74114  0.46901  1.0000
  H   H915      1.0  0.02536  0.59335  0.32858  1.0000
  H   H916      1.0  0.20390  0.87212  0.36403  1.0000
  H   H917      1.0  0.07261  0.77875  0.35218  1.0000
  H   H918      1.0  0.15590  0.71078  0.38651  1.0000
  H   H919      1.0  0.41479  0.54031  0.44777  1.0000
  C   C539      1.0  0.13848  0.77863  0.35588  1.0000
  H   H920      1.0  0.09178  0.84589  0.27097  1.0000
  C   C540      1.0  0.13651  0.63501  0.46467  1.0000
  C   C541      1.0  0.47685  0.59778  0.48470  1.0000
  H   H921      1.0  0.12985  0.61059  0.46242  1.0000
  C   C542      1.0  0.47619  0.93393  0.40546  1.0000
  H   H922      1.0  0.09061  0.88701  0.28915  1.0000
  C   C543      1.0  0.20352  0.91209  0.27971  1.0000
  C   C544      1.0  0.46813  0.51365  0.35678  1.0000
  H   H923      1.0  0.24332  0.95671  0.27903  1.0000
  H   H924      1.0  0.39223  0.90447  0.43636  1.0000
  H   H925      1.0  0.17221  0.69420  0.46497  1.0000
  S   S139      1.0  0.00100  0.78915  0.27207  1.0000
  H   H926      1.0  0.13364  0.85757  0.36593  1.0000
  C   C545      1.0  0.10999  0.91855  0.24958  1.0000
  H   H927      1.0  0.27076  0.71610  0.42605  1.0000
  Fe  Fe70      1.0  0.03073  0.81684  0.24985  1.0000
  C   C546      1.0  0.19308  0.71621  0.40407  1.0000
  H   H928      1.0  0.37054  0.91639  0.45035  1.0000
  H   H929      1.0  0.05322  0.62270  0.37849  1.0000
  H   H930      1.0  0.17879  0.86093  0.29999  1.0000
  C   C547      1.0  0.15463  0.65340  0.44889  1.0000
  H   H931      1.0  0.05045  0.82950  0.32791  1.0000
  C   C548      1.0  0.22852  0.93821  0.26962  1.0000
  C   C549      1.0  0.39897  0.52243  0.45669  1.0000
  C   C550      1.0  0.17540  0.70585  0.38648  1.0000
  H   H932      1.0  0.15071  0.83991  0.35338  1.0000
  H   H933      1.0  0.06160  0.84985  0.29523  1.0000
  C   C551      1.0  0.43260  0.49959  0.46136  1.0000
  C   C552      1.0  0.18352  0.88506  0.26695  1.0000
  S   S140      1.0  0.38294  0.52065  0.40955  1.0000
  H   H934      1.0  0.15042  0.64294  0.47708  1.0000
  C   C553      1.0  0.02880  0.57112  0.35777  1.0000
  C   C554      1.0  0.04965  0.62530  0.36413  1.0000
  H   H935      1.0  0.21386  0.74819  0.46672  1.0000
  N   N32       1.0  0.18592  0.70918  0.43815  1.0000
  H   H936      1.0  0.42352  0.58418  0.41573  1.0000
  H   H937      1.0  0.06773  0.79379  0.38066  1.0000
  H   H938      1.0  0.20501  0.75741  0.43259  1.0000
  H   H939      1.0  0.17518  0.65032  0.44760  1.0000
  H   H940      1.0  0.16884  0.67451  0.41726  1.0000
  C   C555      1.0  0.17302  0.69820  0.41970  1.0000
  H   H941      1.0  0.34044  0.96814  0.46760  1.0000
  H   H942      1.0  0.17147  0.81609  0.31977  1.0000
  H   H943      1.0  0.43470  0.89196  0.40882  1.0000
  C   C556      1.0  0.19588  0.75254  0.46076  1.0000
  H   H944      1.0  0.21925  0.70452  0.45482  1.0000
  C   C557      1.0  0.18813  0.74012  0.44138  1.0000
  H   H945      1.0  0.16609  0.73957  0.43778  1.0000
  H   H946      1.0  0.13980  0.64332  0.43699  1.0000
  H   H947      1.0  0.06792  0.80742  0.31959  1.0000
  C   C558      1.0  0.01496  0.68276  0.48728  1.0000
  H   H948      1.0  0.11737  0.81737  0.26522  1.0000
  H   H949      1.0  0.13897  0.89170  0.27586  1.0000
  C   C559      1.0  0.24540  0.73861  0.43603  1.0000
  C   C560      1.0  0.21602  0.70906  0.44074  1.0000
  H   H950      1.0  0.14563  0.88067  0.29708  1.0000
  H   H951      1.0  0.15034  0.69746  0.41831  1.0000
  H   H952      1.0  0.17430  0.79563  0.30046  1.0000
  H   H953      1.0  0.16670  0.68102  0.38422  1.0000
  H   H954      1.0  0.16394  0.76310  0.37274  1.0000
  C   C561      1.0  0.10417  0.66518  0.35757  1.0000
  C   C562      1.0  0.36648  0.54844  0.45008  1.0000
  H   H955      1.0  0.20124  0.74095  0.40552  1.0000
  H   H956      1.0  0.10156  0.92966  0.25869  1.0000
  C   C563      1.0  0.08101  0.82466  0.34681  1.0000
  H   H957      1.0  0.00168  0.58698  0.38305  1.0000
  C   C564      1.0  0.15539  0.82298  0.24951  1.0000
  H   H958      1.0  0.21107  0.88313  0.38707  1.0000
  H   H959      1.0  0.09934  0.53475  0.39812  1.0000
  H   H960      1.0  0.03737  0.79128  0.33533  1.0000
  H   H961      1.0  0.35498  0.51232  0.46833  1.0000
  C   C565      1.0  0.09280  0.80176  0.35146  1.0000
  C   C566      1.0  0.08660  0.86525  0.29522  1.0000
  C   C567      1.0  0.47323  0.54691  0.40233  1.0000
  C   C568      1.0  0.14333  0.81492  0.29712  1.0000
  N   N33       1.0  0.15610  0.85891  0.27504  1.0000
  C   C569      1.0  0.13990  0.83892  0.36638  1.0000
  H   H962      1.0  0.18564  0.84034  0.28305  1.0000
  C   C570      1.0  0.01353  0.60110  0.33822  1.0000
  C   C571      1.0  0.13832  0.83677  0.26024  1.0000
  C   C572      1.0  0.10207  0.85043  0.28448  1.0000
  H   H963      1.0  0.12839  0.81977  0.30592  1.0000
  C   C573      1.0  0.16473  0.84828  0.38114  1.0000
  H   H964      1.0  0.15670  0.85400  0.39357  1.0000
  C   C574      1.0  0.44811  0.95214  0.34037  1.0000
  H   H965      1.0  0.27645  0.72572  0.44951  1.0000
  C   C575      1.0  0.09850  0.80056  0.40202  1.0000
  H   H966      1.0  0.09422  0.83270  0.38475  1.0000
  C   C576      1.0  0.42480  0.92759  0.40031  1.0000
  H   H967      1.0  0.10578  0.80103  0.33973  1.0000
  H   H968      1.0  0.09790  0.76090  0.37190  1.0000
  C   C577      1.0  0.09237  0.80962  0.38344  1.0000
  C   C578      1.0  0.11937  0.78285  0.37075  1.0000
  H   H969      1.0  0.98734  0.71487  0.34490  1.0000
  H   H970      1.0  0.15929  0.80022  0.35320  1.0000
  H   H971      1.0  0.16510  0.81202  0.25835  1.0000
  H   H972      1.0  0.47982  0.61578  0.41413  1.0000
  C   C579      1.0  0.45290  0.57319  0.47254  1.0000
  H   H973      1.0  0.24391  0.74721  0.42283  1.0000
  H   H974      1.0  0.32993  0.97852  0.33279  1.0000
  N   N34       1.0  0.11174  0.80856  0.36832  1.0000
  H   H975      1.0  0.02571  0.51473  0.36328  1.0000
  H   H976      1.0  0.42303  0.97131  0.46672  1.0000
  H   H977      1.0  0.13007  0.84803  0.25064  1.0000
  C   C580      1.0  0.19395  0.87664  0.37610  1.0000
  H   H978      1.0  0.17113  0.83022  0.38373  1.0000
  H   H979      1.0  0.24982  0.75706  0.44582  1.0000
  S   S141      1.0  0.99227  0.72927  0.24880  1.0000
  H   H980      1.0  0.21835  0.94771  0.26004  1.0000
  H   H981      1.0  0.35142  0.55670  0.45611  1.0000
  H   H982      1.0  0.43550  0.95654  0.43694  1.0000
  H   H983      1.0  0.12552  0.66900  0.35099  1.0000
  C   C581      1.0  0.08022  0.80654  0.41624  1.0000
  C   C582      1.0  0.20652  0.78673  0.46183  1.0000
  H   H984      1.0  0.44110  0.94554  0.35428  1.0000
  H   H985      1.0  0.11537  0.63709  0.46620  1.0000
  H   H986      1.0  0.07636  0.62736  0.34033  1.0000
  S   S142      1.0  0.05689  0.79081  0.24861  1.0000
  H   H987      1.0  0.39080  0.97272  0.45733  1.0000
  H   H988      1.0  0.42969  0.93581  0.33138  1.0000
  H   H989      1.0  0.18796  0.79155  0.45736  1.0000
  C   C583      1.0  0.14877  0.75528  0.36083  1.0000
  C   C584      1.0  0.41448  0.97713  0.45448  1.0000
  H   H990      1.0  0.08470  0.79920  0.42930  1.0000
  H   H991      1.0  0.12466  0.77012  0.34352  1.0000
  H   H992      1.0  0.40516  0.91724  0.45877  1.0000
  H   H993      1.0  0.38579  0.54820  0.47567  1.0000
  H   H994      1.0  0.00206  0.63713  0.37354  1.0000
  C   C585      1.0  0.27329  0.73341  0.43626  1.0000
  H   H995      1.0  0.06959  0.82909  0.35816  1.0000
  H   H996      1.0  0.05540  0.79340  0.41322  1.0000
  C   C586      1.0  0.99550  0.59050  0.36933  1.0000
  C   C587      1.0  0.05786  0.81243  0.33145  1.0000
  H   H997      1.0  0.38582  0.50259  0.44763  1.0000
  H   H998      1.0  0.43571  0.58063  0.46926  1.0000
  H   H999      1.0  0.04658  0.64592  0.36374  1.0000
  C   C588      1.0  0.47787  0.95139  0.33654  1.0000
  H   H1000     1.0  0.21264  0.79499  0.47576  1.0000
  H   H1001     1.0  0.15492  0.95753  0.24794  1.0000
  H   H1002     1.0  0.04599  0.64819  0.33108  1.0000
  H   H1003     1.0  0.40759  0.50455  0.33986  1.0000
  H   H1004     1.0  0.41328  0.50441  0.36320  1.0000
  C   C589      1.0  0.01322  0.51556  0.35117  1.0000
  H   H1005     1.0  0.46281  0.53271  0.35475  1.0000
  C   C590      1.0  0.46880  0.97642  0.39573  1.0000
  Fe  Fe71      1.0  0.32510  0.97157  0.41946  1.0000
  H   H1006     1.0  0.01352  0.64557  0.34223  1.0000
  H   H1007     1.0  0.46414  0.57280  0.46004  1.0000
  C   C591      1.0  0.47022  0.50092  0.43856  1.0000
  H   H1008     1.0  0.47353  0.92768  0.33848  1.0000
  C   C592      1.0  0.28948  0.98365  0.33450  1.0000
  C   C593      1.0  0.41255  0.95338  0.44031  1.0000
  S   S143      1.0  0.28326  0.97593  0.35757  1.0000
  C   C594      1.0  0.45903  0.51992  0.44917  1.0000
  H   H1009     1.0  0.17399  0.84076  0.24176  1.0000
  H   H1010     1.0  0.99350  0.49261  0.34886  1.0000
  C   C595      1.0  0.00192  0.53903  0.35359  1.0000
  H   H1011     1.0  0.01254  0.65720  0.31087  1.0000
  H   H1012     1.0  0.45211  0.53220  0.43962  1.0000
  H   H1013     1.0  0.98942  0.53906  0.34134  1.0000
  H   H1014     1.0  0.11529  0.77951  0.24324  1.0000
  S   S144      1.0  0.03460  0.48954  0.39967  1.0000
  H   H1015     1.0  0.46322  0.50659  0.37075  1.0000
  H   H1016     1.0  0.45012  0.49690  0.33044  1.0000
  H   H1017     1.0  0.98584  0.53122  0.36480  1.0000
  H   H1018     1.0  0.45623  0.53769  0.48733  1.0000
  S   S145      1.0  0.00733  0.78548  0.71940  1.0000
  H   H1019     1.0  0.14176  0.76502  0.69943  1.0000
  S   S146      1.0  0.99153  0.70076  0.70545  1.0000
  H   H1020     1.0  0.05537  0.72376  0.70698  1.0000
  C   C596      1.0  0.01071  0.68666  0.50545  1.0000
  H   H1021     1.0  0.03866  0.75809  0.69331  1.0000
  H   H1022     1.0  0.01911  0.79159  0.67743  1.0000
  C   C597      1.0  0.04244  0.80590  0.67238  1.0000
  H   H1023     1.0  0.38438  0.97009  0.59645  1.0000
  H   H1024     1.0  0.06836  0.77182  0.72086  1.0000
  H   H1025     1.0  0.10855  0.78188  0.67034  1.0000
  N   N35       1.0  0.08566  0.76703  0.69549  1.0000
  C   C598      1.0  0.06621  0.80431  0.68468  1.0000
  C   C599      1.0  0.13707  0.76931  0.68571  1.0000
  H   H1026     1.0  0.04054  0.67034  0.69324  1.0000
  C   C600      1.0  0.16751  0.79088  0.67743  1.0000
  H   H1027     1.0  0.99313  0.84620  0.73741  1.0000
  C   C601      1.0  0.11432  0.78246  0.68470  1.0000
  H   H1028     1.0  0.08911  0.81938  0.67939  1.0000
  H   H1029     1.0  0.09826  0.80625  0.71281  1.0000
  H   H1030     1.0  0.45278  0.97346  0.53937  1.0000
  H   H1031     1.0  0.12782  0.74730  0.67832  1.0000
  H   H1032     1.0  0.06730  0.71650  0.57878  1.0000
  H   H1033     1.0  0.05751  0.70093  0.60575  1.0000
  H   H1034     1.0  0.05316  0.77517  0.59676  1.0000
  C   C602      1.0  0.05734  0.78754  0.56943  1.0000
  H   H1035     1.0  0.05665  0.76150  0.67261  1.0000
  H   H1036     1.0  0.09211  0.72857  0.70331  1.0000
  C   C603      1.0  0.05848  0.72619  0.55280  1.0000
  C   C604      1.0  0.06805  0.70473  0.54345  1.0000
  C   C605      1.0  0.08529  0.81886  0.57152  1.0000
  H   H1037     1.0  0.06420  0.81344  0.69779  1.0000
  H   H1038     1.0  0.01232  0.88669  0.73431  1.0000
  H   H1039     1.0  0.04650  0.82977  0.67178  1.0000
  H   H1040     1.0  0.13744  0.79242  0.72054  1.0000
  N   N36       1.0  0.03384  0.73242  0.58186  1.0000
  C   C606      1.0  0.09046  0.78150  0.71375  1.0000
  C   C607      1.0  0.07438  0.73329  0.69738  1.0000
  C   C608      1.0  0.98887  0.66258  0.51537  1.0000
  H   H1041     1.0  0.46633  0.60011  0.49715  1.0000
  H   H1042     1.0  0.00924  0.73728  0.55920  1.0000
  H   H1043     1.0  0.03690  0.79092  0.57024  1.0000
  H   H1044     1.0  0.05746  0.77882  0.55592  1.0000
  H   H1045     1.0  0.04046  0.71218  0.67583  1.0000
  H   H1046     1.0  0.07903  0.68142  0.68608  1.0000
  H   H1047     1.0  0.00663  0.69459  0.59874  1.0000
  C   C609      1.0  0.06066  0.77108  0.68635  1.0000
  H   H1048     1.0  0.04071  0.72733  0.54440  1.0000
  H   H1049     1.0  0.07891  0.74894  0.55350  1.0000
  H   H1050     1.0  0.08700  0.70384  0.55084  1.0000
  H   H1051     1.0  0.04853  0.68137  0.54226  1.0000
  H   H1052     1.0  0.07582  0.71291  0.52987  1.0000
  H   H1053     1.0  0.08462  0.83422  0.56118  1.0000
  H   H1054     1.0  0.08563  0.82908  0.58474  1.0000
  H   H1055     1.0  0.10655  0.81706  0.56993  1.0000
  H   H1056     1.0  0.47767  0.50063  0.53996  1.0000
  H   H1057     1.0  0.16411  0.79509  0.66336  1.0000
  H   H1058     1.0  0.04388  0.79802  0.65876  1.0000
  H   H1059     1.0  0.07874  0.72425  0.66904  1.0000
  H   H1060     1.0  0.17857  0.81294  0.68488  1.0000
  C   C610      1.0  0.06263  0.71394  0.68002  1.0000
  H   H1061     1.0  0.18302  0.78061  0.67788  1.0000
  C   C611      1.0  0.05734  0.68148  0.68259  1.0000
  H   H1062     1.0  0.12701  0.80713  0.68836  1.0000
  H   H1063     1.0  0.08023  0.76817  0.58547  1.0000
  C   C612      1.0  0.05686  0.76569  0.58411  1.0000
  H   H1064     1.0  0.03007  0.69057  0.57077  1.0000
  C   C613      1.0  0.05117  0.71786  0.61129  1.0000
  H   H1065     1.0  0.42578  0.54464  0.49339  1.0000
  H   H1066     1.0  0.14754  0.89286  0.70494  1.0000
  C   C614      1.0  0.14284  0.89349  0.71887  1.0000
  C   C615      1.0  0.04708  0.71522  0.57171  1.0000
  H   H1067     1.0  0.35577  0.97680  0.49954  1.0000
  C   C616      1.0  0.16405  0.91758  0.72969  1.0000
  H   H1068     1.0  0.04797  0.66802  0.67012  1.0000
  H   H1069     1.0  0.05966  0.70750  0.63797  1.0000
  H   H1070     1.0  0.02093  0.68509  0.63023  1.0000
  C   C617      1.0  0.04093  0.70822  0.63027  1.0000
  C   C618      1.0  0.11561  0.87025  0.72584  1.0000
  C   C619      1.0  0.02527  0.71845  0.59998  1.0000
  H   H1071     1.0  0.01585  0.73069  0.60815  1.0000
  H   H1072     1.0  0.03467  0.72444  0.63692  1.0000
  H   H1073     1.0  0.07167  0.74055  0.61186  1.0000
  S   S147      1.0  0.19963  0.94431  0.72049  1.0000
  H   H1074     1.0  0.09939  0.85248  0.71724  1.0000
  H   H1075     1.0  0.02441  0.70858  0.51182  1.0000
  C   C620      1.0  0.11432  0.77916  0.72601  1.0000
  C   C621      1.0  0.00479  0.72748  0.57263  1.0000
  Fe  Fe72      1.0  0.99278  0.73642  0.72549  1.0000
  H   H1076     1.0  0.00004  0.76171  0.58953  1.0000
  H   H1077     1.0  0.42494  0.49600  0.50427  1.0000
  H   H1078     1.0  0.00928  0.49915  0.54328  1.0000
  H   H1079     1.0  0.10918  0.75520  0.72787  1.0000
  C   C622      1.0  0.98554  0.73949  0.58283  1.0000
  H   H1080     1.0  0.98959  0.70269  0.57024  1.0000
  H   H1081     1.0  0.98585  0.50668  0.51993  1.0000
  H   H1082     1.0  0.20049  0.89068  0.73851  1.0000
  H   H1083     1.0  0.37976  0.50066  0.48957  1.0000
  H   H1084     1.0  0.98739  0.61743  0.85575  1.0000
  H   H1085     1.0  0.34403  0.95771  0.77191  1.0000
  H   H1086     1.0  0.99536  0.92769  0.81932  1.0000
  H   H1087     1.0  0.20958  0.94877  0.80139  1.0000
  H   H1088     1.0  0.05994  0.59506  0.96971  1.0000
  H   H1089     1.0  0.26974  0.90520  0.82908  1.0000
  H   H1090     1.0  0.19985  0.85627  0.74589  1.0000
  C   C623      1.0  0.22214  0.96872  0.79287  1.0000
  H   H1091     1.0  0.02252  0.61996  0.90988  1.0000
  S   S148      1.0  0.02074  0.74784  0.75115  1.0000
  C   C624      1.0  0.99981  0.55697  0.95728  1.0000
  C   C625      1.0  0.13073  0.89421  0.75476  1.0000
  H   H1092     1.0  0.08031  0.51881  0.85039  1.0000
  H   H1093     1.0  0.12640  0.89448  0.76876  1.0000
  S   S149      1.0  0.99183  0.79253  0.76086  1.0000
  H   H1094     1.0  0.00282  0.71113  0.80453  1.0000
  N   N37       1.0  0.25462  0.94314  0.78333  1.0000
  H   H1095     1.0  0.99818  0.59473  0.97196  1.0000
  H   H1096     1.0  0.06962  0.72225  0.98905  1.0000
  H   H1097     1.0  0.28610  0.93028  0.77086  1.0000
  H   H1098     1.0  0.99401  0.89517  0.76289  1.0000
  H   H1099     1.0  0.03409  0.58067  0.98807  1.0000
  H   H1100     1.0  0.23423  0.94164  0.75747  1.0000
  H   H1101     1.0  0.25814  0.90733  0.79736  1.0000
  H   H1102     1.0  0.46386  0.50182  0.93595  1.0000
  H   H1103     1.0  0.99216  0.54232  0.96913  1.0000
  C   C626      1.0  0.01840  0.59764  0.90420  1.0000
  C   C627      1.0  0.01634  0.66136  0.98294  1.0000
  H   H1104     1.0  0.12254  0.81759  0.74343  1.0000
  H   H1105     1.0  0.03153  0.58306  0.92774  1.0000
  C   C628      1.0  0.04155  0.59690  0.97697  1.0000
  C   C629      1.0  0.98824  0.65390  0.97445  1.0000
  C   C630      1.0  0.24788  0.92275  0.79918  1.0000
  C   C631      1.0  0.20059  0.87788  0.75042  1.0000
  C   C632      1.0  0.06891  0.74274  0.98430  1.0000
  H   H1106     1.0  0.28966  0.96581  0.76397  1.0000
  H   H1107     1.0  0.99170  0.87440  0.80118  1.0000
  H   H1108     1.0  0.06453  0.76014  0.95862  1.0000
  C   C633      1.0  0.11525  0.79289  0.74438  1.0000
  H   H1109     1.0  0.43635  0.98201  0.95941  1.0000
  C   C634      1.0  0.05900  0.51764  0.84488  1.0000
  C   C635      1.0  0.28540  0.95100  0.77574  1.0000
  C   C636      1.0  0.48090  0.50040  0.94493  1.0000
  H   H1110     1.0  0.26164  0.92739  0.84508  1.0000
  H   H1111     1.0  0.20800  0.96534  0.78073  1.0000
  C   C637      1.0  0.25819  0.93856  0.81774  1.0000
  H   H1112     1.0  0.20768  0.92009  0.77390  1.0000
  H   H1113     1.0  0.13186  0.79016  0.75308  1.0000
  H   H1114     1.0  0.05397  0.53390  0.85250  1.0000
  C   C638      1.0  0.06621  0.74038  0.96408  1.0000
  H   H1115     1.0  0.11710  0.77454  0.98277  1.0000
  H   H1116     1.0  0.04527  0.71927  0.96004  1.0000
  S   S150      1.0  0.07739  0.83931  0.75395  1.0000
  Fe  Fe73      1.0  0.03245  0.79684  0.74572  1.0000
  H   H1117     1.0  0.39145  0.98152  0.94693  1.0000
  H   H1118     1.0  0.23076  0.89743  0.83260  1.0000
  H   H1119     1.0  0.05092  0.62037  0.98257  1.0000
  H   H1120     1.0  0.28217  0.95668  0.81807  1.0000
  H   H1121     1.0  0.03918  0.60090  0.89715  1.0000
  H   H1122     1.0  0.03494  0.66251  0.97512  1.0000
  H   H1123     1.0  0.22995  0.88196  0.77239  1.0000
  H   H1124     1.0  0.02363  0.60696  0.95357  1.0000
  H   H1125     1.0  0.00888  0.68989  0.83308  1.0000
  C   C639      1.0  0.31326  0.96656  0.78852  1.0000
  H   H1126     1.0  0.99923  0.58950  0.89445  1.0000
  C   C640      1.0  0.25482  0.91562  0.83194  1.0000
  C   C641      1.0  0.01121  0.57443  0.91885  1.0000
  H   H1127     1.0  0.09252  0.78139  0.75062  1.0000
  C   C642      1.0  0.23087  0.92646  0.76894  1.0000
  C   C643      1.0  0.10966  0.86997  0.74395  1.0000
  C   C644      1.0  0.38199  0.98699  0.91996  1.0000
  C   C645      1.0  0.01478  0.59035  0.96443  1.0000
  H   H1128     1.0  0.46288  0.51246  0.96748  1.0000
  C   C646      1.0  0.22950  0.89656  0.76155  1.0000
  C   C647      1.0  0.46899  0.49418  0.96423  1.0000
  H   H1129     1.0  0.98452  0.51548  0.93138  1.0000
  H   H1130     1.0  0.27052  0.98568  0.79824  1.0000
  H   H1131     1.0  0.09331  0.79149  0.98609  1.0000
  H   H1132     1.0  0.24905  0.90183  0.75274  1.0000
  H   H1133     1.0  0.22289  0.90731  0.80015  1.0000
  C   C648      1.0  0.00427  0.86863  0.74441  1.0000
  C   C649      1.0  0.98583  0.70535  0.81467  1.0000
  H   H1134     1.0  0.01790  0.55266  0.95144  1.0000
  H   H1135     1.0  0.36367  0.96306  0.91857  1.0000
  H   H1136     1.0  0.00774  0.55283  0.91247  1.0000
  C   C650      1.0  0.34311  0.97724  0.77857  1.0000
  H   H1137     1.0  0.08617  0.73936  0.95833  1.0000
  H   H1138     1.0  0.24400  0.94924  0.82173  1.0000
  H   H1139     1.0  0.31247  0.95012  0.79857  1.0000
  C   C651      1.0  0.15746  0.91808  0.74766  1.0000
  H   H1140     1.0  0.17333  0.93640  0.75616  1.0000
  H   H1141     1.0  0.02441  0.87066  0.75200  1.0000
  C   C652      1.0  0.25376  0.97235  0.78763  1.0000
  H   H1142     1.0  0.41324  0.97339  0.93114  1.0000
  H   H1143     1.0  0.39764  0.96150  0.98246  1.0000
  H   H1144     1.0  0.99746  0.89717  0.83101  1.0000
  H   H1145     1.0  0.98542  0.59227  0.93348  1.0000
  H   H1146     1.0  0.98991  0.84608  0.77661  1.0000
  H   H1147     1.0  0.06249  0.52467  0.83081  1.0000
  H   H1148     1.0  0.17983  0.87223  0.75824  1.0000
  C   C653      1.0  0.98917  0.69324  0.83090  1.0000
  H   H1149     1.0  0.46273  0.97510  0.93912  1.0000
  H   H1150     1.0  0.36266  0.98820  0.78806  1.0000
  H   H1151     1.0  0.26128  0.98756  0.77601  1.0000
  H   H1152     1.0  0.31420  0.98669  0.79539  1.0000
  H   H1153     1.0  0.04766  0.74198  0.98926  1.0000
  H   H1154     1.0  0.41664  0.49018  0.94709  1.0000
  H   H1155     1.0  0.82930  0.17017  0.16580  1.0000
  H   H1156     1.0  0.55430  0.06785  0.02831  1.0000
  H   H1157     1.0  0.77866  0.09872  0.12610  1.0000
  C   C654      1.0  0.77346  0.07979  0.15257  1.0000
  C   C655      1.0  0.53186  0.00879  0.02723  1.0000
  H   H1158     1.0  0.81893  0.17489  0.18796  1.0000
  Fe  Fe74      1.0  0.69826  0.01150  0.22545  1.0000
  S   S151      1.0  0.74813  0.02951  0.22074  1.0000
  H   H1159     1.0  0.72440  0.11008  0.20440  1.0000
  H   H1160     1.0  0.97482  0.46386  0.18652  1.0000
  S   S152      1.0  0.63081  0.02890  0.03543  1.0000
  H   H1161     1.0  0.87330  0.19652  0.19784  1.0000
  C   C656      1.0  0.91410  0.31577  0.01048  1.0000
  S   S153      1.0  0.66146  0.00043  0.20371  1.0000
  C   C657      1.0  0.72474  0.08800  0.20496  1.0000
  C   C658      1.0  0.64018  0.05592  0.00277  1.0000
  C   C659      1.0  0.63221  0.02868  0.01181  1.0000
  C   C660      1.0  0.79351  0.11106  0.16206  1.0000
  H   H1162     1.0  0.64474  0.07630  0.01027  1.0000
  H   H1163     1.0  0.91829  0.29599  0.01238  1.0000
  C   C661      1.0  0.52927  0.05639  0.03050  1.0000
  H   H1164     1.0  0.93554  0.33683  0.01385  1.0000
  C   C662      1.0  0.70715  0.01669  0.00267  1.0000
  S   S154      1.0  0.59637  0.99509  0.08056  1.0000
  H   H1165     1.0  0.85107  0.13645  0.17865  1.0000
  C   C663      1.0  0.96776  0.39569  0.99162  1.0000
  H   H1166     1.0  0.82257  0.17568  0.23704  1.0000
  C   C664      1.0  0.94154  0.45285  0.11855  1.0000
  H   H1167     1.0  0.85706  0.28733  0.99500  1.0000
  H   H1168     1.0  0.52176  0.09710  0.11558  1.0000
  H   H1169     1.0  0.74351  0.06310  0.19121  1.0000
  H   H1170     1.0  0.83751  0.14065  0.19981  1.0000
  H   H1171     1.0  0.70109  0.06934  0.20287  1.0000
  H   H1172     1.0  0.56781  0.06869  0.08475  1.0000
  H   H1173     1.0  0.93442  0.36757  0.11540  1.0000
  H   H1174     1.0  0.68557  0.02304  0.02626  1.0000
  H   H1175     1.0  0.78753  0.06846  0.14958  1.0000
  H   H1176     1.0  0.73617  0.08867  0.17773  1.0000
  H   H1177     1.0  0.52072  0.00714  0.06386  1.0000
  H   H1178     1.0  0.74457  0.09347  0.13743  1.0000
  C   C665      1.0  0.83461  0.16966  0.18006  1.0000
  H   H1179     1.0  0.80665  0.08250  0.21375  1.0000
  C   C666      1.0  0.65853  0.99477  0.14220  1.0000
  C   C667      1.0  0.76019  0.08369  0.13504  1.0000
  C   C668      1.0  0.83220  0.13853  0.18530  1.0000
  C   C669      1.0  0.86687  0.19551  0.18361  1.0000
  H   H1180     1.0  0.75420  0.06397  0.16066  1.0000
  H   H1181     1.0  0.83949  0.05191  0.19439  1.0000
  H   H1182     1.0  0.78193  0.12538  0.16067  1.0000
  C   C670      1.0  0.48474  0.00694  0.03825  1.0000
  H   H1183     1.0  0.81438  0.12213  0.15387  1.0000
  H   H1184     1.0  0.74686  0.06113  0.12833  1.0000
  N   N38       1.0  0.51905  0.02536  0.03828  1.0000
  C   C671      1.0  0.89243  0.17832  0.23752  1.0000
  Fe  Fe75      1.0  0.96705  0.25497  0.23512  1.0000
  H   H1185     1.0  0.87770  0.21200  0.23362  1.0000
  C   C672      1.0  0.95887  0.37376  0.11413  1.0000
  C   C673      1.0  0.68764  0.00567  0.17032  1.0000
  C   C674      1.0  0.53049  0.02943  0.05719  1.0000
  H   H1186     1.0  0.96577  0.36395  0.12532  1.0000
  H   H1187     1.0  0.73277  0.08564  0.21833  1.0000
  H   H1188     1.0  0.88364  0.19231  0.17546  1.0000
  H   H1189     1.0  0.84414  0.10076  0.20447  1.0000
  C   C675      1.0  0.82071  0.08163  0.20270  1.0000
  H   H1190     1.0  0.52571  0.07161  0.04002  1.0000
  H   H1191     1.0  0.80082  0.03192  0.20218  1.0000
  H   H1192     1.0  0.57477  0.02986  0.05486  1.0000
  C   C676      1.0  0.57423  0.05161  0.07953  1.0000
  C   C677      1.0  0.77862  0.11130  0.19346  1.0000
  C   C678      1.0  0.82331  0.05238  0.20427  1.0000
  H   H1193     1.0  0.59926  0.06089  0.08128  1.0000
  H   H1194     1.0  0.83188  0.05129  0.21775  1.0000
  H   H1195     1.0  0.52227  0.04321  0.06489  1.0000
  C   C679      1.0  0.80661  0.08295  0.18449  1.0000
  H   H1196     1.0  0.50943  0.05828  0.12184  1.0000
  H   H1197     1.0  0.77764  0.13294  0.19205  1.0000
  C   C680      1.0  0.50212  0.07378  0.11543  1.0000
  H   H1198     1.0  0.57719  0.06678  0.05291  1.0000
  H   H1199     1.0  0.70913  0.01302  0.17725  1.0000
  C   C681      1.0  0.74534  0.08603  0.19069  1.0000
  H   H1200     1.0  0.78532  0.11128  0.20749  1.0000
  H   H1201     1.0  0.86802  0.21762  0.18016  1.0000
  C   C682      1.0  0.62639  0.00255  0.00190  1.0000
  N   N39       1.0  0.80213  0.11048  0.18130  1.0000
  H   H1202     1.0  0.82188  0.08163  0.17419  1.0000
  H   H1203     1.0  0.78478  0.06155  0.18303  1.0000
  C   C683      1.0  0.97686  0.46838  0.11861  1.0000
  H   H1204     1.0  0.89614  0.31423  0.01967  1.0000
  C   C684      1.0  0.56559  0.04487  0.05987  1.0000
  H   H1205     1.0  0.96269  0.45590  0.15375  1.0000
  H   H1206     1.0  0.93155  0.42826  0.11512  1.0000
  C   C685      1.0  0.51435  0.05702  0.01245  1.0000
  H   H1207     1.0  0.56260  0.03052  0.08735  1.0000
  H   H1208     1.0  0.52252  0.10385  0.01579  1.0000
  H   H1209     1.0  0.72383  0.02868  0.02999  1.0000
  H   H1210     1.0  0.55198  0.09992  0.00390  1.0000
  C   C686      1.0  0.92969  0.46710  0.10475  1.0000
  H   H1211     1.0  0.96178  0.36360  0.10158  1.0000
  S   S155      1.0  0.95687  0.29456  0.23597  1.0000
  H   H1212     1.0  0.73500  0.06588  0.00565  1.0000
  H   H1213     1.0  0.70700  0.01101  0.14424  1.0000
  H   H1214     1.0  0.68513  0.00079  0.99609  1.0000
  H   H1215     1.0  0.93722  0.46462  0.09128  1.0000
  H   H1216     1.0  0.95339  0.41271  0.13631  1.0000
  H   H1217     1.0  0.90197  0.33763  0.99002  1.0000
  H   H1218     1.0  0.72356  0.00822  0.99980  1.0000
  C   C687      1.0  0.68632  0.00439  0.15157  1.0000
  C   C688      1.0  0.66118  0.99776  0.18002  1.0000
  S   S156      1.0  0.65878  0.99530  0.11849  1.0000
  H   H1219     1.0  0.52203  0.00469  0.01357  1.0000
  S   S157      1.0  0.93260  0.20356  0.23615  1.0000
  H   H1220     1.0  0.51898  0.04376  0.00215  1.0000
  H   H1221     1.0  0.97031  0.41679  0.10265  1.0000
  H   H1222     1.0  0.93297  0.45532  0.13165  1.0000
  H   H1223     1.0  0.90438  0.45548  0.10477  1.0000
  C   C689      1.0  0.83916  0.16752  0.23795  1.0000
  H   H1224     1.0  0.55694  0.02306  0.02563  1.0000
  C   C690      1.0  0.97742  0.42312  0.13184  1.0000
  H   H1225     1.0  0.49545  0.06626  0.10141  1.0000
  C   C691      1.0  0.71784  0.04953  0.99600  1.0000
  Fe  Fe76      1.0  0.61738  0.98989  0.05518  1.0000
  C   C692      1.0  0.97855  0.40832  0.11386  1.0000
  H   H1226     1.0  0.72377  0.10496  0.99550  1.0000
  C   C693      1.0  0.70202  0.01481  0.02266  1.0000
  H   H1227     1.0  0.69731  0.05285  0.99735  1.0000
  C   C694      1.0  0.52702  0.08967  0.00600  1.0000
  H   H1228     1.0  0.77175  0.04110  0.99704  1.0000
  H   H1229     1.0  0.48930  0.04754  0.01351  1.0000
  H   H1230     1.0  0.69251  0.99080  0.02687  1.0000
  H   H1231     1.0  0.51588  0.08985  0.99324  1.0000
  H   H1232     1.0  0.98385  0.46588  0.10501  1.0000
  H   H1233     1.0  0.95042  0.40268  0.99337  1.0000
  C   C695      1.0  0.87051  0.18827  0.23607  1.0000
  C   C696      1.0  0.90483  0.31697  0.99127  1.0000
  H   H1234     1.0  0.52317  0.48531  0.06462  1.0000
  H   H1235     1.0  0.87752  0.26764  0.98952  1.0000
  H   H1236     1.0  0.85214  0.22294  0.28443  1.0000
  H   H1237     1.0  0.80782  0.15957  0.27694  1.0000
  H   H1238     1.0  0.91137  0.24200  0.26142  1.0000
  Fe  Fe77      1.0  0.70646  0.00708  0.26646  1.0000
  S   S158      1.0  0.75747  0.02491  0.26394  1.0000
  H   H1239     1.0  0.93561  0.43774  0.48729  1.0000
  S   S159      1.0  0.78919  0.11168  0.24423  1.0000
  H   H1240     1.0  0.86227  0.20117  0.26981  1.0000
  H   H1241     1.0  0.80345  0.18224  0.29452  1.0000
  S   S160      1.0  0.70616  0.04341  0.24888  1.0000
  H   H1242     1.0  0.88005  0.24602  0.30975  1.0000
  C   C697      1.0  0.84676  0.18103  0.29525  1.0000
  H   H1243     1.0  0.97412  0.33148  0.47524  1.0000
  C   C698      1.0  0.70083  0.13350  0.47577  1.0000
  C   C699      1.0  0.62974  0.02577  0.47875  1.0000
  H   H1244     1.0  0.88958  0.26773  0.24312  1.0000
  H   H1245     1.0  0.56345  0.03357  0.47216  1.0000
  H   H1246     1.0  0.91006  0.28324  0.33514  1.0000
  C   C700      1.0  0.64883  0.99927  0.34736  1.0000
  C   C701      1.0  0.90035  0.24291  0.30694  1.0000
  H   H1247     1.0  0.92661  0.29256  0.30355  1.0000
  H   H1248     1.0  0.85381  0.16342  0.29225  1.0000
  C   C702      1.0  0.66574  0.02417  0.33635  1.0000
  C   C703      1.0  0.67538  0.02007  0.31939  1.0000
  C   C704      1.0  0.86467  0.20951  0.28375  1.0000
  H   H1249     1.0  0.89989  0.22672  0.31714  1.0000
  C   C705      1.0  0.82908  0.13642  0.24118  1.0000
  H   H1250     1.0  0.67159  0.04691  0.34099  1.0000
  H   H1251     1.0  0.68843  0.03951  0.31121  1.0000
  H   H1252     1.0  0.69167  0.14966  0.47358  1.0000
  H   H1253     1.0  0.68244  0.11008  0.47265  1.0000
  H   H1254     1.0  0.71989  0.13868  0.46656  1.0000
  H   H1255     1.0  0.49816  0.05115  0.46404  1.0000
  H   H1256     1.0  0.80035  0.14553  0.29918  1.0000
  H   H1257     1.0  0.85050  0.18696  0.30960  1.0000
  C   C706      1.0  0.89635  0.27392  0.27182  1.0000
  H   H1258     1.0  0.95003  0.27486  0.30707  1.0000
  C   C707      1.0  0.56497  0.02869  0.36116  1.0000
  Fe  Fe78      1.0  0.75680  0.05955  0.24501  1.0000
  H   H1259     1.0  0.57611  0.98974  0.29719  1.0000
  H   H1260     1.0  0.91470  0.29780  0.27041  1.0000
  H   H1261     1.0  0.52744  0.03341  0.44384  1.0000
  H   H1262     1.0  0.91000  0.19865  0.27452  1.0000
  S   S161      1.0  0.61666  0.02117  0.45620  1.0000
  H   H1263     1.0  0.53921  0.99314  0.47033  1.0000
  C   C708      1.0  0.91143  0.25303  0.27439  1.0000
  C   C709      1.0  0.55507  0.99417  0.36205  1.0000
  C   C710      1.0  0.58463  0.04596  0.37727  1.0000
  C   C711      1.0  0.49294  0.04758  0.44960  1.0000
  C   C712      1.0  0.59134  0.00521  0.30781  1.0000
  H   H1264     1.0  0.95962  0.19884  0.27416  1.0000
  C   C713      1.0  0.81254  0.16633  0.29119  1.0000
  H   H1265     1.0  0.57150  0.03782  0.38965  1.0000
  C   C714      1.0  0.93106  0.28287  0.33063  1.0000
  C   C715      1.0  0.92848  0.27437  0.31093  1.0000
  C   C716      1.0  0.87608  0.26579  0.25512  1.0000
  C   C717      1.0  0.91317  0.20937  0.28797  1.0000
  H   H1266     1.0  0.88306  0.27412  0.28349  1.0000
  N   N40       1.0  0.89794  0.22934  0.28857  1.0000
  H   H1267     1.0  0.93597  0.26852  0.27701  1.0000
  H   H1268     1.0  0.85680  0.24237  0.25560  1.0000
  H   H1269     1.0  0.90241  0.19030  0.29734  1.0000
  H   H1270     1.0  0.54121  0.07399  0.44400  1.0000
  H   H1271     1.0  0.60533  0.04294  0.37813  1.0000
  H   H1272     1.0  0.59668  0.00787  0.33603  1.0000
  C   C718      1.0  0.85094  0.12635  0.24221  1.0000
  S   S162      1.0  0.63670  0.00611  0.36849  1.0000
  C   C719      1.0  0.63275  0.05120  0.48871  1.0000
  H   H1273     1.0  0.59202  0.07064  0.37610  1.0000
  H   H1274     1.0  0.57862  0.03888  0.34919  1.0000
  H   H1275     1.0  0.96083  0.24598  0.28590  1.0000
  H   H1276     1.0  0.93502  0.26649  0.33865  1.0000
  H   H1277     1.0  0.52280  0.01755  0.47582  1.0000
  H   H1278     1.0  0.54493  0.03274  0.36093  1.0000
  H   H1279     1.0  0.51829  0.05092  0.42558  1.0000
  C   C720      1.0  0.94747  0.22464  0.29304  1.0000
  C   C721      1.0  0.52168  0.05163  0.44020  1.0000
  H   H1280     1.0  0.95054  0.22965  0.30752  1.0000
  H   H1281     1.0  0.94879  0.18171  0.29574  1.0000
  C   C722      1.0  0.63716  0.00507  0.48696  1.0000
  H   H1282     1.0  0.62723  0.06745  0.48249  1.0000
  H   H1283     1.0  0.54702  0.00862  0.32687  1.0000
  C   C723      1.0  0.54307  0.01409  0.47774  1.0000
  H   H1284     1.0  0.59235  0.02787  0.30675  1.0000
  C   C724      1.0  0.66796  0.99084  0.31303  1.0000
  H   H1285     1.0  0.95065  0.30594  0.33291  1.0000
  C   C725      1.0  0.96105  0.20356  0.28868  1.0000
  H   H1286     1.0  0.86661  0.28187  0.25388  1.0000
  C   C726      1.0  0.97596  0.44199  0.47506  1.0000
  H   H1287     1.0  0.61462  0.00807  0.30575  1.0000
  H   H1288     1.0  0.50643  0.99708  0.34591  1.0000
  H   H1289     1.0  0.96819  0.44385  0.46149  1.0000
  C   C727      1.0  0.96053  0.45274  0.48876  1.0000
  H   H1290     1.0  0.96565  0.47625  0.48533  1.0000
  H   H1291     1.0  0.84376  0.10260  0.24469  1.0000
  H   H1292     1.0  0.89887  0.13896  0.24147  1.0000
  H   H1293     1.0  0.96990  0.41778  0.47720  1.0000
  H   H1294     1.0  0.48810  0.06594  0.44520  1.0000
  C   C728      1.0  0.58023  0.99188  0.32607  1.0000
  S   S163      1.0  0.58321  0.99063  0.40959  1.0000
  H   H1295     1.0  0.57594  0.99149  0.36295  1.0000
  C   C729      1.0  0.88228  0.14712  0.24040  1.0000
  Fe  Fe79      1.0  0.74524  0.99395  0.23982  1.0000
  Fe  Fe80      1.0  0.95427  0.36313  0.55379  1.0000
  S   S164      1.0  0.90413  0.34926  0.55220  1.0000
  H   H1296     1.0  0.56753  0.00556  0.49843  1.0000
  Fe  Fe81      1.0  0.94958  0.34599  0.59417  1.0000
  S   S165      1.0  0.89964  0.33237  0.59470  1.0000
  H   H1297     1.0  0.53901  0.04816  0.50394  1.0000
  Fe  Fe82      1.0  0.89624  0.30866  0.56866  1.0000
  S   S166      1.0  0.86339  0.25793  0.56380  1.0000
  Fe  Fe83      1.0  0.91186  0.37434  0.57844  1.0000
  S   S167      1.0  0.88922  0.40453  0.58249  1.0000
  S   S168      1.0  0.94605  0.32077  0.56844  1.0000
  S   S169      1.0  0.96212  0.38975  0.57963  1.0000
  Fe  Fe84      1.0  0.62506  0.08236  0.58582  1.0000
  S   S170      1.0  0.63832  0.04487  0.58493  1.0000
  S   S171      1.0  0.57359  0.06443  0.58829  1.0000
  Fe  Fe85      1.0  0.69129  0.13107  0.58103  1.0000
  S   S172      1.0  0.70789  0.09650  0.57906  1.0000
  S   S173      1.0  0.72182  0.18255  0.58125  1.0000
  Fe  Fe86      1.0  0.66636  0.06943  0.56143  1.0000
  S   S174      1.0  0.66483  0.04038  0.53708  1.0000
  Fe  Fe87      1.0  0.67813  0.07501  0.60264  1.0000
  S   S175      1.0  0.70159  0.06131  0.62443  1.0000
  S   S176      1.0  0.65184  0.10577  0.56170  1.0000
  S   S177      1.0  0.66302  0.11081  0.60529  1.0000
  Fe  Fe88      1.0  0.71181  0.02999  0.72661  1.0000
  S   S178      1.0  0.67571  0.02638  0.70635  1.0000
  S   S179      1.0  0.75361  0.02693  0.71871  1.0000
  H   H1298     1.0  0.81882  0.21658  0.70160  1.0000
  H   H1299     1.0  0.51161  0.10139  0.63960  1.0000
  C   C730      1.0  0.86968  0.40676  0.53412  1.0000
  H   H1300     1.0  0.50711  0.43870  0.56850  1.0000
  H   H1301     1.0  0.91000  0.26793  0.64764  1.0000
  C   C731      1.0  0.69327  0.05137  0.64711  1.0000
  C   C732      1.0  0.71307  0.04412  0.65693  1.0000
  C   C733      1.0  0.70828  0.03698  0.67507  1.0000
  C   C734      1.0  0.68321  0.03641  0.68362  1.0000
  C   C735      1.0  0.66319  0.04338  0.67376  1.0000
  C   C736      1.0  0.66832  0.05110  0.65567  1.0000
  H   H1302     1.0  0.73233  0.04406  0.65045  1.0000
  H   H1303     1.0  0.72370  0.03138  0.68235  1.0000
  H   H1304     1.0  0.64362  0.04286  0.68018  1.0000
  H   H1305     1.0  0.65282  0.05655  0.64833  1.0000
  C   C737      1.0  0.65078  0.03536  0.51473  1.0000
  C   C738      1.0  0.94170  0.25639  0.59537  1.0000
  C   C739      1.0  0.64320  0.05601  0.50655  1.0000
  H   H1306     1.0  0.64593  0.07592  0.51386  1.0000
  C   C740      1.0  0.51631  0.11131  0.57330  1.0000
  C   C741      1.0  0.54829  0.12813  0.57414  1.0000
  C   C742      1.0  0.56621  0.11406  0.57845  1.0000
  C   C743      1.0  0.55225  0.08300  0.58205  1.0000
  C   C744      1.0  0.52026  0.06610  0.58108  1.0000
  H   H1307     1.0  0.69159  0.12959  0.50353  1.0000
  H   H1308     1.0  0.59077  0.12739  0.57937  1.0000
  H   H1309     1.0  0.50928  0.04205  0.58389  1.0000
  H   H1310     1.0  0.73309  0.07986  0.54342  1.0000
  C   C745      1.0  0.90188  0.99536  0.73365  1.0000
  C   C746      1.0  0.94784  0.33173  0.64938  1.0000
  C   C747      1.0  0.94405  0.32451  0.66757  1.0000
  H   H1311     1.0  0.93328  0.33926  0.64282  1.0000
  H   H1312     1.0  0.92608  0.32602  0.67474  1.0000
  C   C748      1.0  0.82433  0.23745  0.56941  1.0000
  C   C749      1.0  0.80899  0.20561  0.56702  1.0000
  C   C750      1.0  0.77792  0.18834  0.57121  1.0000
  C   C751      1.0  0.76159  0.20287  0.57732  1.0000
  C   C752      1.0  0.77692  0.23470  0.57969  1.0000
  C   C753      1.0  0.80819  0.25190  0.57593  1.0000
  H   H1313     1.0  0.82132  0.19423  0.56201  1.0000
  H   H1314     1.0  0.76650  0.16386  0.56948  1.0000
  H   H1315     1.0  0.76450  0.24620  0.58439  1.0000
  H   H1316     1.0  0.81964  0.27639  0.57779  1.0000
  C   C754      1.0  0.90854  0.44501  0.58376  1.0000
  C   C755      1.0  0.89180  0.46101  0.58180  1.0000
  C   C756      1.0  0.94005  0.46151  0.58660  1.0000
  H   H1317     1.0  0.86739  0.44847  0.57964  1.0000
  H   H1318     1.0  0.95312  0.44950  0.58835  1.0000
  S   S180      1.0  0.81710  0.10998  0.72058  1.0000
  H   H1319     1.0  0.52100  0.44474  0.61112  1.0000
  H   H1320     1.0  0.69425  0.18285  0.51211  1.0000
  H   H1321     1.0  0.82142  0.20531  0.60539  1.0000
  H   H1322     1.0  0.52992  0.03646  0.55084  1.0000
  H   H1323     1.0  0.88904  0.30263  0.62773  1.0000
  N   N41       1.0  0.55734  0.03932  0.52813  1.0000
  C   C757      1.0  0.82803  0.24569  0.51499  1.0000
  H   H1324     1.0  0.49024  0.39243  0.58590  1.0000
  C   C758      1.0  0.58085  0.07040  0.53483  1.0000
  H   H1325     1.0  0.89635  0.11220  0.72680  1.0000
  H   H1326     1.0  0.81432  0.19918  0.52065  1.0000
  H   H1327     1.0  0.97133  0.42949  0.50959  1.0000
  C   C759      1.0  0.57492  0.09734  0.52982  1.0000
  H   H1328     1.0  0.69463  0.09236  0.70435  1.0000
  C   C760      1.0  0.71153  0.13536  0.49501  1.0000
  H   H1329     1.0  0.91085  0.44418  0.51168  1.0000
  H   H1330     1.0  0.55232  0.08754  0.64494  1.0000
  C   C761      1.0  0.60288  0.12793  0.53383  1.0000
  C   C762      1.0  0.82080  0.00546  0.70518  1.0000
  H   H1331     1.0  0.86795  0.16468  0.70908  1.0000
  N   N42       1.0  0.74767  0.17361  0.51892  1.0000
  H   H1332     1.0  0.73100  0.16589  0.62073  1.0000
  H   H1333     1.0  0.60387  0.07537  0.53012  1.0000
  H   H1334     1.0  0.58248  0.07118  0.54955  1.0000
  C   C763      1.0  0.50030  0.00071  0.53237  1.0000
  H   H1335     1.0  0.83999  0.00269  0.69977  1.0000
  C   C764      1.0  0.53369  0.07418  0.63521  1.0000
  C   C765      1.0  0.64771  0.00994  0.50478  1.0000
  H   H1336     1.0  0.59025  0.03465  0.55942  1.0000
  C   C766      1.0  0.52349  0.37452  0.64482  1.0000
  H   H1337     1.0  0.55583  0.09661  0.53770  1.0000
  C   C767      1.0  0.71087  0.11558  0.70928  1.0000
  H   H1338     1.0  0.81115  0.02729  0.72724  1.0000
  C   C768      1.0  0.97896  0.35651  0.49970  1.0000
  C   C769      1.0  0.90179  0.17957  0.73005  1.0000
  H   H1339     1.0  0.91642  0.09334  0.71771  1.0000
  C   C770      1.0  0.90373  0.42602  0.53819  1.0000
  C   C771      1.0  0.54816  0.01073  0.49740  1.0000
  H   H1340     1.0  0.92047  0.21337  0.67639  1.0000
  H   H1341     1.0  0.72428  0.21572  0.52318  1.0000
  H   H1342     1.0  0.88925  0.25596  0.60139  1.0000
  H   H1343     1.0  0.59032  0.02275  0.52759  1.0000
  H   H1344     1.0  0.51968  0.04908  0.53148  1.0000
  H   H1345     1.0  0.52638  0.40074  0.56103  1.0000
  H   H1346     1.0  0.60934  0.12994  0.54809  1.0000
  H   H1347     1.0  0.76741  0.22202  0.51379  1.0000
  N   N43       1.0  0.95605  0.45840  0.52281  1.0000
  H   H1348     1.0  0.75724  0.14922  0.70680  1.0000
  H   H1349     1.0  0.84629  0.22206  0.68458  1.0000
  H   H1350     1.0  0.90440  0.04972  0.73457  1.0000
  H   H1351     1.0  0.55928  0.15230  0.57166  1.0000
  H   H1352     1.0  0.93933  0.25164  0.66837  1.0000
  H   H1353     1.0  0.96199  0.33702  0.50656  1.0000
  C   C772      1.0  0.56262  0.42766  0.62509  1.0000
  C   C773      1.0  0.85433  0.25424  0.62749  1.0000
  H   H1354     1.0  0.62236  0.13042  0.52568  1.0000
  H   H1355     1.0  0.83975  0.29968  0.61756  1.0000
  C   C774      1.0  0.55139  0.47755  0.57370  1.0000
  H   H1356     1.0  0.91020  0.21769  0.60945  1.0000
  H   H1357     1.0  0.80689  0.15147  0.61347  1.0000
  H   H1358     1.0  0.80714  0.07633  0.67290  1.0000
  H   H1359     1.0  0.81040  0.15766  0.58998  1.0000
  H   H1360     1.0  0.83529  0.11183  0.68293  1.0000
  H   H1361     1.0  0.73526  0.13213  0.61836  1.0000
  C   C775      1.0  0.83917  0.19784  0.60597  1.0000
  C   C776      1.0  0.58117  0.46025  0.61765  1.0000
  C   C777      1.0  0.56785  0.01668  0.53361  1.0000
  H   H1362     1.0  0.91098  0.41200  0.54623  1.0000
  C   C778      1.0  0.86638  0.06831  0.71348  1.0000
  H   H1363     1.0  0.91391  0.99975  0.72082  1.0000
  C   C779      1.0  0.50619  0.38276  0.58666  1.0000
  H   H1364     1.0  0.81664  0.02081  0.69630  1.0000
  Fe  Fe89      1.0  0.98021  0.29573  0.72319  1.0000
  C   C780      1.0  0.70720  0.19157  0.52479  1.0000
  H   H1365     1.0  0.50431  0.32507  0.64395  1.0000
  C   C781      1.0  0.57136  0.01348  0.55378  1.0000
  C   C782      1.0  0.90368  0.11767  0.69901  1.0000
  C   C783      1.0  0.96356  0.31589  0.67667  1.0000
  H   H1366     1.0  0.84779  0.07478  0.71304  1.0000
  H   H1367     1.0  0.75769  0.09508  0.52476  1.0000
  C   C784      1.0  0.50235  0.08010  0.57658  1.0000
  H   H1368     1.0  0.88486  0.12315  0.69637  1.0000
  H   H1369     1.0  0.86644  0.05876  0.70009  1.0000
  C   C785      1.0  0.51138  0.42340  0.61869  1.0000
  H   H1370     1.0  0.72775  0.12628  0.54631  1.0000
  C   C786      1.0  0.51398  0.37846  0.56764  1.0000
  H   H1371     1.0  0.90482  0.23872  0.68093  1.0000
  Fe  Fe90      1.0  0.77879  0.07058  0.73443  1.0000
  H   H1372     1.0  0.54504  0.42639  0.59070  1.0000
  H   H1373     1.0  0.82080  0.25970  0.50691  1.0000
  H   H1374     1.0  0.85058  0.24934  0.51030  1.0000
  C   C787      1.0  0.80479  0.21194  0.51325  1.0000
  C   C788      1.0  0.82805  0.01924  0.72427  1.0000
  H   H1375     1.0  0.95764  0.24684  0.59364  1.0000
  H   H1376     1.0  0.56145  0.43060  0.63959  1.0000
  H   H1377     1.0  0.56861  0.47353  0.61898  1.0000
  H   H1378     1.0  0.90684  0.44576  0.54641  1.0000
  H   H1379     1.0  0.71552  0.10888  0.52488  1.0000
  C   C789      1.0  0.75016  0.10121  0.53727  1.0000
  H   H1380     1.0  0.83073  0.25352  0.52906  1.0000
  H   H1381     1.0  0.90653  0.10567  0.68727  1.0000
  H   H1382     1.0  0.71916  0.11786  0.49644  1.0000
  C   C790      1.0  0.86786  0.28753  0.63463  1.0000
  H   H1383     1.0  0.52134  0.39149  0.65343  1.0000
  H   H1384     1.0  0.57668  0.41583  0.62344  1.0000
  C   C791      1.0  0.51949  0.46045  0.57530  1.0000
  C   C792      1.0  0.51607  0.37695  0.62505  1.0000
  H   H1385     1.0  0.71272  0.11489  0.72393  1.0000
  H   H1386     1.0  0.87704  0.19965  0.65646  1.0000
  N   N44       1.0  0.86001  0.04466  0.72748  1.0000
  H   H1387     1.0  0.70295  0.14799  0.53074  1.0000
  H   H1388     1.0  0.70169  0.13137  0.70601  1.0000
  H   H1389     1.0  0.95539  0.28145  0.59703  1.0000
  H   H1390     1.0  0.91850  0.19864  0.72277  1.0000
  H   H1391     1.0  0.77170  0.14740  0.51487  1.0000
  C   C793      1.0  0.73578  0.12174  0.53353  1.0000
  H   H1392     1.0  0.91417  0.28003  0.61801  1.0000
  H   H1393     1.0  0.52897  0.05007  0.63550  1.0000
  C   C794      1.0  0.84541  0.30001  0.63187  1.0000
  C   C795      1.0  0.97237  0.45213  0.50781  1.0000
  H   H1394     1.0  0.84652  0.25432  0.61359  1.0000
  H   H1395     1.0  0.59768  0.14671  0.53067  1.0000
  C   C796      1.0  0.91672  0.23191  0.67087  1.0000
  H   H1396     1.0  0.85130  0.21102  0.70650  1.0000
  H   H1397     1.0  0.76991  0.11269  0.54659  1.0000
  H   H1398     1.0  0.52655  0.44417  0.64539  1.0000
  C   C797      1.0  0.50383  0.47117  0.58611  1.0000
  H   H1399     1.0  0.85519  0.20834  0.59494  1.0000
  H   H1400     1.0  0.56349  0.46865  0.56578  1.0000
  H   H1401     1.0  0.60098  0.99253  0.55120  1.0000
  H   H1402     1.0  0.85586  0.32396  0.63682  1.0000
  H   H1403     1.0  0.52253  0.36123  0.61783  1.0000
  H   H1404     1.0  0.54170  0.08329  0.62180  1.0000
  H   H1405     1.0  0.87328  0.28919  0.64903  1.0000
  H   H1406     1.0  0.95734  0.45689  0.55162  1.0000
  C   C798      1.0  0.89708  0.09817  0.71550  1.0000
  H   H1407     1.0  0.75064  0.11024  0.70530  1.0000
  C   C799      1.0  0.82325  0.16336  0.60278  1.0000
  C   C800      1.0  0.87310  0.16035  0.72235  1.0000
  H   H1408     1.0  0.83332  0.24043  0.63516  1.0000
  N   N45       1.0  0.87534  0.24010  0.62813  1.0000
  H   H1409     1.0  0.67230  0.20277  0.53386  1.0000
  H   H1410     1.0  0.84097  0.10109  0.66095  1.0000
  H   H1411     1.0  0.92718  0.25115  0.58321  1.0000
  H   H1412     1.0  0.85709  0.39983  0.54676  1.0000
  C   C801      1.0  0.73826  0.16724  0.49962  1.0000
  H   H1413     1.0  0.82411  0.28639  0.63924  1.0000
  C   C802      1.0  0.68501  0.19104  0.53882  1.0000
  C   C803      1.0  0.96911  0.45385  0.53999  1.0000
  H   H1414     1.0  0.54727  0.37826  0.64618  1.0000
  H   H1415     1.0  0.73020  0.17747  0.54427  1.0000
  H   H1416     1.0  0.66843  0.16734  0.54216  1.0000
  N   N46       1.0  0.76955  0.13702  0.67079  1.0000
  C   C804      1.0  0.78119  0.11461  0.67448  1.0000
  C   C805      1.0  0.74030  0.12750  0.68072  1.0000
  C   C806      1.0  0.76182  0.13478  0.65120  1.0000
  C   C807      1.0  0.79264  0.16956  0.67549  1.0000
  C   C808      1.0  0.81589  0.17453  0.69075  1.0000
  C   C809      1.0  0.80717  0.11688  0.66236  1.0000
  C   C810      1.0  0.74495  0.15252  0.64499  1.0000
  C   C811      1.0  0.74223  0.12624  0.70114  1.0000
  C   C812      1.0  0.50522  0.07688  0.63990  1.0000
  C   C813      1.0  0.83412  0.20814  0.69610  1.0000
  C   C814      1.0  0.82360  0.10047  0.67030  1.0000
  H   H1417     1.0  0.77738  0.21346  0.53488  1.0000
  H   H1418     1.0  0.76236  0.09094  0.67304  1.0000
  H   H1419     1.0  0.78874  0.11615  0.68847  1.0000
  H   H1420     1.0  0.73089  0.14337  0.67814  1.0000
  H   H1421     1.0  0.72261  0.10464  0.67582  1.0000
  H   H1422     1.0  0.74737  0.11053  0.64704  1.0000
  H   H1423     1.0  0.78284  0.14308  0.64324  1.0000
  H   H1424     1.0  0.80673  0.18112  0.66382  1.0000
  H   H1425     1.0  0.78075  0.18304  0.67885  1.0000
  H   H1426     1.0  0.83248  0.16692  0.68645  1.0000
  H   H1427     1.0  0.80483  0.16173  0.70277  1.0000
  H   H1428     1.0  0.79744  0.10595  0.64926  1.0000
  H   H1429     1.0  0.82417  0.14091  0.66008  1.0000
  H   H1430     1.0  0.75559  0.17587  0.65084  1.0000
  H   H1431     1.0  0.72069  0.14027  0.64899  1.0000
  H   H1432     1.0  0.86529  0.38584  0.52650  1.0000
  C   C815      1.0  0.89965  0.25558  0.61445  1.0000
  C   C816      1.0  0.92248  0.43567  0.52099  1.0000
  H   H1433     1.0  0.55230  0.39571  0.59573  1.0000
  C   C817      1.0  0.85609  0.20647  0.62418  1.0000
  C   C818      1.0  0.92211  0.24265  0.61163  1.0000
  H   H1434     1.0  0.83854  0.19606  0.63458  1.0000
  H   H1435     1.0  0.56911  0.09686  0.51557  1.0000
  H   H1436     1.0  0.91153  0.21574  0.64397  1.0000
  C   C819      1.0  0.88392  0.03413  0.72651  1.0000
  H   H1437     1.0  0.86095  0.42002  0.52650  1.0000
  H   H1438     1.0  0.92503  0.13940  0.70120  1.0000
  H   H1439     1.0  0.89235  0.03579  0.71272  1.0000
  H   H1440     1.0  0.87336  0.24573  0.65661  1.0000
  H   H1441     1.0  0.69768  0.20309  0.55110  1.0000
  C   C820      1.0  0.85142  0.13528  0.73156  1.0000
  C   C821      1.0  0.52727  0.03266  0.53622  1.0000
  H   H1442     1.0  0.58666  0.45957  0.60349  1.0000
  C   C822      1.0  0.88938  0.24519  0.64659  1.0000
  N   N47       1.0  0.53127  0.40827  0.61698  1.0000
  H   H1443     1.0  0.57804  0.05760  0.50279  1.0000
  H   H1444     1.0  0.91949  0.41381  0.51502  1.0000
  H   H1445     1.0  0.86979  0.19432  0.62489  1.0000
  H   H1446     1.0  0.77636  0.16360  0.53649  1.0000
  C   C823      1.0  0.77341  0.20593  0.52066  1.0000
  C   C824      1.0  0.55571  0.04039  0.50807  1.0000
  C   C825      1.0  0.75931  0.15238  0.52556  1.0000
  C   C826      1.0  0.97092  0.32988  0.63984  1.0000
  S   S181      1.0  0.95678  0.30605  0.69955  1.0000
  H   H1447     1.0  0.93782  0.24860  0.62327  1.0000
  C   C827      1.0  0.74507  0.15505  0.62481  1.0000
  H   H1448     1.0  0.52814  0.36668  0.56750  1.0000
  C   C828      1.0  0.53543  0.40427  0.59747  1.0000
  H   H1449     1.0  0.84025  0.15491  0.60213  1.0000
  C   C829      1.0  0.72198  0.17156  0.53029  1.0000
  C   C830      1.0  0.89807  0.22108  0.65361  1.0000
  H   H1450     1.0  0.76856  0.16930  0.62003  1.0000
  H   H1451     1.0  0.55012  0.00832  0.56089  1.0000
  H   H1452     1.0  0.49264  0.36425  0.55997  1.0000
  H   H1453     1.0  0.96476  0.42984  0.54072  1.0000
  S   S182      1.0  0.49490  0.13050  0.56858  1.0000
  H   H1454     1.0  0.80298  0.20537  0.49904  1.0000
  C   C831      1.0  0.87429  0.00093  0.73213  1.0000
  H   H1455     1.0  0.49407  0.35992  0.59258  1.0000
  S   S183      1.0  0.97667  0.33823  0.61674  1.0000
  H   H1456     1.0  0.82254  0.00044  0.73359  1.0000
  H   H1457     1.0  0.73254  0.18476  0.49444  1.0000
  C   C832      1.0  0.50235  0.34294  0.65191  1.0000
  H   H1458     1.0  0.50868  0.34153  0.66589  1.0000
  H   H1459     1.0  0.49898  0.06882  0.65364  1.0000
  H   H1460     1.0  0.65369  0.99391  0.51088  1.0000
  H   H1461     1.0  0.62561  0.46624  0.62639  1.0000
  H   H1462     1.0  0.75764  0.16939  0.49149  1.0000
  C   C833      1.0  0.50514  0.43062  0.63772  1.0000
  H   H1463     1.0  0.49080  0.36647  0.62339  1.0000
  H   H1464     1.0  0.49625  0.11239  0.61190  1.0000
  H   H1465     1.0  0.50110  0.47097  0.63076  1.0000
  H   H1466     1.0  0.55215  0.99351  0.52847  1.0000
  H   H1467     1.0  0.48725  0.06386  0.61306  1.0000
  H   H1468     1.0  0.49605  0.15593  0.62781  1.0000
  H   H1469     1.0  0.49417  0.99804  0.51806  1.0000
  H   H1470     1.0  0.49272  0.15858  0.60418  1.0000
  C   C834      1.0  0.61155  0.47805  0.62761  1.0000
  H   H1471     1.0  0.52749  0.99091  0.50227  1.0000
  H   H1472     1.0  0.60778  0.48089  0.64184  1.0000
  H   H1473     1.0  0.49064  0.40916  0.64465  1.0000
  C   C835      1.0  0.48767  0.44890  0.63743  1.0000
  H   H1474     1.0  0.48858  0.40899  0.61253  1.0000
  C   C836      1.0  0.85640  0.31081  0.96369  1.0000
  H   H1475     1.0  0.76370  0.02370  0.97507  1.0000
  H   H1476     1.0  0.89298  0.14385  0.76932  1.0000
  Fe  Fe91      1.0  0.73400  0.04783  0.76564  1.0000
  S   S184      1.0  0.73424  0.06746  0.79350  1.0000
  S   S185      1.0  0.77776  0.04682  0.75955  1.0000
  H   H1477     1.0  0.77705  0.21574  0.95327  1.0000
  C   C837      1.0  0.62179  0.45898  0.90859  1.0000
  Fe  Fe92      1.0  0.66530  0.07833  0.88948  1.0000
  S   S186      1.0  0.67847  0.12820  0.89164  1.0000
  S   S187      1.0  0.65583  0.05003  0.86365  1.0000
  Fe  Fe93      1.0  0.65708  0.06981  0.93039  1.0000
  S   S188      1.0  0.67034  0.11910  0.93515  1.0000
  S   S189      1.0  0.64223  0.03166  0.95078  1.0000
  Fe  Fe94      1.0  0.64022  0.11362  0.91132  1.0000
  S   S190      1.0  0.60735  0.13350  0.91250  1.0000
  Fe  Fe95      1.0  0.70742  0.12966  0.91518  1.0000
  S   S191      1.0  0.75777  0.16336  0.92086  1.0000
  S   S192      1.0  0.62505  0.06392  0.90763  1.0000
  S   S193      1.0  0.69622  0.08026  0.91197  1.0000
  Fe  Fe96      1.0  0.94586  0.35128  0.88933  1.0000
  S   S194      1.0  0.91017  0.36160  0.87805  1.0000
  H   H1478     1.0  0.62391  0.17242  0.85641  1.0000
  Fe  Fe97      1.0  0.93654  0.36834  0.92787  1.0000
  S   S195      1.0  0.89949  0.37886  0.91827  1.0000
  H   H1479     1.0  0.70915  0.47602  0.88645  1.0000
  Fe  Fe98      1.0  0.88247  0.33604  0.90148  1.0000
  S   S196      1.0  0.83199  0.30216  0.89735  1.0000
  Fe  Fe99      1.0  0.93054  0.40317  0.89598  1.0000
  S   S197      1.0  0.94700  0.45185  0.88688  1.0000
  S   S198      1.0  0.91731  0.32385  0.91221  1.0000
  H   H1480     1.0  0.70103  0.12316  0.97215  1.0000
  C   C838      1.0  0.70238  0.00326  0.93499  1.0000
  S   S199      1.0  0.96820  0.32749  0.78636  1.0000
  C   C839      1.0  0.49298  0.46082  0.89887  1.0000
  H   H1481     1.0  0.50874  0.12186  0.96360  1.0000
  H   H1482     1.0  0.56486  0.05906  0.86839  1.0000
  C   C840      1.0  0.89892  0.46077  0.89836  1.0000
  H   H1483     1.0  0.53145  0.07824  0.84042  1.0000
  H   H1484     1.0  0.88709  0.43669  0.90109  1.0000
  C   C841      1.0  0.63722  0.03111  0.97422  1.0000
  H   H1485     1.0  0.91826  0.23970  0.89258  1.0000
  H   H1486     1.0  0.59139  0.02223  0.84851  1.0000
  S   S200      1.0  0.97082  0.33323  0.87129  1.0000
  H   H1487     1.0  0.74531  0.04035  0.94348  1.0000
  C   C842      1.0  0.52303  0.06909  0.89518  1.0000
  C   C843      1.0  0.55411  0.08366  0.90026  1.0000
  C   C844      1.0  0.56809  0.11383  0.90649  1.0000
  C   C845      1.0  0.55052  0.12905  0.90784  1.0000
  C   C846      1.0  0.51932  0.11433  0.90305  1.0000
  H   H1488     1.0  0.56727  0.07161  0.89941  1.0000
  H   H1489     1.0  0.56114  0.15241  0.91263  1.0000
  C   C847      1.0  0.96819  0.32968  0.84770  1.0000
  C   C848      1.0  0.77806  0.20167  0.91375  1.0000
  C   C849      1.0  0.80996  0.21765  0.91613  1.0000
  C   C850      1.0  0.82684  0.24833  0.91111  1.0000
  C   C851      1.0  0.81198  0.26343  0.90369  1.0000
  C   C852      1.0  0.78016  0.24738  0.90118  1.0000
  C   C853      1.0  0.76326  0.21672  0.90620  1.0000
  H   H1490     1.0  0.82163  0.20620  0.92191  1.0000
  H   H1491     1.0  0.85128  0.26031  0.91302  1.0000
  H   H1492     1.0  0.76841  0.25881  0.89544  1.0000
  H   H1493     1.0  0.73876  0.20481  0.90432  1.0000
  C   C854      1.0  0.62892  0.00381  0.98326  1.0000
  C   C855      1.0  0.85433  0.03942  0.76176  1.0000
  S   S201      1.0  0.70465  0.00260  0.75175  1.0000
  H   H1494     1.0  0.77557  0.00193  0.81555  1.0000
  C   C856      1.0  0.95020  0.33884  0.83776  1.0000
  H   H1495     1.0  0.63938  0.17147  0.87797  1.0000
  H   H1496     1.0  0.93693  0.34776  0.84444  1.0000
  H   H1497     1.0  0.48617  0.03565  0.82688  1.0000
  C   C857      1.0  0.48680  0.08597  0.94348  1.0000
  C   C858      1.0  0.83762  0.25471  0.96356  1.0000
  H   H1498     1.0  0.93996  0.26018  0.94682  1.0000
  H   H1499     1.0  0.93332  0.44123  0.95160  1.0000
  S   S202      1.0  0.96841  0.39455  0.90602  1.0000
  C   C859      1.0  0.69210  0.48712  0.91049  1.0000
  C   C860      1.0  0.67803  0.05537  0.84426  1.0000
  C   C861      1.0  0.70723  0.07999  0.84256  1.0000
  C   C862      1.0  0.72388  0.08322  0.82694  1.0000
  C   C863      1.0  0.71167  0.06201  0.81275  1.0000
  C   C864      1.0  0.68238  0.03744  0.81441  1.0000
  C   C865      1.0  0.66572  0.03420  0.83005  1.0000
  H   H1500     1.0  0.71707  0.09650  0.85330  1.0000
  H   H1501     1.0  0.74648  0.10231  0.82585  1.0000
  H   H1502     1.0  0.88699  0.24422  0.95602  1.0000
  H   H1503     1.0  0.70817  0.00694  0.92074  1.0000
  C   C866      1.0  0.92918  0.27478  0.94405  1.0000
  H   H1504     1.0  0.90790  0.31345  0.95444  1.0000
  N   N48       1.0  0.59024  0.07897  0.84461  1.0000
  H   H1505     1.0  0.92461  0.45401  0.93118  1.0000
  H   H1506     1.0  0.84944  0.04220  0.79020  1.0000
  H   H1507     1.0  0.51247  0.04587  0.89019  1.0000
  H   H1508     1.0  0.68789  0.02067  0.96636  1.0000
  H   H1509     1.0  0.93628  0.34477  0.81151  1.0000
  H   H1510     1.0  0.54358  0.40735  0.90929  1.0000
  H   H1511     1.0  0.57301  0.40716  0.92325  1.0000
  H   H1512     1.0  0.72727  0.99109  0.78682  1.0000
  H   H1513     1.0  0.81443  0.06288  0.96518  1.0000
  C   C867      1.0  0.83181  0.33461  0.94427  1.0000
  S   S203      1.0  0.73730  0.07479  0.74121  1.0000
  C   C868      1.0  0.53282  0.05725  0.83686  1.0000
  C   C869      1.0  0.57365  0.02453  0.85614  1.0000
  C   C870      1.0  0.66346  0.10939  0.81563  1.0000
  C   C871      1.0  0.94988  0.33711  0.81905  1.0000
  H   H1514     1.0  0.84497  0.06902  0.74505  1.0000
  C   C872      1.0  0.50541  0.08423  0.89670  1.0000
  C   C873      1.0  0.56866  0.00653  0.87314  1.0000
  C   C874      1.0  0.96247  0.42481  0.84480  1.0000
  H   H1515     1.0  0.58031  0.45947  0.91850  1.0000
  C   C875      1.0  0.96989  0.38324  0.97514  1.0000
  H   H1516     1.0  0.84141  0.11128  0.75617  1.0000
  H   H1517     1.0  0.87221  0.03243  0.76369  1.0000
  H   H1518     1.0  0.57182  0.10515  0.85799  1.0000
  H   H1519     1.0  0.71510  0.04999  0.93955  1.0000
  C   C876      1.0  0.59271  0.10896  0.85078  1.0000
  C   C877      1.0  0.50191  0.99350  0.92272  1.0000
  H   H1520     1.0  0.91947  0.26956  0.93036  1.0000
  H   H1521     1.0  0.50903  0.08784  0.93946  1.0000
  H   H1522     1.0  0.87741  0.07724  0.78069  1.0000
  H   H1523     1.0  0.92150  0.39943  0.82845  1.0000
  C   C878      1.0  0.50146  0.44796  0.91278  1.0000
  H   H1524     1.0  0.87710  0.33344  0.96481  1.0000
  C   C879      1.0  0.56828  0.41404  0.91013  1.0000
  H   H1525     1.0  0.67260  0.02097  0.80365  1.0000
  H   H1526     1.0  0.50497  0.13485  0.94197  1.0000
  H   H1527     1.0  0.76881  0.03012  0.80453  1.0000
  C   C880      1.0  0.58317  0.05845  0.86036  1.0000
  C   C881      1.0  0.93344  0.42152  0.83580  1.0000
  N   N49       1.0  0.85893  0.25539  0.84806  1.0000
  C   C882      1.0  0.86722  0.23773  0.83474  1.0000
  C   C883      1.0  0.82625  0.23607  0.85352  1.0000
  C   C884      1.0  0.86069  0.28281  0.83868  1.0000
  C   C885      1.0  0.88009  0.26616  0.86412  1.0000
  C   C886      1.0  0.89361  0.24530  0.87030  1.0000
  C   C887      1.0  0.89811  0.25640  0.82534  1.0000
  C   C888      1.0  0.84918  0.30223  0.84913  1.0000
  C   C889      1.0  0.81865  0.20619  0.86322  1.0000
  C   C890      1.0  0.78423  0.18679  0.86534  1.0000
  C   C891      1.0  0.90819  0.25451  0.88878  1.0000
  C   C892      1.0  0.90864  0.23581  0.81592  1.0000
  C   C893      1.0  0.85812  0.33252  0.84010  1.0000
  H   H1528     1.0  0.84931  0.22781  0.82410  1.0000
  H   H1529     1.0  0.86757  0.21779  0.84081  1.0000
  H   H1530     1.0  0.81920  0.24892  0.86288  1.0000
  H   H1531     1.0  0.81078  0.23033  0.84168  1.0000
  H   H1532     1.0  0.84761  0.27576  0.82588  1.0000
  H   H1533     1.0  0.88468  0.29857  0.83517  1.0000
  H   H1534     1.0  0.90013  0.28880  0.86178  1.0000
  H   H1535     1.0  0.86836  0.27017  0.87558  1.0000
  H   H1536     1.0  0.91161  0.24702  0.86110  1.0000
  H   H1537     1.0  0.87630  0.22108  0.87073  1.0000
  H   H1538     1.0  0.89576  0.27104  0.81510  1.0000
  H   H1539     1.0  0.91624  0.27135  0.83488  1.0000
  H   H1540     1.0  0.85884  0.30716  0.86277  1.0000
  H   H1541     1.0  0.82392  0.29014  0.84990  1.0000
  H   H1542     1.0  0.82676  0.19201  0.85599  1.0000
  H   H1543     1.0  0.82897  0.21161  0.87676  1.0000
  H   H1544     1.0  0.77279  0.17847  0.85221  1.0000
  H   H1545     1.0  0.77945  0.16676  0.87361  1.0000
  H   H1546     1.0  0.77443  0.20009  0.87198  1.0000
  H   H1547     1.0  0.51795  0.99621  0.93377  1.0000
  H   H1548     1.0  0.48818  0.06285  0.96715  1.0000
  H   H1549     1.0  0.89084  0.25197  0.89869  1.0000
  H   H1550     1.0  0.93015  0.25004  0.80885  1.0000
  H   H1551     1.0  0.91302  0.22170  0.82563  1.0000
  H   H1552     1.0  0.89123  0.22074  0.80600  1.0000
  H   H1553     1.0  0.84799  0.32856  0.82652  1.0000
  H   H1554     1.0  0.84959  0.34586  0.84792  1.0000
  H   H1555     1.0  0.88330  0.34608  0.83930  1.0000
  H   H1556     1.0  0.91795  0.01032  0.74415  1.0000
  S   S204      1.0  0.94268  0.37794  0.95800  1.0000
  H   H1557     1.0  0.73483  0.08966  0.95732  1.0000
  H   H1558     1.0  0.77556  0.08812  0.98612  1.0000
  H   H1559     1.0  0.61761  0.11595  0.87601  1.0000
  C   C894      1.0  0.94237  0.45954  0.94164  1.0000
  H   H1560     1.0  0.57025  0.08136  0.81952  1.0000
  C   C895      1.0  0.61972  0.08307  0.83680  1.0000
  C   C896      1.0  0.85829  0.12996  0.74875  1.0000
  C   C897      1.0  0.90924  0.17335  0.74688  1.0000
  C   C898      1.0  0.85465  0.05712  0.77853  1.0000
  C   C899      1.0  0.52849  0.46630  0.92242  1.0000
  C   C900      1.0  0.78194  0.21694  0.96776  1.0000
  C   C901      1.0  0.71282  0.02885  0.96538  1.0000
  C   C902      1.0  0.88456  0.47885  0.90145  1.0000
  H   H1561     1.0  0.71598  0.00942  0.96979  1.0000
  H   H1562     1.0  0.97312  0.44669  0.85224  1.0000
  C   C903      1.0  0.56539  0.06530  0.83062  1.0000
  H   H1563     1.0  0.92664  0.27843  0.88895  1.0000
  H   H1564     1.0  0.57345  0.40173  0.89945  1.0000
  H   H1565     1.0  0.76087  0.21263  0.97486  1.0000
  H   H1566     1.0  0.81729  0.04239  0.98399  1.0000
  H   H1567     1.0  0.58016  0.45413  0.89511  1.0000
  H   H1568     1.0  0.64199  0.13389  0.85756  1.0000
  H   H1569     1.0  0.64886  0.07829  0.97740  1.0000
  C   C904      1.0  0.90419  0.26855  0.95747  1.0000
  H   H1570     1.0  0.69893  0.07261  0.96772  1.0000
  H   H1571     1.0  0.68038  0.11793  0.82676  1.0000
  H   H1572     1.0  0.59047  0.01487  0.88070  1.0000
  H   H1573     1.0  0.67755  0.99548  0.93622  1.0000
  H   H1574     1.0  0.56492  0.04467  0.82446  1.0000
  H   H1575     1.0  0.91486  0.27236  0.97086  1.0000
  H   H1576     1.0  0.83235  0.25051  0.94912  1.0000
  S   S205      1.0  0.94809  0.27260  0.74567  1.0000
  C   C905      1.0  0.92829  0.47378  0.89145  1.0000
  C   C906      1.0  0.96737  0.32610  0.80997  1.0000
  H   H1577     1.0  0.53498  0.45666  0.93337  1.0000
  H   H1578     1.0  0.80011  0.26521  0.96966  1.0000
  C   C907      1.0  0.58700  0.44843  0.90798  1.0000
  H   H1579     1.0  0.64316  0.01508  0.83117  1.0000
  C   C908      1.0  0.63282  0.10618  0.82158  1.0000
  C   C909      1.0  0.61976  0.12833  0.86355  1.0000
  H   H1580     1.0  0.84100  0.31128  0.97415  1.0000
  H   H1581     1.0  0.59874  0.15437  0.87473  1.0000
  H   H1582     1.0  0.67240  0.12579  0.80464  1.0000
  C   C910      1.0  0.62038  0.15847  0.86838  1.0000
  C   C911      1.0  0.77527  0.04548  0.98265  1.0000
  H   H1583     1.0  0.59378  0.12318  0.83927  1.0000
  H   H1584     1.0  0.86253  0.99527  0.74498  1.0000
  H   H1585     1.0  0.62639  0.44897  0.89645  1.0000
  H   H1586     1.0  0.93891  0.44044  0.82649  1.0000
  H   H1587     1.0  0.81335  0.32999  0.95383  1.0000
  H   H1588     1.0  0.62639  0.44731  0.91980  1.0000
  C   C912      1.0  0.72078  0.03302  0.94544  1.0000
  H   H1589     1.0  0.63662  0.12910  0.82579  1.0000
  H   H1590     1.0  0.61719  0.09849  0.80987  1.0000
  H   H1591     1.0  0.61702  0.06106  0.83142  1.0000
  H   H1592     1.0  0.73402  0.15378  0.98266  1.0000
  H   H1593     1.0  0.52606  0.04238  0.84856  1.0000
  H   H1594     1.0  0.94711  0.29899  0.94497  1.0000
  H   H1595     1.0  0.88039  0.28488  0.94051  1.0000
  C   C913      1.0  0.76378  0.06807  0.97704  1.0000
  H   H1596     1.0  0.63771  0.08989  0.84729  1.0000
  H   H1597     1.0  0.50609  0.12630  0.90423  1.0000
  H   H1598     1.0  0.82294  0.33465  0.93070  1.0000
  H   H1599     1.0  0.84321  0.23656  0.96768  1.0000
  H   H1600     1.0  0.77281  0.07668  0.96367  1.0000
  H   H1601     1.0  0.86168  0.46851  0.90658  1.0000
  H   H1602     1.0  0.66091  0.08714  0.81082  1.0000
  C   C914      1.0  0.88943  0.28946  0.95435  1.0000
  C   C915      1.0  0.72614  0.13332  0.97390  1.0000
  C   C916      1.0  0.76736  0.00727  0.80302  1.0000
  N   N50       1.0  0.86457  0.28572  0.96692  1.0000
  H   H1603     1.0  0.82159  0.28797  0.94232  1.0000
  C   C917      1.0  0.64259  0.05715  0.98411  1.0000
  H   H1604     1.0  0.60334  0.06698  0.86949  1.0000
  H   H1605     1.0  0.92410  0.31974  0.98288  1.0000
  H   H1606     1.0  0.75964  0.12207  0.98424  1.0000
  H   H1607     1.0  0.91788  0.42232  0.84602  1.0000
  C   C918      1.0  0.88740  0.14855  0.75623  1.0000
  C   C919      1.0  0.84192  0.31012  0.94528  1.0000
  H   H1608     1.0  0.83162  0.01901  0.76071  1.0000
  H   H1609     1.0  0.81098  0.24885  0.98770  1.0000
  H   H1610     1.0  0.85127  0.35749  0.94719  1.0000
  H   H1611     1.0  0.50234  0.03211  0.94724  1.0000
  H   H1612     1.0  0.78796  0.19880  0.97114  1.0000
  C   C920      1.0  0.80777  0.24833  0.97311  1.0000
  Fe  Fe100     1.0  0.74880  0.00282  0.74457  1.0000
  H   H1613     1.0  0.85876  0.31451  0.93471  1.0000
  H   H1614     1.0  0.83723  0.06499  0.77757  1.0000
  S   S206      1.0  0.94628  0.19490  0.75593  1.0000
  Fe  Fe101     1.0  0.97183  0.24438  0.74817  1.0000
  H   H1615     1.0  0.88421  0.07913  0.74787  1.0000
  C   C921      1.0  0.72373  0.08154  0.97032  1.0000
  H   H1616     1.0  0.55156  0.00861  0.88159  1.0000
  N   N51       1.0  0.72980  0.05654  0.97730  1.0000
  H   H1617     1.0  0.55201  0.01351  0.84835  1.0000
  H   H1618     1.0  0.48931  0.04146  0.92737  1.0000
  H   H1619     1.0  0.73704  0.14051  0.96079  1.0000
  H   H1620     1.0  0.67796  0.46275  0.91368  1.0000
  C   C922      1.0  0.86124  0.05956  0.74523  1.0000
  H   H1621     1.0  0.78238  0.00807  0.79200  1.0000
  H   H1622     1.0  0.49322  0.45243  0.95733  1.0000
  H   H1623     1.0  0.49146  0.40236  0.95808  1.0000
  H   H1624     1.0  0.50870  0.01882  0.81852  1.0000
  H   H1625     1.0  0.51426  0.05505  0.81024  1.0000
  H   H1626     1.0  0.97168  0.39829  0.82615  1.0000
  C   C923      1.0  0.50914  0.04068  0.82217  1.0000
  H   H1627     1.0  0.95553  0.40635  0.85458  1.0000
  H   H1628     1.0  0.48551  0.48229  0.93958  1.0000
  C   C924      1.0  0.80946  0.05873  0.97951  1.0000
  C   C925      1.0  0.49347  0.11662  0.95180  1.0000
  C   C926      1.0  0.87488  0.28789  0.98599  1.0000
  H   H1629     1.0  0.96275  0.45978  0.93559  1.0000
  H   H1630     1.0  0.73241  0.48189  0.90603  1.0000
  H   H1631     1.0  0.49352  0.41728  0.98024  1.0000
  H   H1632     1.0  0.51378  0.01200  0.91313  1.0000
  H   H1633     1.0  0.60657  0.47834  0.94256  1.0000
  H   H1634     1.0  0.82246  0.08044  0.98710  1.0000
  C   C927      1.0  0.73455  0.11048  0.98231  1.0000
  H   H1635     1.0  0.61974  0.48262  0.87604  1.0000
  Fe  Fe102     1.0  0.98416  0.30562  0.76452  1.0000
  H   H1636     1.0  0.92943  0.48850  0.95634  1.0000
  H   H1637     1.0  0.62903  0.58995  0.05710  1.0000
  H   H1638     1.0  0.63587  0.62088  0.07222  1.0000
  H   H1639     1.0  0.96237  0.61197  0.08284  1.0000
  H   H1640     1.0  0.94361  0.57579  0.09363  1.0000
  H   H1641     1.0  0.53348  0.93948  0.02599  1.0000
  S   S207      1.0  0.67001  0.73260  0.21303  1.0000
  H   H1642     1.0  0.92634  0.58686  0.00671  1.0000
  Fe  Fe103     1.0  0.62233  0.70798  0.10607  1.0000
  S   S208      1.0  0.57237  0.69467  0.10752  1.0000
  S   S209      1.0  0.65972  0.73060  0.12782  1.0000
  Fe  Fe104     1.0  0.61677  0.69217  0.06519  1.0000
  S   S210      1.0  0.56714  0.67927  0.06428  1.0000
  S   S211      1.0  0.64329  0.68741  0.04150  1.0000
  Fe  Fe105     1.0  0.58015  0.72052  0.08205  1.0000
  S   S212      1.0  0.55882  0.75164  0.07831  1.0000
  Fe  Fe106     1.0  0.56354  0.65448  0.08960  1.0000
  S   S213      1.0  0.53071  0.60334  0.09180  1.0000
  S   S214      1.0  0.63018  0.73548  0.08119  1.0000
  S   S215      1.0  0.61325  0.66600  0.08999  1.0000
  H   H1643     1.0  0.52240  0.84345  0.12571  1.0000
  S   S216      1.0  0.58726  0.92780  0.09202  1.0000
  H   H1644     1.0  0.63730  0.92402  0.14210  1.0000
  S   S217      1.0  0.58210  0.94156  0.04977  1.0000
  Fe  Fe107     1.0  0.56166  0.94619  0.07545  1.0000
  S   S218      1.0  0.50996  0.92596  0.07289  1.0000
  Fe  Fe108     1.0  0.61041  0.92732  0.06674  1.0000
  S   S219      1.0  0.62699  0.89274  0.06036  1.0000
  C   C928      1.0  0.60434  0.66084  0.99171  1.0000
  H   H1645     1.0  0.98256  0.53059  0.01535  1.0000
  C   C929      1.0  0.87700  0.68803  0.16350  1.0000
  H   H1646     1.0  0.56432  0.97635  0.02063  1.0000
  H   H1647     1.0  0.59025  0.73652  0.99399  1.0000
  H   H1648     1.0  0.57076  0.84790  0.13779  1.0000
  C   C930      1.0  0.57851  0.79107  0.07392  1.0000
  C   C931      1.0  0.60974  0.80615  0.07053  1.0000
  C   C932      1.0  0.62429  0.83735  0.06651  1.0000
  C   C933      1.0  0.60786  0.85380  0.06602  1.0000
  C   C934      1.0  0.57675  0.83883  0.06971  1.0000
  C   C935      1.0  0.56215  0.80757  0.07354  1.0000
  H   H1649     1.0  0.62262  0.79376  0.07095  1.0000
  H   H1650     1.0  0.64841  0.84880  0.06374  1.0000
  H   H1651     1.0  0.56381  0.85120  0.06933  1.0000
  H   H1652     1.0  0.53796  0.79608  0.07615  1.0000
  H   H1653     1.0  0.63973  0.62751  0.04876  1.0000
  C   C936      1.0  0.64603  0.83056  0.11981  1.0000
  C   C937      1.0  0.66404  0.86737  0.20815  1.0000
  C   C938      1.0  0.60851  0.66917  0.00993  1.0000
  C   C939      1.0  0.63563  0.67499  0.01879  1.0000
  C   C940      1.0  0.65803  0.67159  0.00921  1.0000
  H   H1654     1.0  0.59106  0.67173  0.01701  1.0000
  H   H1655     1.0  0.67913  0.67602  0.01584  1.0000
  C   C941      1.0  0.66788  0.73227  0.18931  1.0000
  C   C942      1.0  0.63903  0.71750  0.18080  1.0000
  C   C943      1.0  0.63600  0.71656  0.16210  1.0000
  C   C944      1.0  0.66185  0.73071  0.15155  1.0000
  C   C945      1.0  0.69067  0.74596  0.16008  1.0000
  C   C946      1.0  0.69371  0.74661  0.17877  1.0000
  H   H1656     1.0  0.61883  0.70635  0.18874  1.0000
  H   H1657     1.0  0.61367  0.70480  0.15585  1.0000
  H   H1658     1.0  0.71087  0.75698  0.15213  1.0000
  H   H1659     1.0  0.71605  0.75789  0.18500  1.0000
  C   C947      1.0  0.61144  0.74672  0.00227  1.0000
  H   H1660     1.0  0.65704  0.80089  0.02016  1.0000
  H   H1661     1.0  0.67457  0.88903  0.11423  1.0000
  C   C948      1.0  0.68947  0.94264  0.09755  1.0000
  H   H1662     1.0  0.66836  0.92235  0.16780  1.0000
  C   C949      1.0  0.73237  0.83503  0.19242  1.0000
  H   H1663     1.0  0.61041  0.97865  0.14500  1.0000
  C   C950      1.0  0.66023  0.80819  0.22105  1.0000
  H   H1664     1.0  0.65820  0.90767  0.21181  1.0000
  H   H1665     1.0  0.58399  0.76052  0.04090  1.0000
  H   H1666     1.0  0.49050  0.53950  0.08680  1.0000
  C   C951      1.0  0.63514  0.87824  0.14122  1.0000
  H   H1667     1.0  0.63800  0.80815  0.22004  1.0000
  C   C952      1.0  0.89641  0.71839  0.17372  1.0000
  H   H1668     1.0  0.56108  0.82900  0.11641  1.0000
  H   H1669     1.0  0.61750  0.78396  0.12871  1.0000
  C   C953      1.0  0.68996  0.85873  0.20661  1.0000
  S   S220      1.0  0.74903  0.79438  0.23823  1.0000
  H   H1670     1.0  0.97401  0.56441  0.00218  1.0000
  H   H1671     1.0  0.85512  0.67459  0.17035  1.0000
  C   C954      1.0  0.66576  0.81076  0.18834  1.0000
  H   H1672     1.0  0.54864  0.71505  0.01033  1.0000
  C   C955      1.0  0.93540  0.57267  0.00029  1.0000
  H   H1673     1.0  0.53172  0.51524  0.03775  1.0000
  H   H1674     1.0  0.70956  0.93905  0.09998  1.0000
  C   C956      1.0  0.60414  0.79128  0.00831  1.0000
  C   C957      1.0  0.63055  0.79663  0.18684  1.0000
  C   C958      1.0  0.61950  0.78804  0.16764  1.0000
  C   C959      1.0  0.76059  0.83118  0.19595  1.0000
  H   H1675     1.0  0.54618  0.74959  0.01399  1.0000
  H   H1676     1.0  0.65784  0.75064  0.02314  1.0000
  H   H1677     1.0  0.97814  0.68548  0.21562  1.0000
  C   C960      1.0  0.96636  0.57975  0.00840  1.0000
  H   H1678     1.0  0.67597  0.82732  0.17746  1.0000
  H   H1679     1.0  0.67031  0.79146  0.18490  1.0000
  H   H1680     1.0  0.54348  0.54773  0.01583  1.0000
  C   C961      1.0  0.63195  0.98603  0.15191  1.0000
  C   C962      1.0  0.63335  0.98774  0.17065  1.0000
  H   H1681     1.0  0.77753  0.91350  0.22477  1.0000
  C   C963      1.0  0.67706  0.90173  0.21112  1.0000
  H   H1682     1.0  0.65037  0.86120  0.19569  1.0000
  H   H1683     1.0  0.85616  0.70688  0.14529  1.0000
  H   H1684     1.0  0.50317  0.54302  0.04699  1.0000
  H   H1685     1.0  0.84382  0.86713  0.22111  1.0000
  C   C964      1.0  0.62870  0.90306  0.14994  1.0000
  H   H1686     1.0  0.61974  0.77541  0.19465  1.0000
  H   H1687     1.0  0.62221  0.81223  0.19184  1.0000
  H   H1688     1.0  0.62731  0.77221  0.16204  1.0000
  H   H1689     1.0  0.59419  0.77647  0.16704  1.0000
  H   H1690     1.0  0.62824  0.80873  0.15946  1.0000
  H   H1691     1.0  0.95712  0.59383  0.03322  1.0000
  H   H1692     1.0  0.93654  0.69967  0.21819  1.0000
  H   H1693     1.0  0.72198  0.82310  0.17968  1.0000
  H   H1694     1.0  0.64898  0.85615  0.21944  1.0000
  C   C965      1.0  0.64316  0.91210  0.16847  1.0000
  H   H1695     1.0  0.52271  0.51521  0.07804  1.0000
  H   H1696     1.0  0.70646  0.87031  0.21775  1.0000
  H   H1697     1.0  0.57755  0.79836  0.02960  1.0000
  N   N52       1.0  0.68076  0.82518  0.20598  1.0000
  H   H1698     1.0  0.69838  0.79664  0.03817  1.0000
  C   C966      1.0  0.96379  0.57445  0.06846  1.0000
  C   C967      1.0  0.61958  0.83854  0.11783  1.0000
  C   C968      1.0  0.96370  0.59081  0.08569  1.0000
  C   C969      1.0  0.53608  0.56526  0.01832  1.0000
  H   H1699     1.0  0.61184  0.85005  0.00349  1.0000
  H   H1700     1.0  0.75419  0.80676  0.19741  1.0000
  H   H1701     1.0  0.65358  0.79098  0.11976  1.0000
  C   C970      1.0  0.51751  0.50436  0.06461  1.0000
  H   H1702     1.0  0.61774  0.82468  0.03030  1.0000
  H   H1703     1.0  0.57452  0.59821  0.00275  1.0000
  H   H1704     1.0  0.94205  0.56829  0.06127  1.0000
  C   C971      1.0  0.87135  0.66440  0.20572  1.0000
  H   H1705     1.0  0.61269  0.72695  0.00811  1.0000
  H   H1706     1.0  0.53104  0.70010  0.04172  1.0000
  H   H1707     1.0  0.55070  0.88297  0.12747  1.0000
  C   C972      1.0  0.59185  0.83515  0.01153  1.0000
  H   H1708     1.0  0.81859  0.88289  0.22589  1.0000
  H   H1709     1.0  0.50395  0.63067  0.05440  1.0000
  H   H1710     1.0  0.62231  0.85746  0.14921  1.0000
  H   H1711     1.0  0.94506  0.55418  0.03189  1.0000
  C   C973      1.0  0.49972  0.62433  0.04010  1.0000
  H   H1712     1.0  0.49273  0.49486  0.06169  1.0000
  H   H1713     1.0  0.77262  0.84387  0.20820  1.0000
  H   H1714     1.0  0.65960  0.88485  0.14365  1.0000
  H   H1715     1.0  0.91983  0.81195  0.21153  1.0000
  H   H1716     1.0  0.61019  0.83183  0.10410  1.0000
  H   H1717     1.0  0.62443  0.80685  0.00062  1.0000
  C   C974      1.0  0.50456  0.59683  0.03612  1.0000
  C   C975      1.0  0.53637  0.52750  0.05069  1.0000
  H   H1718     1.0  0.94413  0.65835  0.20397  1.0000
  C   C976      1.0  0.67992  0.77864  0.04591  1.0000
  H   H1719     1.0  0.67506  0.93547  0.12437  1.0000
  H   H1720     1.0  0.89009  0.70658  0.13702  1.0000
  H   H1721     1.0  0.50406  0.70484  0.02780  1.0000
  H   H1722     1.0  0.96433  0.55321  0.07214  1.0000
  H   H1723     1.0  0.60379  0.89434  0.15136  1.0000
  N   N53       1.0  0.90900  0.71637  0.19164  1.0000
  C   C977      1.0  0.92988  0.70241  0.18931  1.0000
  C   C978      1.0  0.92816  0.74856  0.19865  1.0000
  C   C979      1.0  0.88353  0.69929  0.20447  1.0000
  H   H1724     1.0  0.56073  0.53606  0.05432  1.0000
  C   C980      1.0  0.94972  0.70442  0.20578  1.0000
  C   C981      1.0  0.91168  0.76821  0.20062  1.0000
  C   C982      1.0  0.96879  0.65846  0.00333  1.0000
  H   H1725     1.0  0.88907  0.67433  0.16210  1.0000
  H   H1726     1.0  0.94592  0.71359  0.17827  1.0000
  H   H1727     1.0  0.49830  0.59036  0.02198  1.0000
  H   H1728     1.0  0.95009  0.65717  0.01113  1.0000
  H   H1729     1.0  0.94843  0.76115  0.19016  1.0000
  H   H1730     1.0  0.93730  0.74825  0.21211  1.0000
  H   H1731     1.0  0.89077  0.70823  0.21820  1.0000
  H   H1732     1.0  0.86387  0.70350  0.20157  1.0000
  Fe  Fe109     1.0  0.62393  0.97658  0.09521  1.0000
  C   C983      1.0  0.70944  0.82212  0.20783  1.0000
  H   H1733     1.0  0.96934  0.72771  0.20703  1.0000
  C   C984      1.0  0.76379  0.90874  0.23650  1.0000
  H   H1734     1.0  0.89079  0.75638  0.20862  1.0000
  H   H1735     1.0  0.90537  0.77351  0.18749  1.0000
  H   H1736     1.0  0.69221  0.91453  0.20012  1.0000
  C   C985      1.0  0.63867  0.78211  0.02759  1.0000
  C   C986      1.0  0.63429  0.79616  0.11828  1.0000
  H   H1737     1.0  0.63760  0.92932  0.17445  1.0000
  H   H1738     1.0  0.77644  0.84023  0.18469  1.0000
  H   H1739     1.0  0.70262  0.87006  0.19452  1.0000
  H   H1740     1.0  0.57132  0.82356  0.00279  1.0000
  H   H1741     1.0  0.69027  0.90912  0.22382  1.0000
  S   S221      1.0  0.64778  0.97562  0.07010  1.0000
  C   C987      1.0  0.52625  0.97737  0.03409  1.0000
  N   N54       1.0  0.54542  0.57849  0.03682  1.0000
  C   C988      1.0  0.57939  0.59070  0.03899  1.0000
  C   C989      1.0  0.53913  0.96254  0.02128  1.0000
  C   C990      1.0  0.53804  0.60419  0.04008  1.0000
  C   C991      1.0  0.59277  0.60276  0.05778  1.0000
  H   H1742     1.0  0.69691  0.96743  0.09855  1.0000
  C   C992      1.0  0.62639  0.61070  0.05896  1.0000
  H   H1743     1.0  0.54127  0.86346  0.10609  1.0000
  H   H1744     1.0  0.59185  0.61027  0.03008  1.0000
  H   H1745     1.0  0.58621  0.57337  0.03473  1.0000
  H   H1746     1.0  0.67482  0.78920  0.05756  1.0000
  H   H1747     1.0  0.55348  0.62466  0.03252  1.0000
  H   H1748     1.0  0.54268  0.61178  0.05421  1.0000
  H   H1749     1.0  0.85464  0.67172  0.13784  1.0000
  H   H1750     1.0  0.59117  0.62375  0.06079  1.0000
  H   H1751     1.0  0.58071  0.58600  0.06820  1.0000
  H   H1752     1.0  0.58708  0.72832  0.03397  1.0000
  H   H1753     1.0  0.53071  0.56361  0.06353  1.0000
  H   H1754     1.0  0.64897  0.88360  0.09627  1.0000
  C   C993      1.0  0.59777  0.81182  0.02138  1.0000
  C   C994      1.0  0.96273  0.68223  0.20413  1.0000
  N   N55       1.0  0.62729  0.87128  0.12170  1.0000
  H   H1755     1.0  0.97618  0.68646  0.19185  1.0000
  H   H1756     1.0  0.74032  0.85970  0.19084  1.0000
  C   C995      1.0  0.52689  0.71692  0.03432  1.0000
  H   H1757     1.0  0.91879  0.54822  0.00174  1.0000
  H   H1758     1.0  0.93816  0.49166  0.10784  1.0000
  C   C996      1.0  0.66482  0.92588  0.11118  1.0000
  C   C997      1.0  0.96447  0.57683  0.02886  1.0000
  C   C998      1.0  0.65411  0.89125  0.11041  1.0000
  H   H1759     1.0  0.68807  0.76276  0.05080  1.0000
  C   C999      1.0  0.48971  0.55443  0.14394  1.0000
  H   H1760     1.0  0.86533  0.65281  0.19260  1.0000
  H   H1761     1.0  0.63538  0.79345  0.03953  1.0000
  H   H1762     1.0  0.91544  0.73357  0.16502  1.0000
  H   H1763     1.0  0.63429  0.74242  0.04229  1.0000
  H   H1764     1.0  0.66023  0.77610  0.99609  1.0000
  H   H1765     1.0  0.51658  0.97675  0.09583  1.0000
  H   H1766     1.0  0.66271  0.84100  0.10905  1.0000
  H   H1767     1.0  0.52674  0.73402  0.04383  1.0000
  H   H1768     1.0  0.63416  0.89203  0.17717  1.0000
  H   H1769     1.0  0.93976  0.79514  0.22308  1.0000
  H   H1770     1.0  0.60119  0.82291  0.12667  1.0000
  H   H1771     1.0  0.95292  0.81216  0.20176  1.0000
  H   H1772     1.0  0.62320  0.78731  0.10513  1.0000
  N   N56       1.0  0.60950  0.76687  0.01671  1.0000
  H   H1773     1.0  0.59774  0.87362  0.10130  1.0000
  H   H1774     1.0  0.50035  0.57508  0.13566  1.0000
  H   H1775     1.0  0.51080  0.55292  0.01682  1.0000
  H   H1776     1.0  0.88880  0.65949  0.21194  1.0000
  H   H1777     1.0  0.88119  0.72893  0.17496  1.0000
  H   H1778     1.0  0.65798  0.83876  0.13280  1.0000
  H   H1779     1.0  0.91699  0.67816  0.18511  1.0000
  C   C1000     1.0  0.65140  0.76100  0.03430  1.0000
  C   C1001     1.0  0.49063  0.58277  0.08790  1.0000
  C   C1002     1.0  0.55126  0.73257  0.02039  1.0000
  H   H1780     1.0  0.50447  0.54331  0.14361  1.0000
  C   C1003     1.0  0.54442  0.86101  0.12048  1.0000
  H   H1781     1.0  0.60331  0.89792  0.11959  1.0000
  H   H1782     1.0  0.54344  0.60699  0.00435  1.0000
  C   C1004     1.0  0.52808  0.55379  0.04992  1.0000
  H   H1783     1.0  0.50160  0.96144  0.03530  1.0000
  H   H1784     1.0  0.48844  0.56160  0.15777  1.0000
  C   C1005     1.0  0.58380  0.74739  0.02882  1.0000
  C   C1006     1.0  0.56897  0.85128  0.12340  1.0000
  C   C1007     1.0  0.60010  0.87499  0.11602  1.0000
  H   H1785     1.0  0.72224  0.83378  0.22014  1.0000
  H   H1786     1.0  0.64594  0.93107  0.10830  1.0000
  H   H1787     1.0  0.68043  0.93466  0.08390  1.0000
  C   C1008     1.0  0.54934  0.58824  0.00303  1.0000
  C   C1009     1.0  0.93240  0.79872  0.20979  1.0000
  H   H1788     1.0  0.70351  0.79772  0.20922  1.0000
  H   H1789     1.0  0.51515  0.64405  0.03206  1.0000
  C   C1010     1.0  0.86906  0.69379  0.14479  1.0000
  H   H1790     1.0  0.65457  0.78370  0.22027  1.0000
  H   H1791     1.0  0.97159  0.53461  0.04659  1.0000
  H   H1792     1.0  0.58525  0.78126  0.99830  1.0000
  H   H1793     1.0  0.58788  0.84972  0.02132  1.0000
  H   H1794     1.0  0.53743  0.97962  0.04722  1.0000
  H   H1795     1.0  0.84853  0.66019  0.23086  1.0000
  C   C1011     1.0  0.49442  0.96690  0.08935  1.0000
  H   H1796     1.0  0.62026  0.98143  0.00862  1.0000
  Fe  Fe110     1.0  0.70558  0.74983  0.23601  1.0000
  H   H1797     1.0  0.82436  0.65336  0.21143  1.0000
  C   C1012     1.0  0.84309  0.64998  0.21727  1.0000
  C   C1013     1.0  0.82842  0.86864  0.23117  1.0000
  H   H1798     1.0  0.52904  0.96007  0.00779  1.0000
  H   H1799     1.0  0.48849  0.57800  0.04446  1.0000
  H   H1800     1.0  0.61270  0.98150  0.17797  1.0000
  C   C1014     1.0  0.65364  0.66274  0.99108  1.0000
  H   H1801     1.0  0.80989  0.84527  0.23346  1.0000
  H   H1802     1.0  0.83510  0.62515  0.21826  1.0000
  C   C1015     1.0  0.48586  0.94229  0.07751  1.0000
  S   S222      1.0  0.76628  0.96430  0.23122  1.0000
  H   H1803     1.0  0.98250  0.60342  0.00477  1.0000
  H   H1804     1.0  0.98324  0.49282  0.03652  1.0000
  C   C1016     1.0  0.61232  0.87916  0.47105  1.0000
  C   C1017     1.0  0.89981  0.78267  0.25259  1.0000
  C   C1018     1.0  0.84912  0.87437  0.28859  1.0000
  H   H1805     1.0  0.55474  0.76626  0.47868  1.0000
  C   C1019     1.0  0.84624  0.88244  0.24839  1.0000
  Fe  Fe111     1.0  0.96982  0.75980  0.24988  1.0000
  H   H1806     1.0  0.70602  0.83364  0.40131  1.0000
  H   H1807     1.0  0.79393  0.87472  0.29145  1.0000
  H   H1808     1.0  0.54390  0.98635  0.37504  1.0000
  Fe  Fe112     1.0  0.70825  0.73672  0.27615  1.0000
  S   S223      1.0  0.67968  0.70389  0.29790  1.0000
  S   S224      1.0  0.75202  0.77982  0.28068  1.0000
  Fe  Fe113     1.0  0.61749  0.70477  0.39806  1.0000
  S   S225      1.0  0.56769  0.69123  0.39566  1.0000
  S   S226      1.0  0.65287  0.73175  0.37701  1.0000
  Fe  Fe114     1.0  0.61150  0.68644  0.43809  1.0000
  S   S227      1.0  0.56142  0.67288  0.43812  1.0000
  S   S228      1.0  0.64084  0.68109  0.46024  1.0000
  Fe  Fe115     1.0  0.55890  0.65003  0.41172  1.0000
  S   S229      1.0  0.52763  0.59988  0.40440  1.0000
  Fe  Fe116     1.0  0.57453  0.71549  0.42208  1.0000
  S   S230      1.0  0.55377  0.74753  0.42525  1.0000
  S   S231      1.0  0.60869  0.66198  0.41225  1.0000
  S   S232      1.0  0.62465  0.73066  0.42397  1.0000
  H   H1809     1.0  0.68912  0.68927  0.35076  1.0000
  S   S233      1.0  0.57949  0.92749  0.39319  1.0000
  C   C1020     1.0  0.82595  0.88667  0.26237  1.0000
  S   S234      1.0  0.57404  0.93567  0.43650  1.0000
  Fe  Fe117     1.0  0.60427  0.92645  0.41804  1.0000
  S   S235      1.0  0.62258  0.89264  0.42249  1.0000
  Fe  Fe118     1.0  0.55172  0.94066  0.41155  1.0000
  N   N57       1.0  0.83961  0.89641  0.28076  1.0000
  H   H1810     1.0  0.58118  0.97012  0.32662  1.0000
  H   H1811     1.0  0.84652  0.82813  0.31041  1.0000
  C   C1021     1.0  0.56116  0.86816  0.46077  1.0000
  C   C1022     1.0  0.50403  0.97426  0.34883  1.0000
  H   H1812     1.0  0.63977  0.63678  0.35102  1.0000
  C   C1023     1.0  0.57368  0.78770  0.42303  1.0000
  C   C1024     1.0  0.60507  0.80449  0.42633  1.0000
  C   C1025     1.0  0.61970  0.83654  0.42574  1.0000
  C   C1026     1.0  0.60322  0.85221  0.42180  1.0000
  C   C1027     1.0  0.57198  0.83543  0.41806  1.0000
  C   C1028     1.0  0.55726  0.80337  0.41889  1.0000
  H   H1813     1.0  0.61795  0.79280  0.42969  1.0000
  H   H1814     1.0  0.64392  0.84931  0.42858  1.0000
  H   H1815     1.0  0.55905  0.84715  0.41487  1.0000
  H   H1816     1.0  0.53293  0.79063  0.41642  1.0000
  H   H1817     1.0  0.95156  0.62338  0.38486  1.0000
  C   C1029     1.0  0.50227  0.52609  0.35391  1.0000
  C   C1030     1.0  0.84636  0.77254  0.25207  1.0000
  C   C1031     1.0  0.65080  0.96591  0.32400  1.0000
  C   C1032     1.0  0.54668  0.56942  0.48620  1.0000
  H   H1818     1.0  0.54728  0.81033  0.47110  1.0000
  H   H1819     1.0  0.60404  0.60250  0.38373  1.0000
  H   H1820     1.0  0.59255  0.59336  0.36078  1.0000
  C   C1033     1.0  0.67078  0.71354  0.31911  1.0000
  C   C1034     1.0  0.64436  0.69239  0.32774  1.0000
  C   C1035     1.0  0.63778  0.69804  0.34516  1.0000
  C   C1036     1.0  0.65806  0.72460  0.35439  1.0000
  C   C1037     1.0  0.68437  0.74581  0.34573  1.0000
  C   C1038     1.0  0.69057  0.74050  0.32818  1.0000
  H   H1821     1.0  0.62895  0.67140  0.32090  1.0000
  H   H1822     1.0  0.61738  0.68150  0.35154  1.0000
  H   H1823     1.0  0.70032  0.76640  0.35271  1.0000
  H   H1824     1.0  0.71111  0.75686  0.32183  1.0000
  Fe  Fe119     1.0  0.73099  0.80189  0.26383  1.0000
  C   C1039     1.0  0.57954  0.78080  0.47659  1.0000
  H   H1825     1.0  0.81989  0.90369  0.25680  1.0000
  S   S236      1.0  0.69491  0.97413  0.24319  1.0000
  Fe  Fe120     1.0  0.76793  0.76924  0.25482  1.0000
  S   S237      1.0  0.91735  0.73695  0.24978  1.0000
  H   H1826     1.0  0.71017  0.59880  0.39371  1.0000
  H   H1827     1.0  0.66912  0.81185  0.41105  1.0000
  H   H1828     1.0  0.49002  0.51617  0.43049  1.0000
  H   H1829     1.0  0.69098  0.65480  0.34825  1.0000
  H   H1830     1.0  0.66506  0.95659  0.46804  1.0000
  H   H1831     1.0  0.49167  0.92357  0.36681  1.0000
  C   C1040     1.0  0.64861  0.80455  0.25391  1.0000
  H   H1832     1.0  0.68271  0.79435  0.39477  1.0000
  C   C1041     1.0  0.51451  0.92518  0.36535  1.0000
  C   C1042     1.0  0.73682  0.92362  0.25765  1.0000
  H   H1833     1.0  0.90608  0.92373  0.28977  1.0000
  H   H1834     1.0  0.70858  0.73102  0.42752  1.0000
  H   H1835     1.0  0.61224  0.92037  0.46044  1.0000
  H   H1836     1.0  0.73819  0.74547  0.41119  1.0000
  H   H1837     1.0  0.63605  0.89774  0.35773  1.0000
  C   C1043     1.0  0.70033  0.67637  0.35620  1.0000
  H   H1838     1.0  0.61417  0.82704  0.47943  1.0000
  S   S238      1.0  0.73120  0.84451  0.27457  1.0000
  S   S239      1.0  0.68635  0.75949  0.26078  1.0000
  H   H1839     1.0  0.81315  0.72523  0.24989  1.0000
  C   C1044     1.0  0.95901  0.60562  0.38422  1.0000
  C   C1045     1.0  0.52888  0.84347  0.45458  1.0000
  H   H1840     1.0  0.70151  0.74351  0.40654  1.0000
  C   C1046     1.0  0.71323  0.73196  0.41309  1.0000
  H   H1841     1.0  0.76410  0.70848  0.32884  1.0000
  S   S240      1.0  0.67896  0.98390  0.29156  1.0000
  H   H1842     1.0  0.69374  0.59645  0.41520  1.0000
  H   H1843     1.0  0.72906  0.62938  0.40993  1.0000
  H   H1844     1.0  0.94499  0.96609  0.27310  1.0000
  C   C1047     1.0  0.92209  0.96443  0.27466  1.0000
  H   H1845     1.0  0.72724  0.70590  0.32490  1.0000
  H   H1846     1.0  0.61939  0.87321  0.45827  1.0000
  C   C1048     1.0  0.65777  0.93182  0.46813  1.0000
  N   N58       1.0  0.61827  0.80588  0.36431  1.0000
  C   C1049     1.0  0.62917  0.83895  0.36009  1.0000
  C   C1050     1.0  0.62201  0.78978  0.34817  1.0000
  C   C1051     1.0  0.58451  0.79169  0.36795  1.0000
  C   C1052     1.0  0.63425  0.80160  0.38033  1.0000
  C   C1053     1.0  0.66799  0.82567  0.38383  1.0000
  C   C1054     1.0  0.62146  0.85740  0.37400  1.0000
  C   C1055     1.0  0.56805  0.75693  0.37130  1.0000
  C   C1056     1.0  0.65470  0.80164  0.34109  1.0000
  C   C1057     1.0  0.65419  0.78669  0.32317  1.0000
  H   H1847     1.0  0.63509  0.98549  0.47953  1.0000
  S   S241      1.0  0.72512  0.72374  0.25119  1.0000
  C   C1058     1.0  0.53497  0.74591  0.37661  1.0000
  H   H1848     1.0  0.61918  0.84081  0.34717  1.0000
  H   H1849     1.0  0.65415  0.85117  0.35818  1.0000
  H   H1850     1.0  0.61429  0.76536  0.35092  1.0000
  H   H1851     1.0  0.60724  0.79019  0.33708  1.0000
  H   H1852     1.0  0.57229  0.79607  0.35681  1.0000
  H   H1853     1.0  0.58046  0.80229  0.38001  1.0000
  H   H1854     1.0  0.62208  0.80135  0.39265  1.0000
  H   H1855     1.0  0.63311  0.77875  0.37968  1.0000
  H   H1856     1.0  0.66949  0.84772  0.38809  1.0000
  H   H1857     1.0  0.68212  0.82983  0.37195  1.0000
  H   H1858     1.0  0.59699  0.85145  0.37284  1.0000
  H   H1859     1.0  0.62585  0.85238  0.38766  1.0000
  H   H1860     1.0  0.57966  0.75133  0.38213  1.0000
  H   H1861     1.0  0.56737  0.74380  0.35918  1.0000
  H   H1862     1.0  0.66640  0.82654  0.33911  1.0000
  H   H1863     1.0  0.66831  0.79566  0.35041  1.0000
  H   H1864     1.0  0.64260  0.76148  0.32418  1.0000
  H   H1865     1.0  0.64225  0.79321  0.31295  1.0000
  H   H1866     1.0  0.67790  0.79431  0.31875  1.0000
  H   H1867     1.0  0.65901  0.81200  0.26736  1.0000
  H   H1868     1.0  0.48712  0.53648  0.39856  1.0000
  H   H1869     1.0  0.51276  0.97897  0.40119  1.0000
  H   H1870     1.0  0.63013  0.81087  0.25232  1.0000
  H   H1871     1.0  0.69207  0.81526  0.24306  1.0000
  C   C1059     1.0  0.89858  0.93135  0.27779  1.0000
  H   H1872     1.0  0.52399  0.72115  0.37928  1.0000
  H   H1873     1.0  0.53386  0.75787  0.38886  1.0000
  H   H1874     1.0  0.52202  0.74985  0.36580  1.0000
  H   H1875     1.0  0.66478  0.89930  0.37327  1.0000
  C   C1060     1.0  0.73944  0.69508  0.33171  1.0000
  H   H1876     1.0  0.63320  0.90401  0.38107  1.0000
  C   C1061     1.0  0.75458  0.92988  0.24251  1.0000
  C   C1062     1.0  0.70527  0.64905  0.38188  1.0000
  N   N59       1.0  0.53436  0.97454  0.34720  1.0000
  C   C1063     1.0  0.83719  0.74136  0.25063  1.0000
  C   C1064     1.0  0.70124  0.69964  0.40558  1.0000
  H   H1877     1.0  0.86775  0.87372  0.28099  1.0000
  C   C1065     1.0  0.85920  0.73101  0.25000  1.0000
  C   C1066     1.0  0.81532  0.89680  0.29252  1.0000
  H   H1878     1.0  0.85172  0.70686  0.24885  1.0000
  C   C1067     1.0  0.63940  0.62866  0.36472  1.0000
  C   C1068     1.0  0.73465  0.69454  0.35172  1.0000
  N   N60       1.0  0.57856  0.85888  0.47374  1.0000
  H   H1879     1.0  0.50821  0.53401  0.34010  1.0000
  H   H1880     1.0  0.97520  0.56894  0.36523  1.0000
  C   C1069     1.0  0.70659  0.61218  0.40444  1.0000
  H   H1881     1.0  0.92306  0.97918  0.28607  1.0000
  H   H1882     1.0  0.67658  0.68745  0.40833  1.0000
  H   H1883     1.0  0.85446  0.82093  0.28793  1.0000
  H   H1884     1.0  0.62601  0.87538  0.48150  1.0000
  H   H1885     1.0  0.57404  0.87602  0.44824  1.0000
  H   H1886     1.0  0.65155  0.64864  0.39103  1.0000
  H   H1887     1.0  0.86520  0.58696  0.48240  1.0000
  H   H1888     1.0  0.57717  0.82428  0.45582  1.0000
  C   C1070     1.0  0.89068  0.75153  0.25096  1.0000
  H   H1889     1.0  0.73314  0.71061  0.38476  1.0000
  C   C1071     1.0  0.60607  0.61222  0.37033  1.0000
  C   C1072     1.0  0.63307  0.66739  0.48240  1.0000
  C   C1073     1.0  0.68224  0.81568  0.39866  1.0000
  H   H1890     1.0  0.72960  0.93975  0.26238  1.0000
  H   H1891     1.0  0.55920  0.88806  0.46615  1.0000
  H   H1892     1.0  0.86850  0.93986  0.29382  1.0000
  H   H1893     1.0  0.86239  0.94237  0.27079  1.0000
  H   H1894     1.0  0.88532  0.81720  0.25412  1.0000
  H   H1895     1.0  0.66592  0.60944  0.39289  1.0000
  S   S242      1.0  0.49967  0.91735  0.41129  1.0000
  H   H1896     1.0  0.51401  0.83163  0.46577  1.0000
  C   C1074     1.0  0.87784  0.79305  0.25299  1.0000
  H   H1897     1.0  0.89916  0.91751  0.26639  1.0000
  H   H1898     1.0  0.96794  0.60418  0.39752  1.0000
  H   H1899     1.0  0.65134  0.67348  0.37493  1.0000
  H   H1900     1.0  0.85871  0.88219  0.30222  1.0000
  C   C1075     1.0  0.80593  0.92188  0.28872  1.0000
  H   H1901     1.0  0.74790  0.68442  0.35803  1.0000
  C   C1076     1.0  0.78196  0.92031  0.30178  1.0000
  H   H1902     1.0  0.74410  0.71860  0.35630  1.0000
  H   H1903     1.0  0.68482  0.63986  0.40867  1.0000
  C   C1077     1.0  0.82384  0.84088  0.28976  1.0000
  H   H1904     1.0  0.72979  0.66269  0.38572  1.0000
  H   H1905     1.0  0.82277  0.89946  0.30670  1.0000
  C   C1078     1.0  0.68858  0.62766  0.39743  1.0000
  H   H1906     1.0  0.64837  0.61210  0.36443  1.0000
  H   H1907     1.0  0.62834  0.95058  0.34919  1.0000
  C   C1079     1.0  0.51288  0.85725  0.44339  1.0000
  H   H1908     1.0  0.79611  0.91917  0.27518  1.0000
  H   H1909     1.0  0.82556  0.94508  0.28995  1.0000
  H   H1910     1.0  0.71299  0.68899  0.41297  1.0000
  H   H1911     1.0  0.55487  0.56519  0.47335  1.0000
  H   H1912     1.0  0.70486  0.63376  0.37086  1.0000
  H   H1913     1.0  0.80553  0.83878  0.29880  1.0000
  H   H1914     1.0  0.76158  0.89747  0.30121  1.0000
  H   H1915     1.0  0.79145  0.92515  0.31552  1.0000
  H   H1916     1.0  0.77462  0.93748  0.29829  1.0000
  H   H1917     1.0  0.73104  0.67166  0.32622  1.0000
  H   H1918     1.0  0.53278  0.97100  0.31858  1.0000
  C   C1080     1.0  0.62346  0.91406  0.47114  1.0000
  H   H1919     1.0  0.59628  0.62817  0.37051  1.0000
  C   C1081     1.0  0.58924  0.81403  0.48148  1.0000
  C   C1082     1.0  0.89457  0.63582  0.48092  1.0000
  H   H1920     1.0  0.66356  0.92533  0.45513  1.0000
  H   H1921     1.0  0.70152  0.71627  0.37911  1.0000
  H   H1922     1.0  0.53062  0.82594  0.44618  1.0000
  N   N61       1.0  0.69291  0.66985  0.37559  1.0000
  C   C1083     1.0  0.65876  0.65602  0.37733  1.0000
  C   C1084     1.0  0.70791  0.70001  0.38554  1.0000
  C   C1085     1.0  0.72906  0.89685  0.26703  1.0000
  H   H1923     1.0  0.86545  0.90488  0.24506  1.0000
  H   H1924     1.0  0.71592  0.89257  0.27899  1.0000
  H   H1925     1.0  0.80386  0.86526  0.26282  1.0000
  C   C1086     1.0  0.90605  0.63248  0.46271  1.0000
  C   C1087     1.0  0.75565  0.88170  0.24578  1.0000
  H   H1926     1.0  0.51522  0.54572  0.36313  1.0000
  H   H1927     1.0  0.55389  0.94402  0.34904  1.0000
  H   H1928     1.0  0.91548  0.65452  0.45576  1.0000
  H   H1929     1.0  0.98088  0.62065  0.31557  1.0000
  H   H1930     1.0  0.52829  0.93660  0.37738  1.0000
  H   H1931     1.0  0.64486  0.94318  0.31928  1.0000
  S   S243      1.0  0.63945  0.97623  0.41714  1.0000
  H   H1932     1.0  0.63872  0.77941  0.25281  1.0000
  C   C1088     1.0  0.57188  0.82649  0.46989  1.0000
  C   C1089     1.0  0.73869  0.87599  0.26125  1.0000
  C   C1090     1.0  0.64007  0.89167  0.37127  1.0000
  H   H1933     1.0  0.53233  0.89279  0.36327  1.0000
  C   C1091     1.0  0.86638  0.92824  0.28076  1.0000
  C   C1092     1.0  0.83667  0.82058  0.29687  1.0000
  H   H1934     1.0  0.51937  0.92889  0.33667  1.0000
  Fe  Fe121     1.0  0.61306  0.97753  0.39296  1.0000
  H   H1935     1.0  0.81376  0.83181  0.27648  1.0000
  H   H1936     1.0  0.58463  0.77863  0.46250  1.0000
  H   H1937     1.0  0.92383  0.79882  0.25355  1.0000
  H   H1938     1.0  0.81812  0.79671  0.29744  1.0000
  C   C1093     1.0  0.48834  0.96453  0.40086  1.0000
  C   C1094     1.0  0.54738  0.98681  0.32931  1.0000
  H   H1939     1.0  0.87695  0.64310  0.47876  1.0000
  H   H1940     1.0  0.92455  0.62610  0.46409  1.0000
  H   H1941     1.0  0.52615  0.86780  0.43133  1.0000
  H   H1942     1.0  0.85512  0.86705  0.25300  1.0000
  C   C1095     1.0  0.51009  0.89270  0.36461  1.0000
  C   C1096     1.0  0.53104  0.94297  0.34867  1.0000
  S   S244      1.0  0.81989  0.78740  0.25237  1.0000
  C   C1097     1.0  0.64139  0.97003  0.34102  1.0000
  H   H1943     1.0  0.97293  0.61461  0.35734  1.0000
  H   H1944     1.0  0.52205  0.56245  0.48468  1.0000
  H   H1945     1.0  0.96126  0.60887  0.48210  1.0000
  H   H1946     1.0  0.93892  0.58344  0.38079  1.0000
  H   H1947     1.0  0.67430  0.66350  0.48455  1.0000
  H   H1948     1.0  0.91630  0.97281  0.26237  1.0000
  H   H1949     1.0  0.88719  0.61496  0.45446  1.0000
  H   H1950     1.0  0.59223  0.77231  0.48500  1.0000
  C   C1098     1.0  0.48740  0.57836  0.40621  1.0000
  C   C1099     1.0  0.97515  0.63068  0.48857  1.0000
  H   H1951     1.0  0.59082  0.66890  0.48486  1.0000
  H   H1952     1.0  0.49941  0.88095  0.37705  1.0000
  H   H1953     1.0  0.50998  0.87477  0.45114  1.0000
  Fe  Fe122     1.0  0.60715  0.98539  0.43391  1.0000
  H   H1954     1.0  0.55953  0.59422  0.48933  1.0000
  H   H1955     1.0  0.67057  0.92747  0.47886  1.0000
  H   H1956     1.0  0.49489  0.87977  0.35328  1.0000
  H   H1957     1.0  0.49602  0.96992  0.36275  1.0000
  H   H1958     1.0  0.68128  0.84491  0.24140  1.0000
  H   H1959     1.0  0.50918  0.50835  0.35664  1.0000
  H   H1960     1.0  0.76332  0.86583  0.24131  1.0000
  H   H1961     1.0  0.48696  0.61999  0.47788  1.0000
  H   H1962     1.0  0.48998  0.83915  0.43908  1.0000
  H   H1963     1.0  0.61890  0.92204  0.48398  1.0000
  H   H1964     1.0  0.67791  0.75077  0.48463  1.0000
  H   H1965     1.0  0.91442  0.65397  0.48823  1.0000
  C   C1100     1.0  0.98360  0.61406  0.37021  1.0000
  H   H1966     1.0  0.65495  0.76905  0.48941  1.0000
  H   H1967     1.0  0.49546  0.59230  0.48795  1.0000
  C   C1101     1.0  0.67301  0.82009  0.23997  1.0000
  Fe  Fe123     1.0  0.64783  0.63207  0.56318  1.0000
  S   S245      1.0  0.66397  0.59753  0.55887  1.0000
  S   S246      1.0  0.62111  0.64346  0.54197  1.0000
  Fe  Fe124     1.0  0.66414  0.63786  0.60401  1.0000
  S   S247      1.0  0.67993  0.60229  0.60203  1.0000
  S   S248      1.0  0.66253  0.66574  0.62835  1.0000
  Fe  Fe125     1.0  0.70361  0.62626  0.57716  1.0000
  S   S249      1.0  0.75428  0.64542  0.57110  1.0000
  Fe  Fe126     1.0  0.63872  0.57623  0.58388  1.0000
  S   S250      1.0  0.60823  0.52464  0.58188  1.0000
  S   S251      1.0  0.68927  0.66287  0.57980  1.0000
  S   S252      1.0  0.62121  0.60979  0.58766  1.0000
  Fe  Fe127     1.0  0.95416  0.63896  0.56040  1.0000
  S   S253      1.0  0.91954  0.58969  0.55860  1.0000
  H   H1968     1.0  0.94843  0.54412  0.54502  1.0000
  Fe  Fe128     1.0  0.94320  0.64303  0.60097  1.0000
  S   S254      1.0  0.90772  0.59346  0.60161  1.0000
  H   H1969     1.0  0.91418  0.63080  0.51913  1.0000
  Fe  Fe129     1.0  0.93951  0.58434  0.58427  1.0000
  S   S255      1.0  0.95760  0.55010  0.58714  1.0000
  Fe  Fe130     1.0  0.89019  0.60246  0.57578  1.0000
  S   S256      1.0  0.83958  0.58179  0.56843  1.0000
  H   H1970     1.0  0.83427  0.69434  0.72393  1.0000
  S   S257      1.0  0.92359  0.65220  0.57597  1.0000
  H   H1971     1.0  0.66718  0.64798  0.51609  1.0000
  H   H1972     1.0  0.87257  0.70316  0.70731  1.0000
  S   S258      1.0  0.97623  0.63349  0.58530  1.0000
  Fe  Fe131     1.0  0.72854  0.73207  0.72972  1.0000
  S   S259      1.0  0.72483  0.70023  0.70615  1.0000
  S   S260      1.0  0.76428  0.78142  0.73228  1.0000
  H   H1973     1.0  0.80690  0.57960  0.52593  1.0000
  H   H1974     1.0  0.78441  0.61254  0.53316  1.0000
  H   H1975     1.0  0.92452  0.70749  0.52961  1.0000
  H   H1976     1.0  0.66859  0.63702  0.71573  1.0000
  H   H1977     1.0  0.58435  0.65468  0.51664  1.0000
  C   C1102     1.0  0.64946  0.63399  0.72452  1.0000
  C   C1103     1.0  0.53875  0.84345  0.49883  1.0000
  C   C1104     1.0  0.97544  0.71625  0.67298  1.0000
  H   H1978     1.0  0.62947  0.72633  0.72458  1.0000
  C   C1105     1.0  0.71207  0.87793  0.73700  1.0000
  H   H1979     1.0  0.56069  0.96566  0.55232  1.0000
  H   H1980     1.0  0.96599  0.64279  0.64883  1.0000
  H   H1981     1.0  0.63764  0.60942  0.72789  1.0000
  H   H1982     1.0  0.81894  0.65872  0.70088  1.0000
  H   H1983     1.0  0.85726  0.69059  0.68508  1.0000
  H   H1984     1.0  0.61097  0.63902  0.68776  1.0000
  H   H1985     1.0  0.50824  0.50843  0.60284  1.0000
  N   N62       1.0  0.62778  0.64243  0.71483  1.0000
  H   H1986     1.0  0.78616  0.65320  0.71305  1.0000
  C   C1106     1.0  0.93787  0.50963  0.58569  1.0000
  C   C1107     1.0  0.95858  0.53649  0.53431  1.0000
  H   H1987     1.0  0.97959  0.65146  0.68097  1.0000
  H   H1988     1.0  0.94894  0.75071  0.57838  1.0000
  C   C1108     1.0  0.68208  0.67671  0.64940  1.0000
  C   C1109     1.0  0.67858  0.69810  0.66021  1.0000
  C   C1110     1.0  0.69245  0.70658  0.67725  1.0000
  C   C1111     1.0  0.70950  0.69318  0.68399  1.0000
  C   C1112     1.0  0.71320  0.67198  0.67314  1.0000
  C   C1113     1.0  0.69991  0.66403  0.65594  1.0000
  H   H1989     1.0  0.66496  0.70820  0.65534  1.0000
  H   H1990     1.0  0.68944  0.72304  0.68528  1.0000
  H   H1991     1.0  0.72615  0.66128  0.67813  1.0000
  H   H1992     1.0  0.70287  0.64754  0.64789  1.0000
  C   C1114     1.0  0.77741  0.62702  0.57185  1.0000
  C   C1115     1.0  0.80935  0.64496  0.57221  1.0000
  C   C1116     1.0  0.82868  0.63147  0.57192  1.0000
  C   C1117     1.0  0.81626  0.59978  0.57084  1.0000
  C   C1118     1.0  0.78434  0.58184  0.57035  1.0000
  C   C1119     1.0  0.76499  0.59532  0.57109  1.0000
  H   H1993     1.0  0.81921  0.66949  0.57272  1.0000
  H   H1994     1.0  0.85316  0.64559  0.57215  1.0000
  H   H1995     1.0  0.77449  0.55733  0.56939  1.0000
  H   H1996     1.0  0.74051  0.58121  0.57065  1.0000
  C   C1120     1.0  0.56786  0.50572  0.58263  1.0000
  C   C1121     1.0  0.55201  0.51709  0.59276  1.0000
  H   H1997     1.0  0.54305  0.62168  0.73638  1.0000
  C   C1122     1.0  0.61940  0.53356  0.53011  1.0000
  H   H1998     1.0  0.56442  0.53865  0.59979  1.0000
  H   H1999     1.0  0.77220  0.97650  0.70943  1.0000
  C   C1123     1.0  0.60378  0.65605  0.50960  1.0000
  C   C1124     1.0  0.62542  0.65049  0.51873  1.0000
  C   C1125     1.0  0.65042  0.65240  0.50939  1.0000
  N   N63       1.0  0.82382  0.71816  0.70324  1.0000
  C   C1126     1.0  0.85433  0.73096  0.69426  1.0000
  C   C1127     1.0  0.81351  0.74222  0.70262  1.0000
  C   C1128     1.0  0.80022  0.68983  0.69366  1.0000
  C   C1129     1.0  0.79681  0.65877  0.69981  1.0000
  C   C1130     1.0  0.80992  0.75291  0.68391  1.0000
  C   C1131     1.0  0.77634  0.63301  0.68701  1.0000
  C   C1132     1.0  0.79419  0.77281  0.68487  1.0000
  H   H2000     1.0  0.85213  0.73575  0.68013  1.0000
  H   H2001     1.0  0.87051  0.75326  0.70061  1.0000
  H   H2002     1.0  0.82950  0.76277  0.71041  1.0000
  H   H2003     1.0  0.79098  0.73394  0.70900  1.0000
  H   H2004     1.0  0.77707  0.68792  0.69489  1.0000
  H   H2005     1.0  0.80463  0.69157  0.67915  1.0000
  H   H2006     1.0  0.62561  0.51773  0.52297  1.0000
  H   H2007     1.0  0.79610  0.73327  0.67492  1.0000
  H   H2008     1.0  0.83258  0.76685  0.67797  1.0000
  C   C1133     1.0  0.61990  0.60130  0.69080  1.0000
  H   H2009     1.0  0.91688  0.74799  0.69505  1.0000
  H   H2010     1.0  0.77394  0.61104  0.69184  1.0000
  H   H2011     1.0  0.75330  0.63130  0.68609  1.0000
  H   H2012     1.0  0.78641  0.63692  0.67360  1.0000
  H   H2013     1.0  0.79270  0.78089  0.67143  1.0000
  H   H2014     1.0  0.77066  0.75961  0.68990  1.0000
  H   H2015     1.0  0.80722  0.79293  0.69373  1.0000
  N   N64       1.0  0.54322  0.53884  0.53417  1.0000
  C   C1134     1.0  0.65438  0.66119  0.49144  1.0000
  C   C1135     1.0  0.57539  0.54404  0.53776  1.0000
  C   C1136     1.0  0.53247  0.54844  0.55057  1.0000
  C   C1137     1.0  0.54277  0.55816  0.51904  1.0000
  C   C1138     1.0  0.97625  0.66826  0.67371  1.0000
  H   H2016     1.0  0.58149  0.98597  0.57198  1.0000
  C   C1139     1.0  0.55294  0.58151  0.55743  1.0000
  H   H2017     1.0  0.88772  0.52569  0.52873  1.0000
  C   C1140     1.0  0.80057  0.70574  0.73454  1.0000
  H   H2018     1.0  0.57894  0.54157  0.55213  1.0000
  C   C1141     1.0  0.54183  0.58721  0.57519  1.0000
  H   H2019     1.0  0.90165  0.73557  0.67280  1.0000
  H   H2020     1.0  0.59236  0.56798  0.53478  1.0000
  H   H2021     1.0  0.94714  0.72063  0.56419  1.0000
  H   H2022     1.0  0.69034  0.86400  0.73041  1.0000
  H   H2023     1.0  0.50963  0.54670  0.54828  1.0000
  C   C1142     1.0  0.88195  0.60568  0.49117  1.0000
  H   H2024     1.0  0.55908  0.58256  0.52183  1.0000
  H   H2025     1.0  0.52010  0.55728  0.51781  1.0000
  H   H2026     1.0  0.89319  0.50512  0.58120  1.0000
  C   C1143     1.0  0.96452  0.68490  0.64574  1.0000
  H   H2027     1.0  0.55252  0.59818  0.54797  1.0000
  H   H2028     1.0  0.57684  0.58628  0.55934  1.0000
  C   C1144     1.0  0.72312  0.90971  0.73861  1.0000
  H   H2029     1.0  0.61656  0.57310  0.66783  1.0000
  H   H2030     1.0  0.91300  0.71271  0.68608  1.0000
  H   H2031     1.0  0.97221  0.72308  0.59319  1.0000
  C   C1145     1.0  0.87022  0.71071  0.69391  1.0000
  C   C1146     1.0  0.63901  0.67630  0.71642  1.0000
  H   H2032     1.0  0.57954  0.51984  0.51383  1.0000
  H   H2033     1.0  0.57336  0.49937  0.53407  1.0000
  H   H2034     1.0  0.51802  0.58338  0.57392  1.0000
  H   H2035     1.0  0.54297  0.57197  0.58544  1.0000
  H   H2036     1.0  0.55665  0.61115  0.57963  1.0000
  N   N65       1.0  0.69478  0.73851  0.53822  1.0000
  C   C1147     1.0  0.70268  0.71327  0.54166  1.0000
  C   C1148     1.0  0.66803  0.73449  0.54945  1.0000
  C   C1149     1.0  0.68507  0.73605  0.51896  1.0000
  C   C1150     1.0  0.72175  0.76956  0.54134  1.0000
  C   C1151     1.0  0.73742  0.77582  0.55985  1.0000
  C   C1152     1.0  0.72811  0.71270  0.53020  1.0000
  C   C1153     1.0  0.67406  0.75892  0.51283  1.0000
  C   C1154     1.0  0.66495  0.71999  0.56794  1.0000
  C   C1155     1.0  0.64040  0.72222  0.57889  1.0000
  C   C1156     1.0  0.76602  0.80684  0.56058  1.0000
  C   C1157     1.0  0.73663  0.68879  0.53681  1.0000
  C   C1158     1.0  0.66102  0.75146  0.49391  1.0000
  H   H2037     1.0  0.68205  0.69085  0.53969  1.0000
  H   H2038     1.0  0.70960  0.71358  0.55567  1.0000
  H   H2039     1.0  0.66797  0.75664  0.55137  1.0000
  H   H2040     1.0  0.64602  0.71922  0.54247  1.0000
  H   H2041     1.0  0.66641  0.71272  0.51594  1.0000
  H   H2042     1.0  0.70405  0.73948  0.51005  1.0000
  H   H2043     1.0  0.73935  0.77418  0.53114  1.0000
  H   H2044     1.0  0.71484  0.78756  0.53958  1.0000
  H   H2045     1.0  0.74461  0.75860  0.56329  1.0000
  H   H2046     1.0  0.72185  0.77638  0.57008  1.0000
  H   H2047     1.0  0.72023  0.70658  0.51621  1.0000
  H   H2048     1.0  0.74907  0.73500  0.53065  1.0000
  H   H2049     1.0  0.69338  0.78240  0.51289  1.0000
  H   H2050     1.0  0.65599  0.75856  0.52147  1.0000
  H   H2051     1.0  0.65797  0.69543  0.56625  1.0000
  H   H2052     1.0  0.68647  0.73059  0.57578  1.0000
  H   H2053     1.0  0.63826  0.71083  0.59178  1.0000
  H   H2054     1.0  0.64655  0.74640  0.58161  1.0000
  H   H2055     1.0  0.61800  0.71065  0.57183  1.0000
  H   H2056     1.0  0.77653  0.81101  0.57407  1.0000
  H   H2057     1.0  0.78301  0.80749  0.55091  1.0000
  H   H2058     1.0  0.76025  0.82533  0.55767  1.0000
  H   H2059     1.0  0.71636  0.66584  0.53672  1.0000
  H   H2060     1.0  0.75409  0.68794  0.52812  1.0000
  H   H2061     1.0  0.74626  0.69453  0.55052  1.0000
  H   H2062     1.0  0.92300  0.49067  0.53544  1.0000
  C   C1159     1.0  0.57907  0.98778  0.55745  1.0000
  H   H2063     1.0  0.64008  0.72908  0.49336  1.0000
  H   H2064     1.0  0.90314  0.57923  0.52228  1.0000
  C   C1160     1.0  0.60738  0.66416  0.49154  1.0000
  H   H2065     1.0  0.84553  0.63140  0.50091  1.0000
  C   C1161     1.0  0.90236  0.72791  0.68648  1.0000
  H   H2066     1.0  0.84793  0.73325  0.72837  1.0000
  C   C1162     1.0  0.53641  0.84675  0.51886  1.0000
  H   H2067     1.0  0.52986  0.53279  0.56162  1.0000
  H   H2068     1.0  0.95047  0.49300  0.50868  1.0000
  N   N66       1.0  0.86794  0.60496  0.50896  1.0000
  C   C1163     1.0  0.83988  0.60887  0.50635  1.0000
  H   H2069     1.0  0.63249  0.55658  0.52444  1.0000
  C   C1164     1.0  0.97969  0.69472  0.68264  1.0000
  C   C1165     1.0  0.89118  0.62856  0.52156  1.0000
  C   C1166     1.0  0.89363  0.66091  0.52143  1.0000
  C   C1167     1.0  0.82060  0.60427  0.52322  1.0000
  C   C1168     1.0  0.88317  0.80025  0.73090  1.0000
  C   C1169     1.0  0.62340  0.59731  0.67097  1.0000
  C   C1170     1.0  0.79852  0.61733  0.52112  1.0000
  C   C1171     1.0  0.92450  0.68526  0.52849  1.0000
  H   H2070     1.0  0.83701  0.55631  0.50896  1.0000
  H   H2071     1.0  0.60884  0.60415  0.66299  1.0000
  H   H2072     1.0  0.53836  0.52670  0.49692  1.0000
  H   H2073     1.0  0.66298  0.68875  0.71189  1.0000
  H   H2074     1.0  0.97795  0.73669  0.67959  1.0000
  C   C1172     1.0  0.62770  0.63468  0.69539  1.0000
  H   H2075     1.0  0.65690  0.73616  0.70702  1.0000
  H   H2076     1.0  0.84874  0.51426  0.52227  1.0000
  H   H2077     1.0  0.88650  0.62100  0.53557  1.0000
  H   H2078     1.0  0.84956  0.57298  0.53039  1.0000
  H   H2079     1.0  0.87579  0.66140  0.52995  1.0000
  H   H2080     1.0  0.89060  0.66809  0.50811  1.0000
  H   H2081     1.0  0.79534  0.95788  0.71285  1.0000
  H   H2082     1.0  0.83527  0.61518  0.53503  1.0000
  H   H2083     1.0  0.59594  0.58542  0.69414  1.0000
  C   C1173     1.0  0.96813  0.71144  0.65467  1.0000
  H   H2084     1.0  0.90195  0.60158  0.49271  1.0000
  C   C1174     1.0  0.57176  0.86349  0.49264  1.0000
  S   S261      1.0  0.93497  0.79579  0.72462  1.0000
  C   C1175     1.0  0.86990  0.53308  0.52814  1.0000
  H   H2085     1.0  0.88793  0.81242  0.71857  1.0000
  H   H2086     1.0  0.94283  0.68775  0.51932  1.0000
  C   C1176     1.0  0.48758  0.49611  0.52790  1.0000
  H   H2087     1.0  0.92935  0.67917  0.54177  1.0000
  C   C1177     1.0  0.97132  0.63442  0.50682  1.0000
  C   C1178     1.0  0.88092  0.56161  0.51691  1.0000
  C   C1179     1.0  0.90637  0.49314  0.58265  1.0000
  H   H2088     1.0  0.63994  0.68360  0.73042  1.0000
  H   H2089     1.0  0.68295  0.67582  0.73800  1.0000
  H   H2090     1.0  0.95486  0.61552  0.51427  1.0000
  H   H2091     1.0  0.58756  0.86049  0.50196  1.0000
  H   H2092     1.0  0.63509  0.59437  0.69799  1.0000
  H   H2093     1.0  0.65035  0.64971  0.68968  1.0000
  H   H2094     1.0  0.59613  0.67690  0.70935  1.0000
  H   H2095     1.0  0.78722  0.96552  0.69070  1.0000
  C   C1180     1.0  0.58518  0.52234  0.52816  1.0000
  H   H2096     1.0  0.95108  0.54115  0.52132  1.0000
  H   H2097     1.0  0.89422  0.97130  0.73720  1.0000
  H   H2098     1.0  0.84271  0.80460  0.73603  1.0000
  C   C1181     1.0  0.85731  0.57361  0.51651  1.0000
  H   H2099     1.0  0.53052  0.81900  0.49582  1.0000
  H   H2100     1.0  0.64750  0.61130  0.66708  1.0000
  C   C1182     1.0  0.94825  0.50252  0.53615  1.0000
  H   H2101     1.0  0.51236  0.83284  0.52291  1.0000
  C   C1183     1.0  0.52016  0.49987  0.59449  1.0000
  C   C1184     1.0  0.82812  0.71285  0.72247  1.0000
  H   H2102     1.0  0.81125  0.64240  0.51958  1.0000
  C   C1185     1.0  0.96279  0.74287  0.57056  1.0000
  H   H2103     1.0  0.88444  0.55516  0.50332  1.0000
  C   C1186     1.0  0.55181  0.55109  0.50070  1.0000
  H   H2104     1.0  0.85842  0.98446  0.72211  1.0000
  H   H2105     1.0  0.57639  0.88737  0.49491  1.0000
  H   H2106     1.0  0.54389  0.87088  0.52267  1.0000
  C   C1187     1.0  0.52178  0.50535  0.53093  1.0000
  H   H2107     1.0  0.86519  0.53766  0.54191  1.0000
  H   H2108     1.0  0.62299  0.68704  0.69149  1.0000
  H   H2109     1.0  0.55066  0.83866  0.52611  1.0000
  H   H2110     1.0  0.62437  0.50102  0.62181  1.0000
  H   H2111     1.0  0.78310  0.60675  0.50947  1.0000
  H   H2112     1.0  0.58852  0.59954  0.72064  1.0000
  S   S262      1.0  0.95660  0.68096  0.62240  1.0000
  H   H2113     1.0  0.62589  0.53430  0.54429  1.0000
  H   H2114     1.0  0.50570  0.98248  0.53643  1.0000
  H   H2115     1.0  0.52867  0.49638  0.51932  1.0000
  H   H2116     1.0  0.57932  0.62731  0.71259  1.0000
  C   C1188     1.0  0.62062  0.68902  0.70599  1.0000
  H   H2117     1.0  0.96510  0.72837  0.64736  1.0000
  H   H2118     1.0  0.97893  0.50609  0.59002  1.0000
  H   H2119     1.0  0.97487  0.75977  0.56015  1.0000
  C   C1189     1.0  0.59569  0.62429  0.72142  1.0000
  H   H2120     1.0  0.52336  0.85101  0.49246  1.0000
  H   H2121     1.0  0.77861  0.69019  0.72782  1.0000
  Fe  Fe132     1.0  0.96609  0.77785  0.73507  1.0000
  H   H2122     1.0  0.61941  0.73160  0.70238  1.0000
  C   C1190     1.0  0.79215  0.97446  0.70455  1.0000
  C   C1191     1.0  0.63239  0.72282  0.71030  1.0000
  C   C1192     1.0  0.96854  0.66327  0.65544  1.0000
  C   C1193     1.0  0.95459  0.49359  0.58760  1.0000
  S   S263      1.0  0.98412  0.66931  0.53818  1.0000
  H   H2123     1.0  0.48448  0.50849  0.51662  1.0000
  H   H2124     1.0  0.58450  0.81507  0.49573  1.0000
  H   H2125     1.0  0.57647  0.55776  0.50082  1.0000
  C   C1194     1.0  0.96111  0.49059  0.52117  1.0000
  H   H2126     1.0  0.95594  0.49947  0.54943  1.0000
  H   H2127     1.0  0.80013  0.72727  0.73794  1.0000
  H   H2128     1.0  0.82446  0.59235  0.49609  1.0000
  H   H2129     1.0  0.52318  0.49216  0.54242  1.0000
  H   H2130     1.0  0.71000  0.91995  0.73322  1.0000
  C   C1195     1.0  0.90279  0.78928  0.73704  1.0000
  H   H2131     1.0  0.98379  0.54988  0.53563  1.0000
  H   H2132     1.0  0.97116  0.91040  0.83796  1.0000
  C   C1196     1.0  0.64743  0.91899  0.75164  1.0000
  H   H2133     1.0  0.84160  0.59871  0.85390  1.0000
  H   H2134     1.0  0.60772  0.50654  0.90563  1.0000
  C   C1197     1.0  0.97196  0.59262  0.85389  1.0000
  H   H2135     1.0  0.82513  0.51712  0.79421  1.0000
  Fe  Fe133     1.0  0.71045  0.72995  0.76988  1.0000
  S   S264      1.0  0.67926  0.69407  0.78969  1.0000
  S   S265      1.0  0.74421  0.77928  0.77466  1.0000
  C   C1198     1.0  0.89663  0.77369  0.75299  1.0000
  H   H2136     1.0  0.92040  0.82026  0.80552  1.0000
  C   C1199     1.0  0.89252  0.56525  0.81729  1.0000
  Fe  Fe134     1.0  0.66229  0.64661  0.89565  1.0000
  S   S266      1.0  0.65378  0.59866  0.89135  1.0000
  S   S267      1.0  0.68632  0.68352  0.87458  1.0000
  Fe  Fe135     1.0  0.64084  0.63352  0.93535  1.0000
  S   S268      1.0  0.63250  0.58493  0.93289  1.0000
  S   S269      1.0  0.62046  0.64785  0.95895  1.0000
  Fe  Fe136     1.0  0.67691  0.60433  0.91794  1.0000
  S   S270      1.0  0.70964  0.58403  0.91952  1.0000
  Fe  Fe137     1.0  0.61039  0.58359  0.90661  1.0000
  S   S271      1.0  0.56388  0.54691  0.89621  1.0000
  S   S272      1.0  0.68703  0.65303  0.92210  1.0000
  S   S273      1.0  0.61723  0.63148  0.90916  1.0000
  Fe  Fe138     1.0  0.94226  0.64597  0.88836  1.0000
  S   S274      1.0  0.89207  0.61295  0.88737  1.0000
  H   H2137     1.0  0.90620  0.55851  0.80847  1.0000
  Fe  Fe139     1.0  0.94741  0.63659  0.92922  1.0000
  S   S275      1.0  0.89716  0.60368  0.93058  1.0000
  H   H2138     1.0  0.49528  0.97138  0.91585  1.0000
  Fe  Fe140     1.0  0.90345  0.58344  0.90503  1.0000
  S   S276      1.0  0.88026  0.53181  0.90163  1.0000
  Fe  Fe141     1.0  0.88963  0.63576  0.91280  1.0000
  S   S277      1.0  0.85535  0.65393  0.91625  1.0000
  S   S278      1.0  0.95368  0.61446  0.90433  1.0000
  S   S279      1.0  0.93985  0.67057  0.91308  1.0000
  C   C1200     1.0  0.92900  0.52322  0.89118  1.0000
  C   C1201     1.0  0.89951  0.51014  0.89790  1.0000
  C   C1202     1.0  0.96714  0.68506  0.84424  1.0000
  H   H2139     1.0  0.94056  0.54720  0.88832  1.0000
  N   N67       1.0  0.64288  0.49294  0.90986  1.0000
  C   C1203     1.0  0.71966  0.85845  0.79684  1.0000
  H   H2140     1.0  0.89990  0.85370  0.80083  1.0000
  C   C1204     1.0  0.94187  0.68969  0.84119  1.0000
  N   N68       1.0  0.95048  0.84995  0.78535  1.0000
  C   C1205     1.0  0.75017  0.60376  0.91898  1.0000
  C   C1206     1.0  0.76606  0.58744  0.91510  1.0000
  C   C1207     1.0  0.79820  0.60229  0.91431  1.0000
  C   C1208     1.0  0.81486  0.63371  0.91751  1.0000
  C   C1209     1.0  0.79894  0.64995  0.92155  1.0000
  C   C1210     1.0  0.76682  0.63507  0.92238  1.0000
  H   H2141     1.0  0.75345  0.56316  0.91269  1.0000
  H   H2142     1.0  0.81009  0.58945  0.91126  1.0000
  H   H2143     1.0  0.81158  0.67419  0.92423  1.0000
  H   H2144     1.0  0.75494  0.64774  0.92585  1.0000
  N   N69       1.0  0.97358  0.54800  0.94432  1.0000
  H   H2145     1.0  0.60311  0.51259  0.85742  1.0000
  C   C1211     1.0  0.51023  0.53062  0.94377  1.0000
  H   H2146     1.0  0.94297  0.53654  0.96652  1.0000
  H   H2147     1.0  0.92682  0.78339  0.82492  1.0000
  C   C1212     1.0  0.53967  0.50933  0.90343  1.0000
  H   H2148     1.0  0.91865  0.70485  0.82269  1.0000
  H   H2149     1.0  0.66776  0.94027  0.84085  1.0000
  H   H2150     1.0  0.88729  0.55017  0.82890  1.0000
  H   H2151     1.0  0.96593  0.51535  0.88247  1.0000
  C   C1213     1.0  0.95718  0.88250  0.81390  1.0000
  C   C1214     1.0  0.63025  0.51124  0.90045  1.0000
  H   H2152     1.0  0.51700  0.53531  0.92969  1.0000
  C   C1215     1.0  0.91776  0.61961  0.80776  1.0000
  C   C1216     1.0  0.64121  0.73908  0.97733  1.0000
  H   H2153     1.0  0.92187  0.80132  0.78603  1.0000
  H   H2154     1.0  0.91156  0.76502  0.75777  1.0000
  C   C1217     1.0  0.51215  0.49127  0.89414  1.0000
  H   H2155     1.0  0.66580  0.61486  0.75587  1.0000
  H   H2156     1.0  0.88736  0.88261  0.77851  1.0000
  H   H2157     1.0  0.69982  0.63711  0.74314  1.0000
  H   H2158     1.0  0.93120  0.59547  0.85912  1.0000
  C   C1218     1.0  0.68214  0.69151  0.81330  1.0000
  C   C1219     1.0  0.70344  0.71565  0.82387  1.0000
  C   C1220     1.0  0.70432  0.71268  0.84249  1.0000
  C   C1221     1.0  0.68408  0.68558  0.85091  1.0000
  C   C1222     1.0  0.66306  0.66130  0.84033  1.0000
  C   C1223     1.0  0.66204  0.66434  0.82172  1.0000
  H   H2159     1.0  0.71903  0.73673  0.81771  1.0000
  H   H2160     1.0  0.72069  0.73167  0.85044  1.0000
  H   H2161     1.0  0.64728  0.64032  0.84650  1.0000
  H   H2162     1.0  0.64538  0.64549  0.81380  1.0000
  H   H2163     1.0  0.85394  0.84858  0.78507  1.0000
  C   C1224     1.0  0.55599  0.61363  0.74493  1.0000
  H   H2164     1.0  0.88257  0.58643  0.84639  1.0000
  S   S280      1.0  0.97171  0.66778  0.86391  1.0000
  H   H2165     1.0  0.88727  0.52155  0.96590  1.0000
  C   C1225     1.0  0.98239  0.56961  0.92904  1.0000
  C   C1226     1.0  0.95867  0.81160  0.80483  1.0000
  C   C1227     1.0  0.63804  0.76250  0.98916  1.0000
  H   H2166     1.0  0.70255  0.50017  0.92296  1.0000
  H   H2167     1.0  0.66121  0.88824  0.76300  1.0000
  C   C1228     1.0  0.87133  0.76972  0.76295  1.0000
  C   C1229     1.0  0.60413  0.51551  0.87206  1.0000
  H   H2168     1.0  0.86698  0.75817  0.77548  1.0000
  H   H2169     1.0  0.58099  0.50088  0.87728  1.0000
  H   H2170     1.0  0.87085  0.84926  0.76402  1.0000
  C   C1230     1.0  0.73155  0.95144  0.79621  1.0000
  H   H2171     1.0  0.62469  0.98349  0.97579  1.0000
  C   C1231     1.0  0.66559  0.65258  0.74162  1.0000
  H   H2172     1.0  0.70759  0.98526  0.93985  1.0000
  H   H2173     1.0  0.92049  0.55271  0.93196  1.0000
  H   H2174     1.0  0.74834  0.90636  0.79363  1.0000
  H   H2175     1.0  0.64213  0.93746  0.75566  1.0000
  H   H2176     1.0  0.56770  0.51094  0.92554  1.0000
  H   H2177     1.0  0.71100  0.93341  0.82997  1.0000
  H   H2178     1.0  0.73292  0.51415  0.89522  1.0000
  C   C1232     1.0  0.93848  0.70172  0.82493  1.0000
  H   H2179     1.0  0.64975  0.65497  0.75089  1.0000
  H   H2180     1.0  0.68749  0.52510  0.90032  1.0000
  H   H2181     1.0  0.50683  0.54968  0.94899  1.0000
  H   H2182     1.0  0.77014  0.87213  0.75742  1.0000
  H   H2183     1.0  0.95778  0.77512  0.82068  1.0000
  H   H2184     1.0  0.93529  0.87965  0.77308  1.0000
  C   C1233     1.0  0.94768  0.54915  0.95388  1.0000
  C   C1234     1.0  0.67275  0.49996  0.90122  1.0000
  H   H2185     1.0  0.74668  0.95281  0.78512  1.0000
  H   H2186     1.0  0.89672  0.61848  0.80196  1.0000
  C   C1235     1.0  0.65785  0.90762  0.76768  1.0000
  H   H2187     1.0  0.69785  0.84248  0.80306  1.0000
  H   H2188     1.0  0.86342  0.57117  0.79698  1.0000
  C   C1236     1.0  0.76791  0.91417  0.75387  1.0000
  H   H2189     1.0  0.86273  0.52210  0.78994  1.0000
  C   C1237     1.0  0.93628  0.82040  0.79529  1.0000
  H   H2190     1.0  0.96701  0.49370  0.96148  1.0000
  H   H2191     1.0  0.95327  0.66146  0.78233  1.0000
  C   C1238     1.0  0.91737  0.53748  0.94321  1.0000
  N   N70       1.0  0.77535  0.67670  0.87199  1.0000
  C   C1239     1.0  0.76385  0.64284  0.87329  1.0000
  C   C1240     1.0  0.80967  0.69281  0.87411  1.0000
  C   C1241     1.0  0.76281  0.68658  0.88749  1.0000
  C   C1242     1.0  0.76532  0.68542  0.85499  1.0000
  C   C1243     1.0  0.76208  0.66584  0.83813  1.0000
  C   C1244     1.0  0.72884  0.62324  0.87495  1.0000
  C   C1245     1.0  0.77360  0.72122  0.88948  1.0000
  C   C1246     1.0  0.82791  0.68475  0.86047  1.0000
  C   C1247     1.0  0.86150  0.69859  0.86607  1.0000
  C   C1248     1.0  0.75656  0.68000  0.82157  1.0000
  C   C1249     1.0  0.71866  0.58961  0.87103  1.0000
  C   C1250     1.0  0.75731  0.72778  0.90468  1.0000
  H   H2192     1.0  0.77446  0.63785  0.88499  1.0000
  H   H2193     1.0  0.77096  0.63383  0.86181  1.0000
  H   H2194     1.0  0.81893  0.71783  0.87317  1.0000
  H   H2195     1.0  0.81614  0.68862  0.88762  1.0000
  H   H2196     1.0  0.76845  0.67903  0.90014  1.0000
  H   H2197     1.0  0.73750  0.67550  0.88667  1.0000
  H   H2198     1.0  0.74258  0.68433  0.85660  1.0000
  H   H2199     1.0  0.78103  0.70966  0.85197  1.0000
  H   H2200     1.0  0.74228  0.64281  0.83929  1.0000
  H   H2201     1.0  0.78245  0.66294  0.83592  1.0000
  H   H2202     1.0  0.72212  0.62514  0.88871  1.0000
  H   H2203     1.0  0.71630  0.63094  0.86586  1.0000
  H   H2204     1.0  0.76885  0.73029  0.87715  1.0000
  H   H2205     1.0  0.79832  0.73398  0.89269  1.0000
  H   H2206     1.0  0.81931  0.65992  0.85906  1.0000
  H   H2207     1.0  0.82709  0.69433  0.84740  1.0000
  H   H2208     1.0  0.86390  0.68876  0.87878  1.0000
  H   H2209     1.0  0.87435  0.69350  0.85579  1.0000
  H   H2210     1.0  0.87175  0.72370  0.86770  1.0000
  C   C1251     1.0  0.96447  0.51644  0.93709  1.0000
  H   H2211     1.0  0.97290  0.82920  0.81486  1.0000
  H   H2212     1.0  0.73070  0.58117  0.88002  1.0000
  H   H2213     1.0  0.69380  0.57604  0.87321  1.0000
  H   H2214     1.0  0.72331  0.58623  0.85704  1.0000
  C   C1252     1.0  0.96030  0.70948  0.81150  1.0000
  H   H2215     1.0  0.84505  0.55606  0.81786  1.0000
  H   H2216     1.0  0.76169  0.71936  0.91739  1.0000
  H   H2217     1.0  0.61298  0.51474  0.93402  1.0000
  C   C1253     1.0  0.80287  0.69144  0.75190  1.0000
  H   H2218     1.0  0.96284  0.87098  0.74835  1.0000
  H   H2219     1.0  0.89894  0.56064  0.95998  1.0000
  Fe  Fe142     1.0  0.72930  0.78835  0.74797  1.0000
  H   H2220     1.0  0.70596  0.89464  0.77471  1.0000
  H   H2221     1.0  0.63371  0.77788  0.98043  1.0000
  H   H2222     1.0  0.64508  0.53603  0.90320  1.0000
  C   C1254     1.0  0.86145  0.55595  0.80803  1.0000
  H   H2223     1.0  0.78359  0.68797  0.76053  1.0000
  H   H2224     1.0  0.93794  0.57819  0.98602  1.0000
  C   C1255     1.0  0.73436  0.98359  0.79894  1.0000
  H   H2225     1.0  0.52908  0.52964  0.95122  1.0000
  H   H2226     1.0  0.92484  0.68379  0.85130  1.0000
  H   H2227     1.0  0.95217  0.59395  0.82086  1.0000
  H   H2228     1.0  0.92276  0.59188  0.78633  1.0000
  H   H2229     1.0  0.66537  0.92768  0.74142  1.0000
  S   S281      1.0  0.82186  0.77759  0.77042  1.0000
  H   H2230     1.0  0.50586  0.50075  0.88301  1.0000
  Fe  Fe143     1.0  0.77634  0.76878  0.75865  1.0000
  H   H2231     1.0  0.69360  0.65209  0.76366  1.0000
  H   H2232     1.0  0.88533  0.64119  0.82606  1.0000
  H   H2233     1.0  0.74216  0.94711  0.80804  1.0000
  H   H2234     1.0  0.64223  0.90006  0.83710  1.0000
  N   N71       1.0  0.69985  0.92572  0.79254  1.0000
  H   H2235     1.0  0.83865  0.62901  0.84276  1.0000
  C   C1256     1.0  0.70095  0.89630  0.78892  1.0000
  H   H2236     1.0  0.96354  0.56141  0.91905  1.0000
  C   C1257     1.0  0.67844  0.92219  0.80742  1.0000
  C   C1258     1.0  0.68757  0.91622  0.82603  1.0000
  H   H2237     1.0  0.73842  0.85588  0.80331  1.0000
  H   H2238     1.0  0.73234  0.71668  0.90207  1.0000
  C   C1259     1.0  0.72546  0.89129  0.79906  1.0000
  C   C1260     1.0  0.66620  0.91729  0.84012  1.0000
  H   H2239     1.0  0.64951  0.52101  0.87382  1.0000
  H   H2240     1.0  0.87110  0.52974  0.94653  1.0000
  H   H2241     1.0  0.95412  0.57308  0.95772  1.0000
  H   H2242     1.0  0.75462  0.66575  0.80970  1.0000
  H   H2243     1.0  0.67819  0.87637  0.79113  1.0000
  H   H2244     1.0  0.66877  0.52729  0.92970  1.0000
  C   C1261     1.0  0.92593  0.85527  0.77662  1.0000
  C   C1262     1.0  0.65005  0.50348  0.92901  1.0000
  H   H2245     1.0  0.67473  0.94249  0.80842  1.0000
  H   H2246     1.0  0.65548  0.90282  0.80452  1.0000
  C   C1263     1.0  0.85481  0.62103  0.84746  1.0000
  H   H2247     1.0  0.68564  0.89314  0.82631  1.0000
  H   H2248     1.0  0.91195  0.62467  0.84633  1.0000
  H   H2249     1.0  0.65253  0.54161  0.95715  1.0000
  H   H2250     1.0  0.63902  0.89897  0.77728  1.0000
  H   H2251     1.0  0.68295  0.95285  0.77878  1.0000
  H   H2252     1.0  0.85580  0.60338  0.82159  1.0000
  H   H2253     1.0  0.72633  0.89642  0.81341  1.0000
  H   H2254     1.0  0.95237  0.63407  0.76626  1.0000
  S   S282      1.0  0.71314  0.82361  0.74160  1.0000
  H   H2255     1.0  0.67277  0.91231  0.85330  1.0000
  H   H2256     1.0  0.61089  0.53966  0.87525  1.0000
  C   C1264     1.0  0.85165  0.78060  0.75681  1.0000
  C   C1265     1.0  0.89490  0.60620  0.83756  1.0000
  C   C1266     1.0  0.75697  0.88242  0.75213  1.0000
  H   H2257     1.0  0.76573  0.75268  0.90603  1.0000
  C   C1267     1.0  0.93980  0.63762  0.77735  1.0000
  S   S283      1.0  0.74332  0.71935  0.75519  1.0000
  H   H2258     1.0  0.90912  0.51399  0.93798  1.0000
  H   H2259     1.0  0.77564  0.70325  0.81958  1.0000
  H   H2260     1.0  0.95631  0.82486  0.76341  1.0000
  S   S284      1.0  0.95346  0.72257  0.79082  1.0000
  C   C1268     1.0  0.89594  0.84557  0.78691  1.0000
  C   C1269     1.0  0.94104  0.60250  0.83045  1.0000
  H   H2261     1.0  0.70515  0.94136  0.76550  1.0000
  C   C1270     1.0  0.75106  0.92804  0.74718  1.0000
  H   H2262     1.0  0.94197  0.89215  0.81012  1.0000
  H   H2263     1.0  0.64627  0.50541  0.96582  1.0000
  C   C1271     1.0  0.53710  0.57266  0.98503  1.0000
  H   H2264     1.0  0.73494  0.68119  0.82270  1.0000
  H   H2265     1.0  0.95710  0.62718  0.83244  1.0000
  C   C1272     1.0  0.62683  0.65753  0.98211  1.0000
  H   H2266     1.0  0.51196  0.56324  0.98417  1.0000
  N   N72       1.0  0.91087  0.59816  0.82306  1.0000
  C   C1273     1.0  0.87593  0.85735  0.77804  1.0000
  C   C1274     1.0  0.68217  0.63812  0.75161  1.0000
  C   C1275     1.0  0.94133  0.78146  0.81442  1.0000
  C   C1276     1.0  0.94002  0.58672  0.84828  1.0000
  C   C1277     1.0  0.89223  0.53738  0.95471  1.0000
  H   H2267     1.0  0.67126  0.66049  0.98397  1.0000
  H   H2268     1.0  0.87065  0.63787  0.85737  1.0000
  H   H2269     1.0  0.65897  0.75088  0.96729  1.0000
  H   H2270     1.0  0.55259  0.61798  0.75900  1.0000
  C   C1278     1.0  0.62709  0.50663  0.87996  1.0000
  C   C1279     1.0  0.96447  0.65250  0.98483  1.0000
  H   H2271     1.0  0.61628  0.51599  0.96641  1.0000
  H   H2272     1.0  0.66875  0.49109  0.88732  1.0000
  H   H2273     1.0  0.82448  0.70664  0.75907  1.0000
  H   H2274     1.0  0.71866  0.85215  0.78258  1.0000
  C   C1280     1.0  0.68767  0.93351  0.77604  1.0000
  C   C1281     1.0  0.94324  0.50509  0.88786  1.0000
  C   C1282     1.0  0.93537  0.61520  0.79211  1.0000
  C   C1283     1.0  0.84780  0.52359  0.80033  1.0000
  H   H2275     1.0  0.60157  0.62215  0.75008  1.0000
  H   H2276     1.0  0.94269  0.64674  0.97863  1.0000
  H   H2277     1.0  0.92547  0.56173  0.84717  1.0000
  C   C1284     1.0  0.63554  0.51722  0.95853  1.0000
  H   H2278     1.0  0.91830  0.84216  0.76383  1.0000
  S   S285      1.0  0.76581  0.96811  0.75032  1.0000
  C   C1285     1.0  0.85751  0.79571  0.74070  1.0000
  H   H2279     1.0  0.92679  0.76296  0.80489  1.0000
  H   H2280     1.0  0.93134  0.64351  0.81269  1.0000
  H   H2281     1.0  0.61938  0.72404  0.97029  1.0000
  C   C1286     1.0  0.87250  0.61818  0.83175  1.0000
  H   H2282     1.0  0.88267  0.82036  0.78709  1.0000
  Fe  Fe144     1.0  0.97852  0.74321  0.76482  1.0000
  H   H2283     1.0  0.78956  0.92804  0.76053  1.0000
  C   C1287     1.0  0.58997  0.63056  0.74079  1.0000
  H   H2284     1.0  0.80189  0.66902  0.74930  1.0000
  H   H2285     1.0  0.91748  0.63429  0.77213  1.0000
  H   H2286     1.0  0.48868  0.49881  0.97318  1.0000
  H   H2287     1.0  0.54682  0.58870  0.74289  1.0000
  H   H2288     1.0  0.54313  0.55411  0.98280  1.0000
  H   H2289     1.0  0.72028  0.98401  0.81015  1.0000
  C   C1288     1.0  0.96962  0.84680  0.77084  1.0000
  C   C1289     1.0  0.62377  0.50227  0.94030  1.0000
  C   C1290     1.0  0.54729  0.49691  0.91791  1.0000
  H   H2290     1.0  0.95843  0.61946  0.79643  1.0000
  H   H2291     1.0  0.94807  0.51066  0.92577  1.0000
  H   H2292     1.0  0.62654  0.90000  0.74564  1.0000
  H   H2293     1.0  0.59783  0.65506  0.74349  1.0000
  H   H2294     1.0  0.54754  0.58955  0.97436  1.0000
  S   S286      1.0  0.69283  0.73920  0.74411  1.0000
  S   S287      1.0  0.98412  0.64573  0.95107  1.0000
  H   H2295     1.0  0.94428  0.86159  0.82161  1.0000
  H   H2296     1.0  0.56035  0.98212  0.86977  1.0000
  C   C1291     1.0  0.72886  0.86400  0.74371  1.0000
  H   H2297     1.0  0.84478  0.50712  0.81092  1.0000
  C   C1292     1.0  0.97129  0.87660  0.79709  1.0000
  H   H2298     1.0  0.58356  0.65704  0.98494  1.0000
  C   C1293     1.0  0.95057  0.49023  0.95056  1.0000
  H   H2299     1.0  0.64826  0.72490  0.98540  1.0000
  H   H2300     1.0  0.97384  0.80857  0.79530  1.0000
  S   S288      1.0  0.95003  0.72835  0.73955  1.0000
  H   H2301     1.0  0.97085  0.58141  0.86665  1.0000
  H   H2302     1.0  0.98059  0.89812  0.78961  1.0000
  C   C1294     1.0  0.98190  0.90589  0.82625  1.0000
  C   C1295     1.0  0.98184  0.87216  0.75673  1.0000
  H   H2303     1.0  0.98158  0.58330  0.84381  1.0000
  H   H2304     1.0  0.65868  0.48976  0.93628  1.0000
  C   C1296     1.0  0.71819  0.49001  0.89877  1.0000
