data_image0
_chemical_formula_structural       HFeS2FeS2Fe2S3FeCFeS2FeHS2FeS2FeS2FeSFeS3FeSFeS2FeSFeS3C6H4CH2C4HC7H7C2H3CH3C6H4C7H4C2HCH3C3HCH3CH4CHCH16CHSHCH3CH17NCH4CHC2H2C3H2CHC2HC2H3CH6CSCH3CH3C2N2C10H10FeCH5CH2C2HCH7CHCH8C2H3C3HCSH4CH3CH8CH5NC6HC5H16CH2CHC2H4NHCH14SH6C2HCH2C2H2CH4CHCH3S2FeS2FeSHFeSFeS3FeS2FeS2FeSFeS2NCHCHC6H4C6H3C4H4C6H4C6H4C2H2C2HCH2C4HCHC2H2CHC2H3C2HCNH4CH11CH5C2H2CHCHCHC2H6CH2C2H4CH3CHNH2C3HC4HCH13CH7CH9CHC2HCH9C3HCHCH8CH2NHNC3HCH2CHCH2CHCH6C3H3CHCHNSH4CH2C2H2CHC2HCHFeS2FeS2HFeS3FeSHFeS2Fe2S3FeS2FeCFeHS2FeS2FeS2FeSFeS2HC6H4C6H4C6H4C6H4C6H5C8H5CH3CSH10SHCH2C2H2CH2C4HC2H2CH2C3HSNH5C3H2CH2SCHCHNHCH5C3H7CNHCH2C2H3CH2C2H3C2HC5HC3H4SH5FeCH7CH10C2H2C2HNH2CH4SCH2CH7C2NH4NC10HCH10CNH7CH3CH4C2H5FeH2C3H5CHCH4CH10CHNH4CH2CHC2HC2H5CH10FeS3HFeSFeS3FeSFeS2FeSFeS3H2CSH2C6H4C6H4C6H4C6H4CH2C2H4C3H4CHNH5CH7CHSH3C3H3CH2CH2CHC2H3SCHSCH2C2H2C2HCH3CHC2H5CH5C2H3FeH2NC12H29NC3HSH5CHC2H8CH4CHCHFeSFeS2FeSFeS3Fe2S2FeCS2FeS2FeSFeSFeS3FeS2FeSHFeSFeS4C6H4CH2C3H2C6H4C6H4C6H4NH2C2HCHC2H4NHCNC2HC5H9CH2CH10CH8SHNC8HCH22CH7CH2CHCH5C2H3C3H3NH2CH3CH2CHC3H2CH2C2H3CFeSH2C2HCH2CH4CHCH2CH4NHN2H2CH2CH3SCHCH4CHCHCH2C2H2C2H2CHCHSHC3H3CHC2H6C2H6C2HCH2C3H5CHCH2CH2CH4CH2CH4CHCHCH7C5HSHFeSFeS2FeSFeS3FeS2FeS2FeSFeS2H6C2HC3H4CH4CHC6H4C6H5C5H4C6H4CNC8HC2H3CH9CH15CHCHCHC3HNH2CSCH3CHC2H3SC3HC2H2CH8SHNC6HC2H12CH8CH2CHCSCH4C3H7CH2CH4CNH2C2HCH3CH3CHCHCH7CH3C2HCH2CH3CHCH4CHCHCH3CNHCHCNHCFeS2CSFeSFeS3FeS2FeS2Fe2S4FeSHFeSFeSFeSFeS2FeSFeS4C2HC3H2C6H4C6H5CHC6H4C6H4C6H6CH2C4HC3HCH2C3HCH2CH2NH2CHCH3C2HFeH4SH2CH2CH4CH2C2H4NH2CHNCH2CH4C2HCH6C2H4C2H2CH8CH2SH3NC3H11CH3CHCH2C3H2CHC2H5SH4CH6C2HC2H5CHCH2CH4CHCHCHCH3CFeH7CH2CHCHNH2CH2C2H3CH4CH4CH3C5H7CH2NH2CHCH10C2H2SCH3CHCH4CH2C2H7CH2CH7CHC2H3CSFeS2FeSFeSFeS3FeS2FeS2CFeS3H4SCH2C2HC3H4C6H4CHCHC2HC4HCH4C6H2CHC6H4NC2H7C2H8CH2CH3CHCHCH2C2H5C2HCH4SCHCH3CHCH6CH2CH2CH2CHCHCH7CH4C2HCHCHCH2CHCH3CH5CH4CHC2H3CH2CNCH3SHCH3CH5C2H2NCHNH2C3H3CHCH3CH2CH5CH2FeHNCHC2H2FeSFeS2FeSFeS3FeS2FeS2Fe2S3H5C3HC2H3C6H4C3H2C2HC3HCSHC6HCH2C6H4CH3CH2CH2C2HCH2C2H4CH3C3H3CH5NCNC2H11CHCH9CHCH7C2HCH2CHCH6CH2C5SH3CH2CHC2H10CNCHCHCNHC2HSH2C2H10SH3CH2CH3CHSC2H2CHC2H8CH2C2H2CH2CHC3H2NH5CHCH3C2H9CHCHCH2CH3CH4FeS2FeS2FeSFeS2FeS2FeS2FeSFeS2FeS2FeS2FeHFeS3HSFeSCFeCFeS2HC5H3C8H4C6H5C3HC4HCH4C6H4C6H3NC10H24NC3H2C4HC3H13SH6C2H8CHCH2CH2FeHCH2CHC2H2CHSCHC3H4CH3NC6HCH2C2H2CH13CH3SCH6C4HNCHCH2CH2CH4C3H2CH9NH3SC2HNC8H2C2H28CHNCH3CH2CH2CH5CHCHCH5CH2CH5CH3CH6C2HFeS2FeSFeSFeS3FeS2FeS2HFeSCS2HSC2H2C2H2CHC3HSH2C6H4C6H5C5H4C6H4CH2C2H2C4H3C2HCH5CH2CH13CHCHCFeHC2H2C4HCH8CH3C2HNH6C2HCH5NHNHCHCHCHC2H4CH2CH8C2HC2H5C2HCH2CH2CHNCH3CH2CHCH3C2HC2HCH2C3H2C3FeHSNH6CHC2H10NHC2SH4CHC3H3CH3SCH4C2H5CH3CH3NH2CH2CHCHCH9CH5FeHCFeSFeS2FeSFeS3FeHCFeS2FeSFeS2HSCHSFeHFeSHFeS2FeSFeSFeS3CHC7H4C6H4C2H3CHCHC7H4C6H4C6H7CH9NC12H16C3H11SH2N2HCH11CHCHC3H2C2H5CH2NH4CHNH8CHCH2C2H4CH4C2HC2H5CHCH5CHCHCHCHC2S2H4CH2CH6SFeCH5CH4CSCH2CHC4H5CHCH10CH5CH3CNC8H3SH2CH6CHSNH2CH3CH4FeS2FeSFeSFeS3FeS2FeS2Fe2S3H3C6H4CHC2HC6H4C2HC3H4C6H4C7H3CHCH2C2H2C2H2CHCH6SCNCH3C2H7C4H2CH2CH4CHC2H2CSC2H4CH2C2HCHCH4CH2CNH3CH3C2HC2H8CHCH4CH3CH4CHCH10CH2NCH6C2HCH2C2H2CHCH2CH3CH2CHCH6CHCH5SH3NHNH5SH3C2HSFeS2FeS2Fe2S3FeSCFeS2FeSFeS3FeSFeS2FeSFeS3FeS2FeHFeHS2C6H4C6H4C4H5C6H4CH3C7H4CH3C2HC2H2CHCHC2H2CHCHC2H6C2H10CH7CH2CNH2CHCH12NH5CH3CH2C2HC2H4NHCH5CHC2HCH2C3HCHC2H3C2H4CH4CH3CH3CH4CH2CNCHCHCHNH4C2H2C2H5CFeH3C2HCH5CSH9CH3CH8CHCH7C3NHCH3C2H2SH2CH4C3H2CH2CHCH9C2H2CH3CHCHC2H2SHFeS2FeS2Fe2S3HSFeS2FeSFeS3CH3C6H4CH2CHC3H7C6H4C6H4C6H4NCH4CH2C2H2NC2H9NC6HC4H13CH12C2HCH5CH7C2SCH5C2HCH5C2HC2SHCHCH4SCNH3CH4CHSHCHSH4C4HC2H3CH4CHC3H4CH2CH2CH3CHCH2CHC2H5CHCH6C2HCH3CHSFeSFeS2FeSFeS3FeSFeS2FeNFeS3FeS2Fe2H2S2FeS2FeS2Fe2S3C6H4C4HCH4C6H4CH2CHC6H4C6H4C6H6C2SH3C2HCH2CH2CNH2CHNCH3CH3CHCH4CH9CH3CH3C2HCH3C5H10NCH2CHCSH2CH2CH3C2HCH2CH2NH2CH2C2HCHCH3CHCH4CH6CHNH3CH3CH3SNC8HC2H19CHCH2CH3C2H2CH7CHNH2C2H8C2HC2H2SH2C3HCH2C2HCHCFeHCH4CHCH3CH2CH2CHCH5CH21C3H2CH2C2HCH2
_chemical_formula_sum              "H3072 Fe192 S384 C1728 N96"
_cell_length_a       61.5856
_cell_length_b       61.6632
_cell_length_c       61.67
_cell_angle_alpha    88.3986
_cell_angle_beta     88.4233
_cell_angle_gamma    88.4733

_space_group_name_H-M_alt    "P 1"
_space_group_IT_number       1

loop_
  _space_group_symop_operation_xyz
  'x, y, z'

loop_
  _atom_site_type_symbol
  _atom_site_label
  _atom_site_symmetry_multiplicity
  _atom_site_fract_x
  _atom_site_fract_y
  _atom_site_fract_z
  _atom_site_occupancy
  H   H1        1.0  0.39486  0.12485  0.21437  1.0000
  Fe  Fe1       1.0  0.37085  0.39636  0.05640  1.0000
  S   S1        1.0  0.37169  0.42826  0.03814  1.0000
  S   S2        1.0  0.39825  0.38888  0.08054  1.0000
  Fe  Fe2       1.0  0.32398  0.38802  0.04097  1.0000
  S   S3        1.0  0.32269  0.42016  0.02202  1.0000
  S   S4        1.0  0.29220  0.36845  0.04393  1.0000
  Fe  Fe3       1.0  0.35676  0.41136  0.01057  1.0000
  Fe  Fe4       1.0  0.33765  0.43470  0.05121  1.0000
  S   S5        1.0  0.33244  0.46933  0.06393  1.0000
  S   S6        1.0  0.35765  0.37854  0.02822  1.0000
  S   S7        1.0  0.33718  0.40342  0.07068  1.0000
  Fe  Fe5       1.0  0.03693  0.18117  0.21019  1.0000
  C   C1        1.0  0.38288  0.11697  0.22555  1.0000
  Fe  Fe6       1.0  0.06662  0.20682  0.17929  1.0000
  S   S8        1.0  0.08844  0.21612  0.20555  1.0000
  S   S9        1.0  0.07128  0.21610  0.14347  1.0000
  Fe  Fe7       1.0  0.08612  0.18159  0.21761  1.0000
  H   H2        1.0  0.23377  0.08083  0.23253  1.0000
  S   S10       1.0  0.06631  0.17159  0.18971  1.0000
  S   S11       1.0  0.03618  0.21630  0.19849  1.0000
  Fe  Fe8       1.0  0.24897  0.07247  0.19010  1.0000
  S   S12       1.0  0.22072  0.05101  0.18355  1.0000
  S   S13       1.0  0.27310  0.05693  0.21474  1.0000
  Fe  Fe9       1.0  0.23312  0.10619  0.15548  1.0000
  S   S14       1.0  0.20476  0.08666  0.14636  1.0000
  S   S15       1.0  0.23735  0.14104  0.14327  1.0000
  Fe  Fe10      1.0  0.20002  0.08158  0.18232  1.0000
  S   S16       1.0  0.16544  0.08221  0.19574  1.0000
  Fe  Fe11      1.0  0.22739  0.05745  0.14802  1.0000
  S   S17       1.0  0.23031  0.03130  0.12206  1.0000
  S   S18       1.0  0.22719  0.10256  0.19171  1.0000
  S   S19       1.0  0.25675  0.07759  0.15431  1.0000
  Fe  Fe12      1.0  0.16672  0.24486  0.01938  1.0000
  S   S20       1.0  0.17494  0.27410  0.03907  1.0000
  Fe  Fe13      1.0  0.19613  0.21468  0.04686  1.0000
  S   S21       1.0  0.20643  0.24128  0.06783  1.0000
  S   S22       1.0  0.20630  0.17923  0.05190  1.0000
  Fe  Fe14      1.0  0.17106  0.25129  0.06824  1.0000
  S   S23       1.0  0.15691  0.25719  0.10204  1.0000
  Fe  Fe15      1.0  0.20999  0.26201  0.03722  1.0000
  S   S24       1.0  0.24258  0.27913  0.02902  1.0000
  S   S25       1.0  0.16060  0.22349  0.04888  1.0000
  S   S26       1.0  0.20187  0.23412  0.01579  1.0000
  C   C2        1.0  0.21416  0.16880  0.07763  1.0000
  C   C3        1.0  0.21825  0.14639  0.08051  1.0000
  C   C4        1.0  0.22495  0.13760  0.10066  1.0000
  C   C5        1.0  0.22764  0.15118  0.11809  1.0000
  C   C6        1.0  0.22340  0.17358  0.11525  1.0000
  C   C7        1.0  0.21667  0.18236  0.09514  1.0000
  H   H3        1.0  0.21645  0.13578  0.06703  1.0000
  H   H4        1.0  0.22857  0.12040  0.10255  1.0000
  H   H5        1.0  0.22534  0.18420  0.12869  1.0000
  H   H6        1.0  0.21342  0.19960  0.09323  1.0000
  C   C8        1.0  0.13089  0.14424  0.21990  1.0000
  H   H7        1.0  0.03503  0.31721  0.21007  1.0000
  H   H8        1.0  0.16129  0.47402  0.19598  1.0000
  C   C9        1.0  0.15269  0.10669  0.20414  1.0000
  C   C10       1.0  0.16427  0.12245  0.21447  1.0000
  C   C11       1.0  0.15329  0.14090  0.22273  1.0000
  C   C12       1.0  0.06902  0.32440  0.17833  1.0000
  H   H9        1.0  0.27805  0.47374  0.12478  1.0000
  C   C13       1.0  0.08083  0.17614  0.09846  1.0000
  C   C14       1.0  0.13413  0.24315  0.11267  1.0000
  C   C15       1.0  0.13335  0.23676  0.13473  1.0000
  C   C16       1.0  0.11458  0.22744  0.14416  1.0000
  C   C17       1.0  0.09613  0.22518  0.13177  1.0000
  C   C18       1.0  0.09709  0.23108  0.10959  1.0000
  C   C19       1.0  0.11607  0.23983  0.10002  1.0000
  H   H10       1.0  0.14725  0.23932  0.14462  1.0000
  H   H11       1.0  0.11414  0.22279  0.16121  1.0000
  H   H12       1.0  0.08287  0.22948  0.09991  1.0000
  H   H13       1.0  0.11646  0.24501  0.08313  1.0000
  H   H14       1.0  0.19299  0.10511  0.09868  1.0000
  H   H15       1.0  0.12935  0.27069  0.17287  1.0000
  H   H16       1.0  0.07319  0.26320  0.19972  1.0000
  C   C20       1.0  0.31633  0.48241  0.08458  1.0000
  C   C21       1.0  0.25257  0.20126  0.01305  1.0000
  H   H17       1.0  0.13162  0.11588  0.15131  1.0000
  H   H18       1.0  0.47881  0.38609  0.00785  1.0000
  H   H19       1.0  0.40673  0.44733  0.17953  1.0000
  C   C22       1.0  0.30135  0.47137  0.09804  1.0000
  H   H20       1.0  0.09473  0.28732  0.16059  1.0000
  H   H21       1.0  0.22853  0.48770  0.21609  1.0000
  H   H22       1.0  0.29878  0.45433  0.09567  1.0000
  C   C23       1.0  0.27897  0.34321  0.04002  1.0000
  C   C24       1.0  0.25689  0.34131  0.04634  1.0000
  C   C25       1.0  0.24556  0.32195  0.04333  1.0000
  C   C26       1.0  0.25605  0.30408  0.03368  1.0000
  C   C27       1.0  0.27813  0.30599  0.02730  1.0000
  C   C28       1.0  0.28953  0.32527  0.03053  1.0000
  H   H23       1.0  0.24844  0.35496  0.05370  1.0000
  H   H24       1.0  0.22864  0.32093  0.04837  1.0000
  H   H25       1.0  0.09848  0.26763  0.03004  1.0000
  H   H26       1.0  0.30646  0.32629  0.02556  1.0000
  C   C29       1.0  0.04891  0.26837  0.16347  1.0000
  C   C30       1.0  0.47014  0.36481  0.07327  1.0000
  C   C31       1.0  0.46187  0.37299  0.09285  1.0000
  C   C32       1.0  0.43997  0.38043  0.09468  1.0000
  C   C33       1.0  0.42600  0.37998  0.07695  1.0000
  C   C34       1.0  0.43435  0.37201  0.05730  1.0000
  C   C35       1.0  0.45614  0.36427  0.05559  1.0000
  H   H27       1.0  0.47223  0.37315  0.10671  1.0000
  H   H28       1.0  0.43371  0.38632  0.11004  1.0000
  H   H29       1.0  0.42388  0.37135  0.04355  1.0000
  H   H30       1.0  0.46219  0.35777  0.04041  1.0000
  C   C36       1.0  0.36087  0.11839  0.21464  1.0000
  C   C37       1.0  0.16482  0.12747  0.12664  1.0000
  H   H31       1.0  0.37335  0.44368  0.15573  1.0000
  C   C38       1.0  0.34924  0.44149  0.12362  1.0000
  H   H32       1.0  0.08638  0.32012  0.17502  1.0000
  H   H33       1.0  0.29435  0.37829  0.99804  1.0000
  H   H34       1.0  0.26556  0.00725  0.14146  1.0000
  C   C39       1.0  0.35112  0.41633  0.12586  1.0000
  C   C40       1.0  0.38398  0.44716  0.14119  1.0000
  C   C41       1.0  0.28335  0.02242  0.16597  1.0000
  H   H35       1.0  0.12139  0.12413  0.12564  1.0000
  C   C42       1.0  0.32874  0.40654  0.12972  1.0000
  H   H36       1.0  0.28552  0.25359  0.09638  1.0000
  H   H37       1.0  0.07613  0.16109  0.10751  1.0000
  H   H38       1.0  0.47512  0.48997  0.04554  1.0000
  C   C43       1.0  0.49385  0.38968  0.01648  1.0000
  H   H39       1.0  0.33910  0.44563  0.10930  1.0000
  H   H40       1.0  0.33947  0.44668  0.13807  1.0000
  H   H41       1.0  0.45568  0.43050  0.10647  1.0000
  H   H42       1.0  0.39311  0.43163  0.13810  1.0000
  C   C44       1.0  0.18463  0.17066  0.17822  1.0000
  H   H43       1.0  0.28756  0.04069  0.13540  1.0000
  C   C45       1.0  0.48916  0.40807  0.03221  1.0000
  H   H44       1.0  0.09246  0.25882  0.16616  1.0000
  H   H45       1.0  0.36134  0.41108  0.13967  1.0000
  H   H46       1.0  0.35830  0.40912  0.11099  1.0000
  H   H47       1.0  0.41629  0.44987  0.10660  1.0000
  H   H48       1.0  0.15465  0.14394  0.03963  1.0000
  H   H49       1.0  0.29882  0.03070  0.24448  1.0000
  H   H50       1.0  0.11954  0.18689  0.01435  1.0000
  H   H51       1.0  0.47562  0.40306  0.04321  1.0000
  H   H52       1.0  0.33036  0.38855  0.13018  1.0000
  H   H53       1.0  0.32140  0.41184  0.14541  1.0000
  H   H54       1.0  0.31770  0.41151  0.11641  1.0000
  H   H55       1.0  0.01885  0.99887  0.12851  1.0000
  H   H56       1.0  0.48389  0.42244  0.02228  1.0000
  H   H57       1.0  0.16919  0.20267  0.09125  1.0000
  H   H58       1.0  0.99922  0.02408  0.15282  1.0000
  H   H59       1.0  0.37076  0.45028  0.08699  1.0000
  C   C46       1.0  0.47355  0.45522  0.05297  1.0000
  H   H60       1.0  0.07192  0.25628  0.02802  1.0000
  S   S27       1.0  0.06278  0.25484  0.24474  1.0000
  H   H61       1.0  0.31197  0.02675  0.14480  1.0000
  C   C47       1.0  0.08941  0.12731  0.15589  1.0000
  H   H62       1.0  0.28079  0.42820  0.99892  1.0000
  H   H63       1.0  0.08461  0.12000  0.14054  1.0000
  H   H64       1.0  0.06111  0.26891  0.14981  1.0000
  C   C48       1.0  0.18016  0.15562  0.15971  1.0000
  H   H65       1.0  0.27612  0.28667  0.07389  1.0000
  H   H66       1.0  0.46709  0.45783  0.06967  1.0000
  H   H67       1.0  0.04771  0.15781  0.99927  1.0000
  H   H68       1.0  0.18156  0.12017  0.21659  1.0000
  H   H69       1.0  0.17101  0.46287  0.17050  1.0000
  H   H70       1.0  0.24519  0.01072  0.18759  1.0000
  H   H71       1.0  0.10200  0.13078  0.20749  1.0000
  H   H72       1.0  0.26638  0.18165  0.12559  1.0000
  H   H73       1.0  0.46492  0.44136  0.04659  1.0000
  H   H74       1.0  0.10220  0.15630  0.14129  1.0000
  H   H75       1.0  0.15133  0.14023  0.17119  1.0000
  H   H76       1.0  0.44424  0.06583  0.24087  1.0000
  H   H77       1.0  0.02272  0.28711  0.14711  1.0000
  H   H78       1.0  0.17322  0.09683  0.07987  1.0000
  H   H79       1.0  0.19626  0.49415  0.20096  1.0000
  H   H80       1.0  0.15887  0.17269  0.03753  1.0000
  H   H81       1.0  0.05059  0.25173  0.17080  1.0000
  N   N1        1.0  0.14810  0.14320  0.13620  1.0000
  C   C49       1.0  0.47091  0.42758  0.11549  1.0000
  H   H82       1.0  0.14058  0.19969  0.09711  1.0000
  H   H83       1.0  0.47558  0.41824  0.07454  1.0000
  H   H84       1.0  0.17640  0.16612  0.10860  1.0000
  H   H85       1.0  0.25197  0.20882  0.99650  1.0000
  C   C50       1.0  0.15547  0.15172  0.15755  1.0000
  H   H86       1.0  0.18135  0.13414  0.12576  1.0000
  C   C51       1.0  0.49225  0.42053  0.08025  1.0000
  C   C52       1.0  0.40037  0.46402  0.14859  1.0000
  H   H87       1.0  0.37979  0.48717  0.11951  1.0000
  H   H88       1.0  0.13004  0.23304  0.22533  1.0000
  C   C53       1.0  0.11936  0.12861  0.20933  1.0000
  C   C54       1.0  0.16192  0.17601  0.11341  1.0000
  C   C55       1.0  0.41592  0.45390  0.16516  1.0000
  H   H89       1.0  0.03739  0.31441  0.16794  1.0000
  H   H90       1.0  0.05312  0.29854  0.22441  1.0000
  C   C56       1.0  0.15616  0.19071  0.09405  1.0000
  H   H91       1.0  0.41303  0.43371  0.07030  1.0000
  C   C57       1.0  0.29283  0.06401  0.23425  1.0000
  C   C58       1.0  0.21242  0.01082  0.11378  1.0000
  H   H92       1.0  0.12104  0.09735  0.19432  1.0000
  C   C59       1.0  0.29853  0.08546  0.23773  1.0000
  C   C60       1.0  0.02627  0.27027  0.15301  1.0000
  H   H93       1.0  0.05971  0.30583  0.15143  1.0000
  H   H94       1.0  0.16633  0.11284  0.13755  1.0000
  H   H95       1.0  0.11903  0.28978  0.19252  1.0000
  C   C61       1.0  0.12777  0.13045  0.14079  1.0000
  H   H96       1.0  0.18881  0.13982  0.16295  1.0000
  H   H97       1.0  0.35562  0.13559  0.21182  1.0000
  H   H98       1.0  0.06882  0.18921  0.10268  1.0000
  H   H99       1.0  0.14633  0.16703  0.16146  1.0000
  H   H100      1.0  0.41028  0.47083  0.13497  1.0000
  H   H101      1.0  0.01978  0.28811  0.19031  1.0000
  C   C62       1.0  0.36494  0.47743  0.12032  1.0000
  S   S28       1.0  0.00764  0.15873  0.21498  1.0000
  C   C63       1.0  0.07998  0.17091  0.00270  1.0000
  H   H102      1.0  0.07587  0.35869  0.17486  1.0000
  H   H103      1.0  0.02731  0.23802  0.13935  1.0000
  H   H104      1.0  0.03757  0.25916  0.12118  1.0000
  C   C64       1.0  0.40394  0.45680  0.09541  1.0000
  H   H105      1.0  0.99903  0.16389  0.16811  1.0000
  H   H106      1.0  0.13492  0.15559  0.10600  1.0000
  H   H107      1.0  0.44959  0.47804  0.03967  1.0000
  C   C65       1.0  0.19395  0.00490  0.12606  1.0000
  C   C66       1.0  0.16074  0.12012  0.10319  1.0000
  N   N2        1.0  0.05368  0.28518  0.17999  1.0000
  N   N3        1.0  0.09219  0.19096  0.03672  1.0000
  C   C67       1.0  0.07761  0.17438  0.02751  1.0000
  C   C68       1.0  0.08778  0.19307  0.06089  1.0000
  C   C69       1.0  0.08680  0.21262  0.02574  1.0000
  C   C70       1.0  0.11586  0.18572  0.03205  1.0000
  C   C71       1.0  0.12483  0.16362  0.04081  1.0000
  C   C72       1.0  0.28960  0.48246  0.11456  1.0000
  C   C73       1.0  0.09808  0.23266  0.03468  1.0000
  C   C74       1.0  0.08110  0.17233  0.07406  1.0000
  C   C75       1.0  0.14821  0.15952  0.03261  1.0000
  C   C76       1.0  0.08948  0.25372  0.02403  1.0000
  H   H108      1.0  0.06028  0.17896  0.03117  1.0000
  H   H109      1.0  0.08020  0.15818  0.03540  1.0000
  H   H110      1.0  0.10214  0.19988  0.06872  1.0000
  H   H111      1.0  0.07416  0.20499  0.06395  1.0000
  H   H112      1.0  0.06891  0.21593  0.02661  1.0000
  H   H113      1.0  0.26918  0.03263  0.17123  1.0000
  H   H114      1.0  0.38717  0.09945  0.22763  1.0000
  H   H115      1.0  0.12606  0.19806  0.03912  1.0000
  H   H116      1.0  0.19383  0.07934  0.23604  1.0000
  H   H117      1.0  0.12521  0.16365  0.05877  1.0000
  Fe  Fe16      1.0  0.05838  0.22306  0.22622  1.0000
  C   C77       1.0  0.46751  0.47538  0.03921  1.0000
  H   H118      1.0  0.11582  0.23169  0.03119  1.0000
  H   H119      1.0  0.09538  0.23407  0.05242  1.0000
  H   H120      1.0  0.06443  0.16781  0.06978  1.0000
  H   H121      1.0  0.09211  0.15828  0.07084  1.0000
  H   H122      1.0  0.09712  0.18078  0.10375  1.0000
  C   C78       1.0  0.11607  0.27402  0.18499  1.0000
  H   H123      1.0  0.01600  0.00540  0.16843  1.0000
  H   H124      1.0  0.38489  0.42895  0.10094  1.0000
  C   C79       1.0  0.03737  0.30026  0.21620  1.0000
  C   C80       1.0  0.24198  0.99708  0.17682  1.0000
  H   H125      1.0  0.42256  0.09851  0.23148  1.0000
  C   C81       1.0  0.10828  0.14270  0.15180  1.0000
  H   H126      1.0  0.16609  0.18664  0.12686  1.0000
  H   H127      1.0  0.29130  0.09848  0.22806  1.0000
  H   H128      1.0  0.17706  0.18697  0.17511  1.0000
  H   H129      1.0  0.06685  0.32563  0.19610  1.0000
  H   H130      1.0  0.00874  0.25708  0.12651  1.0000
  H   H131      1.0  0.09399  0.11416  0.16770  1.0000
  H   H132      1.0  0.13049  0.17306  0.12806  1.0000
  C   C82       1.0  0.06466  0.34692  0.16814  1.0000
  H   H133      1.0  0.47288  0.47324  0.02203  1.0000
  C   C83       1.0  0.34989  0.48640  0.13880  1.0000
  H   H134      1.0  0.18762  0.16301  0.14492  1.0000
  H   H135      1.0  0.15498  0.18102  0.07925  1.0000
  H   H136      1.0  0.42788  0.45848  0.06912  1.0000
  H   H137      1.0  0.03500  0.26755  0.20453  1.0000
  H   H138      1.0  0.17212  0.08652  0.10750  1.0000
  H   H139      1.0  0.35681  0.48148  0.10475  1.0000
  H   H140      1.0  0.25570  0.11764  0.23066  1.0000
  H   H141      1.0  0.06740  0.34668  0.15026  1.0000
  C   C84       1.0  0.14271  0.16170  0.12064  1.0000
  C   C85       1.0  0.01940  0.29631  0.23338  1.0000
  H   H142      1.0  0.42590  0.44061  0.15777  1.0000
  H   H143      1.0  0.02021  0.27930  0.23979  1.0000
  H   H144      1.0  0.28653  0.29238  0.01982  1.0000
  C   C86       1.0  0.26407  0.21623  0.02811  1.0000
  C   C87       1.0  0.41170  0.45154  0.07238  1.0000
  C   C88       1.0  0.02497  0.25522  0.13383  1.0000
  H   H145      1.0  0.30199  0.05100  0.15782  1.0000
  C   C89       1.0  0.05417  0.30727  0.16871  1.0000
  S   S29       1.0  0.11783  0.16760  0.23073  1.0000
  H   H146      1.0  0.14392  0.11495  0.10101  1.0000
  H   H147      1.0  0.11638  0.26086  0.19763  1.0000
  H   H148      1.0  0.29552  0.18370  0.12280  1.0000
  H   H149      1.0  0.25718  0.24844  0.10067  1.0000
  C   C90       1.0  0.09427  0.27472  0.17376  1.0000
  H   H150      1.0  0.34411  0.20442  0.06601  1.0000
  H   H151      1.0  0.28265  0.15863  0.11704  1.0000
  H   H152      1.0  0.07503  0.13625  0.16259  1.0000
  C   C91       1.0  0.13017  0.10972  0.20185  1.0000
  H   H153      1.0  0.24753  0.28134  0.07835  1.0000
  H   H154      1.0  0.16398  0.13369  0.09138  1.0000
  H   H155      1.0  0.01335  0.26533  0.16492  1.0000
  H   H156      1.0  0.33271  0.48292  0.13543  1.0000
  H   H157      1.0  0.25551  0.23228  0.02743  1.0000
  H   H158      1.0  0.35375  0.47873  0.15477  1.0000
  H   H159      1.0  0.26413  0.28751  0.10083  1.0000
  H   H160      1.0  0.35208  0.22809  0.08001  1.0000
  C   C92       1.0  0.38164  0.44673  0.10090  1.0000
  H   H161      1.0  0.34305  0.23091  0.05251  1.0000
  H   H162      1.0  0.40334  0.47470  0.09638  1.0000
  H   H163      1.0  0.29340  0.01871  0.18031  1.0000
  H   H164      1.0  0.26903  0.48774  0.21146  1.0000
  H   H165      1.0  0.09144  0.21247  0.00816  1.0000
  N   N4        1.0  0.27696  0.21898  0.06773  1.0000
  C   C93       1.0  0.27291  0.20848  0.08985  1.0000
  C   C94       1.0  0.26883  0.24243  0.06734  1.0000
  C   C95       1.0  0.26409  0.20674  0.05173  1.0000
  C   C96       1.0  0.30064  0.21758  0.06070  1.0000
  C   C97       1.0  0.31721  0.22557  0.07690  1.0000
  C   C98       1.0  0.27884  0.18388  0.09205  1.0000
  H   H166      1.0  0.20626  0.47902  0.17878  1.0000
  C   C99       1.0  0.26946  0.25495  0.08883  1.0000
  C   C100      1.0  0.26398  0.27907  0.08517  1.0000
  C   C101      1.0  0.34050  0.22198  0.06825  1.0000
  C   C102      1.0  0.28096  0.17660  0.11583  1.0000
  C   C103      1.0  0.17572  0.10100  0.09701  1.0000
  H   H167      1.0  0.25536  0.21036  0.09460  1.0000
  H   H168      1.0  0.28160  0.21688  0.10255  1.0000
  H   H169      1.0  0.27744  0.25207  0.05435  1.0000
  H   H170      1.0  0.25151  0.24354  0.06278  1.0000
  H   H171      1.0  0.24677  0.20577  0.05744  1.0000
  H   H172      1.0  0.04770  0.35252  0.17184  1.0000
  H   H173      1.0  0.30545  0.20071  0.05632  1.0000
  H   H174      1.0  0.30345  0.22738  0.04552  1.0000
  H   H175      1.0  0.31590  0.21676  0.09278  1.0000
  H   H176      1.0  0.31486  0.24323  0.07922  1.0000
  H   H177      1.0  0.26587  0.17428  0.08499  1.0000
  H   H178      1.0  0.29442  0.17970  0.08362  1.0000
  H   H179      1.0  0.16226  0.15279  0.23114  1.0000
  H   H180      1.0  0.11275  0.14934  0.16757  1.0000
  H   H181      1.0  0.27019  0.18963  0.05072  1.0000
  H   H182      1.0  0.21699  0.11464  0.24284  1.0000
  C   C104      1.0  0.07501  0.27861  0.19007  1.0000
  H   H183      1.0  0.07994  0.29050  0.20203  1.0000
  H   H184      1.0  0.42702  0.46642  0.17066  1.0000
  C   C105      1.0  0.49072  0.43369  0.10137  1.0000
  H   H185      1.0  0.46242  0.14351  0.23205  1.0000
  C   C106      1.0  0.29706  0.03598  0.14994  1.0000
  C   C107      1.0  0.03589  0.28434  0.19735  1.0000
  H   H186      1.0  0.20246  0.17246  0.17947  1.0000
  H   H187      1.0  0.17822  0.16390  0.19384  1.0000
  H   H188      1.0  0.27035  0.40628  0.01607  1.0000
  H   H189      1.0  0.09193  0.25338  0.00614  1.0000
  N   N5        1.0  0.37040  0.45342  0.12185  1.0000
  H   H190      1.0  0.26138  0.18535  0.01205  1.0000
  C   C108      1.0  0.12559  0.24010  0.24127  1.0000
  H   H191      1.0  0.00314  0.29961  0.22645  1.0000
  H   H192      1.0  0.21826  0.04682  0.23483  1.0000
  H   H193      1.0  0.48984  0.45141  0.09780  1.0000
  H   H194      1.0  0.11506  0.14996  0.03560  1.0000
  H   H195      1.0  0.47016  0.43752  0.13023  1.0000
  H   H196      1.0  0.47214  0.41021  0.12068  1.0000
  H   H197      1.0  0.06907  0.13747  0.00384  1.0000
  H   H198      1.0  0.36211  0.11035  0.19874  1.0000
  H   H199      1.0  0.28077  0.21820  0.02137  1.0000
  H   H200      1.0  0.23567  0.19851  0.01895  1.0000
  H   H201      1.0  0.42338  0.13513  0.23127  1.0000
  H   H202      1.0  0.40030  0.45878  0.06037  1.0000
  H   H203      1.0  0.18965  0.01345  0.14070  1.0000
  H   H204      1.0  0.39158  0.47780  0.15643  1.0000
  S   S30       1.0  0.05704  0.18866  0.23938  1.0000
  H   H205      1.0  0.24522  0.01721  0.22871  1.0000
  H   H206      1.0  0.14891  0.15859  0.01463  1.0000
  H   H207      1.0  0.34835  0.11000  0.22487  1.0000
  H   H208      1.0  0.15038  0.08211  0.24269  1.0000
  H   H209      1.0  0.09682  0.16576  0.99807  1.0000
  H   H210      1.0  0.20850  0.00854  0.20681  1.0000
  C   C109      1.0  0.19903  0.49513  0.18305  1.0000
  C   C110      1.0  0.22466  0.49472  0.14023  1.0000
  H   H211      1.0  0.11204  0.25213  0.23897  1.0000
  C   C111      1.0  0.21764  0.99935  0.09479  1.0000
  H   H212      1.0  0.23190  0.00366  0.08514  1.0000
  H   H213      1.0  0.45096  0.17093  0.23248  1.0000
  C   C112      1.0  0.26860  0.41525  0.00029  1.0000
  C   C113      1.0  0.16301  0.47719  0.17819  1.0000
  H   H214      1.0  0.40990  0.15843  0.24121  1.0000
  H   H215      1.0  0.25215  0.42305  0.00003  1.0000
  C   C114      1.0  0.00155  0.00679  0.15804  1.0000
  H   H216      1.0  0.14651  0.47949  0.17152  1.0000
  H   H217      1.0  0.21246  0.48194  0.14284  1.0000
  H   H218      1.0  0.23376  0.00477  0.16257  1.0000
  H   H219      1.0  0.19714  0.00280  0.18085  1.0000
  C   C115      1.0  0.45683  0.15694  0.24264  1.0000
  H   H220      1.0  0.24068  0.48807  0.14526  1.0000
  C   C116      1.0  0.27565  0.00158  0.15528  1.0000
  H   H221      1.0  0.24316  0.49142  0.17951  1.0000
  H   H222      1.0  0.23201  0.48463  0.10731  1.0000
  H   H223      1.0  0.37399  0.14425  0.24582  1.0000
  S   S31       1.0  0.33438  0.11838  0.47221  1.0000
  S   S32       1.0  0.41898  0.99890  0.31772  1.0000
  Fe  Fe17      1.0  0.41214  0.08029  0.32728  1.0000
  S   S33       1.0  0.37744  0.08850  0.33753  1.0000
  S   S34       1.0  0.43497  0.10947  0.32509  1.0000
  Fe  Fe18      1.0  0.40203  0.03141  0.32621  1.0000
  S   S35       1.0  0.36661  0.03704  0.33545  1.0000
  H   H224      1.0  0.45939  0.14840  0.32611  1.0000
  Fe  Fe19      1.0  0.36732  0.06575  0.31149  1.0000
  S   S36       1.0  0.34343  0.08070  0.28600  1.0000
  Fe  Fe20      1.0  0.37934  0.05961  0.36046  1.0000
  S   S37       1.0  0.37067  0.05603  0.39704  1.0000
  S   S38       1.0  0.40207  0.05870  0.30074  1.0000
  S   S39       1.0  0.41468  0.05265  0.35189  1.0000
  Fe  Fe21      1.0  0.04777  0.33422  0.35372  1.0000
  S   S40       1.0  0.04391  0.33124  0.39050  1.0000
  S   S41       1.0  0.04047  0.30353  0.33439  1.0000
  Fe  Fe22      1.0  0.05902  0.38268  0.35579  1.0000
  S   S42       1.0  0.05591  0.38258  0.39196  1.0000
  S   S43       1.0  0.06874  0.41224  0.33452  1.0000
  Fe  Fe23      1.0  0.07429  0.35054  0.39188  1.0000
  S   S44       1.0  0.10294  0.34850  0.41514  1.0000
  Fe  Fe24      1.0  0.02555  0.36336  0.38851  1.0000
  S   S45       1.0  0.07948  0.35164  0.35538  1.0000
  S   S46       1.0  0.02740  0.36543  0.35191  1.0000
  N   N6        1.0  0.40261  0.12912  0.25982  1.0000
  C   C117      1.0  0.31206  0.01076  0.48428  1.0000
  H   H225      1.0  0.49458  0.10314  0.26952  1.0000
  C   C118      1.0  0.41383  0.13272  0.43195  1.0000
  H   H226      1.0  0.10964  0.39558  0.41043  1.0000
  C   C119      1.0  0.07567  0.43895  0.34188  1.0000
  C   C120      1.0  0.08226  0.45404  0.32557  1.0000
  C   C121      1.0  0.08955  0.47476  0.33083  1.0000
  C   C122      1.0  0.09041  0.48067  0.35254  1.0000
  C   C123      1.0  0.08329  0.46576  0.36879  1.0000
  C   C124      1.0  0.07571  0.44520  0.36350  1.0000
  H   H227      1.0  0.08208  0.44954  0.30875  1.0000
  H   H228      1.0  0.03042  0.19322  0.30992  1.0000
  H   H229      1.0  0.08365  0.47020  0.38562  1.0000
  H   H230      1.0  0.07013  0.43405  0.37615  1.0000
  C   C125      1.0  0.05607  0.26815  0.26971  1.0000
  C   C126      1.0  0.04058  0.26032  0.28482  1.0000
  C   C127      1.0  0.03604  0.27140  0.30432  1.0000
  C   C128      1.0  0.04672  0.29061  0.30909  1.0000
  C   C129      1.0  0.06210  0.29852  0.29389  1.0000
  C   C130      1.0  0.06669  0.28740  0.27441  1.0000
  H   H231      1.0  0.03196  0.24581  0.28146  1.0000
  H   H232      1.0  0.02405  0.26508  0.31581  1.0000
  H   H233      1.0  0.07050  0.31321  0.29717  1.0000
  C   C131      1.0  0.49540  0.13360  0.28579  1.0000
  C   C132      1.0  0.32398  0.07352  0.26625  1.0000
  C   C133      1.0  0.31835  0.05205  0.26269  1.0000
  C   C134      1.0  0.43215  0.07235  0.25285  1.0000
  H   H234      1.0  0.41850  0.16492  0.44420  1.0000
  H   H235      1.0  0.32590  0.03900  0.27213  1.0000
  H   H236      1.0  0.20636  0.08269  0.29220  1.0000
  H   H237      1.0  0.06280  0.36119  0.43596  1.0000
  C   C135      1.0  0.12280  0.30812  0.47633  1.0000
  C   C136      1.0  0.10602  0.30117  0.46327  1.0000
  C   C137      1.0  0.09966  0.31324  0.44457  1.0000
  C   C138      1.0  0.10995  0.33257  0.43868  1.0000
  C   C139      1.0  0.12678  0.33949  0.45167  1.0000
  C   C140      1.0  0.01290  0.33792  0.47998  1.0000
  H   H238      1.0  0.09805  0.28616  0.46755  1.0000
  H   H239      1.0  0.08715  0.30732  0.43449  1.0000
  H   H240      1.0  0.10837  0.18292  0.33055  1.0000
  H   H241      1.0  0.26395  0.11505  0.25863  1.0000
  C   C141      1.0  0.34556  0.10111  0.45171  1.0000
  C   C142      1.0  0.35434  0.08041  0.45647  1.0000
  C   C143      1.0  0.36213  0.06702  0.43957  1.0000
  C   C144      1.0  0.36162  0.07421  0.41767  1.0000
  C   C145      1.0  0.35328  0.09509  0.41295  1.0000
  C   C146      1.0  0.34513  0.10832  0.42984  1.0000
  H   H242      1.0  0.35495  0.07465  0.47311  1.0000
  H   H243      1.0  0.36856  0.05093  0.44344  1.0000
  H   H244      1.0  0.35261  0.10084  0.39624  1.0000
  H   H245      1.0  0.33824  0.12421  0.42587  1.0000
  C   C147      1.0  0.45871  0.11782  0.31006  1.0000
  C   C148      1.0  0.46900  0.10506  0.29418  1.0000
  H   H246      1.0  0.39656  0.06916  0.48157  1.0000
  H   H247      1.0  0.33792  0.03400  0.48267  1.0000
  C   C149      1.0  0.17443  0.06403  0.26173  1.0000
  C   C150      1.0  0.46714  0.13835  0.31388  1.0000
  H   H248      1.0  0.46290  0.08920  0.29114  1.0000
  C   C151      1.0  0.23324  0.08332  0.25033  1.0000
  H   H249      1.0  0.11822  0.43002  0.37477  1.0000
  H   H250      1.0  0.13231  0.20983  0.25759  1.0000
  C   C152      1.0  0.15809  0.40755  0.37292  1.0000
  C   C153      1.0  0.14934  0.35948  0.36547  1.0000
  C   C154      1.0  0.39808  0.10406  0.47656  1.0000
  C   C155      1.0  0.11777  0.41263  0.37973  1.0000
  H   H251      1.0  0.45047  0.15840  0.48164  1.0000
  C   C156      1.0  0.08715  0.25612  0.34181  1.0000
  H   H252      1.0  0.16467  0.39922  0.38771  1.0000
  C   C157      1.0  0.19422  0.07770  0.25411  1.0000
  C   C158      1.0  0.13393  0.37641  0.37656  1.0000
  H   H253      1.0  0.22499  0.11162  0.27059  1.0000
  H   H254      1.0  0.05788  0.22024  0.31506  1.0000
  C   C159      1.0  0.06325  0.20517  0.30682  1.0000
  H   H255      1.0  0.15206  0.44251  0.36416  1.0000
  C   C160      1.0  0.43892  0.14933  0.25848  1.0000
  C   C161      1.0  0.13154  0.40013  0.34437  1.0000
  H   H256      1.0  0.15455  0.33947  0.39481  1.0000
  H   H257      1.0  0.23943  0.02907  0.27671  1.0000
  H   H258      1.0  0.01783  0.29796  0.46093  1.0000
  C   C162      1.0  0.13319  0.42239  0.33231  1.0000
  C   C163      1.0  0.12667  0.42088  0.30867  1.0000
  H   H259      1.0  0.07421  0.24577  0.34906  1.0000
  C   C164      1.0  0.12689  0.15809  0.31428  1.0000
  N   N7        1.0  0.13564  0.39967  0.36842  1.0000
  H   H260      1.0  0.14347  0.38946  0.33568  1.0000
  H   H261      1.0  0.11518  0.39356  0.34143  1.0000
  H   H262      1.0  0.10167  0.25501  0.35212  1.0000
  H   H263      1.0  0.13727  0.37513  0.39421  1.0000
  C   C165      1.0  0.18411  0.43854  0.37659  1.0000
  H   H264      1.0  0.42346  0.07881  0.47545  1.0000
  H   H265      1.0  0.12254  0.43491  0.33993  1.0000
  H   H266      1.0  0.15023  0.42781  0.33202  1.0000
  H   H267      1.0  0.20594  0.03591  0.25900  1.0000
  H   H268      1.0  0.34210  0.16800  0.47215  1.0000
  H   H269      1.0  0.13776  0.40946  0.29984  1.0000
  H   H270      1.0  0.17578  0.05837  0.27887  1.0000
  H   H271      1.0  0.31791  0.10682  0.25611  1.0000
  H   H272      1.0  0.10418  0.21426  0.25087  1.0000
  H   H273      1.0  0.02139  0.30724  0.24717  1.0000
  H   H274      1.0  0.10321  0.24567  0.27776  1.0000
  C   C166      1.0  0.08086  0.21034  0.28901  1.0000
  H   H275      1.0  0.10513  0.42808  0.43308  1.0000
  H   H276      1.0  0.43861  0.06948  0.26934  1.0000
  H   H277      1.0  0.41956  0.15598  0.40520  1.0000
  H   H278      1.0  0.16963  0.40286  0.35952  1.0000
  H   H279      1.0  0.16631  0.36508  0.36455  1.0000
  C   C167      1.0  0.24033  0.03388  0.25923  1.0000
  C   C168      1.0  0.13315  0.32741  0.47037  1.0000
  H   H280      1.0  0.41944  0.11585  0.43585  1.0000
  H   H281      1.0  0.11818  0.18701  0.28147  1.0000
  C   C169      1.0  0.11868  0.22199  0.25721  1.0000
  H   H282      1.0  0.05062  0.39992  0.43921  1.0000
  C   C170      1.0  0.48708  0.11299  0.28203  1.0000
  H   H283      1.0  0.25200  0.06056  0.28946  1.0000
  C   C171      1.0  0.25059  0.12039  0.24780  1.0000
  H   H284      1.0  0.14394  0.35637  0.34884  1.0000
  C   C172      1.0  0.09297  0.24926  0.31871  1.0000
  C   C173      1.0  0.06104  0.36820  0.45227  1.0000
  H   H285      1.0  0.04963  0.29179  0.42216  1.0000
  H   H286      1.0  0.13408  0.41056  0.41138  1.0000
  H   H287      1.0  0.11143  0.44547  0.40992  1.0000
  H   H288      1.0  0.02609  0.33233  0.43650  1.0000
  H   H289      1.0  0.24543  0.08866  0.29265  1.0000
  H   H290      1.0  0.43496  0.16281  0.26964  1.0000
  C   C174      1.0  0.42505  0.13939  0.41046  1.0000
  H   H291      1.0  0.07959  0.39587  0.44129  1.0000
  H   H292      1.0  0.12006  0.22707  0.32409  1.0000
  C   C175      1.0  0.03719  0.32584  0.44920  1.0000
  C   C176      1.0  0.03379  0.28975  0.43096  1.0000
  H   H293      1.0  0.04736  0.17955  0.29001  1.0000
  H   H294      1.0  0.00970  0.32119  0.48601  1.0000
  H   H295      1.0  0.25842  0.00430  0.25151  1.0000
  H   H296      1.0  0.24984  0.07849  0.25543  1.0000
  C   C177      1.0  0.11023  0.17692  0.31381  1.0000
  H   H297      1.0  0.42082  0.12794  0.39770  1.0000
  H   H298      1.0  0.19292  0.42919  0.38941  1.0000
  H   H299      1.0  0.20990  0.05412  0.29277  1.0000
  C   C178      1.0  0.03839  0.36278  0.46236  1.0000
  H   H300      1.0  0.23330  0.05166  0.32483  1.0000
  N   N8        1.0  0.10334  0.21536  0.29648  1.0000
  H   H301      1.0  0.16026  0.32585  0.36971  1.0000
  H   H302      1.0  0.02662  0.36809  0.44981  1.0000
  C   C179      1.0  0.41992  0.14784  0.45037  1.0000
  C   C180      1.0  0.39762  0.14072  0.28075  1.0000
  C   C181      1.0  0.40796  0.08237  0.48444  1.0000
  H   H303      1.0  0.07460  0.36178  0.46226  1.0000
  C   C182      1.0  0.21925  0.04644  0.25288  1.0000
  C   C183      1.0  0.37909  0.13138  0.29540  1.0000
  C   C184      1.0  0.06366  0.39268  0.44944  1.0000
  C   C185      1.0  0.37828  0.14186  0.31761  1.0000
  H   H304      1.0  0.07862  0.29378  0.26291  1.0000
  C   C186      1.0  0.31382  0.09014  0.25363  1.0000
  H   H305      1.0  0.39330  0.15813  0.27733  1.0000
  H   H306      1.0  0.41231  0.14065  0.29095  1.0000
  H   H307      1.0  0.42048  0.10635  0.28075  1.0000
  H   H308      1.0  0.39831  0.09512  0.26809  1.0000
  H   H309      1.0  0.12118  0.14516  0.32580  1.0000
  H   H310      1.0  0.13249  0.33107  0.37847  1.0000
  H   H311      1.0  0.38135  0.11358  0.29773  1.0000
  H   H312      1.0  0.36304  0.13477  0.28806  1.0000
  H   H313      1.0  0.05784  0.34716  0.49420  1.0000
  H   H314      1.0  0.10159  0.40727  0.37453  1.0000
  H   H315      1.0  0.36422  0.13569  0.32737  1.0000
  H   H316      1.0  0.39336  0.13779  0.32652  1.0000
  H   H317      1.0  0.37636  0.15977  0.31580  1.0000
  C   C187      1.0  0.16027  0.43226  0.37660  1.0000
  H   H318      1.0  0.04704  0.29379  0.46214  1.0000
  H   H319      1.0  0.05370  0.32719  0.44164  1.0000
  H   H320      1.0  0.09470  0.21596  0.33093  1.0000
  H   H321      1.0  0.14283  0.16364  0.31968  1.0000
  H   H322      1.0  0.49148  0.16204  0.30504  1.0000
  H   H323      1.0  0.15291  0.43668  0.39255  1.0000
  H   H324      1.0  0.19206  0.43547  0.36054  1.0000
  C   C188      1.0  0.05275  0.33284  0.48510  1.0000
  H   H325      1.0  0.09468  0.17018  0.30877  1.0000
  H   H326      1.0  0.03519  0.37347  0.47644  1.0000
  H   H327      1.0  0.44298  0.13893  0.41200  1.0000
  H   H328      1.0  0.27569  0.07085  0.48455  1.0000
  H   H329      1.0  0.06919  0.19354  0.31942  1.0000
  H   H330      1.0  0.06318  0.40050  0.46545  1.0000
  H   H331      1.0  0.11702  0.37081  0.37496  1.0000
  H   H332      1.0  0.25442  0.07100  0.32741  1.0000
  H   H333      1.0  0.07392  0.22411  0.27918  1.0000
  C   C189      1.0  0.10450  0.42964  0.41513  1.0000
  H   H334      1.0  0.22639  0.08020  0.32801  1.0000
  C   C190      1.0  0.11381  0.23089  0.28016  1.0000
  C   C191      1.0  0.48539  0.14615  0.30195  1.0000
  H   H335      1.0  0.12755  0.43715  0.30054  1.0000
  C   C192      1.0  0.41260  0.12317  0.48226  1.0000
  H   H336      1.0  0.32434  0.01551  0.45097  1.0000
  H   H337      1.0  0.06774  0.32714  0.47621  1.0000
  H   H338      1.0  0.10974  0.41528  0.30771  1.0000
  H   H339      1.0  0.02047  0.29628  0.42065  1.0000
  H   H340      1.0  0.19101  0.09434  0.26018  1.0000
  H   H341      1.0  0.13501  0.35431  0.44724  1.0000
  H   H342      1.0  0.37679  0.13597  0.45853  1.0000
  H   H343      1.0  0.13450  0.19915  0.30102  1.0000
  H   H344      1.0  0.46655  0.00927  0.37473  1.0000
  C   C193      1.0  0.11745  0.41088  0.40492  1.0000
  C   C194      1.0  0.14913  0.33768  0.37792  1.0000
  C   C195      1.0  0.35106  0.17145  0.45660  1.0000
  H   H345      1.0  0.22937  0.00239  0.24913  1.0000
  C   C196      1.0  0.04320  0.19556  0.29708  1.0000
  H   H346      1.0  0.08093  0.27321  0.34149  1.0000
  C   C197      1.0  0.03362  0.30123  0.45260  1.0000
  H   H347      1.0  0.08187  0.19659  0.27767  1.0000
  H   H348      1.0  0.38191  0.10613  0.48479  1.0000
  H   H349      1.0  0.10467  0.26109  0.31162  1.0000
  H   H350      1.0  0.12943  0.23667  0.28633  1.0000
  H   H351      1.0  0.18516  0.45611  0.37984  1.0000
  H   H352      1.0  0.09490  0.48599  0.31812  1.0000
  H   H353      1.0  0.43758  0.14491  0.45266  1.0000
  H   H354      1.0  0.14609  0.33299  0.48015  1.0000
  C   C198      1.0  0.10315  0.22596  0.31828  1.0000
  H   H355      1.0  0.36966  0.11791  0.25760  1.0000
  H   H356      1.0  0.12899  0.15105  0.29792  1.0000
  N   N9        1.0  0.21627  0.06917  0.26119  1.0000
  H   H357      1.0  0.44547  0.13554  0.26835  1.0000
  N   N10       1.0  0.03519  0.33934  0.46921  1.0000
  C   C199      1.0  0.38336  0.14828  0.46912  1.0000
  C   C200      1.0  0.21694  0.06929  0.28571  1.0000
  C   C201      1.0  0.23950  0.07202  0.29593  1.0000
  H   H358      1.0  0.03653  0.20659  0.28421  1.0000
  C   C202      1.0  0.41180  0.10663  0.26514  1.0000
  H   H359      1.0  0.39613  0.13301  0.42916  1.0000
  H   H360      1.0  0.42992  0.11832  0.47905  1.0000
  C   C203      1.0  0.23821  0.06849  0.32055  1.0000
  H   H361      1.0  0.08724  0.42932  0.41047  1.0000
  C   C204      1.0  0.11747  0.19498  0.29747  1.0000
  H   H362      1.0  0.07811  0.25051  0.30906  1.0000
  H   H363      1.0  0.13929  0.06671  0.26532  1.0000
  C   C205      1.0  0.31961  0.00198  0.46230  1.0000
  H   H364      1.0  0.41684  0.06341  0.25149  1.0000
  C   C206      1.0  0.37556  0.17079  0.45997  1.0000
  H   H365      1.0  0.03135  0.27212  0.43390  1.0000
  H   H366      1.0  0.34584  0.18779  0.45042  1.0000
  H   H367      1.0  0.38359  0.17458  0.44406  1.0000
  H   H368      1.0  0.25495  0.04360  0.25619  1.0000
  H   H369      1.0  0.30710  0.99665  0.49461  1.0000
  H   H370      1.0  0.17329  0.04963  0.25140  1.0000
  C   C207      1.0  0.30293  0.04739  0.24690  1.0000
  C   C208      1.0  0.15303  0.07698  0.25981  1.0000
  C   C209      1.0  0.41479  0.16237  0.48673  1.0000
  H   H371      1.0  0.34668  0.15932  0.44459  1.0000
  H   H372      1.0  0.41363  0.17871  0.47867  1.0000
  H   H373      1.0  0.31456  0.06157  0.47924  1.0000
  C   C210      1.0  0.22994  0.10808  0.25360  1.0000
  H   H374      1.0  0.39541  0.10307  0.45899  1.0000
  C   C211      1.0  0.43832  0.15977  0.49514  1.0000
  H   H375      1.0  0.44407  0.10453  0.24898  1.0000
  N   N11       1.0  0.40756  0.14512  0.47171  1.0000
  S   S47       1.0  0.99837  0.37382  0.41268  1.0000
  H   H376      1.0  0.47096  0.16213  0.25188  1.0000
  H   H377      1.0  0.37892  0.18377  0.47142  1.0000
  H   H378      1.0  0.29780  0.02168  0.48136  1.0000
  H   H379      1.0  0.46847  0.00151  0.34676  1.0000
  C   C212      1.0  0.33059  0.02263  0.49500  1.0000
  H   H380      1.0  0.37487  0.14553  0.48508  1.0000
  H   H381      1.0  0.15296  0.09159  0.26996  1.0000
  C   C213      1.0  0.30926  0.06842  0.49500  1.0000
  C   C214      1.0  0.42816  0.09658  0.24830  1.0000
  H   H382      1.0  0.29120  0.09488  0.47932  1.0000
  H   H383      1.0  0.01214  0.34806  0.49469  1.0000
  C   C215      1.0  0.28812  0.08136  0.49121  1.0000
  H   H384      1.0  0.24750  0.13806  0.24976  1.0000
  C   C216      1.0  0.41820  0.14298  0.24656  1.0000
  C   C217      1.0  0.38159  0.12773  0.24792  1.0000
  H   H385      1.0  0.13995  0.24843  0.24722  1.0000
  C   C218      1.0  0.24341  0.01315  0.24633  1.0000
  H   H386      1.0  0.07667  0.19440  0.70364  1.0000
  Fe  Fe25      1.0  0.31951  0.14818  0.54727  1.0000
  S   S48       1.0  0.30868  0.11655  0.53379  1.0000
  S   S49       1.0  0.29452  0.17335  0.56116  1.0000
  Fe  Fe26      1.0  0.36851  0.13411  0.54397  1.0000
  S   S50       1.0  0.36002  0.10201  0.53023  1.0000
  S   S51       1.0  0.40589  0.13551  0.54448  1.0000
  H   H387      1.0  0.33721  0.47489  0.72495  1.0000
  Fe  Fe27      1.0  0.33318  0.10008  0.55588  1.0000
  S   S52       1.0  0.33276  0.06860  0.57724  1.0000
  S   S53       1.0  0.34604  0.15311  0.52164  1.0000
  S   S54       1.0  0.34287  0.13130  0.57070  1.0000
  Fe  Fe28      1.0  0.24014  0.45303  0.69352  1.0000
  S   S55       1.0  0.21146  0.47589  0.68640  1.0000
  H   H388      1.0  0.23062  0.01774  0.70759  1.0000
  Fe  Fe29      1.0  0.23233  0.42738  0.65195  1.0000
  S   S56       1.0  0.20442  0.44898  0.64168  1.0000
  S   S57       1.0  0.24343  0.39613  0.63556  1.0000
  Fe  Fe30      1.0  0.22421  0.47690  0.65189  1.0000
  Fe  Fe31      1.0  0.19357  0.44630  0.67683  1.0000
  S   S58       1.0  0.15733  0.44036  0.68089  1.0000
  S   S59       1.0  0.25366  0.45530  0.65928  1.0000
  S   S60       1.0  0.22063  0.42346  0.68667  1.0000
  Fe  Fe32      1.0  0.06384  0.32488  0.69216  1.0000
  S   S61       1.0  0.08435  0.31431  0.72036  1.0000
  S   S62       1.0  0.06884  0.31728  0.65646  1.0000
  Fe  Fe33      1.0  0.03326  0.35388  0.71972  1.0000
  C   C219      1.0  0.24122  0.47259  0.57843  1.0000
  Fe  Fe34      1.0  0.08201  0.34964  0.72889  1.0000
  H   H389      1.0  0.02617  0.27491  0.68984  1.0000
  S   S63       1.0  0.06346  0.36036  0.69964  1.0000
  S   S64       1.0  0.03211  0.31895  0.71029  1.0000
  Fe  Fe35      1.0  0.16370  0.28447  0.57393  1.0000
  S   S65       1.0  0.15300  0.31431  0.55486  1.0000
  S   S66       1.0  0.15128  0.27417  0.60792  1.0000
  Fe  Fe36      1.0  0.20019  0.27219  0.54071  1.0000
  S   S67       1.0  0.19204  0.30185  0.51950  1.0000
  S   S68       1.0  0.22846  0.24973  0.52843  1.0000
  Fe  Fe37      1.0  0.18886  0.32023  0.55068  1.0000
  S   S69       1.0  0.20072  0.35483  0.55371  1.0000
  Fe  Fe38      1.0  0.15678  0.29392  0.52512  1.0000
  S   S70       1.0  0.19947  0.29153  0.57123  1.0000
  S   S71       1.0  0.16500  0.26319  0.54467  1.0000
  H   H390      1.0  0.15309  0.38781  0.74274  1.0000
  C   C220      1.0  0.09281  0.30644  0.64379  1.0000
  C   C221      1.0  0.09667  0.31083  0.62155  1.0000
  C   C222      1.0  0.11481  0.30154  0.61050  1.0000
  C   C223      1.0  0.12906  0.28735  0.62151  1.0000
  C   C224      1.0  0.12531  0.28306  0.64382  1.0000
  C   C225      1.0  0.10734  0.29264  0.65496  1.0000
  H   H391      1.0  0.08543  0.32130  0.61273  1.0000
  H   H392      1.0  0.11743  0.30488  0.59333  1.0000
  H   H393      1.0  0.13624  0.27208  0.65244  1.0000
  H   H394      1.0  0.10443  0.28893  0.67200  1.0000
  C   C226      1.0  0.23077  0.38480  0.61318  1.0000
  C   C227      1.0  0.23310  0.36237  0.60988  1.0000
  C   C228      1.0  0.22344  0.35282  0.59214  1.0000
  C   C229      1.0  0.21188  0.36572  0.57717  1.0000
  C   C230      1.0  0.20974  0.38815  0.58040  1.0000
  C   C231      1.0  0.21896  0.39766  0.59839  1.0000
  H   H395      1.0  0.24222  0.35231  0.62125  1.0000
  H   H396      1.0  0.22503  0.33553  0.58990  1.0000
  H   H397      1.0  0.20064  0.39808  0.56900  1.0000
  H   H398      1.0  0.21712  0.41491  0.60073  1.0000
  C   C232      1.0  0.14606  0.41878  0.69664  1.0000
  C   C233      1.0  0.15611  0.40998  0.71508  1.0000
  C   C234      1.0  0.14555  0.39406  0.72811  1.0000
  C   C235      1.0  0.12522  0.38640  0.72248  1.0000
  C   C236      1.0  0.11575  0.39451  0.70351  1.0000
  C   C237      1.0  0.12589  0.41089  0.69088  1.0000
  H   H399      1.0  0.17163  0.41594  0.71973  1.0000
  H   H400      1.0  0.32155  0.07999  0.50001  1.0000
  H   H401      1.0  0.10048  0.38829  0.69870  1.0000
  H   H402      1.0  0.11812  0.41741  0.67651  1.0000
  C   C238      1.0  0.31456  0.04925  0.58917  1.0000
  C   C239      1.0  0.29236  0.04945  0.58485  1.0000
  C   C240      1.0  0.27887  0.03330  0.59425  1.0000
  C   C241      1.0  0.28727  0.01685  0.60824  1.0000
  C   C242      1.0  0.30944  0.01674  0.61265  1.0000
  C   C243      1.0  0.32296  0.03273  0.60306  1.0000
  H   H403      1.0  0.28559  0.06200  0.57424  1.0000
  H   H404      1.0  0.26175  0.03365  0.59075  1.0000
  H   H405      1.0  0.34960  0.05792  0.50803  1.0000
  H   H406      1.0  0.34009  0.03237  0.60654  1.0000
  C   C244      1.0  0.27580  0.19396  0.55130  1.0000
  C   C245      1.0  0.27705  0.20279  0.53013  1.0000
  C   C246      1.0  0.26241  0.21967  0.52351  1.0000
  C   C247      1.0  0.24603  0.22785  0.53774  1.0000
  C   C248      1.0  0.24457  0.21879  0.55880  1.0000
  C   C249      1.0  0.25949  0.20224  0.56556  1.0000
  H   H407      1.0  0.28945  0.19678  0.51891  1.0000
  H   H408      1.0  0.44395  0.29872  0.68903  1.0000
  H   H409      1.0  0.23190  0.22445  0.56990  1.0000
  H   H410      1.0  0.25823  0.19558  0.58195  1.0000
  H   H411      1.0  0.41109  0.08273  0.50209  1.0000
  C   C250      1.0  0.21164  0.43032  0.52787  1.0000
  C   C251      1.0  0.30605  0.05044  0.51280  1.0000
  C   C252      1.0  0.46126  0.17377  0.57404  1.0000
  C   C253      1.0  0.43959  0.18171  0.57547  1.0000
  C   C254      1.0  0.42233  0.16997  0.56724  1.0000
  C   C255      1.0  0.42655  0.15023  0.55705  1.0000
  C   C256      1.0  0.44822  0.14232  0.55559  1.0000
  C   C257      1.0  0.46542  0.15387  0.56415  1.0000
  H   H412      1.0  0.43613  0.19710  0.58299  1.0000
  H   H413      1.0  0.40584  0.17640  0.56840  1.0000
  H   H414      1.0  0.45176  0.12713  0.54770  1.0000
  H   H415      1.0  0.48193  0.14753  0.56281  1.0000
  H   H416      1.0  0.45629  0.38284  0.71072  1.0000
  C   C258      1.0  0.29564  0.01187  0.53786  1.0000
  H   H417      1.0  0.03550  0.32253  0.51510  1.0000
  H   H418      1.0  0.30244  0.46758  0.70731  1.0000
  H   H419      1.0  0.08680  0.18354  0.66659  1.0000
  C   C259      1.0  0.06746  0.30785  0.51509  1.0000
  S   S72       1.0  0.48249  0.18982  0.58389  1.0000
  H   H420      1.0  0.26175  0.06645  0.65059  1.0000
  H   H421      1.0  0.07562  0.32177  0.52214  1.0000
  H   H422      1.0  0.30932  0.04961  0.65290  1.0000
  H   H423      1.0  0.27770  0.05279  0.68843  1.0000
  H   H424      1.0  0.21846  0.05240  0.69565  1.0000
  H   H425      1.0  0.19854  0.43443  0.51631  1.0000
  H   H426      1.0  0.44727  0.40566  0.74229  1.0000
  H   H427      1.0  0.25167  0.44527  0.59934  1.0000
  H   H428      1.0  0.25282  0.47156  0.61154  1.0000
  H   H429      1.0  0.32422  0.02521  0.54992  1.0000
  S   S73       1.0  0.25939  0.45440  0.72541  1.0000
  H   H430      1.0  0.12804  0.31988  0.68445  1.0000
  C   C260      1.0  0.20685  0.44087  0.54968  1.0000
  H   H431      1.0  0.49389  0.31778  0.74345  1.0000
  H   H432      1.0  0.14108  0.48980  0.61663  1.0000
  C   C261      1.0  0.18039  0.34798  0.64135  1.0000
  C   C262      1.0  0.44563  0.37606  0.72383  1.0000
  H   H433      1.0  0.15531  0.39508  0.65975  1.0000
  H   H434      1.0  0.08111  0.26921  0.73488  1.0000
  C   C263      1.0  0.13275  0.35171  0.66921  1.0000
  H   H435      1.0  0.09608  0.26815  0.70971  1.0000
  H   H436      1.0  0.41153  0.46469  0.72536  1.0000
  C   C264      1.0  0.27066  0.04222  0.67636  1.0000
  C   C265      1.0  0.24291  0.07722  0.69360  1.0000
  C   C266      1.0  0.00303  0.45945  0.72568  1.0000
  C   C267      1.0  0.28540  0.45888  0.73706  1.0000
  H   H437      1.0  0.01577  0.42795  0.71778  1.0000
  C   C268      1.0  0.04717  0.31548  0.50299  1.0000
  C   C269      1.0  0.22208  0.36636  0.69558  1.0000
  H   H438      1.0  0.08296  0.45197  0.73465  1.0000
  H   H439      1.0  0.47046  0.32856  0.68513  1.0000
  C   C270      1.0  0.27399  0.05330  0.65363  1.0000
  H   H440      1.0  0.16125  0.31809  0.59931  1.0000
  H   H441      1.0  0.21151  0.34271  0.67388  1.0000
  C   C271      1.0  0.07367  0.22574  0.73887  1.0000
  C   C272      1.0  0.29666  0.06262  0.65071  1.0000
  C   C273      1.0  0.17392  0.32635  0.60807  1.0000
  H   H442      1.0  0.12326  0.46296  0.71207  1.0000
  S   S74       1.0  0.26928  0.99716  0.61992  1.0000
  N   N12       1.0  0.07832  0.23910  0.71831  1.0000
  H   H443      1.0  0.28169  0.08838  0.50655  1.0000
  H   H444      1.0  0.42514  0.40533  0.72381  1.0000
  H   H445      1.0  0.23356  0.37417  0.68371  1.0000
  H   H446      1.0  0.38716  0.05987  0.52392  1.0000
  H   H447      1.0  0.11054  0.19076  0.68097  1.0000
  C   C274      1.0  0.40351  0.49415  0.74258  1.0000
  C   C275      1.0  0.19114  0.37246  0.66940  1.0000
  C   C276      1.0  0.16325  0.33782  0.62722  1.0000
  H   H448      1.0  0.18147  0.33823  0.59662  1.0000
  H   H449      1.0  0.00723  0.47373  0.73517  1.0000
  C   C277      1.0  0.12117  0.33666  0.68542  1.0000
  H   H450      1.0  0.31136  0.23991  0.58084  1.0000
  H   H451      1.0  0.26375  0.22640  0.50716  1.0000
  S   S75       1.0  0.12978  0.29227  0.49996  1.0000
  C   C278      1.0  0.20528  0.46597  0.54707  1.0000
  H   H452      1.0  0.28120  0.02721  0.67656  1.0000
  C   C279      1.0  0.09182  0.22614  0.70223  1.0000
  H   H453      1.0  0.29903  0.07559  0.66248  1.0000
  N   N13       1.0  0.32474  0.03432  0.51561  1.0000
  H   H454      1.0  0.22745  0.43573  0.52082  1.0000
  C   C280      1.0  0.38240  0.04751  0.53644  1.0000
  H   H455      1.0  0.44481  0.19421  0.49787  1.0000
  H   H456      1.0  0.25398  0.08460  0.68115  1.0000
  H   H457      1.0  0.10627  0.21862  0.71018  1.0000
  H   H458      1.0  0.37647  0.05585  0.55131  1.0000
  H   H459      1.0  0.15157  0.35003  0.62050  1.0000
  C   C281      1.0  0.44420  0.17929  0.50835  1.0000
  C   C282      1.0  0.12373  0.27390  0.74258  1.0000
  C   C283      1.0  0.16030  0.38322  0.64721  1.0000
  H   H460      1.0  0.26889  0.00255  0.73776  1.0000
  H   H461      1.0  0.27236  0.04121  0.64092  1.0000
  H   H462      1.0  0.04440  0.40639  0.72933  1.0000
  H   H463      1.0  0.26778  0.32286  0.53281  1.0000
  H   H464      1.0  0.28777  0.30113  0.53183  1.0000
  H   H465      1.0  0.04789  0.46235  0.73138  1.0000
  H   H466      1.0  0.43249  0.36683  0.71669  1.0000
  C   C284      1.0  0.27007  0.30492  0.53246  1.0000
  N   N14       1.0  0.24752  0.03665  0.68249  1.0000
  H   H467      1.0  0.09905  0.20934  0.66081  1.0000
  C   C285      1.0  0.31967  0.01839  0.53412  1.0000
  H   H468      1.0  0.04803  0.25743  0.72112  1.0000
  H   H469      1.0  0.22036  0.47168  0.53861  1.0000
  C   C286      1.0  0.25752  0.01609  0.74227  1.0000
  C   C287      1.0  0.23272  0.05645  0.68492  1.0000
  H   H470      1.0  0.16636  0.47479  0.56282  1.0000
  H   H471      1.0  0.02935  0.39761  0.65727  1.0000
  H   H472      1.0  0.46674  0.31049  0.72050  1.0000
  C   C288      1.0  0.09132  0.25833  0.72440  1.0000
  H   H473      1.0  0.09453  0.45522  0.68592  1.0000
  H   H474      1.0  0.20335  0.37918  0.65761  1.0000
  C   C289      1.0  0.11269  0.25307  0.73654  1.0000
  C   C290      1.0  0.32343  0.46964  0.73480  1.0000
  H   H475      1.0  0.20460  0.02510  0.67548  1.0000
  H   H476      1.0  0.10539  0.48318  0.72444  1.0000
  H   H477      1.0  0.18029  0.48486  0.60940  1.0000
  C   C291      1.0  0.34432  0.04689  0.52161  1.0000
  C   C292      1.0  0.08291  0.44453  0.71841  1.0000
  H   H478      1.0  0.07915  0.29939  0.50396  1.0000
  C   C293      1.0  0.22538  0.09433  0.69917  1.0000
  C   C294      1.0  0.17826  0.47309  0.57607  1.0000
  C   C295      1.0  0.20384  0.35566  0.68383  1.0000
  C   C296      1.0  0.25593  0.03297  0.72370  1.0000
  C   C297      1.0  0.06134  0.42661  0.69179  1.0000
  H   H479      1.0  0.33993  0.05767  0.53525  1.0000
  C   C298      1.0  0.04091  0.41495  0.68462  1.0000
  C   C299      1.0  0.04427  0.40590  0.66191  1.0000
  C   C300      1.0  0.23918  0.02296  0.66468  1.0000
  H   H480      1.0  0.06292  0.29628  0.52847  1.0000
  H   H481      1.0  0.06289  0.44062  0.68018  1.0000
  H   H482      1.0  0.07573  0.41577  0.68861  1.0000
  H   H483      1.0  0.19214  0.46954  0.53537  1.0000
  S   S76       1.0  0.11169  0.36733  0.73975  1.0000
  H   H484      1.0  0.03687  0.40117  0.69568  1.0000
  H   H485      1.0  0.02684  0.42654  0.68387  1.0000
  H   H486      1.0  0.04755  0.41917  0.64981  1.0000
  H   H487      1.0  0.05801  0.39385  0.66155  1.0000
  H   H488      1.0  0.44002  0.14511  0.50589  1.0000
  Fe  Fe39      1.0  0.05278  0.31064  0.73944  1.0000
  C   C301      1.0  0.10940  0.47452  0.70923  1.0000
  H   H489      1.0  0.43639  0.31889  0.66872  1.0000
  H   H490      1.0  0.21435  0.08820  0.71239  1.0000
  H   H491      1.0  0.29867  0.06970  0.63402  1.0000
  H   H492      1.0  0.24528  0.46373  0.56341  1.0000
  H   H493      1.0  0.10371  0.33648  0.68158  1.0000
  H   H494      1.0  0.00055  0.46461  0.70849  1.0000
  H   H495      1.0  0.12796  0.28377  0.72778  1.0000
  C   C302      1.0  0.30358  0.46561  0.72469  1.0000
  H   H496      1.0  0.03965  0.27868  0.66375  1.0000
  H   H497      1.0  0.14498  0.37855  0.63981  1.0000
  H   H498      1.0  0.23819  0.03261  0.64920  1.0000
  H   H499      1.0  0.12277  0.34234  0.70217  1.0000
  H   H500      1.0  0.07620  0.47450  0.69906  1.0000
  H   H501      1.0  0.39699  0.03743  0.54057  1.0000
  H   H502      1.0  0.18581  0.38619  0.67989  1.0000
  H   H503      1.0  0.37180  0.02460  0.51375  1.0000
  H   H504      1.0  0.09869  0.23699  0.68917  1.0000
  H   H505      1.0  0.16338  0.33633  0.67833  1.0000
  C   C303      1.0  0.45906  0.32706  0.71929  1.0000
  C   C304      1.0  0.15716  0.35311  0.67453  1.0000
  H   H506      1.0  0.46038  0.17637  0.51559  1.0000
  H   H507      1.0  0.12988  0.34577  0.65287  1.0000
  C   C305      1.0  0.45834  0.36126  0.73998  1.0000
  C   C306      1.0  0.03768  0.26732  0.67793  1.0000
  H   H508      1.0  0.30249  0.05874  0.52843  1.0000
  N   N15       1.0  0.17192  0.36398  0.65777  1.0000
  H   H509      1.0  0.21442  0.48159  0.59936  1.0000
  H   H510      1.0  0.21572  0.09876  0.68466  1.0000
  C   C307      1.0  0.25542  0.46265  0.59626  1.0000
  H   H511      1.0  0.04057  0.46077  0.70402  1.0000
  H   H512      1.0  0.18885  0.33399  0.64947  1.0000
  H   H513      1.0  0.21527  0.37870  0.70684  1.0000
  H   H514      1.0  0.23127  0.35392  0.70523  1.0000
  S   S77       1.0  0.00546  0.37937  0.72274  1.0000
  C   C308      1.0  0.02092  0.44185  0.72710  1.0000
  H   H515      1.0  0.31621  0.00430  0.62339  1.0000
  H   H516      1.0  0.25251  0.07390  0.70824  1.0000
  C   C309      1.0  0.09517  0.19719  0.67391  1.0000
  H   H517      1.0  0.18621  0.31404  0.61358  1.0000
  H   H518      1.0  0.12473  0.36797  0.67013  1.0000
  H   H519      1.0  0.19311  0.34804  0.69645  1.0000
  H   H520      1.0  0.15437  0.32531  0.63695  1.0000
  H   H521      1.0  0.03074  0.25211  0.67223  1.0000
  H   H522      1.0  0.44939  0.34809  0.69110  1.0000
  H   H523      1.0  0.27283  0.46371  0.59126  1.0000
  C   C310      1.0  0.42006  0.47872  0.73176  1.0000
  C   C311      1.0  0.24740  0.02275  0.70305  1.0000
  N   N16       1.0  0.06137  0.43405  0.71494  1.0000
  H   H524      1.0  0.32977  0.00324  0.53243  1.0000
  H   H525      1.0  0.15726  0.36189  0.69012  1.0000
  H   H526      1.0  0.36115  0.02096  0.54107  1.0000
  H   H527      1.0  0.22566  0.06144  0.66903  1.0000
  N   N17       1.0  0.27132  0.29510  0.57352  1.0000
  C   C312      1.0  0.25883  0.29440  0.55285  1.0000
  C   C313      1.0  0.25680  0.28799  0.59242  1.0000
  C   C314      1.0  0.27675  0.31856  0.57673  1.0000
  C   C315      1.0  0.29215  0.28148  0.57274  1.0000
  C   C316      1.0  0.29224  0.26067  0.55896  1.0000
  C   C317      1.0  0.36482  0.03316  0.52802  1.0000
  C   C318      1.0  0.28665  0.32379  0.59879  1.0000
  C   C319      1.0  0.24818  0.26467  0.59209  1.0000
  C   C320      1.0  0.23261  0.26021  0.61136  1.0000
  C   C321      1.0  0.31190  0.24582  0.56366  1.0000
  H   H528      1.0  0.24250  0.30066  0.51166  1.0000
  C   C322      1.0  0.29481  0.34700  0.59866  1.0000
  H   H529      1.0  0.24271  0.30284  0.55489  1.0000
  H   H530      1.0  0.25495  0.27757  0.54905  1.0000
  H   H531      1.0  0.26553  0.28861  0.60791  1.0000
  H   H532      1.0  0.24252  0.29939  0.59394  1.0000
  H   H533      1.0  0.26196  0.32922  0.57485  1.0000
  H   H534      1.0  0.28851  0.32421  0.56389  1.0000
  H   H535      1.0  0.30593  0.29118  0.56607  1.0000
  H   H536      1.0  0.29694  0.27659  0.58950  1.0000
  H   H537      1.0  0.29288  0.26504  0.54138  1.0000
  H   H538      1.0  0.27759  0.25101  0.56191  1.0000
  C   C323      1.0  0.08041  0.20737  0.69141  1.0000
  N   N18       1.0  0.20089  0.47814  0.56770  1.0000
  H   H539      1.0  0.30045  0.31248  0.60256  1.0000
  H   H540      1.0  0.27415  0.32257  0.61207  1.0000
  H   H541      1.0  0.23924  0.26195  0.57713  1.0000
  H   H542      1.0  0.26178  0.25262  0.59354  1.0000
  H   H543      1.0  0.21848  0.27177  0.61119  1.0000
  H   H544      1.0  0.22641  0.24352  0.61043  1.0000
  H   H545      1.0  0.24110  0.26150  0.62692  1.0000
  C   C324      1.0  0.26031  0.29730  0.51156  1.0000
  H   H546      1.0  0.19304  0.35549  0.63060  1.0000
  H   H547      1.0  0.32726  0.25447  0.56023  1.0000
  H   H548      1.0  0.42875  0.48710  0.71805  1.0000
  C   C325      1.0  0.43845  0.31589  0.68640  1.0000
  H   H549      1.0  0.17754  0.45581  0.58166  1.0000
  H   H550      1.0  0.30116  0.35053  0.61484  1.0000
  H   H551      1.0  0.30811  0.34915  0.58631  1.0000
  H   H552      1.0  0.28134  0.35883  0.59514  1.0000
  C   C326      1.0  0.17318  0.39558  0.62906  1.0000
  C   C327      1.0  0.15990  0.41490  0.62004  1.0000
  H   H553      1.0  0.18838  0.40204  0.63519  1.0000
  H   H554      1.0  0.17712  0.38476  0.61536  1.0000
  H   H555      1.0  0.15584  0.42655  0.63306  1.0000
  H   H556      1.0  0.16959  0.42337  0.60710  1.0000
  H   H557      1.0  0.14467  0.40937  0.61296  1.0000
  Fe  Fe40      1.0  0.33656  0.12058  0.50932  1.0000
  H   H558      1.0  0.99749  0.36688  0.67802  1.0000
  H   H559      1.0  0.19130  0.43442  0.55624  1.0000
  C   C328      1.0  0.05741  0.24788  0.70876  1.0000
  C   C329      1.0  0.05975  0.26267  0.68807  1.0000
  C   C330      1.0  0.21650  0.01302  0.66885  1.0000
  H   H560      1.0  0.43202  0.47242  0.74372  1.0000
  H   H561      1.0  0.04658  0.23461  0.70472  1.0000
  H   H562      1.0  0.06529  0.21300  0.68344  1.0000
  H   H563      1.0  0.06647  0.27853  0.69210  1.0000
  H   H564      1.0  0.07046  0.25510  0.67551  1.0000
  C   C331      1.0  0.21676  0.47129  0.58497  1.0000
  H   H565      1.0  0.24585  0.48977  0.57586  1.0000
  C   C332      1.0  0.45518  0.33130  0.69472  1.0000
  H   H566      1.0  0.22002  0.43555  0.56069  1.0000
  H   H567      1.0  0.03977  0.30101  0.49637  1.0000
  H   H568      1.0  0.26341  0.27959  0.50976  1.0000
  H   H569      1.0  0.04979  0.20349  0.72569  1.0000
  C   C333      1.0  0.43481  0.39529  0.73546  1.0000
  H   H570      1.0  0.20437  0.01809  0.63613  1.0000
  H   H571      1.0  0.21353  0.45453  0.59117  1.0000
  H   H572      1.0  0.25692  0.00742  0.70026  1.0000
  H   H573      1.0  0.48285  0.36108  0.70134  1.0000
  H   H574      1.0  0.44291  0.32555  0.72772  1.0000
  H   H575      1.0  0.28789  0.00740  0.52272  1.0000
  H   H576      1.0  0.31166  0.23145  0.55318  1.0000
  H   H577      1.0  0.21256  0.41238  0.53023  1.0000
  H   H578      1.0  0.23437  0.49355  0.71973  1.0000
  H   H579      1.0  0.14758  0.46239  0.60895  1.0000
  C   C334      1.0  0.08970  0.46250  0.70167  1.0000
  H   H580      1.0  0.12439  0.24378  0.72617  1.0000
  N   N19       1.0  0.47251  0.34327  0.73061  1.0000
  H   H581      1.0  0.09633  0.43207  0.71864  1.0000
  H   H582      1.0  0.24442  0.04592  0.72928  1.0000
  H   H583      1.0  0.28607  0.02570  0.54477  1.0000
  H   H584      1.0  0.07247  0.40186  0.72525  1.0000
  C   C335      1.0  0.04325  0.45063  0.71899  1.0000
  H   H585      1.0  0.13527  0.48139  0.58965  1.0000
  H   H586      1.0  0.03818  0.22463  0.74216  1.0000
  C   C336      1.0  0.48987  0.35315  0.71598  1.0000
  H   H587      1.0  0.11454  0.48660  0.69654  1.0000
  C   C337      1.0  0.05223  0.21304  0.74029  1.0000
  C   C338      1.0  0.06018  0.41450  0.73022  1.0000
  H   H588      1.0  0.21774  0.99904  0.68054  1.0000
  C   C339      1.0  0.16951  0.48674  0.59534  1.0000
  C   C340      1.0  0.14696  0.47957  0.60302  1.0000
  H   H589      1.0  0.25078  0.00919  0.66135  1.0000
  H   H590      1.0  0.23311  0.10919  0.70475  1.0000
  H   H591      1.0  0.29085  0.04223  0.50913  1.0000
  H   H592      1.0  0.43211  0.18189  0.52178  1.0000
  H   H593      1.0  0.42245  0.31855  0.69481  1.0000
  C   C341      1.0  0.20749  0.00451  0.64795  1.0000
  H   H594      1.0  0.27232  0.03965  0.72099  1.0000
  H   H595      1.0  0.34356  0.01012  0.49804  1.0000
  H   H596      1.0  0.40373  0.16303  0.50140  1.0000
  H   H597      1.0  0.41074  0.12404  0.50024  1.0000
  H   H598      1.0  0.29269  0.48121  0.67139  1.0000
  H   H599      1.0  0.30207  0.99608  0.56926  1.0000
  H   H600      1.0  0.08741  0.21412  0.74220  1.0000
  H   H601      1.0  0.02171  0.43620  0.74430  1.0000
  H   H602      1.0  0.19198  0.99622  0.65162  1.0000
  H   H603      1.0  0.26782  0.30598  0.49735  1.0000
  Fe  Fe41      1.0  0.40865  0.43807  0.81947  1.0000
  S   S78       1.0  0.37208  0.43433  0.82118  1.0000
  S   S79       1.0  0.43137  0.40796  0.81587  1.0000
  S   S80       1.0  0.36807  0.48660  0.83054  1.0000
  H   H604      1.0  0.37252  0.48040  0.94596  1.0000
  Fe  Fe42      1.0  0.37246  0.45552  0.85060  1.0000
  S   S81       1.0  0.35097  0.45233  0.88165  1.0000
  Fe  Fe43      1.0  0.37003  0.46547  0.80106  1.0000
  S   S82       1.0  0.35140  0.47233  0.76913  1.0000
  S   S83       1.0  0.40878  0.45707  0.85018  1.0000
  S   S84       1.0  0.40680  0.46808  0.79800  1.0000
  Fe  Fe44      1.0  0.01978  0.17791  0.89046  1.0000
  S   S85       1.0  0.03355  0.16756  0.85797  1.0000
  Fe  Fe45      1.0  0.06571  0.17886  0.91016  1.0000
  S   S86       1.0  0.08156  0.16754  0.87889  1.0000
  S   S87       1.0  0.08705  0.18013  0.94044  1.0000
  Fe  Fe46      1.0  0.05927  0.19236  0.86218  1.0000
  S   S88       1.0  0.07531  0.21663  0.83767  1.0000
  Fe  Fe47      1.0  0.05446  0.14376  0.87717  1.0000
  S   S89       1.0  0.05163  0.10714  0.87146  1.0000
  S   S90       1.0  0.04432  0.20430  0.89364  1.0000
  S   S91       1.0  0.03980  0.15355  0.90947  1.0000
  H   H605      1.0  0.99955  0.12627  0.86974  1.0000
  H   H606      1.0  0.40037  0.49169  0.92526  1.0000
  C   C342      1.0  0.11009  0.05938  0.91228  1.0000
  S   S92       1.0  0.11481  0.02829  0.84167  1.0000
  H   H607      1.0  0.19642  0.00156  0.88674  1.0000
  H   H608      1.0  0.13198  0.08564  0.91841  1.0000
  C   C343      1.0  0.10300  0.19966  0.95335  1.0000
  C   C344      1.0  0.12106  0.19245  0.96540  1.0000
  C   C345      1.0  0.13329  0.20708  0.97710  1.0000
  C   C346      1.0  0.12752  0.22918  0.97710  1.0000
  C   C347      1.0  0.10958  0.23641  0.96490  1.0000
  C   C348      1.0  0.09730  0.22177  0.95332  1.0000
  H   H609      1.0  0.12562  0.17538  0.96573  1.0000
  H   H610      1.0  0.11289  0.28373  0.75341  1.0000
  H   H611      1.0  0.10485  0.25344  0.96481  1.0000
  H   H612      1.0  0.08298  0.22748  0.94502  1.0000
  C   C349      1.0  0.06955  0.08550  0.86312  1.0000
  C   C350      1.0  0.06171  0.06422  0.86317  1.0000
  C   C351      1.0  0.07516  0.04653  0.85654  1.0000
  C   C352      1.0  0.09670  0.04991  0.84970  1.0000
  C   C353      1.0  0.10455  0.07117  0.84976  1.0000
  C   C354      1.0  0.09111  0.08884  0.85639  1.0000
  H   H613      1.0  0.04506  0.06140  0.86827  1.0000
  H   H614      1.0  0.06885  0.03033  0.85663  1.0000
  H   H615      1.0  0.12117  0.07402  0.84455  1.0000
  H   H616      1.0  0.09741  0.10505  0.85619  1.0000
  C   C355      1.0  0.06535  0.23517  0.81707  1.0000
  C   C356      1.0  0.04387  0.23527  0.81022  1.0000
  C   C357      1.0  0.03707  0.24961  0.79324  1.0000
  C   C358      1.0  0.05143  0.26441  0.78308  1.0000
  C   C359      1.0  0.07285  0.26456  0.79016  1.0000
  C   C360      1.0  0.07976  0.24994  0.80687  1.0000
  H   H617      1.0  0.03254  0.22405  0.81774  1.0000
  H   H618      1.0  0.02049  0.24919  0.78793  1.0000
  H   H619      1.0  0.08416  0.27573  0.78258  1.0000
  H   H620      1.0  0.09643  0.25004  0.81190  1.0000
  C   C361      1.0  0.35750  0.44176  0.90800  1.0000
  C   C362      1.0  0.37804  0.43287  0.91262  1.0000
  C   C363      1.0  0.38253  0.42489  0.93376  1.0000
  C   C364      1.0  0.36665  0.42568  0.95062  1.0000
  C   C365      1.0  0.34611  0.43465  0.94604  1.0000
  C   C366      1.0  0.34159  0.44260  0.92486  1.0000
  H   H621      1.0  0.39045  0.43203  0.89989  1.0000
  H   H622      1.0  0.39846  0.41795  0.93706  1.0000
  H   H623      1.0  0.33375  0.43550  0.95881  1.0000
  H   H624      1.0  0.32565  0.44947  0.92151  1.0000
  C   C367      1.0  0.32580  0.46649  0.75739  1.0000
  H   H625      1.0  0.32569  0.36322  0.92641  1.0000
  H   H626      1.0  0.49533  0.34283  0.75679  1.0000
  C   C368      1.0  0.30770  0.45956  0.76973  1.0000
  C   C369      1.0  0.99717  0.11071  0.91416  1.0000
  H   H627      1.0  0.49212  0.42302  0.76353  1.0000
  H   H628      1.0  0.30903  0.45709  0.78708  1.0000
  H   H629      1.0  0.31574  0.35024  0.98557  1.0000
  H   H630      1.0  0.05417  0.20633  0.77515  1.0000
  C   C370      1.0  0.46567  0.41707  0.78652  1.0000
  C   C371      1.0  0.45598  0.40206  0.80095  1.0000
  C   C372      1.0  0.46595  0.38135  0.80355  1.0000
  H   H631      1.0  0.38764  0.47815  0.90404  1.0000
  H   H632      1.0  0.45822  0.43303  0.78426  1.0000
  H   H633      1.0  0.45856  0.36954  0.81456  1.0000
  H   H634      1.0  0.43797  0.47912  0.91338  1.0000
  C   C373      1.0  0.39425  0.49402  0.90855  1.0000
  H   H635      1.0  0.26362  0.02372  0.75694  1.0000
  N   N20       1.0  0.12470  0.01946  0.91050  1.0000
  H   H636      1.0  0.34467  0.37870  0.95515  1.0000
  H   H637      1.0  0.14073  0.03047  0.93910  1.0000
  H   H638      1.0  0.06695  0.15122  0.97779  1.0000
  H   H639      1.0  0.06007  0.40405  0.78644  1.0000
  H   H640      1.0  0.03158  0.10328  0.91893  1.0000
  C   C374      1.0  0.34019  0.37029  0.97069  1.0000
  H   H641      1.0  0.36140  0.34255  0.96289  1.0000
  H   H642      1.0  0.03586  0.18946  0.76135  1.0000
  H   H643      1.0  0.12143  0.08611  0.89132  1.0000
  H   H644      1.0  0.16549  0.02698  0.88368  1.0000
  H   H645      1.0  0.44503  0.48165  0.88484  1.0000
  H   H646      1.0  0.25780  0.38844  0.98265  1.0000
  H   H647      1.0  0.00034  0.12730  0.90772  1.0000
  C   C375      1.0  0.11745  0.08273  0.90873  1.0000
  H   H648      1.0  0.07555  0.18588  0.99327  1.0000
  S   S93       1.0  0.04197  0.28121  0.76087  1.0000
  H   H649      1.0  0.33247  0.39925  0.90969  1.0000
  H   H650      1.0  0.28531  0.33121  0.98341  1.0000
  H   H651      1.0  0.09791  0.01642  0.88897  1.0000
  C   C376      1.0  0.01607  0.10376  0.92858  1.0000
  C   C377      1.0  0.49488  0.39062  0.77743  1.0000
  C   C378      1.0  0.10164  0.01325  0.90641  1.0000
  H   H652      1.0  0.24206  0.48576  0.75887  1.0000
  H   H653      1.0  0.09441  0.05802  0.90396  1.0000
  H   H654      1.0  0.14717  0.20123  0.98615  1.0000
  C   C379      1.0  0.14005  0.00576  0.89675  1.0000
  H   H655      1.0  0.25506  0.32082  0.96008  1.0000
  H   H656      1.0  0.01756  0.11564  0.94164  1.0000
  C   C380      1.0  0.35883  0.35435  0.97605  1.0000
  H   H657      1.0  0.31517  0.39904  0.94678  1.0000
  H   H658      1.0  0.28833  0.39547  0.93867  1.0000
  C   C381      1.0  0.46877  0.32261  0.76787  1.0000
  H   H659      1.0  0.28467  0.34652  0.94639  1.0000
  C   C382      1.0  0.28770  0.45600  0.75967  1.0000
  C   C383      1.0  0.25207  0.33143  0.97417  1.0000
  H   H660      1.0  0.14338  0.04873  0.90673  1.0000
  H   H661      1.0  0.46139  0.33599  0.77751  1.0000
  H   H662      1.0  0.04073  0.39562  0.76712  1.0000
  S   S94       1.0  0.37349  0.41508  0.97686  1.0000
  C   C384      1.0  0.27147  0.39980  0.98141  1.0000
  H   H663      1.0  0.13891  0.26978  0.75128  1.0000
  S   S95       1.0  0.05186  0.34536  0.75003  1.0000
  C   C385      1.0  0.06421  0.41905  0.75441  1.0000
  H   H664      1.0  0.32312  0.38086  0.89006  1.0000
  H   H665      1.0  0.10419  0.09419  0.91388  1.0000
  C   C386      1.0  0.48493  0.41133  0.77479  1.0000
  C   C387      1.0  0.16396  0.01325  0.89566  1.0000
  H   H666      1.0  0.42374  0.38957  0.74885  1.0000
  H   H667      1.0  0.27000  0.40961  0.96617  1.0000
  C   C388      1.0  0.05796  0.39987  0.76925  1.0000
  C   C389      1.0  0.48153  0.30793  0.78362  1.0000
  H   H668      1.0  0.33236  0.48181  0.95331  1.0000
  C   C390      1.0  0.31829  0.38991  0.90482  1.0000
  H   H669      1.0  0.49448  0.31714  0.79111  1.0000
  H   H670      1.0  0.30473  0.40142  0.90072  1.0000
  H   H671      1.0  0.34795  0.48750  0.97666  1.0000
  C   C391      1.0  0.31143  0.37401  0.92305  1.0000
  H   H672      1.0  0.10959  0.24353  0.75179  1.0000
  C   C392      1.0  0.05181  0.19744  0.76000  1.0000
  C   C393      1.0  0.48378  0.33178  0.74934  1.0000
  H   H673      1.0  0.47045  0.30175  0.79676  1.0000
  H   H674      1.0  0.42400  0.46350  0.89403  1.0000
  H   H675      1.0  0.35025  0.48918  0.91498  1.0000
  H   H676      1.0  0.29831  0.36403  0.91691  1.0000
  H   H677      1.0  0.37403  0.36343  0.97764  1.0000
  C   C394      1.0  0.29370  0.38734  0.98219  1.0000
  H   H678      1.0  0.49160  0.44852  0.86050  1.0000
  H   H679      1.0  0.49235  0.35957  0.79384  1.0000
  H   H680      1.0  0.10725  0.05646  0.92995  1.0000
  H   H681      1.0  0.23844  0.34305  0.97069  1.0000
  H   H682      1.0  0.05495  0.43368  0.75981  1.0000
  C   C395      1.0  0.27255  0.34356  0.97925  1.0000
  C   C396      1.0  0.12704  0.04284  0.90285  1.0000
  H   H683      1.0  0.45558  0.31301  0.76132  1.0000
  H   H684      1.0  0.32077  0.34488  0.95788  1.0000
  H   H685      1.0  0.27391  0.45076  0.76954  1.0000
  Fe  Fe48      1.0  0.40452  0.48706  0.82883  1.0000
  H   H686      1.0  0.12618  0.04422  0.88483  1.0000
  H   H687      1.0  0.26604  0.36759  0.95338  1.0000
  N   N21       1.0  0.11179  0.24733  0.88604  1.0000
  C   C397      1.0  0.12264  0.25096  0.86401  1.0000
  C   C398      1.0  0.11195  0.22319  0.89116  1.0000
  C   C399      1.0  0.08831  0.25494  0.88438  1.0000
  C   C400      1.0  0.12213  0.25954  0.90384  1.0000
  C   C401      1.0  0.14703  0.26285  0.90196  1.0000
  C   C402      1.0  0.12047  0.27432  0.85411  1.0000
  C   C403      1.0  0.07392  0.25269  0.90532  1.0000
  C   C404      1.0  0.13452  0.21203  0.89445  1.0000
  C   C405      1.0  0.13312  0.18734  0.89521  1.0000
  C   C406      1.0  0.15562  0.27116  0.92315  1.0000
  C   C407      1.0  0.13694  0.27803  0.83548  1.0000
  C   C408      1.0  0.05134  0.26299  0.90202  1.0000
  H   H688      1.0  0.11577  0.23995  0.85202  1.0000
  H   H689      1.0  0.14016  0.24646  0.86428  1.0000
  H   H690      1.0  0.10265  0.21950  0.90641  1.0000
  H   H691      1.0  0.10353  0.21461  0.87823  1.0000
  H   H692      1.0  0.08028  0.24631  0.87127  1.0000
  H   H693      1.0  0.08729  0.27247  0.87975  1.0000
  H   H694      1.0  0.11473  0.27617  0.90506  1.0000
  H   H695      1.0  0.11849  0.25141  0.91985  1.0000
  H   H696      1.0  0.15083  0.27503  0.88891  1.0000
  H   H697      1.0  0.15628  0.24780  0.89813  1.0000
  H   H698      1.0  0.10402  0.27693  0.84733  1.0000
  H   H699      1.0  0.12274  0.28671  0.86650  1.0000
  H   H700      1.0  0.08121  0.26073  0.91915  1.0000
  H   H701      1.0  0.07156  0.23546  0.90988  1.0000
  H   H702      1.0  0.14627  0.21614  0.88118  1.0000
  H   H703      1.0  0.14102  0.21686  0.91019  1.0000
  H   H704      1.0  0.14931  0.17993  0.89876  1.0000
  H   H705      1.0  0.12147  0.18191  0.90814  1.0000
  H   H706      1.0  0.12799  0.18145  0.87933  1.0000
  H   H707      1.0  0.14731  0.28672  0.92748  1.0000
  H   H708      1.0  0.15302  0.25905  0.93663  1.0000
  H   H709      1.0  0.17333  0.27392  0.92132  1.0000
  H   H710      1.0  0.13490  0.26601  0.82264  1.0000
  H   H711      1.0  0.13435  0.29456  0.82822  1.0000
  H   H712      1.0  0.15379  0.27666  0.84145  1.0000
  H   H713      1.0  0.05247  0.28073  0.89871  1.0000
  H   H714      1.0  0.04333  0.25548  0.88826  1.0000
  H   H715      1.0  0.04108  0.26037  0.91691  1.0000
  H   H716      1.0  0.08176  0.42175  0.75673  1.0000
  N   N22       1.0  0.29890  0.37245  0.96362  1.0000
  C   C409      1.0  0.28021  0.35792  0.95955  1.0000
  C   C410      1.0  0.30330  0.38629  0.94348  1.0000
  C   C411      1.0  0.31843  0.35838  0.96939  1.0000
  H   H717      1.0  0.16913  0.01897  0.91157  1.0000
  S   S96       1.0  0.14184  0.24844  0.99205  1.0000
  H   H718      1.0  0.01329  0.08750  0.93618  1.0000
  H   H719      1.0  0.14878  0.00867  0.97423  1.0000
  H   H720      1.0  0.06479  0.18469  0.75837  1.0000
  H   H721      1.0  0.30640  0.39977  0.98305  1.0000
  H   H722      1.0  0.11431  0.02095  0.94431  1.0000
  C   C412      1.0  0.34330  0.49367  0.96029  1.0000
  H   H723      1.0  0.21355  0.48541  0.75347  1.0000
  C   C413      1.0  0.48524  0.37567  0.79192  1.0000
  C   C414      1.0  0.12943  0.01766  0.93449  1.0000
  H   H724      1.0  0.08989  0.02345  0.91591  1.0000
  H   H725      1.0  0.46839  0.37187  0.74972  1.0000
  H   H726      1.0  0.24722  0.32105  0.98843  1.0000
  H   H727      1.0  0.33902  0.38250  0.98355  1.0000
  H   H728      1.0  0.01091  0.09262  0.88723  1.0000
  H   H729      1.0  0.35541  0.34544  0.99162  1.0000
  H   H730      1.0  0.39489  0.48462  0.75549  1.0000
  H   H731      1.0  0.06872  0.38561  0.76566  1.0000
  C   C415      1.0  0.06496  0.15324  0.99560  1.0000
  H   H732      1.0  0.13445  0.00579  0.87971  1.0000
  H   H733      1.0  0.07256  0.23636  0.75321  1.0000
  H   H734      1.0  0.44572  0.35461  0.75135  1.0000
  H   H735      1.0  0.26883  0.35326  0.99380  1.0000
  C   C416      1.0  0.43139  0.47939  0.89679  1.0000
  H   H736      1.0  0.48903  0.29383  0.77511  1.0000
  C   C417      1.0  0.22782  0.49601  0.75395  1.0000
  H   H737      1.0  0.24131  0.00935  0.74635  1.0000
  Fe  Fe49      1.0  0.16438  0.92217  0.01588  1.0000
  S   S97       1.0  0.15034  0.88931  0.02193  1.0000
  Fe  Fe50      1.0  0.16546  0.93163  0.06467  1.0000
  S   S98       1.0  0.15103  0.89901  0.07355  1.0000
  S   S99       1.0  0.16965  0.95413  0.09358  1.0000
  Fe  Fe51      1.0  0.17449  0.88476  0.04860  1.0000
  S   S100      1.0  0.18848  0.85024  0.05612  1.0000
  Fe  Fe52      1.0  0.12797  0.90565  0.04646  1.0000
  S   S101      1.0  0.09178  0.89830  0.04385  1.0000
  S   S102      1.0  0.19028  0.91693  0.04130  1.0000
  S   S103      1.0  0.14076  0.93900  0.03878  1.0000
  Fe  Fe53      1.0  0.46761  0.67191  0.19884  1.0000
  Fe  Fe54      1.0  0.43978  0.70889  0.17820  1.0000
  S   S104      1.0  0.42151  0.71653  0.20941  1.0000
  S   S105      1.0  0.43515  0.72145  0.14348  1.0000
  Fe  Fe55      1.0  0.41965  0.68021  0.21364  1.0000
  C   C418      1.0  0.34721  0.63705  0.10503  1.0000
  S   S106      1.0  0.47274  0.70773  0.19358  1.0000
  S   S107      1.0  0.43571  0.67298  0.18171  1.0000
  Fe  Fe56      1.0  0.30436  0.71459  0.05278  1.0000
  S   S108      1.0  0.29636  0.74356  0.07311  1.0000
  S   S109      1.0  0.29275  0.68004  0.05763  1.0000
  Fe  Fe57      1.0  0.33718  0.73822  0.02349  1.0000
  S   S110      1.0  0.33211  0.76895  0.04225  1.0000
  Fe  Fe58      1.0  0.33258  0.74775  0.07239  1.0000
  S   S111      1.0  0.34643  0.75756  0.10437  1.0000
  Fe  Fe59      1.0  0.29601  0.76336  0.04176  1.0000
  S   S112      1.0  0.27622  0.79510  0.03385  1.0000
  S   S113      1.0  0.34065  0.71761  0.05404  1.0000
  S   S114      1.0  0.30114  0.73375  0.02104  1.0000
  Fe  Fe60      1.0  0.30939  0.58045  0.17984  1.0000
  S   S115      1.0  0.28157  0.60114  0.19245  1.0000
  S   S116      1.0  0.34560  0.58511  0.18349  1.0000
  Fe  Fe61      1.0  0.28006  0.55114  0.15470  1.0000
  S   S117      1.0  0.24982  0.57067  0.16457  1.0000
  H   H738      1.0  0.07334  0.96409  0.09488  1.0000
  Fe  Fe62      1.0  0.27019  0.60027  0.15800  1.0000
  S   S118      1.0  0.25844  0.63343  0.14513  1.0000
  Fe  Fe63      1.0  0.26293  0.57041  0.19832  1.0000
  S   S119      1.0  0.24409  0.55914  0.22956  1.0000
  S   S120      1.0  0.29897  0.58090  0.14514  1.0000
  S   S121      1.0  0.29229  0.54957  0.18872  1.0000
  S   S122      1.0  0.01231  0.87523  0.10873  1.0000
  C   C419      1.0  0.26865  0.64617  0.12096  1.0000
  C   C420      1.0  0.26876  0.66898  0.11928  1.0000
  C   C421      1.0  0.27646  0.67965  0.10017  1.0000
  C   C422      1.0  0.28354  0.66757  0.08232  1.0000
  C   C423      1.0  0.28299  0.64481  0.08388  1.0000
  C   C424      1.0  0.27597  0.63412  0.10321  1.0000
  H   H739      1.0  0.26287  0.67841  0.13285  1.0000
  H   H740      1.0  0.27641  0.69718  0.09903  1.0000
  H   H741      1.0  0.28812  0.63536  0.07004  1.0000
  H   H742      1.0  0.27570  0.61659  0.10418  1.0000
  C   C425      1.0  0.37512  0.64472  0.21289  1.0000
  H   H743      1.0  0.32648  0.82681  0.07616  1.0000
  H   H744      1.0  0.24852  0.51936  0.18172  1.0000
  C   C426      1.0  0.35556  0.60910  0.19408  1.0000
  C   C427      1.0  0.37440  0.61806  0.18467  1.0000
  C   C428      1.0  0.38390  0.63605  0.19380  1.0000
  H   H745      1.0  0.38160  0.61104  0.17022  1.0000
  H   H746      1.0  0.39828  0.64294  0.18633  1.0000
  C   C429      1.0  0.40938  0.72949  0.13346  1.0000
  C   C430      1.0  0.40536  0.72705  0.11134  1.0000
  C   C431      1.0  0.38571  0.73471  0.10240  1.0000
  C   C432      1.0  0.37018  0.74544  0.11542  1.0000
  C   C433      1.0  0.37392  0.74737  0.13766  1.0000
  C   C434      1.0  0.39332  0.73916  0.14672  1.0000
  H   H747      1.0  0.41758  0.71930  0.10114  1.0000
  H   H748      1.0  0.38287  0.73304  0.08534  1.0000
  H   H749      1.0  0.36192  0.75557  0.14786  1.0000
  H   H750      1.0  0.39623  0.74113  0.16377  1.0000
  C   C435      1.0  0.06980  0.89266  0.06236  1.0000
  C   C436      1.0  0.04966  0.88726  0.05398  1.0000
  C   C437      1.0  0.03186  0.88193  0.06784  1.0000
  C   C438      1.0  0.03402  0.88186  0.09034  1.0000
  C   C439      1.0  0.05416  0.88725  0.09876  1.0000
  C   C440      1.0  0.07192  0.89274  0.08489  1.0000
  H   H751      1.0  0.04782  0.88713  0.03658  1.0000
  H   H752      1.0  0.01651  0.87781  0.06112  1.0000
  H   H753      1.0  0.05602  0.88722  0.11616  1.0000
  H   H754      1.0  0.08724  0.89695  0.09163  1.0000
  C   C441      1.0  0.21310  0.83526  0.04988  1.0000
  C   C442      1.0  0.23130  0.84492  0.04003  1.0000
  C   C443      1.0  0.25021  0.83232  0.03505  1.0000
  C   C444      1.0  0.25151  0.80991  0.04022  1.0000
  C   C445      1.0  0.23345  0.80030  0.05045  1.0000
  C   C446      1.0  0.21441  0.81287  0.05518  1.0000
  H   H755      1.0  0.23088  0.86214  0.03643  1.0000
  H   H756      1.0  0.26410  0.84005  0.02735  1.0000
  H   H757      1.0  0.23402  0.78309  0.05440  1.0000
  H   H758      1.0  0.20054  0.80513  0.06287  1.0000
  N   N23       1.0  0.09953  0.83022  0.06917  1.0000
  H   H759      1.0  0.02731  0.80511  0.07865  1.0000
  H   H760      1.0  0.44032  0.59716  0.15036  1.0000
  C   C447      1.0  0.24437  0.96861  0.13782  1.0000
  C   C448      1.0  0.09568  0.83673  0.04577  1.0000
  H   H761      1.0  0.45625  0.61313  0.18196  1.0000
  C   C449      1.0  0.18627  0.97623  0.10049  1.0000
  H   H762      1.0  0.44767  0.72955  0.04510  1.0000
  C   C450      1.0  0.00402  0.90030  0.16296  1.0000
  C   C451      1.0  0.44259  0.57736  0.23084  1.0000
  H   H763      1.0  0.34063  0.80332  0.08714  1.0000
  H   H764      1.0  0.10373  0.79739  0.05795  1.0000
  H   H765      1.0  0.19798  0.53113  0.20256  1.0000
  H   H766      1.0  0.31015  0.53276  0.10686  1.0000
  N   N24       1.0  0.41848  0.71788  0.03107  1.0000
  H   H767      1.0  0.17432  0.58023  0.17533  1.0000
  C   C452      1.0  0.39795  0.70621  0.03785  1.0000
  N   N25       1.0  0.01195  0.95277  0.12657  1.0000
  C   C453      1.0  0.43368  0.71920  0.04974  1.0000
  C   C454      1.0  0.44252  0.69747  0.05950  1.0000
  H   H768      1.0  0.11760  0.82808  0.10988  1.0000
  C   C455      1.0  0.39694  0.75372  0.04000  1.0000
  C   C456      1.0  0.39809  0.68110  0.03581  1.0000
  C   C457      1.0  0.37772  0.67132  0.04641  1.0000
  C   C458      1.0  0.46061  0.70120  0.07539  1.0000
  C   C459      1.0  0.00467  0.99274  0.13810  1.0000
  H   H769      1.0  0.07924  0.82428  0.09797  1.0000
  H   H770      1.0  0.26710  0.96707  0.19964  1.0000
  H   H771      1.0  0.20958  0.59304  0.22419  1.0000
  H   H772      1.0  0.39308  0.71015  0.05484  1.0000
  H   H773      1.0  0.38421  0.71210  0.02764  1.0000
  H   H774      1.0  0.08570  0.82459  0.03791  1.0000
  H   H775      1.0  0.47250  0.60484  0.21421  1.0000
  H   H776      1.0  0.00440  0.94272  0.08113  1.0000
  H   H777      1.0  0.42546  0.72761  0.06350  1.0000
  C   C460      1.0  0.21796  0.51552  0.15269  1.0000
  H   H778      1.0  0.42932  0.68919  0.06884  1.0000
  H   H779      1.0  0.13344  0.85649  0.13078  1.0000
  C   C461      1.0  0.41223  0.74089  0.02411  1.0000
  H   H780      1.0  0.40423  0.75508  0.05611  1.0000
  H   H781      1.0  0.38102  0.74586  0.04230  1.0000
  H   H782      1.0  0.39836  0.67680  0.01842  1.0000
  H   H783      1.0  0.41236  0.67302  0.04325  1.0000
  H   H784      1.0  0.37626  0.67537  0.06384  1.0000
  H   H785      1.0  0.36298  0.67741  0.03794  1.0000
  H   H786      1.0  0.37857  0.65338  0.04518  1.0000
  H   H787      1.0  0.47476  0.70871  0.06685  1.0000
  H   H788      1.0  0.23004  0.94941  0.11325  1.0000
  H   H789      1.0  0.12447  0.85005  0.99780  1.0000
  C   C462      1.0  0.30763  0.51568  0.10455  1.0000
  H   H790      1.0  0.45871  0.57161  0.22427  1.0000
  H   H791      1.0  0.30502  0.67136  0.17750  1.0000
  H   H792      1.0  0.25258  0.95290  0.16867  1.0000
  H   H793      1.0  0.09805  0.83825  0.00059  1.0000
  H   H794      1.0  0.10616  0.86370  0.07550  1.0000
  H   H795      1.0  0.14245  0.81605  0.05688  1.0000
  H   H796      1.0  0.38144  0.78555  0.04290  1.0000
  H   H797      1.0  0.23263  0.93550  0.13911  1.0000
  S   S123      1.0  0.27759  0.51769  0.13936  1.0000
  H   H798      1.0  0.28084  0.77873  0.12067  1.0000
  N   N26       1.0  0.34043  0.66681  0.13372  1.0000
  C   C463      1.0  0.34004  0.65122  0.15311  1.0000
  C   C464      1.0  0.36288  0.67600  0.13024  1.0000
  C   C465      1.0  0.32476  0.68528  0.13895  1.0000
  C   C466      1.0  0.33313  0.65638  0.11339  1.0000
  C   C467      1.0  0.31752  0.64235  0.16068  1.0000
  C   C468      1.0  0.32386  0.70466  0.12241  1.0000
  C   C469      1.0  0.38252  0.66060  0.13573  1.0000
  C   C470      1.0  0.40397  0.66974  0.12716  1.0000
  H   H799      1.0  0.21051  0.50498  0.10938  1.0000
  C   C471      1.0  0.30853  0.72259  0.13098  1.0000
  H   H800      1.0  0.34746  0.65883  0.16724  1.0000
  H   H801      1.0  0.35056  0.63674  0.15010  1.0000
  H   H802      1.0  0.36504  0.68227  0.11321  1.0000
  H   H803      1.0  0.36486  0.69041  0.14053  1.0000
  H   H804      1.0  0.32867  0.69197  0.15497  1.0000
  H   H805      1.0  0.30785  0.67940  0.14046  1.0000
  H   H806      1.0  0.31614  0.65108  0.11536  1.0000
  H   H807      1.0  0.33277  0.66841  0.09963  1.0000
  H   H808      1.0  0.36312  0.64294  0.09877  1.0000
  H   H809      1.0  0.30550  0.64285  0.14775  1.0000
  H   H810      1.0  0.31965  0.62488  0.16531  1.0000
  H   H811      1.0  0.31766  0.69974  0.10663  1.0000
  H   H812      1.0  0.34009  0.71162  0.11949  1.0000
  H   H813      1.0  0.38367  0.65873  0.15359  1.0000
  H   H814      1.0  0.38109  0.64422  0.12921  1.0000
  H   H815      1.0  0.40364  0.67286  0.10935  1.0000
  H   H816      1.0  0.40716  0.68501  0.13541  1.0000
  H   H817      1.0  0.41749  0.65804  0.13078  1.0000
  H   H818      1.0  0.31851  0.65136  0.19464  1.0000
  H   H819      1.0  0.30724  0.73605  0.11878  1.0000
  H   H820      1.0  0.29200  0.71628  0.13428  1.0000
  H   H821      1.0  0.31487  0.72921  0.14606  1.0000
  C   C472      1.0  0.24916  0.75361  0.10782  1.0000
  H   H822      1.0  0.26235  0.77680  0.08474  1.0000
  H   H823      1.0  0.32686  0.82190  0.10519  1.0000
  H   H824      1.0  0.24075  0.74519  0.09487  1.0000
  H   H825      1.0  0.26469  0.74466  0.11097  1.0000
  H   H826      1.0  0.23874  0.75310  0.12280  1.0000
  H   H827      1.0  0.42692  0.75084  0.02151  1.0000
  H   H828      1.0  0.22814  0.51644  0.22006  1.0000
  C   C473      1.0  0.23665  0.50305  0.21139  1.0000
  H   H829      1.0  0.30668  0.78626  0.09858  1.0000
  H   H830      1.0  0.14166  0.81174  0.08555  1.0000
  C   C474      1.0  0.29274  0.50466  0.11805  1.0000
  H   H831      1.0  0.16708  0.51129  0.18096  1.0000
  C   C475      1.0  0.18498  0.56964  0.18557  1.0000
  H   H832      1.0  0.05422  0.82379  0.05558  1.0000
  H   H833      1.0  0.26840  0.51659  0.21625  1.0000
  H   H834      1.0  0.12358  0.82289  0.02779  1.0000
  H   H835      1.0  0.22116  0.54382  0.19148  1.0000
  H   H836      1.0  0.12803  0.84984  0.03740  1.0000
  C   C476      1.0  0.11292  0.84719  0.07940  1.0000
  C   C477      1.0  0.01622  0.93056  0.13683  1.0000
  H   H837      1.0  0.02168  0.96723  0.15630  1.0000
  H   H838      1.0  0.07296  0.94042  0.07846  1.0000
  H   H839      1.0  0.43379  0.68992  0.01546  1.0000
  C   C478      1.0  0.00796  0.96841  0.14485  1.0000
  C   C479      1.0  0.42920  0.70709  0.01170  1.0000
  C   C480      1.0  0.23645  0.50672  0.18636  1.0000
  H   H840      1.0  0.33904  0.51707  0.15241  1.0000
  H   H841      1.0  0.41589  0.52889  0.22232  1.0000
  H   H842      1.0  0.39294  0.60459  0.23312  1.0000
  N   N27       1.0  0.21463  0.51288  0.17701  1.0000
  H   H843      1.0  0.34901  0.64275  0.23681  1.0000
  H   H844      1.0  0.01341  0.88834  0.15309  1.0000
  C   C481      1.0  0.10982  0.80770  0.07091  1.0000
  H   H845      1.0  0.27591  0.99398  0.20113  1.0000
  H   H846      1.0  0.46284  0.71796  0.01405  1.0000
  H   H847      1.0  0.06623  0.79954  0.06795  1.0000
  C   C482      1.0  0.46146  0.61203  0.22685  1.0000
  H   H848      1.0  0.20269  0.55627  0.15865  1.0000
  H   H849      1.0  0.42646  0.62513  0.20407  1.0000
  C   C483      1.0  0.22648  0.49954  0.11579  1.0000
  H   H850      1.0  0.23855  0.51230  0.11213  1.0000
  C   C484      1.0  0.20461  0.98232  0.08808  1.0000
  C   C485      1.0  0.21831  0.56440  0.24296  1.0000
  C   C486      1.0  0.19293  0.54997  0.17278  1.0000
  H   H851      1.0  0.16624  0.82895  0.02232  1.0000
  H   H852      1.0  0.29956  0.95618  0.17715  1.0000
  C   C487      1.0  0.11442  0.84515  0.10448  1.0000
  H   H853      1.0  0.07069  0.84703  0.08174  1.0000
  H   H854      1.0  0.30569  0.79431  0.07122  1.0000
  C   C488      1.0  0.25324  0.77709  0.10050  1.0000
  C   C489      1.0  0.32603  0.81410  0.08928  1.0000
  H   H855      1.0  0.20305  0.52195  0.14489  1.0000
  H   H856      1.0  0.23709  0.78494  0.09794  1.0000
  H   H857      1.0  0.22816  0.97544  0.14253  1.0000
  C   C490      1.0  0.30551  0.80077  0.08782  1.0000
  Fe  Fe64      1.0  0.45397  0.71261  0.22550  1.0000
  S   S124      1.0  0.38832  0.66533  0.22646  1.0000
  H   H858      1.0  0.20887  0.83935  0.00064  1.0000
  H   H859      1.0  0.14830  0.85473  0.10526  1.0000
  C   C491      1.0  0.44343  0.60108  0.18497  1.0000
  C   C492      1.0  0.26614  0.78900  0.11763  1.0000
  H   H860      1.0  0.27366  0.81074  0.07728  1.0000
  C   C493      1.0  0.31034  0.96675  0.20781  1.0000
  H   H861      1.0  0.19289  0.98457  0.20381  1.0000
  H   H862      1.0  0.46606  0.68543  0.08282  1.0000
  C   C494      1.0  0.42954  0.60727  0.20539  1.0000
  H   H863      1.0  0.25654  0.78828  0.13322  1.0000
  H   H864      1.0  0.16130  0.78198  0.06749  1.0000
  H   H865      1.0  0.33073  0.51342  0.07766  1.0000
  H   H866      1.0  0.45161  0.58495  0.18695  1.0000
  C   C495      1.0  0.18113  0.98765  0.11954  1.0000
  H   H867      1.0  0.34770  0.61360  0.07938  1.0000
  C   C496      1.0  0.28426  0.81458  0.09081  1.0000
  H   H868      1.0  0.24146  0.81949  0.09569  1.0000
  H   H869      1.0  0.03630  0.93177  0.09242  1.0000
  C   C497      1.0  0.20477  0.99548  0.19555  1.0000
  H   H870      1.0  0.04424  0.80649  0.10191  1.0000
  H   H871      1.0  0.12968  0.84747  0.07240  1.0000
  H   H872      1.0  0.19904  0.57924  0.19021  1.0000
  H   H873      1.0  0.34977  0.62434  0.11782  1.0000
  N   N28       1.0  0.27174  0.81227  0.11208  1.0000
  H   H874      1.0  0.29136  0.79431  0.15257  1.0000
  N   N29       1.0  0.43954  0.60155  0.22691  1.0000
  N   N30       1.0  0.26314  0.98609  0.16994  1.0000
  H   H875      1.0  0.02164  0.91860  0.12460  1.0000
  H   H876      1.0  0.25172  0.97952  0.12520  1.0000
  C   C498      1.0  0.25049  0.82497  0.10984  1.0000
  H   H877      1.0  0.28828  0.83180  0.08728  1.0000
  H   H878      1.0  0.17386  0.59875  0.24325  1.0000
  C   C499      1.0  0.24073  0.94686  0.12738  1.0000
  H   H879      1.0  0.23110  0.87866  0.10317  1.0000
  H   H880      1.0  0.25949  0.49790  0.23731  1.0000
  H   H881      1.0  0.02670  0.97295  0.10111  1.0000
  S   S125      1.0  0.48884  0.64331  0.18630  1.0000
  C   C500      1.0  0.33652  0.62626  0.08619  1.0000
  H   H882      1.0  0.33263  0.63837  0.07307  1.0000
  C   C501      1.0  0.30032  0.80661  0.14260  1.0000
  H   H883      1.0  0.23972  0.82195  0.12439  1.0000
  H   H884      1.0  0.31167  0.79792  0.13148  1.0000
  H   H885      1.0  0.09886  0.85081  0.11227  1.0000
  H   H886      1.0  0.13805  0.77648  0.05162  1.0000
  C   C502      1.0  0.11597  0.83909  0.03065  1.0000
  H   H887      1.0  0.03295  0.83110  0.08953  1.0000
  C   C503      1.0  0.28403  0.82185  0.13030  1.0000
  H   H888      1.0  0.42216  0.61748  0.16173  1.0000
  C   C504      1.0  0.04598  0.94290  0.10178  1.0000
  H   H889      1.0  0.02998  0.93126  0.14815  1.0000
  H   H890      1.0  0.41336  0.60002  0.20418  1.0000
  C   C505      1.0  0.30775  0.65375  0.18060  1.0000
  C   C506      1.0  0.25215  0.84995  0.10636  1.0000
  H   H891      1.0  0.27246  0.82789  0.14313  1.0000
  H   H892      1.0  0.26016  0.85393  0.09045  1.0000
  C   C507      1.0  0.35599  0.63606  0.22207  1.0000
  C   C508      1.0  0.34613  0.61840  0.21262  1.0000
  H   H893      1.0  0.33167  0.61154  0.22007  1.0000
  H   H894      1.0  0.20890  0.97376  0.07344  1.0000
  C   C509      1.0  0.03166  0.96037  0.11346  1.0000
  H   H895      1.0  0.12840  0.87654  0.10966  1.0000
  C   C510      1.0  0.39238  0.77679  0.03129  1.0000
  H   H896      1.0  0.05515  0.93299  0.11397  1.0000
  S   S126      1.0  0.45091  0.67632  0.23155  1.0000
  H   H897      1.0  0.32137  0.61831  0.09196  1.0000
  C   C511      1.0  0.31395  0.81929  0.15798  1.0000
  C   C512      1.0  0.22959  0.86092  0.10626  1.0000
  C   C513      1.0  0.07758  0.83018  0.08086  1.0000
  H   H898      1.0  0.29300  0.83634  0.12420  1.0000
  H   H899      1.0  0.30336  0.82783  0.17006  1.0000
  H   H900      1.0  0.21972  0.85440  0.09324  1.0000
  C   C514      1.0  0.22540  0.98252  0.18934  1.0000
  H   H901      1.0  0.23233  0.97572  0.20455  1.0000
  C   C515      1.0  0.06262  0.95328  0.08613  1.0000
  C   C516      1.0  0.10975  0.84871  0.00847  1.0000
  H   H902      1.0  0.25216  0.88817  0.01272  1.0000
  H   H903      1.0  0.29174  0.64680  0.18499  1.0000
  H   H904      1.0  0.04314  0.96856  0.12406  1.0000
  H   H905      1.0  0.26138  0.85733  0.11933  1.0000
  H   H906      1.0  0.32396  0.83129  0.14873  1.0000
  H   H907      1.0  0.01428  0.90558  0.17627  1.0000
  C   C517      1.0  0.05991  0.81623  0.07104  1.0000
  C   C518      1.0  0.42977  0.60115  0.16467  1.0000
  H   H908      1.0  0.45978  0.62960  0.22231  1.0000
  H   H909      1.0  0.05433  0.96274  0.07304  1.0000
  H   H910      1.0  0.32509  0.80790  0.16682  1.0000
  H   H911      1.0  0.22097  0.85832  0.12214  1.0000
  H   H912      1.0  0.41690  0.58888  0.16642  1.0000
  H   H913      1.0  0.13695  0.77203  0.08082  1.0000
  C   C519      1.0  0.14325  0.78266  0.06736  1.0000
  C   C520      1.0  0.13511  0.80606  0.07017  1.0000
  H   H914      1.0  0.40770  0.78582  0.02925  1.0000
  C   C521      1.0  0.13229  0.85909  0.11296  1.0000
  H   H915      1.0  0.08608  0.85228  0.04499  1.0000
  H   H916      1.0  0.42819  0.56172  0.20308  1.0000
  C   C522      1.0  0.17615  0.49754  0.17340  1.0000
  C   C523      1.0  0.03995  0.81466  0.08627  1.0000
  C   C524      1.0  0.20703  0.53415  0.18691  1.0000
  H   H917      1.0  0.25641  0.93950  0.12154  1.0000
  H   H918      1.0  0.10469  0.79935  0.08640  1.0000
  H   H919      1.0  0.28999  0.99321  0.14757  1.0000
  H   H920      1.0  0.23051  0.52790  0.14897  1.0000
  H   H921      1.0  0.44930  0.68665  0.04683  1.0000
  C   C525      1.0  0.35153  0.51098  0.14056  1.0000
  H   H922      1.0  0.17856  0.54203  0.16657  1.0000
  C   C526      1.0  0.27557  0.98001  0.19006  1.0000
  H   H923      1.0  0.32722  0.96057  0.20471  1.0000
  H   H924      1.0  0.17560  0.56453  0.20041  1.0000
  C   C527      1.0  0.25932  0.96579  0.15764  1.0000
  H   H925      1.0  0.15868  0.80799  0.00448  1.0000
  H   H926      1.0  0.40419  0.74102  0.00814  1.0000
  C   C528      1.0  0.22040  0.89201  0.99792  1.0000
  H   H927      1.0  0.10237  0.86524  0.01017  1.0000
  H   H928      1.0  0.30145  0.95427  0.21760  1.0000
  H   H929      1.0  0.41735  0.70647  0.99843  1.0000
  H   H930      1.0  0.22045  0.96890  0.17937  1.0000
  C   C529      1.0  0.29926  0.97146  0.18624  1.0000
  H   H931      1.0  0.38424  0.77647  0.01544  1.0000
  H   H932      1.0  0.36782  0.51522  0.14618  1.0000
  C   C530      1.0  0.24186  0.90111  0.00499  1.0000
  H   H933      1.0  0.45474  0.71189  0.08866  1.0000
  H   H934      1.0  0.27501  0.95887  0.15126  1.0000
  H   H935      1.0  0.30923  0.98347  0.17703  1.0000
  H   H936      1.0  0.17689  0.50019  0.15556  1.0000
  C   C531      1.0  0.42774  0.53926  0.23013  1.0000
  H   H937      1.0  0.42431  0.62961  0.24194  1.0000
  C   C532      1.0  0.20456  0.58191  0.23712  1.0000
  H   H938      1.0  0.18642  0.80927  0.01287  1.0000
  C   C533      1.0  0.42564  0.56246  0.22092  1.0000
  H   H939      1.0  0.40868  0.56820  0.22381  1.0000
  H   H940      1.0  0.21163  0.88582  0.01260  1.0000
  H   H941      1.0  0.31109  0.98180  0.21725  1.0000
  H   H942      1.0  0.16702  0.98314  0.12932  1.0000
  H   H943      1.0  0.18940  0.85999  0.00616  1.0000
  H   H944      1.0  0.44436  0.53245  0.22692  1.0000
  H   H945      1.0  0.23852  0.91399  0.01697  1.0000
  C   C534      1.0  0.31927  0.50465  0.08795  1.0000
  C   C535      1.0  0.44988  0.71779  0.00191  1.0000
  C   C536      1.0  0.25985  0.50116  0.21951  1.0000
  C   C537      1.0  0.17181  0.81915  0.00831  1.0000
  C   C538      1.0  0.42564  0.61164  0.24473  1.0000
  H   H946      1.0  0.34866  0.51925  0.12462  1.0000
  S   S127      1.0  0.46641  0.73121  0.25469  1.0000
  H   H947      1.0  0.11417  0.64005  0.36489  1.0000
  Fe  Fe65      1.0  0.48252  0.85536  0.37162  1.0000
  S   S128      1.0  0.46426  0.86792  0.34233  1.0000
  Fe  Fe66      1.0  0.44233  0.83155  0.39003  1.0000
  S   S129      1.0  0.42183  0.84321  0.36235  1.0000
  S   S130      1.0  0.42932  0.80640  0.41489  1.0000
  Fe  Fe67      1.0  0.45071  0.83421  0.34064  1.0000
  S   S131      1.0  0.44335  0.81745  0.30860  1.0000
  Fe  Fe68      1.0  0.43713  0.87570  0.36612  1.0000
  S   S132      1.0  0.41736  0.90748  0.37000  1.0000
  S   S133      1.0  0.47080  0.82120  0.36826  1.0000
  S   S134      1.0  0.45586  0.86449  0.39559  1.0000
  Fe  Fe69      1.0  0.12958  0.58044  0.35891  1.0000
  S   S135      1.0  0.09650  0.56659  0.36337  1.0000
  S   S136      1.0  0.14723  0.60123  0.38300  1.0000
  Fe  Fe70      1.0  0.13175  0.56895  0.31032  1.0000
  S   S137      1.0  0.09810  0.55428  0.31193  1.0000
  S   S138      1.0  0.15166  0.57660  0.27869  1.0000
  Fe  Fe71      1.0  0.08760  0.58327  0.33174  1.0000
  S   S139      1.0  0.05501  0.60241  0.33453  1.0000
  Fe  Fe72      1.0  0.10899  0.53850  0.34354  1.0000
  S   S140      1.0  0.12010  0.59873  0.32833  1.0000
  S   S141      1.0  0.14313  0.55158  0.34084  1.0000
  H   H948      1.0  0.32411  0.83931  0.42830  1.0000
  H   H949      1.0  0.39772  0.61322  0.28163  1.0000
  H   H950      1.0  0.33120  0.89759  0.47542  1.0000
  H   H951      1.0  0.36735  0.79762  0.34475  1.0000
  H   H952      1.0  0.09445  0.66144  0.37140  1.0000
  H   H953      1.0  0.18843  0.54094  0.35202  1.0000
  C   C539      1.0  0.04114  0.62025  0.31593  1.0000
  C   C540      1.0  0.02213  0.63146  0.32309  1.0000
  H   H954      1.0  0.00103  0.58268  0.32035  1.0000
  C   C541      1.0  0.01685  0.64765  0.28702  1.0000
  C   C542      1.0  0.03592  0.63657  0.27991  1.0000
  C   C543      1.0  0.04804  0.62304  0.29425  1.0000
  H   H955      1.0  0.01662  0.62946  0.33981  1.0000
  H   H956      1.0  0.33370  0.99050  0.46419  1.0000
  H   H957      1.0  0.03303  0.57807  0.29482  1.0000
  H   H958      1.0  0.06256  0.61455  0.28844  1.0000
  C   C544      1.0  0.17755  0.57136  0.26547  1.0000
  H   H959      1.0  0.18670  0.56393  0.31741  1.0000
  H   H960      1.0  0.44117  0.83126  0.49547  1.0000
  H   H961      1.0  0.44476  0.84101  0.44342  1.0000
  H   H962      1.0  0.19863  0.63942  0.39118  1.0000
  C   C545      1.0  0.48108  0.95845  0.35398  1.0000
  H   H963      1.0  0.21507  0.58814  0.29142  1.0000
  C   C546      1.0  0.45065  0.79368  0.29356  1.0000
  C   C547      1.0  0.43966  0.78976  0.27434  1.0000
  C   C548      1.0  0.44427  0.77094  0.26218  1.0000
  C   C549      1.0  0.46005  0.75565  0.26901  1.0000
  C   C550      1.0  0.47114  0.75965  0.28817  1.0000
  C   C551      1.0  0.46652  0.77845  0.30034  1.0000
  H   H964      1.0  0.42741  0.80136  0.26880  1.0000
  H   H965      1.0  0.02003  0.55536  0.28307  1.0000
  H   H966      1.0  0.47432  0.59346  0.25510  1.0000
  H   H967      1.0  0.47526  0.78117  0.31494  1.0000
  C   C552      1.0  0.41805  0.97354  0.33236  1.0000
  C   C553      1.0  0.40736  0.97131  0.35258  1.0000
  C   C554      1.0  0.40739  0.95101  0.36379  1.0000
  C   C555      1.0  0.41806  0.93264  0.35501  1.0000
  C   C556      1.0  0.42868  0.93482  0.33473  1.0000
  C   C557      1.0  0.42873  0.95516  0.32354  1.0000
  H   H968      1.0  0.42443  0.89581  0.46413  1.0000
  H   H969      1.0  0.39900  0.94955  0.37938  1.0000
  H   H970      1.0  0.43660  0.92081  0.32753  1.0000
  H   H971      1.0  0.43694  0.95663  0.30786  1.0000
  H   H972      1.0  0.46275  0.77102  0.35456  1.0000
  C   C558      1.0  0.38681  0.83199  0.46019  1.0000
  C   C559      1.0  0.40090  0.82997  0.44188  1.0000
  C   C560      1.0  0.40953  0.80961  0.43627  1.0000
  C   C561      1.0  0.40329  0.79127  0.44885  1.0000
  C   C562      1.0  0.38876  0.79323  0.46687  1.0000
  H   H973      1.0  0.21369  0.60422  0.37833  1.0000
  H   H974      1.0  0.40542  0.84424  0.43236  1.0000
  H   H975      1.0  0.40988  0.77542  0.44473  1.0000
  H   H976      1.0  0.21767  0.53977  0.34866  1.0000
  C   C563      1.0  0.15622  0.59613  0.45738  1.0000
  C   C564      1.0  0.15967  0.61562  0.44575  1.0000
  C   C565      1.0  0.15697  0.61680  0.42304  1.0000
  C   C566      1.0  0.15048  0.59866  0.41166  1.0000
  C   C567      1.0  0.14688  0.57923  0.42330  1.0000
  C   C568      1.0  0.14985  0.57797  0.44594  1.0000
  H   H977      1.0  0.16466  0.62970  0.45423  1.0000
  H   H978      1.0  0.15987  0.63192  0.41426  1.0000
  H   H979      1.0  0.14211  0.56506  0.41482  1.0000
  H   H980      1.0  0.14724  0.56277  0.45469  1.0000
  C   C569      1.0  0.43582  0.88492  0.45502  1.0000
  N   N31       1.0  0.39798  0.76106  0.33473  1.0000
  C   C570      1.0  0.38254  0.75693  0.35376  1.0000
  C   C571      1.0  0.39246  0.78266  0.32357  1.0000
  C   C572      1.0  0.39484  0.74341  0.31863  1.0000
  C   C573      1.0  0.42145  0.76000  0.34123  1.0000
  C   C574      1.0  0.42771  0.77413  0.36033  1.0000
  C   C575      1.0  0.38608  0.73517  0.36659  1.0000
  C   C576      1.0  0.40803  0.74561  0.29687  1.0000
  C   C577      1.0  0.31349  0.93792  0.48703  1.0000
  H   H981      1.0  0.30618  0.99324  0.45501  1.0000
  C   C578      1.0  0.37151  0.73424  0.38706  1.0000
  C   C579      1.0  0.40299  0.72746  0.28154  1.0000
  H   H982      1.0  0.36547  0.75749  0.34813  1.0000
  H   H983      1.0  0.38315  0.76998  0.36573  1.0000
  H   H984      1.0  0.40676  0.78867  0.31397  1.0000
  C   C580      1.0  0.18107  0.60819  0.31884  1.0000
  H   H985      1.0  0.37733  0.74250  0.31467  1.0000
  H   H986      1.0  0.39958  0.72723  0.32567  1.0000
  H   H987      1.0  0.42665  0.74291  0.34497  1.0000
  H   H988      1.0  0.43221  0.76510  0.32737  1.0000
  H   H989      1.0  0.41664  0.77221  0.37466  1.0000
  H   H990      1.0  0.42785  0.79146  0.35503  1.0000
  H   H991      1.0  0.38198  0.72122  0.35662  1.0000
  H   H992      1.0  0.40313  0.73306  0.37176  1.0000
  H   H993      1.0  0.42571  0.74451  0.29978  1.0000
  C   C581      1.0  0.32456  0.85778  0.48154  1.0000
  H   H994      1.0  0.14588  0.62417  0.29501  1.0000
  H   H995      1.0  0.39450  0.80396  0.35178  1.0000
  H   H996      1.0  0.48165  0.79623  0.41311  1.0000
  H   H997      1.0  0.46244  0.91168  0.37924  1.0000
  H   H998      1.0  0.47618  0.90488  0.41656  1.0000
  H   H999      1.0  0.37557  0.74732  0.39821  1.0000
  H   H1000     1.0  0.35411  0.73601  0.38284  1.0000
  H   H1001     1.0  0.37401  0.71837  0.39572  1.0000
  H   H1002     1.0  0.00513  0.76388  0.34951  1.0000
  H   H1003     1.0  0.45158  0.75058  0.37309  1.0000
  H   H1004     1.0  0.21619  0.56348  0.31649  1.0000
  H   H1005     1.0  0.45453  0.77781  0.38191  1.0000
  H   H1006     1.0  0.39908  0.98524  0.35960  1.0000
  H   H1007     1.0  0.45701  0.78494  0.48498  1.0000
  H   H1008     1.0  0.40717  0.71133  0.28900  1.0000
  C   C582      1.0  0.38380  0.80137  0.33804  1.0000
  H   H1009     1.0  0.45102  0.89374  0.45133  1.0000
  C   C583      1.0  0.20144  0.58282  0.34266  1.0000
  H   H1010     1.0  0.11231  0.62673  0.40371  1.0000
  C   C584      1.0  0.38056  0.81367  0.47277  1.0000
  H   H1011     1.0  0.16954  0.62417  0.27703  1.0000
  C   C585      1.0  0.09655  0.64440  0.36621  1.0000
  C   C586      1.0  0.09448  0.63008  0.40524  1.0000
  C   C587      1.0  0.49117  0.81992  0.43647  1.0000
  H   H1012     1.0  0.34683  0.85075  0.44125  1.0000
  N   N32       1.0  0.46554  0.82988  0.46936  1.0000
  H   H1013     1.0  0.06747  0.63344  0.38245  1.0000
  H   H1014     1.0  0.00071  0.60561  0.28793  1.0000
  C   C588      1.0  0.49614  0.92559  0.31956  1.0000
  S   S142      1.0  0.15978  0.59328  0.48598  1.0000
  C   C589      1.0  0.01015  0.64520  0.30880  1.0000
  H   H1015     1.0  0.47743  0.97202  0.38681  1.0000
  H   H1016     1.0  0.09296  0.64728  0.40989  1.0000
  H   H1017     1.0  0.38555  0.72808  0.27737  1.0000
  C   C590      1.0  0.22195  0.60406  0.29454  1.0000
  H   H1018     1.0  0.08952  0.64308  0.34990  1.0000
  C   C591      1.0  0.20151  0.56348  0.32723  1.0000
  C   C592      1.0  0.44072  0.86445  0.46869  1.0000
  H   H1019     1.0  0.22722  0.63589  0.39613  1.0000
  H   H1020     1.0  0.20089  0.52830  0.32863  1.0000
  H   H1021     1.0  0.40427  0.76126  0.28831  1.0000
  S   S143      1.0  0.36307  0.81764  0.49592  1.0000
  C   C593      1.0  0.08503  0.62892  0.38222  1.0000
  C   C594      1.0  0.47390  0.61034  0.24840  1.0000
  C   C595      1.0  0.38977  0.61549  0.26575  1.0000
  H   H1022     1.0  0.32740  0.93932  0.47525  1.0000
  C   C596      1.0  0.45057  0.76794  0.36784  1.0000
  C   C597      1.0  0.19138  0.55392  0.27144  1.0000
  H   H1023     1.0  0.02013  0.63226  0.44204  1.0000
  H   H1024     1.0  0.02313  0.66096  0.43692  1.0000
  C   C598      1.0  0.33145  0.84201  0.44421  1.0000
  H   H1025     1.0  0.33513  0.82594  0.45210  1.0000
  H   H1026     1.0  0.44849  0.98948  0.36506  1.0000
  H   H1027     1.0  0.31289  0.87133  0.45016  1.0000
  H   H1028     1.0  0.08721  0.61246  0.37564  1.0000
  H   H1029     1.0  0.06009  0.65475  0.42174  1.0000
  H   H1030     1.0  0.48474  0.83367  0.42642  1.0000
  H   H1031     1.0  0.48344  0.74807  0.29365  1.0000
  H   H1032     1.0  0.49463  0.91000  0.28852  1.0000
  S   S144      1.0  0.00153  0.66337  0.26780  1.0000
  H   H1033     1.0  0.38069  0.84790  0.46463  1.0000
  N   N33       1.0  0.08476  0.61506  0.42245  1.0000
  C   C599      1.0  0.09628  0.61711  0.44366  1.0000
  C   C600      1.0  0.08829  0.59208  0.41482  1.0000
  C   C601      1.0  0.06058  0.61894  0.42543  1.0000
  C   C602      1.0  0.05295  0.64187  0.43236  1.0000
  C   C603      1.0  0.08442  0.57352  0.43198  1.0000
  C   C604      1.0  0.10407  0.63995  0.44949  1.0000
  H   H1034     1.0  0.28216  0.86767  0.48164  1.0000
  C   C605      1.0  0.02825  0.64458  0.43135  1.0000
  C   C606      1.0  0.08713  0.55129  0.42169  1.0000
  H   H1035     1.0  0.08602  0.61067  0.45742  1.0000
  H   H1036     1.0  0.11145  0.60686  0.44360  1.0000
  H   H1037     1.0  0.10515  0.58973  0.40816  1.0000
  H   H1038     1.0  0.07743  0.58894  0.40119  1.0000
  H   H1039     1.0  0.05208  0.61506  0.41036  1.0000
  H   H1040     1.0  0.05387  0.60756  0.43803  1.0000
  H   H1041     1.0  0.05734  0.64433  0.44944  1.0000
  H   H1042     1.0  0.06782  0.57464  0.43932  1.0000
  H   H1043     1.0  0.09629  0.57394  0.44518  1.0000
  H   H1044     1.0  0.11858  0.64411  0.43922  1.0000
  H   H1045     1.0  0.09164  0.65291  0.44682  1.0000
  H   H1046     1.0  0.18718  0.58111  0.35413  1.0000
  C   C607      1.0  0.47472  0.81263  0.45450  1.0000
  H   H1047     1.0  0.34211  0.86139  0.47941  1.0000
  H   H1048     1.0  0.02285  0.64293  0.41443  1.0000
  H   H1049     1.0  0.08475  0.53828  0.43427  1.0000
  H   H1050     1.0  0.07497  0.54942  0.40893  1.0000
  H   H1051     1.0  0.10370  0.54918  0.41433  1.0000
  H   H1052     1.0  0.16771  0.64105  0.32362  1.0000
  H   H1053     1.0  0.42818  0.88076  0.43960  1.0000
  H   H1054     1.0  0.48715  0.94016  0.31326  1.0000
  C   C608      1.0  0.38165  0.82274  0.32500  1.0000
  H   H1055     1.0  0.25523  0.59117  0.29212  1.0000
  H   H1056     1.0  0.49450  0.82425  0.48807  1.0000
  C   C609      1.0  0.31555  0.89673  0.48490  1.0000
  H   H1057     1.0  0.39775  0.82782  0.31844  1.0000
  C   C610      1.0  0.31567  0.85533  0.45843  1.0000
  S   S145      1.0  0.10117  0.50576  0.36052  1.0000
  C   C611      1.0  0.48283  0.83777  0.48399  1.0000
  H   H1058     1.0  0.04129  0.63833  0.26312  1.0000
  H   H1059     1.0  0.18291  0.62029  0.35866  1.0000
  H   H1060     1.0  0.12327  0.62781  0.47680  1.0000
  H   H1061     1.0  0.41288  0.72941  0.26628  1.0000
  C   C612      1.0  0.24489  0.60412  0.28447  1.0000
  C   C613      1.0  0.17611  0.63177  0.31050  1.0000
  C   C614      1.0  0.22193  0.60920  0.31914  1.0000
  H   H1062     1.0  0.18640  0.54282  0.28440  1.0000
  H   H1063     1.0  0.37958  0.78071  0.31146  1.0000
  H   H1064     1.0  0.45666  0.93959  0.38556  1.0000
  H   H1065     1.0  0.18178  0.59744  0.30476  1.0000
  H   H1066     1.0  0.43326  0.60900  0.26072  1.0000
  H   H1067     1.0  0.48584  0.87256  0.47592  1.0000
  H   H1068     1.0  0.23573  0.59994  0.32659  1.0000
  C   C615      1.0  0.20214  0.54185  0.33999  1.0000
  H   H1069     1.0  0.20001  0.63828  0.34360  1.0000
  H   H1070     1.0  0.24419  0.60091  0.26685  1.0000
  C   C616      1.0  0.99896  0.57452  0.30472  1.0000
  H   H1071     1.0  0.47001  0.93300  0.42277  1.0000
  H   H1072     1.0  0.02227  0.79759  0.33716  1.0000
  H   H1073     1.0  0.16653  0.60285  0.32849  1.0000
  H   H1074     1.0  0.48539  0.96549  0.33768  1.0000
  C   C617      1.0  0.46788  0.92554  0.38857  1.0000
  N   N34       1.0  0.20113  0.60528  0.33221  1.0000
  H   H1075     1.0  0.43377  0.81570  0.47319  1.0000
  H   H1076     1.0  0.37049  0.82109  0.31133  1.0000
  C   C618      1.0  0.16136  0.63236  0.29095  1.0000
  C   C619      1.0  0.49035  0.92113  0.34390  1.0000
  H   H1077     1.0  0.21842  0.65365  0.37418  1.0000
  C   C620      1.0  0.21646  0.61904  0.36807  1.0000
  H   H1078     1.0  0.01131  0.80014  0.36440  1.0000
  H   H1079     1.0  0.21208  0.61641  0.28550  1.0000
  H   H1080     1.0  0.21617  0.58019  0.35251  1.0000
  C   C621      1.0  0.21157  0.55053  0.26031  1.0000
  H   H1081     1.0  0.25238  0.62012  0.28638  1.0000
  H   H1082     1.0  0.46118  0.80460  0.44651  1.0000
  H   H1083     1.0  0.37506  0.83569  0.33568  1.0000
  C   C622      1.0  0.46562  0.91927  0.41262  1.0000
  H   H1084     1.0  0.40306  0.58581  0.25380  1.0000
  C   C623      1.0  0.11060  0.64046  0.47324  1.0000
  H   H1085     1.0  0.37296  0.60943  0.26736  1.0000
  C   C624      1.0  0.21504  0.63824  0.38325  1.0000
  H   H1086     1.0  0.19120  0.64032  0.30575  1.0000
  H   H1087     1.0  0.30015  0.84655  0.45932  1.0000
  H   H1088     1.0  0.22654  0.62652  0.31978  1.0000
  H   H1089     1.0  0.15754  0.64945  0.28598  1.0000
  H   H1090     1.0  0.23311  0.61810  0.36074  1.0000
  H   H1091     1.0  0.46391  0.95366  0.35276  1.0000
  H   H1092     1.0  0.44844  0.91520  0.41644  1.0000
  C   C625      1.0  0.19915  0.62136  0.35029  1.0000
  H   H1093     1.0  0.30271  0.89958  0.47268  1.0000
  H   H1094     1.0  0.46743  0.85717  0.44627  1.0000
  H   H1095     1.0  0.47230  0.90398  0.30697  1.0000
  C   C626      1.0  0.48167  0.97741  0.36996  1.0000
  C   C627      1.0  0.02121  0.56498  0.29793  1.0000
  H   H1096     1.0  0.38418  0.77899  0.47639  1.0000
  C   C628      1.0  0.00700  0.79836  0.34717  1.0000
  H   H1097     1.0  0.48327  0.79953  0.46395  1.0000
  H   H1098     1.0  0.00290  0.70945  0.36969  1.0000
  C   C629      1.0  0.49009  0.90654  0.30580  1.0000
  H   H1099     1.0  0.99998  0.69475  0.34510  1.0000
  H   H1100     1.0  0.02750  0.55415  0.31116  1.0000
  H   H1101     1.0  0.46615  0.62118  0.26061  1.0000
  C   C630      1.0  0.44776  0.81964  0.48330  1.0000
  H   H1102     1.0  0.44865  0.86920  0.48373  1.0000
  C   C631      1.0  0.46533  0.99547  0.36368  1.0000
  H   H1103     1.0  0.47266  0.91789  0.34483  1.0000
  H   H1104     1.0  0.38875  0.63308  0.26148  1.0000
  H   H1105     1.0  0.22201  0.53695  0.26510  1.0000
  H   H1106     1.0  0.42492  0.85713  0.47338  1.0000
  C   C632      1.0  0.18433  0.58522  0.24815  1.0000
  H   H1107     1.0  0.11730  0.65652  0.47667  1.0000
  C   C633      1.0  0.49173  0.93060  0.38212  1.0000
  H   H1108     1.0  0.29803  0.93905  0.47814  1.0000
  C   C634      1.0  0.45514  0.84793  0.45587  1.0000
  H   H1109     1.0  0.09630  0.63779  0.48427  1.0000
  H   H1110     1.0  0.32392  0.84145  0.48973  1.0000
  H   H1111     1.0  0.43559  0.76827  0.24751  1.0000
  C   C635      1.0  0.49614  0.85752  0.47561  1.0000
  N   N35       1.0  0.49553  0.93891  0.35913  1.0000
  H   H1112     1.0  0.99728  0.81284  0.34171  1.0000
  C   C636      1.0  0.40236  0.60304  0.24814  1.0000
  H   H1113     1.0  0.44308  0.57363  0.24861  1.0000
  C   C637      1.0  0.49658  0.80148  0.42100  1.0000
  N   N36       1.0  0.31314  0.87452  0.49557  1.0000
  H   H1114     1.0  0.42418  0.53887  0.24790  1.0000
  C   C638      1.0  0.37459  0.96596  0.72502  1.0000
  Fe  Fe73      1.0  0.16580  0.60611  0.56480  1.0000
  S   S146      1.0  0.16123  0.64174  0.57211  1.0000
  S   S147      1.0  0.16247  0.57827  0.59050  1.0000
  C   C639      1.0  0.20808  0.81238  0.61776  1.0000
  S   S148      1.0  0.15985  0.65174  0.51930  1.0000
  Fe  Fe74      1.0  0.18586  0.64790  0.54467  1.0000
  S   S149      1.0  0.21404  0.67016  0.55375  1.0000
  Fe  Fe75      1.0  0.13573  0.64343  0.54655  1.0000
  S   S150      1.0  0.10163  0.65993  0.54576  1.0000
  S   S151      1.0  0.19146  0.61184  0.53871  1.0000
  S   S152      1.0  0.13877  0.60771  0.54095  1.0000
  Fe  Fe76      1.0  0.33709  0.78387  0.56962  1.0000
  S   S153      1.0  0.34145  0.81670  0.55399  1.0000
  S   S154      1.0  0.35194  0.77407  0.60205  1.0000
  Fe  Fe77      1.0  0.30346  0.77024  0.53700  1.0000
  S   S155      1.0  0.30585  0.80272  0.51909  1.0000
  S   S156      1.0  0.27808  0.74739  0.52333  1.0000
  Fe  Fe78      1.0  0.34217  0.79972  0.52200  1.0000
  Fe  Fe79      1.0  0.30526  0.81763  0.55185  1.0000
  S   S157      1.0  0.28734  0.84983  0.55612  1.0000
  S   S158      1.0  0.34026  0.76613  0.53787  1.0000
  S   S159      1.0  0.30039  0.78592  0.56955  1.0000
  S   S160      1.0  0.46881  0.81258  0.69759  1.0000
  Fe  Fe80      1.0  0.41952  0.84474  0.72132  1.0000
  S   S161      1.0  0.43902  0.85733  0.69272  1.0000
  H   H1115     1.0  0.46077  0.91427  0.74525  1.0000
  Fe  Fe81      1.0  0.43766  0.82304  0.68129  1.0000
  S   S162      1.0  0.43022  0.82148  0.64536  1.0000
  Fe  Fe82      1.0  0.46850  0.84626  0.71104  1.0000
  S   S163      1.0  0.41671  0.81102  0.70916  1.0000
  Fe  Fe83      1.0  0.27381  0.96968  0.64570  1.0000
  S   S164      1.0  0.24358  0.95216  0.65733  1.0000
  Fe  Fe84      1.0  0.30247  0.94177  0.67627  1.0000
  S   S165      1.0  0.27438  0.92323  0.69068  1.0000
  S   S166      1.0  0.33870  0.93487  0.68074  1.0000
  Fe  Fe85      1.0  0.26421  0.92149  0.65597  1.0000
  S   S167      1.0  0.25410  0.88815  0.64587  1.0000
  Fe  Fe86      1.0  0.25551  0.95513  0.69130  1.0000
  S   S168      1.0  0.23234  0.96985  0.71764  1.0000
  S   S169      1.0  0.29310  0.93847  0.64151  1.0000
  S   S170      1.0  0.28492  0.97426  0.67969  1.0000
  S   S171      1.0  0.01828  0.66321  0.61072  1.0000
  C   C640      1.0  0.37356  0.88000  0.71895  1.0000
  C   C641      1.0  0.23190  0.50656  0.73153  1.0000
  H   H1116     1.0  0.04320  0.69070  0.64342  1.0000
  C   C642      1.0  0.35003  0.91204  0.69481  1.0000
  C   C643      1.0  0.36765  0.90054  0.68526  1.0000
  C   C644      1.0  0.37910  0.88431  0.69713  1.0000
  H   H1117     1.0  0.37277  0.90454  0.66875  1.0000
  H   H1118     1.0  0.39256  0.87554  0.68952  1.0000
  C   C645      1.0  0.27940  0.85991  0.58168  1.0000
  C   C646      1.0  0.27049  0.84640  0.59800  1.0000
  C   C647      1.0  0.26232  0.85535  0.61741  1.0000
  C   C648      1.0  0.26371  0.87769  0.62094  1.0000
  C   C649      1.0  0.27288  0.89112  0.60471  1.0000
  C   C650      1.0  0.28040  0.88228  0.58502  1.0000
  H   H1119     1.0  0.26938  0.82920  0.59541  1.0000
  H   H1120     1.0  0.25506  0.84493  0.62985  1.0000
  H   H1121     1.0  0.27382  0.90836  0.60717  1.0000
  H   H1122     1.0  0.28697  0.89285  0.57233  1.0000
  C   C651      1.0  0.37297  0.78824  0.61425  1.0000
  C   C652      1.0  0.37904  0.78227  0.63547  1.0000
  C   C653      1.0  0.39619  0.79259  0.64543  1.0000
  C   C654      1.0  0.40755  0.80894  0.63419  1.0000
  C   C655      1.0  0.40130  0.81508  0.61308  1.0000
  C   C656      1.0  0.38402  0.80492  0.60321  1.0000
  H   H1123     1.0  0.37066  0.76933  0.64411  1.0000
  H   H1124     1.0  0.40099  0.78751  0.66157  1.0000
  H   H1125     1.0  0.41006  0.82760  0.60420  1.0000
  H   H1126     1.0  0.37962  0.80961  0.58685  1.0000
  H   H1127     1.0  0.35373  0.88834  0.50664  1.0000
  C   C657      1.0  0.34809  0.87539  0.51810  1.0000
  H   H1128     1.0  0.35015  0.86748  0.55269  1.0000
  C   C658      1.0  0.07875  0.66134  0.56421  1.0000
  C   C659      1.0  0.05788  0.66561  0.55599  1.0000
  C   C660      1.0  0.03921  0.66622  0.56987  1.0000
  C   C661      1.0  0.04116  0.66274  0.59226  1.0000
  C   C662      1.0  0.06204  0.65878  0.60052  1.0000
  C   C663      1.0  0.08069  0.65824  0.58664  1.0000
  H   H1129     1.0  0.05612  0.66825  0.53871  1.0000
  H   H1130     1.0  0.02333  0.66938  0.56321  1.0000
  H   H1131     1.0  0.06383  0.65621  0.61780  1.0000
  H   H1132     1.0  0.09664  0.65574  0.59328  1.0000
  C   C664      1.0  0.23192  0.69137  0.54460  1.0000
  C   C665      1.0  0.24834  0.69784  0.55839  1.0000
  C   C666      1.0  0.26265  0.71470  0.55219  1.0000
  C   C667      1.0  0.26077  0.72555  0.53204  1.0000
  C   C668      1.0  0.24437  0.71908  0.51824  1.0000
  C   C669      1.0  0.23008  0.70220  0.52442  1.0000
  H   H1133     1.0  0.25013  0.68959  0.57397  1.0000
  H   H1134     1.0  0.27530  0.71911  0.56293  1.0000
  H   H1135     1.0  0.00024  0.66340  0.69190  1.0000
  H   H1136     1.0  0.21764  0.69754  0.51354  1.0000
  C   C670      1.0  0.21070  0.52795  0.62109  1.0000
  C   C671      1.0  0.21834  0.54440  0.60676  1.0000
  C   C672      1.0  0.20394  0.55998  0.59735  1.0000
  C   C673      1.0  0.18162  0.55939  0.60221  1.0000
  C   C674      1.0  0.17401  0.54305  0.61672  1.0000
  C   C675      1.0  0.18841  0.52746  0.62611  1.0000
  H   H1137     1.0  0.23554  0.54508  0.60281  1.0000
  H   H1138     1.0  0.21011  0.57244  0.58629  1.0000
  H   H1139     1.0  0.15683  0.54246  0.62072  1.0000
  H   H1140     1.0  0.18226  0.51511  0.63729  1.0000
  H   H1141     1.0  0.04501  0.72013  0.67138  1.0000
  H   H1142     1.0  0.29515  0.86440  0.72410  1.0000
  C   C676      1.0  0.08310  0.89041  0.73130  1.0000
  H   H1143     1.0  0.38439  0.82812  0.67218  1.0000
  H   H1144     1.0  0.01092  0.57398  0.63040  1.0000
  C   C677      1.0  0.43604  0.79193  0.51222  1.0000
  C   C678      1.0  0.04045  0.72455  0.65445  1.0000
  C   C679      1.0  0.11770  0.92476  0.72693  1.0000
  C   C680      1.0  0.39607  0.54901  0.74397  1.0000
  H   H1145     1.0  0.42666  0.52007  0.74026  1.0000
  C   C681      1.0  0.05005  0.70679  0.63927  1.0000
  C   C682      1.0  0.13863  0.93804  0.72861  1.0000
  C   C683      1.0  0.30935  0.83522  0.64875  1.0000
  H   H1146     1.0  0.19647  0.80395  0.62900  1.0000
  C   C684      1.0  0.37070  0.82460  0.68374  1.0000
  H   H1147     1.0  0.23375  0.55350  0.70871  1.0000
  H   H1148     1.0  0.37745  0.97707  0.71079  1.0000
  C   C685      1.0  0.20807  0.93883  0.74152  1.0000
  C   C686      1.0  0.11266  0.52868  0.59041  1.0000
  C   C687      1.0  0.35564  0.89114  0.72835  1.0000
  H   H1149     1.0  0.19890  0.82206  0.60542  1.0000
  C   C688      1.0  0.38187  0.54246  0.72502  1.0000
  H   H1150     1.0  0.12268  0.90919  0.71928  1.0000
  H   H1151     1.0  0.37323  0.80807  0.69097  1.0000
  C   C689      1.0  0.24105  0.54071  0.69813  1.0000
  H   H1152     1.0  0.30141  0.91621  0.51201  1.0000
  H   H1153     1.0  0.35117  0.88792  0.74520  1.0000
  N   N37       1.0  0.26000  0.52947  0.70921  1.0000
  H   H1154     1.0  0.21752  0.82375  0.62726  1.0000
  H   H1155     1.0  0.21723  0.92659  0.73267  1.0000
  C   C690      1.0  0.42655  0.91652  0.73631  1.0000
  H   H1156     1.0  0.09223  0.87730  0.74004  1.0000
  C   C691      1.0  0.19443  0.73522  0.57961  1.0000
  H   H1157     1.0  0.34861  0.81164  0.66152  1.0000
  H   H1158     1.0  0.24792  0.53490  0.74211  1.0000
  H   H1159     1.0  0.28603  0.80275  0.63037  1.0000
  C   C692      1.0  0.01169  0.73906  0.63114  1.0000
  C   C693      1.0  0.18986  0.53679  0.54352  1.0000
  H   H1160     1.0  0.33361  0.81747  0.62826  1.0000
  Fe  Fe87      1.0  0.16393  0.61550  0.51502  1.0000
  H   H1161     1.0  0.23500  0.80555  0.59632  1.0000
  H   H1162     1.0  0.45256  0.89203  0.72897  1.0000
  H   H1163     1.0  0.16573  0.94951  0.70869  1.0000
  H   H1164     1.0  0.27470  0.49715  0.70678  1.0000
  S   S172      1.0  0.44901  0.83617  0.74109  1.0000
  H   H1165     1.0  0.32629  0.85513  0.70025  1.0000
  H   H1166     1.0  0.12193  0.60254  0.62263  1.0000
  C   C694      1.0  0.07470  0.70453  0.64124  1.0000
  H   H1167     1.0  0.46718  0.94012  0.68932  1.0000
  H   H1168     1.0  0.21965  0.50536  0.55581  1.0000
  C   C695      1.0  0.26854  0.51057  0.69602  1.0000
  H   H1169     1.0  0.21890  0.80450  0.55673  1.0000
  H   H1170     1.0  0.00684  0.69772  0.64152  1.0000
  H   H1171     1.0  0.32772  0.90115  0.64249  1.0000
  H   H1172     1.0  0.09616  0.58594  0.55688  1.0000
  C   C696      1.0  0.39217  0.75338  0.71950  1.0000
  H   H1173     1.0  0.18592  0.54515  0.55886  1.0000
  H   H1174     1.0  0.05002  0.89525  0.71983  1.0000
  C   C697      1.0  0.22911  0.79214  0.54823  1.0000
  C   C698      1.0  0.01850  0.76688  0.67002  1.0000
  H   H1175     1.0  0.06917  0.61926  0.56181  1.0000
  H   H1176     1.0  0.07359  0.54533  0.58004  1.0000
  H   H1177     1.0  0.09048  0.89246  0.71477  1.0000
  H   H1178     1.0  0.47554  0.84264  0.49993  1.0000
  N   N38       1.0  0.07390  0.57996  0.58435  1.0000
  H   H1179     1.0  0.10714  0.93304  0.71475  1.0000
  H   H1180     1.0  0.00264  0.70328  0.69137  1.0000
  C   C699      1.0  0.44740  0.90323  0.74200  1.0000
  H   H1181     1.0  0.29690  0.87428  0.66431  1.0000
  N   N39       1.0  0.01629  0.72890  0.65316  1.0000
  C   C700      1.0  0.24634  0.80420  0.53469  1.0000
  H   H1182     1.0  0.37063  0.83650  0.69693  1.0000
  H   H1183     1.0  0.07813  0.55286  0.60718  1.0000
  C   C701      1.0  0.48241  0.95985  0.71215  1.0000
  H   H1184     1.0  0.06750  0.62631  0.52209  1.0000
  H   H1185     1.0  0.01532  0.77528  0.65426  1.0000
  H   H1186     1.0  0.09013  0.95873  0.73162  1.0000
  H   H1187     1.0  0.30839  0.79012  0.61564  1.0000
  C   C702      1.0  0.33699  0.88925  0.63246  1.0000
  C   C703      1.0  0.22361  0.79605  0.60679  1.0000
  H   H1188     1.0  0.34834  0.89626  0.54610  1.0000
  C   C704      1.0  0.31018  0.85749  0.69271  1.0000
  H   H1189     1.0  0.04953  0.60295  0.54939  1.0000
  H   H1190     1.0  0.02322  0.75225  0.62703  1.0000
  H   H1191     1.0  0.30197  0.84177  0.69236  1.0000
  H   H1192     1.0  0.07413  0.92421  0.73335  1.0000
  H   H1193     1.0  0.42074  0.78940  0.50357  1.0000
  H   H1194     1.0  0.40398  0.95016  0.69752  1.0000
  C   C705      1.0  0.05986  0.88287  0.72890  1.0000
  C   C706      1.0  0.34910  0.82575  0.67227  1.0000
  H   H1195     1.0  0.05199  0.87980  0.74508  1.0000
  H   H1196     1.0  0.30855  0.78989  0.64470  1.0000
  H   H1197     1.0  0.13471  0.95478  0.73393  1.0000
  H   H1198     1.0  0.44073  0.77650  0.52079  1.0000
  C   C707      1.0  0.21101  0.77964  0.59371  1.0000
  C   C708      1.0  0.23979  0.77582  0.56459  1.0000
  H   H1199     1.0  0.33622  0.82366  0.68490  1.0000
  H   H1200     1.0  0.27589  0.49681  0.65252  1.0000
  C   C709      1.0  0.29632  0.87198  0.70759  1.0000
  H   H1201     1.0  0.35340  0.88665  0.63921  1.0000
  H   H1202     1.0  0.32345  0.90285  0.60259  1.0000
  H   H1203     1.0  0.33310  0.85812  0.61856  1.0000
  H   H1204     1.0  0.00698  0.57218  0.60166  1.0000
  H   H1205     1.0  0.30820  0.87150  0.62599  1.0000
  H   H1206     1.0  0.25660  0.79256  0.52522  1.0000
  H   H1207     1.0  0.16814  0.50419  0.59062  1.0000
  H   H1208     1.0  0.37938  0.74106  0.72154  1.0000
  C   C710      1.0  0.10688  0.55280  0.58733  1.0000
  H   H1209     1.0  0.48679  0.89669  0.68213  1.0000
  H   H1210     1.0  0.40749  0.74510  0.71393  1.0000
  S   S173      1.0  0.45342  0.76987  0.74470  1.0000
  H   H1211     1.0  0.41279  0.90506  0.73653  1.0000
  H   H1212     1.0  0.46917  0.80080  0.50542  1.0000
  H   H1213     1.0  0.44775  0.90703  0.69709  1.0000
  N   N40       1.0  0.22459  0.76406  0.58023  1.0000
  C   C711      1.0  0.23716  0.74816  0.59467  1.0000
  C   C712      1.0  0.26064  0.75404  0.60039  1.0000
  C   C713      1.0  0.26989  0.73842  0.61767  1.0000
  H   H1214     1.0  0.22782  0.74471  0.61005  1.0000
  H   H1215     1.0  0.23920  0.73218  0.58682  1.0000
  H   H1216     1.0  0.20075  0.77060  0.60579  1.0000
  H   H1217     1.0  0.23271  0.78741  0.61982  1.0000
  H   H1218     1.0  0.20399  0.72245  0.58843  1.0000
  H   H1219     1.0  0.27137  0.75263  0.58571  1.0000
  H   H1220     1.0  0.26165  0.77073  0.60634  1.0000
  H   H1221     1.0  0.28692  0.74266  0.62081  1.0000
  H   H1222     1.0  0.26021  0.73955  0.63308  1.0000
  H   H1223     1.0  0.26990  0.72146  0.61201  1.0000
  H   H1224     1.0  0.45519  0.90760  0.65788  1.0000
  C   C714      1.0  0.00819  0.78088  0.68784  1.0000
  H   H1225     1.0  0.25873  0.56308  0.67565  1.0000
  H   H1226     1.0  0.42023  0.90027  0.69870  1.0000
  H   H1227     1.0  0.24270  0.72718  0.50256  1.0000
  C   C715      1.0  0.00918  0.74375  0.67119  1.0000
  H   H1228     1.0  0.08256  0.72006  0.63664  1.0000
  C   C716      1.0  0.07851  0.58471  0.56051  1.0000
  H   H1229     1.0  0.01538  0.79722  0.68715  1.0000
  H   H1230     1.0  0.39142  0.49929  0.73044  1.0000
  C   C717      1.0  0.00832  0.69442  0.67677  1.0000
  C   C718      1.0  0.04948  0.58062  0.58797  1.0000
  C   C719      1.0  0.08358  0.59623  0.59897  1.0000
  H   H1231     1.0  0.11718  0.59383  0.58457  1.0000
  H   H1232     1.0  0.22907  0.56953  0.65004  1.0000
  C   C720      1.0  0.28955  0.86846  0.49779  1.0000
  H   H1233     1.0  0.18912  0.50517  0.53031  1.0000
  C   C721      1.0  0.22542  0.56270  0.66657  1.0000
  C   C722      1.0  0.11691  0.61559  0.61089  1.0000
  H   H1234     1.0  0.29235  0.84118  0.64638  1.0000
  H   H1235     1.0  0.28831  0.85184  0.50535  1.0000
  H   H1236     1.0  0.04251  0.55569  0.61326  1.0000
  H   H1237     1.0  0.30479  0.50029  0.65229  1.0000
  H   H1238     1.0  0.16972  0.71177  0.57357  1.0000
  S   S174      1.0  0.22967  0.50856  0.63220  1.0000
  H   H1239     1.0  0.36583  0.55706  0.69709  1.0000
  H   H1240     1.0  0.04289  0.59743  0.58505  1.0000
  H   H1241     1.0  0.07235  0.61054  0.60118  1.0000
  H   H1242     1.0  0.08536  0.58893  0.61557  1.0000
  C   C723      1.0  0.39591  0.76432  0.74098  1.0000
  H   H1243     1.0  0.04666  0.71078  0.62203  1.0000
  H   H1244     1.0  0.00137  0.66340  0.66267  1.0000
  H   H1245     1.0  0.10325  0.61877  0.57906  1.0000
  H   H1246     1.0  0.04990  0.58141  0.62383  1.0000
  H   H1247     1.0  0.36832  0.97572  0.73881  1.0000
  H   H1248     1.0  0.15605  0.92359  0.70108  1.0000
  C   C724      1.0  0.17976  0.72370  0.56424  1.0000
  C   C725      1.0  0.37538  0.56227  0.71096  1.0000
  H   H1249     1.0  0.25685  0.81347  0.54527  1.0000
  C   C726      1.0  0.08206  0.55721  0.58993  1.0000
  C   C727      1.0  0.27414  0.88399  0.51064  1.0000
  H   H1250     1.0  0.13173  0.62402  0.60507  1.0000
  H   H1251     1.0  0.10595  0.62744  0.61927  1.0000
  H   H1252     1.0  0.01391  0.73665  0.68721  1.0000
  H   H1253     1.0  0.21899  0.78361  0.53673  1.0000
  H   H1254     1.0  0.47696  0.97554  0.70456  1.0000
  C   C728      1.0  0.32311  0.87265  0.51765  1.0000
  H   H1255     1.0  0.43302  0.80456  0.52453  1.0000
  C   C729      1.0  0.10574  0.60586  0.59170  1.0000
  H   H1256     1.0  0.07899  0.69962  0.65809  1.0000
  H   H1257     1.0  0.01456  0.72691  0.61827  1.0000
  C   C730      1.0  0.15090  0.93990  0.70680  1.0000
  H   H1258     1.0  0.29023  0.53769  0.74526  1.0000
  H   H1259     1.0  0.18963  0.71472  0.55191  1.0000
  H   H1260     1.0  0.32810  0.54626  0.73725  1.0000
  H   H1261     1.0  0.07414  0.59816  0.51704  1.0000
  C   C731      1.0  0.27712  0.54588  0.71321  1.0000
  H   H1262     1.0  0.22799  0.52900  0.69551  1.0000
  C   C732      1.0  0.34653  0.84718  0.65864  1.0000
  H   H1263     1.0  0.49408  0.84536  0.64095  1.0000
  C   C733      1.0  0.40449  0.93968  0.71250  1.0000
  H   H1264     1.0  0.28469  0.53056  0.66982  1.0000
  C   C734      1.0  0.08331  0.91208  0.74345  1.0000
  H   H1265     1.0  0.04157  0.57030  0.57604  1.0000
  H   H1266     1.0  0.36670  0.53468  0.73074  1.0000
  H   H1267     1.0  0.14982  0.93019  0.74036  1.0000
  C   C735      1.0  0.46682  0.94189  0.70718  1.0000
  Fe  Fe88      1.0  0.44770  0.80307  0.72690  1.0000
  H   H1268     1.0  0.32008  0.85630  0.52506  1.0000
  H   H1269     1.0  0.17875  0.54353  0.53097  1.0000
  H   H1270     1.0  0.34956  0.88892  0.59901  1.0000
  H   H1271     1.0  0.09371  0.61528  0.52901  1.0000
  H   H1272     1.0  0.14060  0.94824  0.69446  1.0000
  H   H1273     1.0  0.25198  0.78495  0.57323  1.0000
  H   H1274     1.0  0.31380  0.95173  0.49820  1.0000
  C   C736      1.0  0.35537  0.88040  0.54089  1.0000
  H   H1275     1.0  0.24945  0.76381  0.55502  1.0000
  H   H1276     1.0  0.42989  0.89330  0.65724  1.0000
  C   C737      1.0  0.43733  0.90954  0.65615  1.0000
  H   H1277     1.0  0.21903  0.74159  0.55468  1.0000
  C   C738      1.0  0.29030  0.49720  0.66294  1.0000
  H   H1278     1.0  0.40763  0.96610  0.73558  1.0000
  N   N41       1.0  0.42695  0.92956  0.71520  1.0000
  H   H1279     1.0  0.21197  0.55117  0.66533  1.0000
  H   H1280     1.0  0.30111  0.52070  0.72431  1.0000
  C   C739      1.0  0.31587  0.82110  0.62905  1.0000
  H   H1281     1.0  0.08115  0.69187  0.63013  1.0000
  H   H1282     1.0  0.04939  0.73964  0.65038  1.0000
  C   C740      1.0  0.25199  0.52112  0.73126  1.0000
  C   C741      1.0  0.18677  0.51237  0.54652  1.0000
  H   H1283     1.0  0.37336  0.88114  0.54096  1.0000
  H   H1284     1.0  0.23837  0.81581  0.52314  1.0000
  H   H1285     1.0  0.40983  0.92600  0.67068  1.0000
  C   C742      1.0  0.42752  0.92419  0.67365  1.0000
  H   H1286     1.0  0.20212  0.51144  0.57799  1.0000
  H   H1287     1.0  0.31522  0.88419  0.52907  1.0000
  H   H1288     1.0  0.07333  0.57095  0.55068  1.0000
  H   H1289     1.0  0.13058  0.52631  0.58885  1.0000
  C   C743      1.0  0.33962  0.89965  0.60978  1.0000
  H   H1290     1.0  0.43413  0.91686  0.63986  1.0000
  H   H1291     1.0  0.06004  0.86751  0.71990  1.0000
  H   H1292     1.0  0.30132  0.97777  0.54692  1.0000
  H   H1293     1.0  0.34789  0.91536  0.61088  1.0000
  C   C744      1.0  0.34387  0.90703  0.71633  1.0000
  H   H1294     1.0  0.32277  0.88270  0.67238  1.0000
  H   H1295     1.0  0.35414  0.86039  0.66746  1.0000
  H   H1296     1.0  0.27197  0.89956  0.50138  1.0000
  C   C745      1.0  0.30389  0.79969  0.63009  1.0000
  C   C746      1.0  0.32486  0.86756  0.63168  1.0000
  C   C747      1.0  0.28733  0.51526  0.67925  1.0000
  C   C748      1.0  0.00386  0.70818  0.65578  1.0000
  C   C749      1.0  0.24571  0.55104  0.67536  1.0000
  H   H1297     1.0  0.19923  0.78888  0.58339  1.0000
  H   H1298     1.0  0.26506  0.51129  0.73936  1.0000
  H   H1299     1.0  0.25264  0.85882  0.52344  1.0000
  H   H1300     1.0  0.35716  0.84494  0.64388  1.0000
  H   H1301     1.0  0.38737  0.76561  0.70682  1.0000
  H   H1302     1.0  0.39128  0.53121  0.71438  1.0000
  H   H1303     1.0  0.43473  0.94044  0.67168  1.0000
  C   C750      1.0  0.31310  0.86809  0.66979  1.0000
  H   H1304     1.0  0.32273  0.55137  0.70895  1.0000
  H   H1305     1.0  0.36199  0.95424  0.72098  1.0000
  N   N42       1.0  0.32374  0.85412  0.65254  1.0000
  H   H1306     1.0  0.25502  0.50320  0.68735  1.0000
  H   H1307     1.0  0.43781  0.96175  0.70554  1.0000
  C   C751      1.0  0.43110  0.91431  0.69674  1.0000
  H   H1308     1.0  0.30290  0.51652  0.68771  1.0000
  C   C752      1.0  0.06720  0.60549  0.55101  1.0000
  H   H1309     1.0  0.19853  0.76232  0.55734  1.0000
  H   H1310     1.0  0.28436  0.55239  0.69782  1.0000
  H   H1311     1.0  0.24088  0.88584  0.52319  1.0000
  H   H1312     1.0  0.20682  0.54033  0.53824  1.0000
  H   H1313     1.0  0.31095  0.56911  0.72936  1.0000
  H   H1314     1.0  0.31148  0.82972  0.61366  1.0000
  H   H1315     1.0  0.25032  0.53825  0.66370  1.0000
  H   H1316     1.0  0.28027  0.88729  0.52689  1.0000
  H   H1317     1.0  0.11550  0.56139  0.60000  1.0000
  H   H1318     1.0  0.16874  0.73554  0.55584  1.0000
  C   C753      1.0  0.04090  0.57358  0.61095  1.0000
  C   C754      1.0  0.39563  0.95392  0.73128  1.0000
  H   H1319     1.0  0.30373  0.88809  0.70883  1.0000
  H   H1320     1.0  0.10502  0.51908  0.57784  1.0000
  S   S175      1.0  0.38926  0.86174  0.73525  1.0000
  C   C755      1.0  0.20946  0.75125  0.56685  1.0000
  H   H1321     1.0  0.27965  0.87418  0.70128  1.0000
  H   H1322     1.0  0.30820  0.82425  0.66319  1.0000
  H   H1323     1.0  0.18375  0.74382  0.59150  1.0000
  C   C756      1.0  0.44331  0.94742  0.71557  1.0000
  H   H1324     1.0  0.01101  0.77339  0.70416  1.0000
  C   C757      1.0  0.31559  0.55205  0.72567  1.0000
  H   H1325     1.0  0.22008  0.57620  0.67719  1.0000
  H   H1326     1.0  0.10729  0.52268  0.60680  1.0000
  H   H1327     1.0  0.44433  0.95357  0.73232  1.0000
  H   H1328     1.0  0.36519  0.57388  0.72055  1.0000
  C   C758      1.0  0.21212  0.96080  0.73722  1.0000
  H   H1329     1.0  0.41162  0.55436  0.73621  1.0000
  H   H1330     1.0  0.11330  0.55795  0.57108  1.0000
  C   C759      1.0  0.25160  0.87440  0.51397  1.0000
  C   C760      1.0  0.07624  0.61155  0.52839  1.0000
  H   H1331     1.0  0.01430  0.59767  0.61303  1.0000
  H   H1332     1.0  0.02583  0.69029  0.67831  1.0000
  H   H1333     1.0  0.47340  0.92656  0.71437  1.0000
  H   H1334     1.0  0.39242  0.92684  0.71035  1.0000
  H   H1335     1.0  0.03631  0.76612  0.67235  1.0000
  H   H1336     1.0  0.33063  0.91610  0.72401  1.0000
  H   H1337     1.0  0.40937  0.77550  0.73796  1.0000
  C   C761      1.0  0.29585  0.53759  0.72797  1.0000
  H   H1338     1.0  0.16973  0.50999  0.55215  1.0000
  H   H1339     1.0  0.35651  0.86005  0.51333  1.0000
  C   C762      1.0  0.29384  0.99265  0.55397  1.0000
  H   H1340     1.0  0.24419  0.87154  0.49812  1.0000
  H   H1341     1.0  0.27646  0.98965  0.55800  1.0000
  H   H1342     1.0  0.26954  0.56041  0.72105  1.0000
  H   H1343     1.0  0.21701  0.51620  0.72745  1.0000
  H   H1344     1.0  0.37176  0.79021  0.73673  1.0000
  H   H1345     1.0  0.48354  0.96165  0.72995  1.0000
  H   H1346     1.0  0.39004  0.57060  0.70440  1.0000
  C   C763      1.0  0.31511  0.91650  0.50007  1.0000
  H   H1347     1.0  0.33021  0.91679  0.50943  1.0000
  C   C764      1.0  0.01682  0.57974  0.61411  1.0000
  C   C765      1.0  0.20317  0.50210  0.56279  1.0000
  H   H1348     1.0  0.21916  0.99269  0.64044  1.0000
  H   H1349     1.0  0.20272  0.99341  0.74598  1.0000
  H   H1350     1.0  0.39169  0.94366  0.74587  1.0000
  C   C766      1.0  0.45421  0.79859  0.49618  1.0000
  S   S176      1.0  0.42703  0.51499  0.83597  1.0000
  Fe  Fe89      1.0  0.43643  0.67362  0.90483  1.0000
  S   S177      1.0  0.41702  0.67458  0.87443  1.0000
  S   S178      1.0  0.42086  0.67386  0.93930  1.0000
  Fe  Fe90      1.0  0.47938  0.66411  0.87920  1.0000
  S   S179      1.0  0.46215  0.66403  0.84714  1.0000
  Fe  Fe91      1.0  0.44413  0.69400  0.85866  1.0000
  S   S180      1.0  0.43845  0.72691  0.84026  1.0000
  Fe  Fe92      1.0  0.43641  0.64439  0.86498  1.0000
  S   S181      1.0  0.41630  0.61727  0.85080  1.0000
  S   S182      1.0  0.46248  0.69499  0.89003  1.0000
  S   S183      1.0  0.45475  0.64248  0.89610  1.0000
  Fe  Fe93      1.0  0.11730  0.94802  0.86180  1.0000
  S   S184      1.0  0.08812  0.96967  0.85480  1.0000
  S   S185      1.0  0.11658  0.93162  0.89580  1.0000
  Fe  Fe94      1.0  0.13527  0.95347  0.81423  1.0000
  S   S186      1.0  0.10711  0.97568  0.80498  1.0000
  S   S187      1.0  0.16040  0.93907  0.78950  1.0000
  C   C767      1.0  0.02682  0.87583  0.85901  1.0000
  Fe  Fe95      1.0  0.08574  0.95178  0.82352  1.0000
  S   S188      1.0  0.05177  0.94295  0.81199  1.0000
  S   S189      1.0  0.14113  0.97068  0.84542  1.0000
  S   S190      1.0  0.11350  0.92887  0.83146  1.0000
  H   H1351     1.0  0.37506  0.78641  0.81791  1.0000
  H   H1352     1.0  0.47369  0.71306  0.97567  1.0000
  H   H1353     1.0  0.37404  0.50850  0.95326  1.0000
  H   H1354     1.0  0.12436  0.89014  0.75096  1.0000
  S   S191      1.0  0.17317  0.93484  0.98142  1.0000
  C   C768      1.0  0.22854  0.83041  0.96016  1.0000
  H   H1355     1.0  0.34299  0.52273  0.84833  1.0000
  H   H1356     1.0  0.38079  0.52011  0.87361  1.0000
  C   C769      1.0  0.03939  0.91952  0.80178  1.0000
  C   C770      1.0  0.01774  0.92120  0.79495  1.0000
  H   H1357     1.0  0.06837  0.96824  0.91012  1.0000
  C   C771      1.0  0.01869  0.88343  0.78401  1.0000
  C   C772      1.0  0.04023  0.88167  0.79115  1.0000
  C   C773      1.0  0.05038  0.89945  0.80026  1.0000
  H   H1358     1.0  0.06115  0.99493  0.91972  1.0000
  H   H1359     1.0  0.33045  0.54132  0.79516  1.0000
  H   H1360     1.0  0.04913  0.86640  0.78963  1.0000
  H   H1361     1.0  0.06666  0.89761  0.80619  1.0000
  C   C774      1.0  0.13237  0.93354  0.91948  1.0000
  C   C775      1.0  0.15287  0.94283  0.91899  1.0000
  C   C776      1.0  0.16503  0.94327  0.93809  1.0000
  C   C777      1.0  0.15688  0.93448  0.95793  1.0000
  C   C778      1.0  0.13631  0.92536  0.95844  1.0000
  C   C779      1.0  0.12423  0.92480  0.93933  1.0000
  H   H1362     1.0  0.15950  0.94920  0.90378  1.0000
  H   H1363     1.0  0.18095  0.95030  0.93744  1.0000
  H   H1364     1.0  0.12975  0.91857  0.97353  1.0000
  H   H1365     1.0  0.10844  0.91750  0.93993  1.0000
  C   C780      1.0  0.18023  0.94817  0.76954  1.0000
  H   H1366     1.0  0.17495  0.98240  0.77393  1.0000
  C   C781      1.0  0.41479  0.51362  0.75260  1.0000
  H   H1367     1.0  0.19641  0.89384  0.95871  1.0000
  C   C782      1.0  0.41468  0.49801  0.89407  1.0000
  C   C783      1.0  0.09105  0.96045  0.74935  1.0000
  H   H1368     1.0  0.33275  0.51783  0.88750  1.0000
  C   C784      1.0  0.40245  0.69231  0.95271  1.0000
  C   C785      1.0  0.40186  0.71459  0.94768  1.0000
  C   C786      1.0  0.38874  0.72889  0.96025  1.0000
  C   C787      1.0  0.37569  0.72119  0.97780  1.0000
  H   H1369     1.0  0.33398  0.52263  0.77326  1.0000
  C   C788      1.0  0.38932  0.68458  0.97021  1.0000
  H   H1370     1.0  0.41195  0.72087  0.93443  1.0000
  H   H1371     1.0  0.38879  0.74612  0.95642  1.0000
  H   H1372     1.0  0.34442  0.51563  0.79966  1.0000
  H   H1373     1.0  0.45406  0.72552  0.76073  1.0000
  C   C789      1.0  0.44278  0.73834  0.81347  1.0000
  C   C790      1.0  0.44141  0.76107  0.81035  1.0000
  C   C791      1.0  0.44476  0.77098  0.78960  1.0000
  C   C792      1.0  0.44920  0.75831  0.77145  1.0000
  C   C793      1.0  0.45057  0.73558  0.77456  1.0000
  C   C794      1.0  0.44734  0.72565  0.79534  1.0000
  H   H1374     1.0  0.43780  0.77116  0.82411  1.0000
  H   H1375     1.0  0.44418  0.78843  0.78771  1.0000
  C   C795      1.0  0.36818  0.51368  0.88509  1.0000
  H   H1376     1.0  0.44822  0.70817  0.79729  1.0000
  C   C796      1.0  0.42289  0.54297  0.84194  1.0000
  C   C797      1.0  0.40348  0.55430  0.83751  1.0000
  C   C798      1.0  0.40169  0.57691  0.84067  1.0000
  C   C799      1.0  0.41917  0.58851  0.84847  1.0000
  C   C800      1.0  0.43840  0.57703  0.85343  1.0000
  C   C801      1.0  0.44024  0.55446  0.85008  1.0000
  H   H1377     1.0  0.39009  0.54577  0.83108  1.0000
  H   H1378     1.0  0.38673  0.58559  0.83680  1.0000
  H   H1379     1.0  0.45200  0.58564  0.85938  1.0000
  H   H1380     1.0  0.45540  0.54592  0.85346  1.0000
  N   N43       1.0  0.20436  0.86253  0.97399  1.0000
  C   C802      1.0  0.21143  0.84870  0.95512  1.0000
  C   C803      1.0  0.10722  0.89402  0.78171  1.0000
  H   H1381     1.0  0.42279  0.51291  0.89874  1.0000
  H   H1382     1.0  0.46210  0.56698  0.78719  1.0000
  H   H1383     1.0  0.41686  0.83976  0.80507  1.0000
  H   H1384     1.0  0.35947  0.55316  0.76952  1.0000
  H   H1385     1.0  0.17576  0.89841  0.92660  1.0000
  H   H1386     1.0  0.41892  0.56147  0.91958  1.0000
  H   H1387     1.0  0.05901  0.88615  0.86720  1.0000
  C   C804      1.0  0.44374  0.88943  0.76270  1.0000
  C   C805      1.0  0.17363  0.88059  0.92791  1.0000
  H   H1388     1.0  0.46306  0.68820  0.98720  1.0000
  H   H1389     1.0  0.36471  0.49740  0.87878  1.0000
  H   H1390     1.0  0.19755  0.84078  0.94793  1.0000
  H   H1391     1.0  0.33076  0.78491  0.75472  1.0000
  H   H1392     1.0  0.23970  0.82682  0.92652  1.0000
  H   H1393     1.0  0.41041  0.49921  0.87677  1.0000
  H   H1394     1.0  0.43071  0.82474  0.78406  1.0000
  H   H1395     1.0  0.39192  0.81472  0.75809  1.0000
  C   C806      1.0  0.18800  0.87986  0.96681  1.0000
  H   H1396     1.0  0.35749  0.54697  0.85440  1.0000
  H   H1397     1.0  0.01693  0.81579  0.80790  1.0000
  C   C807      1.0  0.49159  0.75729  0.86641  1.0000
  H   H1398     1.0  0.43650  0.57140  0.80140  1.0000
  H   H1399     1.0  0.38963  0.66740  0.97431  1.0000
  H   H1400     1.0  0.36975  0.54658  0.79609  1.0000
  C   C808      1.0  0.23333  0.81663  0.94029  1.0000
  H   H1401     1.0  0.02504  0.81775  0.83562  1.0000
  C   C809      1.0  0.39366  0.54924  0.89941  1.0000
  H   H1402     1.0  0.16180  0.84363  0.98537  1.0000
  C   C810      1.0  0.16954  0.87338  0.95160  1.0000
  H   H1403     1.0  0.44570  0.53920  0.76482  1.0000
  H   H1404     1.0  0.21832  0.85918  0.94176  1.0000
  C   C811      1.0  0.18406  0.97016  0.76503  1.0000
  C   C812      1.0  0.49324  0.73721  0.85178  1.0000
  H   H1405     1.0  0.39779  0.76398  0.78862  1.0000
  H   H1406     1.0  0.10120  0.90688  0.79262  1.0000
  H   H1407     1.0  0.41471  0.53034  0.79303  1.0000
  H   H1408     1.0  0.24580  0.80387  0.94427  1.0000
  H   H1409     1.0  0.44665  0.70526  0.96942  1.0000
  C   C813      1.0  0.44668  0.55926  0.79247  1.0000
  C   C814      1.0  0.09565  0.98956  0.91218  1.0000
  H   H1410     1.0  0.12292  0.99522  0.97466  1.0000
  C   C815      1.0  0.36324  0.53972  0.78123  1.0000
  H   H1411     1.0  0.09330  0.88409  0.77737  1.0000
  H   H1412     1.0  0.13982  0.98842  0.90203  1.0000
  H   H1413     1.0  0.38882  0.56394  0.75127  1.0000
  H   H1414     1.0  0.03416  0.86443  0.84709  1.0000
  S   S192      1.0  0.36083  0.74037  0.99401  1.0000
  C   C816      1.0  0.22434  0.87380  0.98127  1.0000
  H   H1415     1.0  0.40273  0.55606  0.78616  1.0000
  C   C817      1.0  0.36370  0.49638  0.94588  1.0000
  H   H1416     1.0  0.41054  0.57971  0.89789  1.0000
  H   H1417     1.0  0.00873  0.89107  0.83347  1.0000
  H   H1418     1.0  0.02482  0.86674  0.87459  1.0000
  C   C818      1.0  0.12289  0.87936  0.79458  1.0000
  H   H1419     1.0  0.37059  0.51397  0.75927  1.0000
  C   C819      1.0  0.13982  0.99489  0.96790  1.0000
  H   H1420     1.0  0.45924  0.76827  0.85678  1.0000
  H   H1421     1.0  0.29935  0.78756  0.77985  1.0000
  H   H1422     1.0  0.40565  0.54186  0.88798  1.0000
  H   H1423     1.0  0.38310  0.82147  0.79927  1.0000
  H   H1424     1.0  0.21842  0.80853  0.93532  1.0000
  H   H1425     1.0  0.10553  0.97802  0.90230  1.0000
  C   C820      1.0  0.17682  0.83394  0.98860  1.0000
  H   H1426     1.0  0.34685  0.54188  0.89361  1.0000
  H   H1427     1.0  0.39728  0.75367  0.82791  1.0000
  C   C821      1.0  0.41237  0.54225  0.77929  1.0000
  H   H1428     1.0  0.31190  0.81359  0.77668  1.0000
  H   H1429     1.0  0.39310  0.57625  0.92159  1.0000
  C   C822      1.0  0.00742  0.90329  0.78623  1.0000
  H   H1430     1.0  0.45947  0.74965  0.87996  1.0000
  H   H1431     1.0  0.13680  0.88880  0.80000  1.0000
  C   C823      1.0  0.37581  0.69884  0.98248  1.0000
  H   H1432     1.0  0.40481  0.80190  0.80485  1.0000
  C   C824      1.0  0.34392  0.53636  0.85960  1.0000
  H   H1433     1.0  0.46713  0.77743  0.88282  1.0000
  C   C825      1.0  0.40471  0.56774  0.91041  1.0000
  H   H1434     1.0  0.07334  0.91034  0.75874  1.0000
  H   H1435     1.0  0.05775  0.95080  0.75768  1.0000
  H   H1436     1.0  0.48516  0.72362  0.86074  1.0000
  H   H1437     1.0  0.09302  0.93721  0.77642  1.0000
  H   H1438     1.0  0.45070  0.54530  0.80353  1.0000
  H   H1439     1.0  0.38048  0.55664  0.88953  1.0000
  H   H1440     1.0  0.04602  0.90315  0.84694  1.0000
  C   C826      1.0  0.38003  0.76776  0.78769  1.0000
  H   H1441     1.0  0.18821  0.87222  0.92086  1.0000
  H   H1442     1.0  0.37188  0.75457  0.84296  1.0000
  H   H1443     1.0  0.13372  0.91124  0.76661  1.0000
  H   H1444     1.0  0.15938  0.87670  0.91820  1.0000
  C   C827      1.0  0.10238  0.94065  0.76109  1.0000
  C   C828      1.0  0.04322  0.89358  0.86223  1.0000
  H   H1445     1.0  0.22272  0.81938  0.97348  1.0000
  C   C829      1.0  0.34174  0.52915  0.78769  1.0000
  H   H1446     1.0  0.33556  0.76883  0.77896  1.0000
  C   C830      1.0  0.45883  0.70526  0.98241  1.0000
  H   H1447     1.0  0.31602  0.79700  0.80102  1.0000
  C   C831      1.0  0.38429  0.53251  0.91639  1.0000
  H   H1448     1.0  0.37547  0.73646  0.82062  1.0000
  H   H1449     1.0  0.13138  0.98153  0.93771  1.0000
  C   C832      1.0  0.11861  0.90388  0.76115  1.0000
  H   H1450     1.0  0.37088  0.54139  0.92517  1.0000
  C   C833      1.0  0.46790  0.76349  0.87179  1.0000
  H   H1451     1.0  0.00899  0.93659  0.79608  1.0000
  H   H1452     1.0  0.39678  0.52922  0.92888  1.0000
  H   H1453     1.0  0.35287  0.76989  0.81157  1.0000
  C   C834      1.0  0.33398  0.78570  0.77233  1.0000
  H   H1454     1.0  0.03732  0.90472  0.87508  1.0000
  H   H1455     1.0  0.42484  0.50616  0.76580  1.0000
  H   H1456     1.0  0.11431  0.87255  0.80921  1.0000
  H   H1457     1.0  0.21077  0.90577  0.99085  1.0000
  H   H1458     1.0  0.36574  0.69257  0.99574  1.0000
  C   C835      1.0  0.43494  0.55152  0.77273  1.0000
  H   H1459     1.0  0.32852  0.54608  0.85877  1.0000
  H   H1460     1.0  0.15419  0.88167  0.95715  1.0000
  H   H1461     1.0  0.17977  0.88708  0.98130  1.0000
  H   H1462     1.0  0.01317  0.85371  0.81960  1.0000
  C   C836      1.0  0.37084  0.77069  0.81119  1.0000
  H   H1463     1.0  0.16601  0.85593  0.95211  1.0000
  C   C837      1.0  0.37963  0.52294  0.77129  1.0000
  C   C838      1.0  0.37940  0.75272  0.82651  1.0000
  H   H1464     1.0  0.43970  0.89989  0.77670  1.0000
  H   H1465     1.0  0.23321  0.88125  0.96703  1.0000
  H   H1466     1.0  0.35396  0.81327  0.76465  1.0000
  C   C839      1.0  0.34701  0.52779  0.88281  1.0000
  H   H1467     1.0  0.00114  0.90077  0.85931  1.0000
  H   H1468     1.0  0.48281  0.74087  0.83775  1.0000
  C   C840      1.0  0.35493  0.79855  0.77559  1.0000
  N   N44       1.0  0.40037  0.53186  0.76136  1.0000
  C   C841      1.0  0.41471  0.83161  0.78947  1.0000
  H   H1469     1.0  0.06743  0.99115  0.89130  1.0000
  H   H1470     1.0  0.49221  0.72089  0.80664  1.0000
  H   H1471     1.0  0.43304  0.56573  0.76144  1.0000
  S   S193      1.0  0.00740  0.86091  0.77103  1.0000
  H   H1472     1.0  0.18077  0.82333  0.97476  1.0000
  C   C842      1.0  0.39440  0.80207  0.77117  1.0000
  H   H1473     1.0  0.37292  0.75250  0.78212  1.0000
  H   H1474     1.0  0.40904  0.84398  0.77731  1.0000
  H   H1475     1.0  0.11829  0.94603  0.76688  1.0000
  C   C843      1.0  0.07168  0.98582  0.90803  1.0000
  H   H1476     1.0  0.24417  0.83725  0.96483  1.0000
  H   H1477     1.0  0.09791  0.98583  0.92964  1.0000
  H   H1478     1.0  0.45877  0.87978  0.76630  1.0000
  H   H1479     1.0  0.48400  0.68476  0.79325  1.0000
  H   H1480     1.0  0.34477  0.51607  0.92358  1.0000
  C   C844      1.0  0.39817  0.81369  0.79265  1.0000
  C   C845      1.0  0.06805  0.96526  0.75832  1.0000
  H   H1481     1.0  0.41018  0.79384  0.76710  1.0000
  H   H1482     1.0  0.06862  0.97038  0.77541  1.0000
  N   N45       1.0  0.37646  0.51135  0.90788  1.0000
  C   C846      1.0  0.00078  0.84199  0.82517  1.0000
  H   H1483     1.0  0.18963  0.91556  0.76080  1.0000
  N   N46       1.0  0.37608  0.78621  0.77143  1.0000
  H   H1484     1.0  0.15700  0.99426  0.93731  1.0000
  H   H1485     1.0  0.35404  0.80498  0.79219  1.0000
  C   C847      1.0  0.19558  0.84925  0.99307  1.0000
  C   C848      1.0  0.17976  0.99516  0.88852  1.0000
  C   C849      1.0  0.31414  0.79670  0.78316  1.0000
  H   H1486     1.0  0.43030  0.87804  0.76066  1.0000
  H   H1487     1.0  0.48046  0.70391  0.82741  1.0000
  H   H1488     1.0  0.25086  0.90836  0.99083  1.0000
  C   C850      1.0  0.00502  0.88555  0.85052  1.0000
  H   H1489     1.0  0.12912  0.86573  0.78457  1.0000
  C   C851      1.0  0.35788  0.50336  0.92231  1.0000
  H   H1490     1.0  0.00361  0.84128  0.85991  1.0000
  H   H1491     1.0  0.10078  0.97511  0.75171  1.0000
  H   H1492     1.0  0.33442  0.50946  0.96207  1.0000
  C   C852      1.0  0.19235  0.93262  0.75757  1.0000
  H   H1493     1.0  0.99817  0.87533  0.89706  1.0000
  H   H1494     1.0  0.23595  0.86191  0.98889  1.0000
  C   C853      1.0  0.01102  0.81917  0.82469  1.0000
  H   H1495     1.0  0.18001  0.98170  0.90083  1.0000
  H   H1496     1.0  0.22451  0.50856  0.76627  1.0000
  H   H1497     1.0  0.17514  0.98889  0.87264  1.0000
  H   H1498     1.0  0.42347  0.92730  0.75027  1.0000
  H   H1499     1.0  0.38356  0.51064  0.78428  1.0000
  C   C854      1.0  0.49537  0.70653  0.81727  1.0000
  H   H1500     1.0  0.99880  0.80691  0.82962  1.0000
  H   H1501     1.0  0.14795  0.97953  0.97354  1.0000
  Fe  Fe96      1.0  0.11152  0.99161  0.83711  1.0000
  H   H1502     1.0  0.40115  0.75161  0.75296  1.0000
  N   N47       1.0  0.10545  0.92035  0.74810  1.0000
  C   C855      1.0  0.37527  0.77700  0.74898  1.0000
  H   H1503     1.0  0.06037  0.97871  0.74868  1.0000
  C   C856      1.0  0.19989  0.97637  0.74908  1.0000
  C   C857      1.0  0.13984  0.99592  0.94311  1.0000
  H   H1504     1.0  0.36185  0.76537  0.74820  1.0000
  H   H1505     1.0  0.44632  0.73464  0.99602  1.0000
  Fe  Fe97      1.0  0.52860  0.35545  0.09007  1.0000
  S   S194      1.0  0.53134  0.36642  0.12433  1.0000
  Fe  Fe98      1.0  0.57827  0.35021  0.08312  1.0000
  S   S195      1.0  0.58392  0.36165  0.11700  1.0000
  S   S196      1.0  0.60936  0.34401  0.06209  1.0000
  Fe  Fe99      1.0  0.55691  0.33961  0.12839  1.0000
  S   S197      1.0  0.56587  0.32229  0.16093  1.0000
  Fe  Fe100     1.0  0.55832  0.38757  0.11117  1.0000
  S   S198      1.0  0.55534  0.42290  0.12251  1.0000
  S   S199      1.0  0.55249  0.32687  0.09467  1.0000
  S   S200      1.0  0.55441  0.37779  0.07658  1.0000
  Fe  Fe101     1.0  0.87020  0.06786  0.16785  1.0000
  S   S201      1.0  0.90361  0.06346  0.18218  1.0000
  S   S202      1.0  0.83631  0.07428  0.18400  1.0000
  Fe  Fe102     1.0  0.88820  0.06475  0.12059  1.0000
  S   S203      1.0  0.92231  0.06019  0.13215  1.0000
  S   S204      1.0  0.88673  0.06141  0.08368  1.0000
  Fe  Fe103     1.0  0.90870  0.03709  0.15734  1.0000
  Fe  Fe104     1.0  0.91518  0.08689  0.15559  1.0000
  S   S205      1.0  0.93904  0.11522  0.15312  1.0000
  S   S206      1.0  0.87490  0.04007  0.14470  1.0000
  S   S207      1.0  0.88150  0.09281  0.14253  1.0000
  H   H1506     1.0  0.63803  0.40488  0.03136  1.0000
  H   H1507     1.0  0.79193  0.08435  0.19637  1.0000
  H   H1508     1.0  0.95317  0.10234  0.10599  1.0000
  H   H1509     1.0  0.50542  0.43024  0.11111  1.0000
  H   H1510     1.0  0.88982  0.13242  0.11218  1.0000
  C   C858      1.0  0.95859  0.12636  0.17052  1.0000
  C   C859      1.0  0.97293  0.14208  0.16191  1.0000
  C   C860      1.0  0.58060  0.26275  0.13531  1.0000
  H   H1511     1.0  0.57226  0.44015  0.20284  1.0000
  C   C861      1.0  0.97502  0.13051  0.20577  1.0000
  C   C862      1.0  0.95988  0.12054  0.19258  1.0000
  H   H1512     1.0  0.64225  0.18523  0.13571  1.0000
  H   H1513     1.0  0.84555  0.11386  0.11390  1.0000
  H   H1514     1.0  0.94902  0.10860  0.19958  1.0000
  C   C863      1.0  0.87031  0.07504  0.06404  1.0000
  C   C864      1.0  0.87677  0.07431  0.04199  1.0000
  C   C865      1.0  0.86413  0.08460  0.02575  1.0000
  C   C866      1.0  0.84477  0.09569  0.03138  1.0000
  C   C867      1.0  0.83835  0.09646  0.05345  1.0000
  C   C868      1.0  0.85104  0.08624  0.06969  1.0000
  H   H1515     1.0  0.89168  0.06574  0.03740  1.0000
  H   H1516     1.0  0.86926  0.08381  0.00886  1.0000
  H   H1517     1.0  0.82333  0.10486  0.05797  1.0000
  H   H1518     1.0  0.84567  0.08665  0.08650  1.0000
  C   C869      1.0  0.82164  0.07076  0.20932  1.0000
  C   C870      1.0  0.83098  0.06110  0.22778  1.0000
  C   C871      1.0  0.86401  0.99840  0.20738  1.0000
  H   H1519     1.0  0.84802  0.05635  0.22732  1.0000
  H   H1520     1.0  0.66416  0.26402  0.00674  1.0000
  C   C872      1.0  0.61560  0.32865  0.03842  1.0000
  C   C873      1.0  0.59962  0.31897  0.02649  1.0000
  H   H1521     1.0  0.87923  0.01639  0.10031  1.0000
  C   C874      1.0  0.61416  0.21482  0.21252  1.0000
  C   C875      1.0  0.88522  0.01070  0.20651  1.0000
  C   C876      1.0  0.63746  0.32631  0.03126  1.0000
  H   H1522     1.0  0.58275  0.32051  0.03172  1.0000
  C   C877      1.0  0.50967  0.41329  0.04483  1.0000
  S   S208      1.0  0.92856  0.00541  0.16195  1.0000
  H   H1523     1.0  0.57416  0.17490  0.16157  1.0000
  C   C878      1.0  0.57362  0.44459  0.12547  1.0000
  C   C879      1.0  0.56537  0.46457  0.13315  1.0000
  C   C880      1.0  0.57928  0.48186  0.13701  1.0000
  C   C881      1.0  0.60176  0.47926  0.13362  1.0000
  C   C882      1.0  0.60995  0.45938  0.12562  1.0000
  C   C883      1.0  0.59600  0.44229  0.12125  1.0000
  H   H1524     1.0  0.54811  0.46662  0.13642  1.0000
  C   C884      1.0  0.67923  0.25537  0.01198  1.0000
  H   H1525     1.0  0.62728  0.45718  0.12282  1.0000
  H   H1526     1.0  0.60263  0.42723  0.11501  1.0000
  C   C885      1.0  0.54826  0.26233  0.20487  1.0000
  C   C886      1.0  0.56514  0.27592  0.21001  1.0000
  C   C887      1.0  0.57004  0.29424  0.19654  1.0000
  C   C888      1.0  0.55830  0.29926  0.17763  1.0000
  C   C889      1.0  0.54135  0.28574  0.17258  1.0000
  C   C890      1.0  0.53640  0.26749  0.18609  1.0000
  H   H1527     1.0  0.57437  0.27240  0.22442  1.0000
  H   H1528     1.0  0.58313  0.30455  0.20076  1.0000
  H   H1529     1.0  0.53204  0.28933  0.15824  1.0000
  H   H1530     1.0  0.52322  0.25726  0.18192  1.0000
  C   C891      1.0  0.84631  0.01081  0.19408  1.0000
  H   H1531     1.0  0.66245  0.20507  0.14048  1.0000
  H   H1532     1.0  0.86021  0.01235  0.07953  1.0000
  H   H1533     1.0  0.89168  0.11380  0.05663  1.0000
  C   C892      1.0  0.90143  0.12803  0.01639  1.0000
  H   H1534     1.0  0.58472  0.47253  0.18207  1.0000
  H   H1535     1.0  0.78055  0.02940  0.15040  1.0000
  C   C893      1.0  0.81385  0.02098  0.15939  1.0000
  H   H1536     1.0  0.82981  0.02857  0.15660  1.0000
  H   H1537     1.0  0.61777  0.34333  0.22400  1.0000
  C   C894      1.0  0.61093  0.20052  0.16520  1.0000
  C   C895      1.0  0.86738  0.00497  0.09439  1.0000
  H   H1538     1.0  0.89626  0.16790  0.09714  1.0000
  C   C896      1.0  0.62498  0.23016  0.22774  1.0000
  H   H1539     1.0  0.82568  0.01444  0.22900  1.0000
  H   H1540     1.0  0.85281  0.13432  0.07906  1.0000
  C   C897      1.0  0.58183  0.22899  0.16005  1.0000
  C   C898      1.0  0.87839  0.99667  0.04025  1.0000
  H   H1541     1.0  0.58778  0.36499  0.20866  1.0000
  H   H1542     1.0  0.84517  0.11482  0.21800  1.0000
  H   H1543     1.0  0.89070  0.01365  0.18943  1.0000
  H   H1544     1.0  0.93389  0.17111  0.08716  1.0000
  C   C899      1.0  0.91824  0.19914  0.07260  1.0000
  H   H1545     1.0  0.58537  0.18713  0.19781  1.0000
  H   H1546     1.0  0.68503  0.20211  0.01555  1.0000
  H   H1547     1.0  0.63820  0.23901  0.21903  1.0000
  C   C900      1.0  0.65574  0.18669  0.00537  1.0000
  C   C901      1.0  0.56759  0.44621  0.06767  1.0000
  C   C902      1.0  0.79943  0.07695  0.21051  1.0000
  H   H1548     1.0  0.64616  0.15743  0.02311  1.0000
  H   H1549     1.0  0.66042  0.21624  0.02153  1.0000
  H   H1550     1.0  0.52150  0.41881  0.03209  1.0000
  C   C903      1.0  0.78667  0.07326  0.22963  1.0000
  H   H1551     1.0  0.65001  0.33345  0.04047  1.0000
  H   H1552     1.0  0.58913  0.23743  0.20173  1.0000
  H   H1553     1.0  0.58619  0.13793  0.24254  1.0000
  H   H1554     1.0  0.81382  0.00533  0.15095  1.0000
  H   H1555     1.0  0.87740  0.13859  0.05299  1.0000
  N   N48       1.0  0.90048  0.13839  0.07888  1.0000
  C   C904      1.0  0.60239  0.39536  0.16039  1.0000
  N   N49       1.0  0.59425  0.40469  0.18160  1.0000
  C   C905      1.0  0.62688  0.39807  0.15464  1.0000
  C   C906      1.0  0.63357  0.38575  0.13424  1.0000
  H   H1556     1.0  0.59305  0.40286  0.14679  1.0000
  H   H1557     1.0  0.59921  0.37779  0.15977  1.0000
  H   H1558     1.0  0.59223  0.43633  0.16574  1.0000
  H   H1559     1.0  0.76957  0.07773  0.23000  1.0000
  H   H1560     1.0  0.92687  0.13449  0.10116  1.0000
  H   H1561     1.0  0.63051  0.41539  0.15123  1.0000
  H   H1562     1.0  0.63720  0.39174  0.16796  1.0000
  H   H1563     1.0  0.65105  0.38822  0.13031  1.0000
  H   H1564     1.0  0.63105  0.36807  0.13680  1.0000
  H   H1565     1.0  0.62400  0.39176  0.12019  1.0000
  H   H1566     1.0  0.65457  0.18630  0.16201  1.0000
  C   C907      1.0  0.60546  0.30731  0.00767  1.0000
  H   H1567     1.0  0.92925  0.16916  0.05872  1.0000
  C   C908      1.0  0.52884  0.43300  0.07201  1.0000
  H   H1568     1.0  0.61150  0.46919  0.19314  1.0000
  H   H1569     1.0  0.61414  0.23979  0.18742  1.0000
  H   H1570     1.0  0.60225  0.20536  0.22242  1.0000
  H   H1571     1.0  0.58491  0.25386  0.12032  1.0000
  H   H1572     1.0  0.60902  0.25119  0.15175  1.0000
  H   H1573     1.0  0.58631  0.27966  0.13325  1.0000
  H   H1574     1.0  0.63821  0.22304  0.16716  1.0000
  H   H1575     1.0  0.60969  0.36098  0.18887  1.0000
  H   H1576     1.0  0.91235  0.99969  0.04736  1.0000
  C   C909      1.0  0.65604  0.38048  0.99777  1.0000
  H   H1577     1.0  0.58839  0.47543  0.21067  1.0000
  C   C910      1.0  0.94562  0.00713  0.10503  1.0000
  H   H1578     1.0  0.78796  0.02274  0.22300  1.0000
  H   H1579     1.0  0.53427  0.41806  0.08099  1.0000
  H   H1580     1.0  0.88246  0.11198  0.09409  1.0000
  H   H1581     1.0  0.59881  0.40119  0.21616  1.0000
  H   H1582     1.0  0.61288  0.24207  0.23441  1.0000
  H   H1583     1.0  0.67326  0.16580  0.02848  1.0000
  H   H1584     1.0  0.86620  0.03012  0.03929  1.0000
  C   C911      1.0  0.59394  0.46624  0.19623  1.0000
  C   C912      1.0  0.54713  0.17222  0.18397  1.0000
  H   H1585     1.0  0.89470  0.01565  0.06363  1.0000
  C   C913      1.0  0.64855  0.19618  0.14796  1.0000
  H   H1586     1.0  0.97215  0.14681  0.14494  1.0000
  H   H1587     1.0  0.56052  0.38306  0.15673  1.0000
  C   C914      1.0  0.64329  0.31452  0.01254  1.0000
  H   H1588     1.0  0.88730  0.17028  0.07000  1.0000
  C   C915      1.0  0.56000  0.38177  0.17472  1.0000
  H   H1589     1.0  0.78490  0.12683  0.23740  1.0000
  H   H1590     1.0  0.94937  0.07842  0.09058  1.0000
  H   H1591     1.0  0.92051  0.09690  0.06978  1.0000
  H   H1592     1.0  0.94759  0.02208  0.11431  1.0000
  H   H1593     1.0  0.84630  0.02821  0.19851  1.0000
  H   H1594     1.0  0.92577  0.13296  0.03976  1.0000
  C   C916      1.0  0.87332  0.01799  0.02797  1.0000
  H   H1595     1.0  0.90768  0.15608  0.03455  1.0000
  H   H1596     1.0  0.86130  0.01529  0.01528  1.0000
  C   C917      1.0  0.92486  0.10381  0.08544  1.0000
  C   C918      1.0  0.89666  0.99923  0.05680  1.0000
  C   C919      1.0  0.92188  0.17454  0.07428  1.0000
  C   C920      1.0  0.84635  0.13183  0.11329  1.0000
  C   C921      1.0  0.92250  0.12891  0.08480  1.0000
  S   S209      1.0  0.55901  0.18169  0.24106  1.0000
  H   H1597     1.0  0.91446  0.09674  0.09862  1.0000
  H   H1598     1.0  0.90348  0.11008  0.01754  1.0000
  H   H1599     1.0  0.63208  0.22062  0.24149  1.0000
  C   C922      1.0  0.79704  0.03624  0.14880  1.0000
  H   H1600     1.0  0.91145  0.20540  0.08817  1.0000
  H   H1601     1.0  0.55554  0.16040  0.19501  1.0000
  C   C923      1.0  0.60256  0.22767  0.19401  1.0000
  H   H1602     1.0  0.58026  0.22061  0.14442  1.0000
  C   C924      1.0  0.53627  0.37935  0.18205  1.0000
  C   C925      1.0  0.62728  0.30518  0.00040  1.0000
  H   H1603     1.0  0.61687  0.18740  0.17650  1.0000
  H   H1604     1.0  0.72837  0.34043  0.00909  1.0000
  H   H1605     1.0  0.55264  0.42549  0.04578  1.0000
  H   H1606     1.0  0.56370  0.46008  0.07836  1.0000
  H   H1607     1.0  0.86021  0.15751  0.09398  1.0000
  H   H1608     1.0  0.56484  0.23253  0.16601  1.0000
  H   H1609     1.0  0.95701  0.00759  0.09077  1.0000
  H   H1610     1.0  0.80125  0.03857  0.13127  1.0000
  H   H1611     1.0  0.62309  0.39905  0.20046  1.0000
  H   H1612     1.0  0.56265  0.26346  0.13759  1.0000
  C   C926      1.0  0.60571  0.39452  0.20081  1.0000
  N   N50       1.0  0.50685  0.42980  0.06241  1.0000
  C   C927      1.0  0.60455  0.36956  0.20378  1.0000
  H   H1613     1.0  0.57411  0.43235  0.07762  1.0000
  C   C928      1.0  0.66918  0.20716  0.00849  1.0000
  H   H1614     1.0  0.93546  0.13485  0.07351  1.0000
  C   C929      1.0  0.86056  0.13953  0.09402  1.0000
  N   N51       1.0  0.59360  0.21435  0.17628  1.0000
  H   H1615     1.0  0.55433  0.19687  0.15996  1.0000
  C   C930      1.0  0.63711  0.39744  0.99694  1.0000
  C   C931      1.0  0.88407  0.12981  0.09545  1.0000
  H   H1616     1.0  0.51652  0.39775  0.05179  1.0000
  S   S210      1.0  0.82784  0.10845  0.01158  1.0000
  H   H1617     1.0  0.68917  0.28401  0.02840  1.0000
  H   H1618     1.0  0.70345  0.23222  0.00079  1.0000
  C   C932      1.0  0.59129  0.25174  0.15496  1.0000
  C   C933      1.0  0.79279  0.00554  0.22658  1.0000
  H   H1619     1.0  0.66018  0.31224  0.00779  1.0000
  H   H1620     1.0  0.54229  0.45321  0.04497  1.0000
  H   H1621     1.0  0.56122  0.41615  0.17558  1.0000
  H   H1622     1.0  0.61913  0.38411  0.02509  1.0000
  H   H1623     1.0  0.80881  0.03399  0.19131  1.0000
  H   H1624     1.0  0.56367  0.12348  0.23223  1.0000
  H   H1625     1.0  0.88413  0.13229  0.01323  1.0000
  H   H1626     1.0  0.61282  0.41219  0.01855  1.0000
  H   H1627     1.0  0.90695  0.20355  0.05935  1.0000
  H   H1628     1.0  0.67574  0.24682  0.02768  1.0000
  S   S211      1.0  0.54138  0.23862  0.22091  1.0000
  H   H1629     1.0  0.74671  0.13403  0.23037  1.0000
  H   H1630     1.0  0.53744  0.16307  0.17256  1.0000
  H   H1631     1.0  0.85233  0.01034  0.17695  1.0000
  C   C934      1.0  0.94822  0.09644  0.09004  1.0000
  H   H1632     1.0  0.52776  0.44579  0.08442  1.0000
  H   H1633     1.0  0.93398  0.20704  0.06896  1.0000
  C   C935      1.0  0.59891  0.42866  0.18075  1.0000
  H   H1634     1.0  0.62604  0.22212  0.14078  1.0000
  H   H1635     1.0  0.85288  0.13734  0.12877  1.0000
  H   H1636     1.0  0.82574  0.13712  0.21885  1.0000
  C   C936      1.0  0.49859  0.45137  0.05320  1.0000
  H   H1637     1.0  0.82958  0.13864  0.11166  1.0000
  S   S212      1.0  0.49769  0.35522  0.06983  1.0000
  C   C937      1.0  0.56361  0.18606  0.17124  1.0000
  C   C938      1.0  0.57724  0.19925  0.18683  1.0000
  H   H1638     1.0  0.53483  0.37775  0.20001  1.0000
  H   H1639     1.0  0.91909  0.02020  0.08691  1.0000
  C   C939      1.0  0.56986  0.40234  0.18407  1.0000
  H   H1640     1.0  0.95957  0.10254  0.07710  1.0000
  C   C940      1.0  0.89373  0.13161  0.05678  1.0000
  C   C941      1.0  0.59000  0.44205  0.20018  1.0000
  H   H1641     1.0  0.64992  0.18033  0.04002  1.0000
  H   H1642     1.0  0.61670  0.43136  0.17988  1.0000
  H   H1643     1.0  0.59832  0.43700  0.21530  1.0000
  H   H1644     1.0  0.62696  0.20356  0.20613  1.0000
  H   H1645     1.0  0.66071  0.14447  0.24014  1.0000
  H   H1646     1.0  0.58816  0.26230  0.16904  1.0000
  H   H1647     1.0  0.52632  0.39355  0.17628  1.0000
  H   H1648     1.0  0.70582  0.32366  0.00329  1.0000
  C   C942      1.0  0.63085  0.21240  0.15536  1.0000
  H   H1649     1.0  0.56557  0.20858  0.19729  1.0000
  H   H1650     1.0  0.74937  0.10889  0.24579  1.0000
  C   C943      1.0  0.61933  0.36118  0.22186  1.0000
  C   C944      1.0  0.54747  0.43949  0.05581  1.0000
  H   H1651     1.0  0.91145  0.00718  0.11246  1.0000
  H   H1652     1.0  0.56892  0.36669  0.17946  1.0000
  C   C945      1.0  0.92214  0.00590  0.09775  1.0000
  H   H1653     1.0  0.59102  0.11792  0.22215  1.0000
  H   H1654     1.0  0.63658  0.36463  0.21768  1.0000
  C   C946      1.0  0.80868  0.01772  0.18400  1.0000
  H   H1655     1.0  0.85158  0.13903  0.23203  1.0000
  C   C947      1.0  0.69593  0.27254  0.01622  1.0000
  C   C948      1.0  0.65636  0.17171  0.02553  1.0000
  C   C949      1.0  0.90035  0.16290  0.08022  1.0000
  H   H1656     1.0  0.56465  0.40324  0.20147  1.0000
  H   H1657     1.0  0.64083  0.23593  0.99628  1.0000
  N   N52       1.0  0.82357  0.00226  0.19638  1.0000
  H   H1658     1.0  0.60396  0.19184  0.15156  1.0000
  H   H1659     1.0  0.84139  0.01934  0.11406  1.0000
  H   H1660     1.0  0.58044  0.45120  0.05571  1.0000
  H   H1661     1.0  0.64994  0.36569  0.00648  1.0000
  H   H1662     1.0  0.53581  0.18269  0.19370  1.0000
  C   C950      1.0  0.90866  0.13822  0.03727  1.0000
  H   H1663     1.0  0.52982  0.36446  0.17510  1.0000
  C   C951      1.0  0.62617  0.39976  0.01937  1.0000
  H   H1664     1.0  0.66810  0.38701  0.00883  1.0000
  H   H1665     1.0  0.91150  0.13404  0.00236  1.0000
  H   H1666     1.0  0.89810  0.00101  0.21491  1.0000
  C   C952      1.0  0.83829  0.12801  0.22826  1.0000
  C   C953      1.0  0.84896  0.00304  0.11142  1.0000
  H   H1667     1.0  0.88826  0.02456  0.02002  1.0000
  H   H1668     1.0  0.69405  0.36132  0.01281  1.0000
  H   H1669     1.0  0.81546  0.10700  0.24462  1.0000
  H   H1670     1.0  0.63848  0.19147  0.00292  1.0000
  H   H1671     1.0  0.79692  0.05238  0.15643  1.0000
  H   H1672     1.0  0.97559  0.12602  0.22283  1.0000
  H   H1673     1.0  0.88303  0.02652  0.21460  1.0000
  H   H1674     1.0  0.71107  0.26483  0.02256  1.0000
  H   H1675     1.0  0.79154  0.01276  0.18550  1.0000
  C   C954      1.0  0.81717  0.00165  0.22033  1.0000
  H   H1676     1.0  0.50662  0.39429  0.00428  1.0000
  C   C955      1.0  0.58100  0.12203  0.23678  1.0000
  H   H1677     1.0  0.61465  0.36883  0.23747  1.0000
  C   C956      1.0  0.98827  0.15182  0.17504  1.0000
  H   H1678     1.0  0.59290  0.29997  0.99862  1.0000
  H   H1679     1.0  0.49808  0.40382  0.08504  1.0000
  C   C957      1.0  0.71523  0.33792  0.99752  1.0000
  H   H1680     1.0  0.69992  0.28190  0.00108  1.0000
  H   H1681     1.0  0.85529  0.99661  0.12708  1.0000
  H   H1682     1.0  0.50518  0.45392  0.03633  1.0000
  C   C958      1.0  0.98935  0.14624  0.19718  1.0000
  H   H1683     1.0  0.98687  0.00191  0.16770  1.0000
  H   H1684     1.0  0.50491  0.46508  0.06238  1.0000
  H   H1685     1.0  0.49925  0.37467  0.02538  1.0000
  H   H1686     1.0  0.85914  0.99614  0.22472  1.0000
  Fe  Fe105     1.0  0.86639  0.38231  0.43011  1.0000
  S   S213      1.0  0.86867  0.41412  0.44642  1.0000
  S   S214      1.0  0.89489  0.36498  0.41246  1.0000
  Fe  Fe106     1.0  0.81622  0.38081  0.43767  1.0000
  S   S215      1.0  0.81569  0.41368  0.45357  1.0000
  S   S216      1.0  0.78307  0.36411  0.43489  1.0000
  Fe  Fe107     1.0  0.83930  0.42443  0.42684  1.0000
  S   S217      1.0  0.84454  0.45607  0.40673  1.0000
  Fe  Fe108     1.0  0.84494  0.40095  0.47174  1.0000
  S   S218      1.0  0.83773  0.39270  0.40983  1.0000
  S   S219      1.0  0.84474  0.36797  0.45657  1.0000
  Fe  Fe109     1.0  0.66748  0.24552  0.40257  1.0000
  S   S220      1.0  0.65494  0.21861  0.42397  1.0000
  S   S221      1.0  0.65176  0.25561  0.37073  1.0000
  Fe  Fe110     1.0  0.70703  0.25301  0.43108  1.0000
  S   S222      1.0  0.69705  0.22573  0.45457  1.0000
  S   S223      1.0  0.74010  0.26965  0.43471  1.0000
  Fe  Fe111     1.0  0.68979  0.20696  0.42478  1.0000
  S   S224      1.0  0.69356  0.17054  0.42053  1.0000
  Fe  Fe112     1.0  0.66279  0.23924  0.45204  1.0000
  S   S225      1.0  0.70202  0.23273  0.40161  1.0000
  S   S226      1.0  0.67310  0.26768  0.43032  1.0000
  Fe  Fe113     1.0  0.74851  0.06513  0.29140  1.0000
  S   S227      1.0  0.71856  0.04483  0.29766  1.0000
  S   S228      1.0  0.78047  0.05693  0.27224  1.0000
  Fe  Fe114     1.0  0.73491  0.09631  0.32795  1.0000
  S   S229      1.0  0.70496  0.07826  0.33747  1.0000
  S   S230      1.0  0.74581  0.12811  0.34124  1.0000
  Fe  Fe115     1.0  0.72466  0.04735  0.33331  1.0000
  H   H1687     1.0  0.51197  0.06439  0.27400  1.0000
  Fe  Fe116     1.0  0.70018  0.07702  0.30152  1.0000
  S   S231      1.0  0.66470  0.08441  0.29410  1.0000
  S   S232      1.0  0.75540  0.06575  0.32710  1.0000
  S   S233      1.0  0.72930  0.09682  0.29214  1.0000
  H   H1688     1.0  0.74749  0.32452  0.48204  1.0000
  S   S234      1.0  0.53233  0.20749  0.27921  1.0000
  Fe  Fe117     1.0  0.58846  0.18222  0.26167  1.0000
  S   S235      1.0  0.57011  0.17054  0.29126  1.0000
  C   C959      1.0  0.78852  0.00122  0.25083  1.0000
  Fe  Fe118     1.0  0.53988  0.17252  0.27154  1.0000
  C   C960      1.0  0.78562  0.47396  0.31078  1.0000
  Fe  Fe119     1.0  0.56400  0.20597  0.29725  1.0000
  S   S236      1.0  0.56802  0.21324  0.33289  1.0000
  S   S237      1.0  0.58421  0.21781  0.26850  1.0000
  H   H1689     1.0  0.62617  0.05569  0.30833  1.0000
  C   C961      1.0  0.65523  0.11005  0.28405  1.0000
  C   C962      1.0  0.63643  0.11965  0.29349  1.0000
  C   C963      1.0  0.62623  0.13796  0.28362  1.0000
  C   C964      1.0  0.63466  0.14674  0.26408  1.0000
  C   C965      1.0  0.99333  0.34504  0.46581  1.0000
  H   H1690     1.0  0.79358  0.38126  0.47940  1.0000
  H   H1691     1.0  0.62954  0.11266  0.30832  1.0000
  H   H1692     1.0  0.52693  0.21564  0.38210  1.0000
  C   C966      1.0  0.65401  0.13774  0.25518  1.0000
  C   C967      1.0  0.80343  0.49127  0.31110  1.0000
  C   C968      1.0  0.62880  0.24317  0.36024  1.0000
  C   C969      1.0  0.61789  0.22672  0.37176  1.0000
  C   C970      1.0  0.59962  0.21731  0.36297  1.0000
  C   C971      1.0  0.59214  0.22415  0.34251  1.0000
  C   C972      1.0  0.60319  0.24042  0.33086  1.0000
  C   C973      1.0  0.62142  0.24989  0.33971  1.0000
  H   H1693     1.0  0.62380  0.22097  0.38724  1.0000
  H   H1694     1.0  0.59135  0.20454  0.37193  1.0000
  H   H1695     1.0  0.59741  0.24603  0.31522  1.0000
  H   H1696     1.0  0.62972  0.26263  0.33068  1.0000
  C   C974      1.0  0.70789  0.15951  0.39799  1.0000
  C   C975      1.0  0.72426  0.17079  0.38671  1.0000
  C   C976      1.0  0.73577  0.16102  0.36931  1.0000
  C   C977      1.0  0.73084  0.14004  0.36294  1.0000
  C   C978      1.0  0.71417  0.12897  0.37397  1.0000
  C   C979      1.0  0.70284  0.13865  0.39145  1.0000
  H   H1697     1.0  0.72838  0.18682  0.39170  1.0000
  H   H1698     1.0  0.74867  0.16970  0.36090  1.0000
  H   H1699     1.0  0.71016  0.11288  0.36919  1.0000
  H   H1700     1.0  0.68985  0.13015  0.39978  1.0000
  H   H1701     1.0  0.91499  0.41239  0.47590  1.0000
  C   C980      1.0  0.56996  0.23867  0.45319  1.0000
  C   C981      1.0  0.78203  0.12083  0.27273  1.0000
  C   C982      1.0  0.76340  0.39942  0.48086  1.0000
  H   H1702     1.0  0.58407  0.11311  0.31712  1.0000
  C   C983      1.0  0.82634  0.47482  0.39333  1.0000
  C   C984      1.0  0.80381  0.47230  0.39380  1.0000
  C   C985      1.0  0.57116  0.11030  0.27554  1.0000
  C   C986      1.0  0.60089  0.24793  0.42948  1.0000
  H   H1703     1.0  0.76333  0.35553  0.47872  1.0000
  C   C987      1.0  0.70634  0.00133  0.36854  1.0000
  H   H1704     1.0  0.79691  0.45854  0.40251  1.0000
  H   H1705     1.0  0.75627  0.45171  0.28791  1.0000
  H   H1706     1.0  0.78447  0.28340  0.43316  1.0000
  H   H1707     1.0  0.96991  0.32343  0.48167  1.0000
  C   C988      1.0  0.92362  0.36766  0.41309  1.0000
  C   C989      1.0  0.93367  0.37979  0.42866  1.0000
  C   C990      1.0  0.95653  0.38144  0.42829  1.0000
  C   C991      1.0  0.96963  0.37115  0.41231  1.0000
  C   C992      1.0  0.95956  0.35911  0.39673  1.0000
  C   C993      1.0  0.93675  0.35734  0.39719  1.0000
  H   H1708     1.0  0.92384  0.38774  0.44104  1.0000
  H   H1709     1.0  0.96412  0.39078  0.44043  1.0000
  H   H1710     1.0  0.96936  0.35104  0.38439  1.0000
  H   H1711     1.0  0.92919  0.34787  0.38510  1.0000
  C   C994      1.0  0.75155  0.29621  0.43373  1.0000
  C   C995      1.0  0.73882  0.31539  0.43394  1.0000
  C   C996      1.0  0.74876  0.33587  0.43402  1.0000
  C   C997      1.0  0.77156  0.33766  0.43375  1.0000
  C   C998      1.0  0.78428  0.31850  0.43321  1.0000
  C   C999      1.0  0.77436  0.29802  0.43340  1.0000
  H   H1712     1.0  0.72131  0.31445  0.43422  1.0000
  H   H1713     1.0  0.73864  0.35048  0.43436  1.0000
  H   H1714     1.0  0.80179  0.31946  0.43267  1.0000
  N   N53       1.0  0.68646  0.06439  0.41146  1.0000
  C   C1000     1.0  0.70788  0.05675  0.40149  1.0000
  C   C1001     1.0  0.67121  0.07100  0.39350  1.0000
  C   C1002     1.0  0.69072  0.08447  0.42407  1.0000
  C   C1003     1.0  0.67631  0.04760  0.42673  1.0000
  C   C1004     1.0  0.68095  0.02329  0.42178  1.0000
  C   C1005     1.0  0.72689  0.05390  0.41744  1.0000
  C   C1006     1.0  0.66569  0.05326  0.37740  1.0000
  C   C1007     1.0  0.65091  0.06239  0.35960  1.0000
  C   C1008     1.0  0.77948  0.38288  0.49079  1.0000
  C   C1009     1.0  0.74579  0.04056  0.40766  1.0000
  H   H1715     1.0  0.71333  0.06838  0.38838  1.0000
  H   H1716     1.0  0.70617  0.04127  0.39317  1.0000
  H   H1717     1.0  0.65527  0.07676  0.40034  1.0000
  H   H1718     1.0  0.67799  0.08496  0.38384  1.0000
  H   H1719     1.0  0.70055  0.09604  0.41396  1.0000
  H   H1720     1.0  0.54218  0.21349  0.41881  1.0000
  H   H1721     1.0  0.68174  0.04954  0.44364  1.0000
  H   H1722     1.0  0.65835  0.05027  0.42772  1.0000
  H   H1723     1.0  0.69810  0.01870  0.42514  1.0000
  H   H1724     1.0  0.67823  0.01961  0.40467  1.0000
  H   H1725     1.0  0.73321  0.07005  0.42121  1.0000
  H   H1726     1.0  0.72153  0.04585  0.43291  1.0000
  H   H1727     1.0  0.66204  0.10594  0.41932  1.0000
  H   H1728     1.0  0.68055  0.04645  0.36934  1.0000
  H   H1729     1.0  0.65666  0.04009  0.38590  1.0000
  H   H1730     1.0  0.65856  0.07615  0.35056  1.0000
  H   H1731     1.0  0.79210  0.46048  0.30058  1.0000
  H   H1732     1.0  0.63504  0.06801  0.36668  1.0000
  H   H1733     1.0  0.54622  0.07020  0.30665  1.0000
  H   H1734     1.0  0.68193  0.01155  0.34589  1.0000
  H   H1735     1.0  0.59369  0.20274  0.46633  1.0000
  H   H1736     1.0  0.74078  0.02369  0.40503  1.0000
  H   H1737     1.0  0.75138  0.04796  0.39190  1.0000
  H   H1738     1.0  0.75959  0.03996  0.41889  1.0000
  N   N54       1.0  0.80316  0.12801  0.28187  1.0000
  C   C1010     1.0  0.54899  0.08057  0.29183  1.0000
  C   C1011     1.0  0.79894  0.14566  0.29807  1.0000
  C   C1012     1.0  0.81390  0.10895  0.29372  1.0000
  H   H1739     1.0  0.58187  0.23824  0.46653  1.0000
  H   H1740     1.0  0.60178  0.10312  0.25773  1.0000
  C   C1013     1.0  0.61127  0.04592  0.30798  1.0000
  C   C1014     1.0  0.80181  0.10036  0.31446  1.0000
  C   C1015     1.0  0.78809  0.16698  0.28942  1.0000
  C   C1016     1.0  0.78601  0.18375  0.30723  1.0000
  H   H1741     1.0  0.68854  0.12545  0.44146  1.0000
  C   C1017     1.0  0.66656  0.00845  0.43590  1.0000
  C   C1018     1.0  0.81150  0.07852  0.32226  1.0000
  C   C1019     1.0  0.77451  0.13225  0.25130  1.0000
  H   H1742     1.0  0.59171  0.07009  0.27755  1.0000
  H   H1743     1.0  0.78775  0.13998  0.31141  1.0000
  H   H1744     1.0  0.81439  0.14972  0.30588  1.0000
  H   H1745     1.0  0.83059  0.11308  0.29853  1.0000
  H   H1746     1.0  0.81594  0.09489  0.28280  1.0000
  H   H1747     1.0  0.75793  0.39388  0.46496  1.0000
  H   H1748     1.0  0.76864  0.12251  0.28514  1.0000
  H   H1749     1.0  0.60438  0.08832  0.29433  1.0000
  H   H1750     1.0  0.53383  0.11208  0.32087  1.0000
  H   H1751     1.0  0.62135  0.17364  0.46238  1.0000
  H   H1752     1.0  0.56720  0.14428  0.33614  1.0000
  H   H1753     1.0  0.78434  0.09840  0.31138  1.0000
  H   H1754     1.0  0.80329  0.11179  0.32792  1.0000
  S   S238      1.0  0.72667  0.01935  0.35857  1.0000
  H   H1755     1.0  0.53464  0.09196  0.29131  1.0000
  H   H1756     1.0  0.77792  0.19880  0.30078  1.0000
  H   H1757     1.0  0.77604  0.17741  0.32120  1.0000
  H   H1758     1.0  0.80230  0.18791  0.31296  1.0000
  H   H1759     1.0  0.57916  0.12496  0.28132  1.0000
  H   H1760     1.0  0.77111  0.30671  0.48006  1.0000
  C   C1020     1.0  0.61176  0.17895  0.44810  1.0000
  C   C1021     1.0  0.55230  0.13458  0.33815  1.0000
  H   H1761     1.0  0.72258  0.48570  0.33106  1.0000
  H   H1762     1.0  0.61209  0.03335  0.32121  1.0000
  H   H1763     1.0  0.82911  0.07986  0.32524  1.0000
  H   H1764     1.0  0.80322  0.07328  0.33768  1.0000
  H   H1765     1.0  0.80919  0.06592  0.31005  1.0000
  H   H1766     1.0  0.77535  0.15012  0.25176  1.0000
  H   H1767     1.0  0.56213  0.20721  0.39806  1.0000
  H   H1768     1.0  0.64916  0.01144  0.43224  1.0000
  C   C1022     1.0  0.92264  0.44861  0.41484  1.0000
  H   H1769     1.0  0.58632  0.27648  0.41214  1.0000
  C   C1023     1.0  0.91043  0.45423  0.43594  1.0000
  H   H1770     1.0  0.92616  0.47901  0.33161  1.0000
  H   H1771     1.0  0.70077  0.08021  0.43839  1.0000
  C   C1024     1.0  0.82828  0.11816  0.24910  1.0000
  H   H1772     1.0  0.79894  0.01144  0.26059  1.0000
  H   H1773     1.0  0.57621  0.19879  0.43094  1.0000
  Fe  Fe120     1.0  0.55332  0.21677  0.24962  1.0000
  H   H1774     1.0  0.52559  0.24193  0.39424  1.0000
  C   C1025     1.0  0.60347  0.20231  0.45095  1.0000
  H   H1775     1.0  0.78430  0.46715  0.32768  1.0000
  H   H1776     1.0  0.61142  0.24596  0.44372  1.0000
  C   C1026     1.0  0.55066  0.22426  0.46016  1.0000
  H   H1777     1.0  0.54731  0.13199  0.30411  1.0000
  C   C1027     1.0  0.91034  0.40873  0.49310  1.0000
  C   C1028     1.0  0.91012  0.47141  0.33019  1.0000
  H   H1778     1.0  0.55341  0.12412  0.35305  1.0000
  H   H1779     1.0  0.77128  0.00537  0.25507  1.0000
  C   C1029     1.0  0.59597  0.27270  0.42676  1.0000
  H   H1780     1.0  0.56326  0.25558  0.45283  1.0000
  S   S239      1.0  0.63788  0.24567  0.47985  1.0000
  C   C1030     1.0  0.79590  0.06320  0.24793  1.0000
  H   H1781     1.0  0.84089  0.29609  0.48247  1.0000
  C   C1031     1.0  0.58970  0.21027  0.43145  1.0000
  C   C1032     1.0  0.61698  0.28525  0.42422  1.0000
  C   C1033     1.0  0.67036  0.09714  0.43284  1.0000
  H   H1782     1.0  0.82019  0.47594  0.33854  1.0000
  H   H1783     1.0  0.62677  0.28300  0.43903  1.0000
  H   H1784     1.0  0.64382  0.19883  0.48837  1.0000
  H   H1785     1.0  0.55644  0.25329  0.41615  1.0000
  C   C1034     1.0  0.76874  0.36057  0.49484  1.0000
  H   H1786     1.0  0.98623  0.42138  0.36942  1.0000
  H   H1787     1.0  0.95811  0.34651  0.46736  1.0000
  H   H1788     1.0  0.61313  0.30283  0.42185  1.0000
  N   N55       1.0  0.91801  0.42913  0.37846  1.0000
  C   C1035     1.0  0.90586  0.41056  0.36953  1.0000
  C   C1036     1.0  0.94190  0.42289  0.37898  1.0000
  C   C1037     1.0  0.91012  0.43209  0.40168  1.0000
  C   C1038     1.0  0.91428  0.45027  0.36589  1.0000
  C   C1039     1.0  0.91026  0.44888  0.34120  1.0000
  C   C1040     1.0  0.88077  0.41237  0.37204  1.0000
  H   H1789     1.0  0.57700  0.24305  0.39811  1.0000
  C   C1041     1.0  0.95354  0.41831  0.35695  1.0000
  H   H1790     1.0  0.70258  0.13846  0.28212  1.0000
  H   H1791     1.0  0.83343  0.14302  0.27224  1.0000
  C   C1042     1.0  0.86978  0.39600  0.35810  1.0000
  C   C1043     1.0  0.56863  0.10444  0.31493  1.0000
  H   H1792     1.0  0.91095  0.39499  0.37772  1.0000
  H   H1793     1.0  0.91006  0.40816  0.35217  1.0000
  C   C1044     1.0  0.55211  0.22052  0.40531  1.0000
  H   H1794     1.0  0.55468  0.11607  0.27079  1.0000
  H   H1795     1.0  0.91054  0.41627  0.41088  1.0000
  H   H1796     1.0  0.89275  0.43769  0.40216  1.0000
  H   H1797     1.0  0.89983  0.45936  0.37268  1.0000
  H   H1798     1.0  0.94431  0.40828  0.38981  1.0000
  H   H1799     1.0  0.89422  0.44181  0.33848  1.0000
  H   H1800     1.0  0.92268  0.43868  0.33279  1.0000
  H   H1801     1.0  0.87592  0.40879  0.38918  1.0000
  H   H1802     1.0  0.87447  0.42891  0.36772  1.0000
  H   H1803     1.0  0.92508  0.46394  0.40536  1.0000
  H   H1804     1.0  0.59207  0.06744  0.32749  1.0000
  H   H1805     1.0  0.94513  0.40600  0.34776  1.0000
  H   H1806     1.0  0.95469  0.43357  0.34709  1.0000
  C   C1045     1.0  0.56693  0.23869  0.41286  1.0000
  H   H1807     1.0  0.73302  0.46657  0.29666  1.0000
  H   H1808     1.0  0.55447  0.20675  0.45833  1.0000
  H   H1809     1.0  0.79759  0.17430  0.27568  1.0000
  S   S240      1.0  0.62119  0.16833  0.24989  1.0000
  C   C1046     1.0  0.58411  0.10443  0.25445  1.0000
  H   H1810     1.0  0.85187  0.39754  0.36052  1.0000
  H   H1811     1.0  0.87382  0.39902  0.34063  1.0000
  H   H1812     1.0  0.87500  0.37919  0.36292  1.0000
  H   H1813     1.0  0.63950  0.19743  0.28265  1.0000
  H   H1814     1.0  0.92820  0.46114  0.36792  1.0000
  H   H1815     1.0  0.76354  0.43709  0.32351  1.0000
  C   C1047     1.0  0.52653  0.05338  0.27290  1.0000
  C   C1048     1.0  0.82943  0.30916  0.47691  1.0000
  C   C1049     1.0  0.76681  0.49230  0.28091  1.0000
  C   C1050     1.0  0.53677  0.22909  0.38778  1.0000
  H   H1816     1.0  0.75963  0.49388  0.33574  1.0000
  N   N56       1.0  0.76353  0.48174  0.30313  1.0000
  C   C1051     1.0  0.74837  0.44715  0.32208  1.0000
  H   H1817     1.0  0.91954  0.46640  0.44470  1.0000
  C   C1052     1.0  0.74980  0.46200  0.30133  1.0000
  H   H1818     1.0  0.93875  0.44161  0.41937  1.0000
  H   H1819     1.0  0.67854  0.11206  0.25751  1.0000
  C   C1053     1.0  0.72944  0.43168  0.32133  1.0000
  H   H1820     1.0  0.64793  0.04951  0.34787  1.0000
  H   H1821     1.0  0.84117  0.10826  0.25727  1.0000
  C   C1054     1.0  0.67656  0.11415  0.44899  1.0000
  H   H1822     1.0  0.53816  0.14601  0.34009  1.0000
  H   H1823     1.0  0.95133  0.43596  0.38604  1.0000
  H   H1824     1.0  0.56120  0.05472  0.27020  1.0000
  H   H1825     1.0  0.77136  0.16389  0.28428  1.0000
  C   C1055     1.0  0.81916  0.13588  0.26459  1.0000
  C   C1056     1.0  0.97681  0.40976  0.36022  1.0000
  C   C1057     1.0  0.63020  0.19857  0.29828  1.0000
  H   H1826     1.0  0.62248  0.17779  0.43338  1.0000
  H   H1827     1.0  0.66908  0.01105  0.45340  1.0000
  C   C1058     1.0  0.66425  0.11947  0.26510  1.0000
  H   H1828     1.0  0.82557  0.04952  0.26087  1.0000
  H   H1829     1.0  0.90884  0.43952  0.44656  1.0000
  H   H1830     1.0  0.97681  0.39387  0.36915  1.0000
  H   H1831     1.0  0.57661  0.04988  0.31113  1.0000
  H   H1832     1.0  0.58699  0.27906  0.44115  1.0000
  H   H1833     1.0  0.71581  0.16416  0.27991  1.0000
  H   H1834     1.0  0.66190  0.12381  0.45404  1.0000
  H   H1835     1.0  0.54618  0.23579  0.37359  1.0000
  H   H1836     1.0  0.61124  0.24310  0.41526  1.0000
  N   N57       1.0  0.58139  0.23355  0.43192  1.0000
  H   H1837     1.0  0.71372  0.44094  0.32101  1.0000
  H   H1838     1.0  0.73106  0.42148  0.30677  1.0000
  H   H1839     1.0  0.72939  0.42084  0.33603  1.0000
  S   S241      1.0  0.51777  0.14301  0.26935  1.0000
  C   C1059     1.0  0.79011  0.48779  0.38325  1.0000
  C   C1060     1.0  0.54927  0.12082  0.31827  1.0000
  H   H1840     1.0  0.68365  0.10624  0.46367  1.0000
  N   N58       1.0  0.68203  0.19194  0.33334  1.0000
  C   C1061     1.0  0.67413  0.17553  0.35016  1.0000
  C   C1062     1.0  0.69845  0.18093  0.31840  1.0000
  C   C1063     1.0  0.69370  0.20924  0.34509  1.0000
  C   C1064     1.0  0.66383  0.20265  0.32061  1.0000
  C   C1065     1.0  0.64356  0.18887  0.31680  1.0000
  C   C1066     1.0  0.66034  0.18509  0.36916  1.0000
  C   C1067     1.0  0.70530  0.22658  0.33054  1.0000
  C   C1068     1.0  0.69024  0.16207  0.30503  1.0000
  H   H1841     1.0  0.62673  0.27968  0.40988  1.0000
  H   H1842     1.0  0.83123  0.46861  0.31219  1.0000
  C   C1069     1.0  0.64670  0.16792  0.38103  1.0000
  C   C1070     1.0  0.71281  0.24535  0.34391  1.0000
  H   H1843     1.0  0.68819  0.16664  0.35743  1.0000
  H   H1844     1.0  0.66475  0.16268  0.34284  1.0000
  H   H1845     1.0  0.70503  0.19274  0.30613  1.0000
  H   H1846     1.0  0.71260  0.17465  0.32787  1.0000
  H   H1847     1.0  0.70606  0.20168  0.35602  1.0000
  H   H1848     1.0  0.68208  0.21836  0.35584  1.0000
  H   H1849     1.0  0.65742  0.21752  0.32876  1.0000
  H   H1850     1.0  0.67021  0.20868  0.30454  1.0000
  H   H1851     1.0  0.63294  0.18847  0.33165  1.0000
  H   H1852     1.0  0.64769  0.17189  0.31275  1.0000
  H   H1853     1.0  0.67115  0.19213  0.38111  1.0000
  H   H1854     1.0  0.64931  0.19817  0.36318  1.0000
  H   H1855     1.0  0.69434  0.23342  0.31795  1.0000
  H   H1856     1.0  0.72004  0.21941  0.32248  1.0000
  H   H1857     1.0  0.68335  0.14897  0.31558  1.0000
  H   H1858     1.0  0.67788  0.16815  0.29344  1.0000
  H   H1859     1.0  0.77139  0.41524  0.47817  1.0000
  H   H1860     1.0  0.83901  0.32233  0.46906  1.0000
  H   H1861     1.0  0.62584  0.21583  0.30110  1.0000
  H   H1862     1.0  0.72179  0.14537  0.30218  1.0000
  H   H1863     1.0  0.59797  0.16786  0.44681  1.0000
  H   H1864     1.0  0.63475  0.16131  0.36996  1.0000
  H   H1865     1.0  0.65730  0.15454  0.38746  1.0000
  H   H1866     1.0  0.63771  0.17542  0.39488  1.0000
  H   H1867     1.0  0.72118  0.25740  0.33314  1.0000
  H   H1868     1.0  0.69870  0.25368  0.35202  1.0000
  H   H1869     1.0  0.72435  0.23936  0.35640  1.0000
  H   H1870     1.0  0.56716  0.09261  0.32877  1.0000
  C   C1071     1.0  0.70882  0.15196  0.29151  1.0000
  H   H1871     1.0  0.59946  0.20759  0.41624  1.0000
  N   N59       1.0  0.56958  0.09305  0.29351  1.0000
  C   C1072     1.0  0.82395  0.48207  0.32178  1.0000
  H   H1872     1.0  0.61783  0.21239  0.45273  1.0000
  H   H1873     1.0  0.81213  0.14940  0.25461  1.0000
  H   H1874     1.0  0.89727  0.48203  0.33765  1.0000
  C   C1073     1.0  0.54415  0.22751  0.48398  1.0000
  H   H1875     1.0  0.53633  0.22888  0.45035  1.0000
  H   H1876     1.0  0.65870  0.08603  0.44111  1.0000
  C   C1074     1.0  0.75818  0.31306  0.49123  1.0000
  H   H1877     1.0  0.61504  0.18942  0.29706  1.0000
  H   H1878     1.0  0.73496  0.48614  0.26671  1.0000
  C   C1075     1.0  0.59094  0.06038  0.31123  1.0000
  H   H1879     1.0  0.74639  0.45678  0.33697  1.0000
  H   H1880     1.0  0.89398  0.46117  0.43254  1.0000
  H   H1881     1.0  0.81869  0.30232  0.46478  1.0000
  H   H1882     1.0  0.78280  0.10321  0.26934  1.0000
  H   H1883     1.0  0.61167  0.14503  0.29093  1.0000
  C   C1076     1.0  0.83491  0.49293  0.38189  1.0000
  H   H1884     1.0  0.79412  0.33368  0.47342  1.0000
  C   C1077     1.0  0.54732  0.06644  0.27168  1.0000
  H   H1885     1.0  0.61093  0.03763  0.29223  1.0000
  C   C1078     1.0  0.58965  0.07840  0.29321  1.0000
  H   H1886     1.0  0.52655  0.04207  0.28725  1.0000
  H   H1887     1.0  0.97059  0.35020  0.49307  1.0000
  H   H1888     1.0  0.54655  0.07695  0.25681  1.0000
  H   H1889     1.0  0.81159  0.35082  0.48636  1.0000
  H   H1890     1.0  0.98513  0.40739  0.34422  1.0000
  C   C1079     1.0  0.97172  0.34101  0.47783  1.0000
  H   H1891     1.0  0.90673  0.47001  0.31270  1.0000
  H   H1892     1.0  0.53982  0.24482  0.48686  1.0000
  C   C1080     1.0  0.80080  0.33688  0.48952  1.0000
  H   H1893     1.0  0.99324  0.33592  0.45056  1.0000
  H   H1894     1.0  0.74904  0.40189  0.49188  1.0000
  H   H1895     1.0  0.99364  0.36265  0.46168  1.0000
  H   H1896     1.0  0.52542  0.04371  0.25807  1.0000
  H   H1897     1.0  0.77272  0.48575  0.38401  1.0000
  C   C1081     1.0  0.81817  0.05727  0.24685  1.0000
  H   H1898     1.0  0.73745  0.28644  0.48414  1.0000
  H   H1899     1.0  0.73977  0.13336  0.25892  1.0000
  H   H1900     1.0  0.77646  0.48116  0.27019  1.0000
  C   C1082     1.0  0.68577  0.00087  0.35954  1.0000
  H   H1901     1.0  0.55768  0.22229  0.49468  1.0000
  H   H1902     1.0  0.52983  0.21758  0.48845  1.0000
  H   H1903     1.0  0.83603  0.49505  0.32268  1.0000
  H   H1904     1.0  0.85228  0.49512  0.38140  1.0000
  H   H1905     1.0  0.89238  0.41038  0.49490  1.0000
  H   H1906     1.0  0.57911  0.08887  0.24789  1.0000
  C   C1083     1.0  0.75115  0.12674  0.24636  1.0000
  C   C1084     1.0  0.91495  0.40133  0.57572  1.0000
  H   H1907     1.0  0.57301  0.10271  0.69918  1.0000
  Fe  Fe121     1.0  0.56592  0.17975  0.57477  1.0000
  S   S242      1.0  0.57752  0.16863  0.60776  1.0000
  S   S243      1.0  0.59196  0.17929  0.54728  1.0000
  Fe  Fe122     1.0  0.51819  0.18100  0.59084  1.0000
  S   S244      1.0  0.52702  0.17032  0.62481  1.0000
  Fe  Fe123     1.0  0.55424  0.19409  0.62166  1.0000
  S   S245      1.0  0.56873  0.21302  0.64967  1.0000
  Fe  Fe124     1.0  0.54968  0.14585  0.60874  1.0000
  S   S246      1.0  0.54811  0.11034  0.62085  1.0000
  S   S247      1.0  0.54431  0.20649  0.58843  1.0000
  S   S248      1.0  0.53920  0.15527  0.57497  1.0000
  Fe  Fe125     1.0  0.87759  0.46110  0.62027  1.0000
  S   S249      1.0  0.91256  0.46914  0.62528  1.0000
  S   S250      1.0  0.86593  0.46335  0.58507  1.0000
  Fe  Fe126     1.0  0.86757  0.45760  0.66985  1.0000
  S   S251      1.0  0.90207  0.46556  0.67754  1.0000
  S   S252      1.0  0.84530  0.44541  0.69821  1.0000
  H   H1908     1.0  0.90110  0.35426  0.68419  1.0000
  Fe  Fe127     1.0  0.91256  0.44279  0.65131  1.0000
  S   S253      1.0  0.93997  0.41681  0.65097  1.0000
  C   C1085     1.0  0.92577  0.47259  0.56153  1.0000
  S   S254      1.0  0.87828  0.43321  0.64463  1.0000
  S   S255      1.0  0.54615  0.29271  0.71323  1.0000
  H   H1909     1.0  0.65150  0.21719  0.63236  1.0000
  S   S256      1.0  0.61491  0.03278  0.64582  1.0000
  C   C1086     1.0  0.95857  0.40722  0.67097  1.0000
  C   C1087     1.0  0.97238  0.38926  0.66636  1.0000
  H   H1910     1.0  0.75162  0.46526  0.66098  1.0000
  H   H1911     1.0  0.77233  0.01222  0.74209  1.0000
  C   C1088     1.0  0.97415  0.40790  0.70685  1.0000
  C   C1089     1.0  0.95978  0.41668  0.69125  1.0000
  H   H1912     1.0  0.97170  0.38182  0.65072  1.0000
  H   H1913     1.0  0.53716  0.10031  0.69631  1.0000
  C   C1090     1.0  0.88009  0.37032  0.72345  1.0000
  H   H1914     1.0  0.94977  0.43084  0.69484  1.0000
  C   C1091     1.0  0.82204  0.45486  0.71373  1.0000
  C   C1092     1.0  0.81105  0.47455  0.70902  1.0000
  C   C1093     1.0  0.79281  0.48122  0.72191  1.0000
  H   H1915     1.0  0.96098  0.35956  0.72795  1.0000
  S   S257      1.0  0.62606  0.36431  0.74404  1.0000
  H   H1916     1.0  0.80649  0.36165  0.52155  1.0000
  H   H1917     1.0  0.99457  0.42168  0.55211  1.0000
  C   C1094     1.0  0.56713  0.08903  0.62736  1.0000
  C   C1095     1.0  0.58960  0.09182  0.62628  1.0000
  C   C1096     1.0  0.60391  0.07451  0.63223  1.0000
  C   C1097     1.0  0.59599  0.05417  0.63917  1.0000
  C   C1098     1.0  0.57351  0.05137  0.64015  1.0000
  C   C1099     1.0  0.55922  0.06869  0.63427  1.0000
  H   H1918     1.0  0.59594  0.10725  0.62079  1.0000
  H   H1919     1.0  0.62126  0.07685  0.63131  1.0000
  H   H1920     1.0  0.56712  0.03588  0.64550  1.0000
  H   H1921     1.0  0.54186  0.06633  0.63519  1.0000
  C   C1100     1.0  0.56218  0.23560  0.66678  1.0000
  C   C1101     1.0  0.54275  0.24785  0.66534  1.0000
  C   C1102     1.0  0.53825  0.26516  0.67960  1.0000
  C   C1103     1.0  0.55310  0.27077  0.69543  1.0000
  C   C1104     1.0  0.57259  0.25859  0.69677  1.0000
  C   C1105     1.0  0.57698  0.24114  0.68267  1.0000
  H   H1922     1.0  0.53108  0.24391  0.65337  1.0000
  H   H1923     1.0  0.52309  0.27431  0.67833  1.0000
  H   H1924     1.0  0.58418  0.26248  0.70884  1.0000
  H   H1925     1.0  0.59195  0.23178  0.68427  1.0000
  H   H1926     1.0  0.77675  0.31103  0.52017  1.0000
  C   C1106     1.0  0.91920  0.37714  0.72550  1.0000
  C   C1107     1.0  0.61989  0.19042  0.51341  1.0000
  C   C1108     1.0  0.60303  0.19783  0.52745  1.0000
  C   C1109     1.0  0.59649  0.21972  0.52604  1.0000
  C   C1110     1.0  0.60724  0.23409  0.51132  1.0000
  H   H1927     1.0  0.89778  0.42060  0.53434  1.0000
  H   H1928     1.0  0.62506  0.17352  0.51425  1.0000
  H   H1929     1.0  0.58339  0.22564  0.53647  1.0000
  H   H1930     1.0  0.52856  0.36245  0.69369  1.0000
  C   C1111     1.0  0.85219  0.41636  0.52992  1.0000
  C   C1112     1.0  0.85283  0.43880  0.52600  1.0000
  C   C1113     1.0  0.85652  0.45285  0.54318  1.0000
  C   C1114     1.0  0.86007  0.44474  0.56442  1.0000
  C   C1115     1.0  0.85941  0.42229  0.56834  1.0000
  C   C1116     1.0  0.85538  0.40826  0.55123  1.0000
  H   H1931     1.0  0.85032  0.44535  0.50978  1.0000
  H   H1932     1.0  0.85687  0.47017  0.53991  1.0000
  H   H1933     1.0  0.86193  0.41576  0.58455  1.0000
  H   H1934     1.0  0.85487  0.39095  0.55451  1.0000
  C   C1117     1.0  0.69301  0.41045  0.71048  1.0000
  H   H1935     1.0  0.77921  0.45496  0.66290  1.0000
  H   H1936     1.0  0.56632  0.24501  0.56832  1.0000
  C   C1118     1.0  0.69571  0.46406  0.72190  1.0000
  C   C1119     1.0  0.52158  0.34678  0.68931  1.0000
  H   H1937     1.0  0.59977  0.25943  0.60097  1.0000
  H   H1938     1.0  0.52840  0.13710  0.66242  1.0000
  C   C1120     1.0  0.84052  0.36021  0.71953  1.0000
  C   C1121     1.0  0.71437  0.42084  0.70157  1.0000
  C   C1122     1.0  0.63702  0.20336  0.58637  1.0000
  C   C1123     1.0  0.89972  0.38934  0.69229  1.0000
  H   H1939     1.0  0.62527  0.18990  0.58592  1.0000
  H   H1940     1.0  0.91968  0.40164  0.53464  1.0000
  H   H1941     1.0  0.70123  0.43527  0.74244  1.0000
  C   C1124     1.0  0.62447  0.22674  0.49767  1.0000
  C   C1125     1.0  0.94808  0.34732  0.72941  1.0000
  H   H1942     1.0  0.88567  0.45148  0.72587  1.0000
  C   C1126     1.0  0.68471  0.39392  0.69490  1.0000
  H   H1943     1.0  0.65216  0.01748  0.61583  1.0000
  H   H1944     1.0  0.66174  0.21705  0.56410  1.0000
  H   H1945     1.0  0.58750  0.12304  0.74124  1.0000
  H   H1946     1.0  0.89988  0.39698  0.56754  1.0000
  H   H1947     1.0  0.62585  0.22580  0.66285  1.0000
  C   C1127     1.0  0.91151  0.39629  0.59994  1.0000
  H   H1948     1.0  0.58000  0.23900  0.60613  1.0000
  H   H1949     1.0  0.60226  0.25104  0.51060  1.0000
  C   C1128     1.0  0.58918  0.05110  0.57541  1.0000
  H   H1950     1.0  0.64176  0.20145  0.66854  1.0000
  H   H1951     1.0  0.64430  0.24941  0.56153  1.0000
  H   H1952     1.0  0.53517  0.33533  0.68503  1.0000
  H   H1953     1.0  0.70973  0.43031  0.68667  1.0000
  H   H1954     1.0  0.84463  0.34845  0.70663  1.0000
  H   H1955     1.0  0.93245  0.38852  0.72134  1.0000
  H   H1956     1.0  0.51965  0.33399  0.72191  1.0000
  H   H1957     1.0  0.68921  0.45850  0.70648  1.0000
  H   H1958     1.0  0.73068  0.29930  0.50942  1.0000
  H   H1959     1.0  0.63591  0.21356  0.55177  1.0000
  H   H1960     1.0  0.89763  0.35967  0.64462  1.0000
  H   H1961     1.0  0.64019  0.19062  0.63074  1.0000
  H   H1962     1.0  0.61060  0.23117  0.62700  1.0000
  C   C1129     1.0  0.62894  0.20872  0.65809  1.0000
  H   H1963     1.0  0.90066  0.45679  0.54439  1.0000
  C   C1130     1.0  0.98705  0.38073  0.68182  1.0000
  H   H1964     1.0  0.92827  0.39057  0.56966  1.0000
  C   C1131     1.0  0.62100  0.02883  0.58488  1.0000
  Fe  Fe128     1.0  0.89970  0.49153  0.65099  1.0000
  H   H1965     1.0  0.91806  0.37601  0.74358  1.0000
  C   C1132     1.0  0.73393  0.40195  0.74321  1.0000
  C   C1133     1.0  0.57836  0.11684  0.70808  1.0000
  H   H1966     1.0  0.78260  0.32951  0.55241  1.0000
  H   H1967     1.0  0.58556  0.09611  0.57533  1.0000
  C   C1134     1.0  0.67656  0.46990  0.73708  1.0000
  C   C1135     1.0  0.76481  0.46103  0.67239  1.0000
  C   C1136     1.0  0.76131  0.02568  0.73650  1.0000
  C   C1137     1.0  0.91575  0.41915  0.53209  1.0000
  H   H1968     1.0  0.54520  0.17288  0.66659  1.0000
  C   C1138     1.0  0.73853  0.45189  0.70370  1.0000
  H   H1969     1.0  0.72067  0.45537  0.74448  1.0000
  H   H1970     1.0  0.89800  0.40654  0.60671  1.0000
  H   H1971     1.0  0.58656  0.05749  0.59204  1.0000
  H   H1972     1.0  0.70475  0.47916  0.71826  1.0000
  H   H1973     1.0  0.87642  0.36828  0.67735  1.0000
  H   H1974     1.0  0.62095  0.03802  0.60017  1.0000
  H   H1975     1.0  0.54797  0.13336  0.71738  1.0000
  H   H1976     1.0  0.87425  0.48645  0.71385  1.0000
  C   C1139     1.0  0.58421  0.01561  0.59297  1.0000
  H   H1977     1.0  0.69506  0.40206  0.72636  1.0000
  H   H1978     1.0  0.51602  0.20527  0.71063  1.0000
  H   H1979     1.0  0.88255  0.35431  0.71594  1.0000
  C   C1140     1.0  0.81432  0.44198  0.73142  1.0000
  C   C1141     1.0  0.79772  0.33560  0.54438  1.0000
  H   H1980     1.0  0.57291  0.05163  0.56795  1.0000
  N   N60       1.0  0.89789  0.38565  0.71662  1.0000
  H   H1981     1.0  0.57054  0.15031  0.71382  1.0000
  H   H1982     1.0  0.54912  0.10008  0.66925  1.0000
  H   H1983     1.0  0.93172  0.43067  0.58329  1.0000
  H   H1984     1.0  0.61315  0.02334  0.54490  1.0000
  H   H1985     1.0  0.84068  0.35166  0.73563  1.0000
  H   H1986     1.0  0.92656  0.39926  0.60880  1.0000
  C   C1142     1.0  0.53540  0.10646  0.67934  1.0000
  C   C1143     1.0  0.71114  0.44671  0.73245  1.0000
  H   H1987     1.0  0.85110  0.39047  0.73119  1.0000
  C   C1144     1.0  0.64753  0.20641  0.56346  1.0000
  H   H1988     1.0  0.66639  0.48301  0.72951  1.0000
  H   H1989     1.0  0.69671  0.38031  0.69288  1.0000
  H   H1990     1.0  0.56381  0.17658  0.68744  1.0000
  H   H1991     1.0  0.91636  0.39472  0.68763  1.0000
  H   H1992     1.0  0.67996  0.42301  0.71266  1.0000
  N   N61       1.0  0.92651  0.43275  0.54854  1.0000
  H   H1993     1.0  0.75546  0.41440  0.71898  1.0000
  N   N62       1.0  0.72627  0.43486  0.71686  1.0000
  H   H1994     1.0  0.66538  0.02067  0.58937  1.0000
  C   C1145     1.0  0.79182  0.35195  0.52575  1.0000
  H   H1995     1.0  0.77987  0.36358  0.53332  1.0000
  C   C1146     1.0  0.61114  0.14239  0.65400  1.0000
  H   H1996     1.0  0.57579  0.08728  0.54970  1.0000
  C   C1147     1.0  0.57595  0.25733  0.57630  1.0000
  H   H1997     1.0  0.52071  0.13564  0.69044  1.0000
  C   C1148     1.0  0.56223  0.13663  0.70636  1.0000
  C   C1149     1.0  0.52947  0.19998  0.69947  1.0000
  H   H1998     1.0  0.60100  0.10137  0.55058  1.0000
  H   H1999     1.0  0.55319  0.03406  0.59420  1.0000
  H   H2000     1.0  0.54489  0.20636  0.70533  1.0000
  H   H2001     1.0  0.82258  0.42672  0.73530  1.0000
  C   C1150     1.0  0.89430  0.36991  0.67798  1.0000
  H   H2002     1.0  0.95604  0.44021  0.53032  1.0000
  H   H2003     1.0  0.63166  0.03786  0.57314  1.0000
  C   C1151     1.0  0.60305  0.06782  0.56235  1.0000
  H   H2004     1.0  0.58714  0.02110  0.60963  1.0000
  H   H2005     1.0  0.60568  0.20455  0.61861  1.0000
  H   H2006     1.0  0.82648  0.35218  0.55447  1.0000
  H   H2007     1.0  0.68146  0.40173  0.67882  1.0000
  H   H2008     1.0  0.66852  0.17732  0.56524  1.0000
  H   H2009     1.0  0.89695  0.49375  0.55876  1.0000
  H   H2010     1.0  0.91346  0.42776  0.70658  1.0000
  H   H2011     1.0  0.75282  0.42913  0.67979  1.0000
  C   C1152     1.0  0.90299  0.37306  0.65471  1.0000
  C   C1153     1.0  0.59061  0.24657  0.59330  1.0000
  H   H2012     1.0  0.88066  0.36667  0.74125  1.0000
  C   C1154     1.0  0.59223  0.15251  0.66709  1.0000
  C   C1155     1.0  0.74264  0.42159  0.72977  1.0000
  H   H2013     1.0  0.58581  0.26620  0.56375  1.0000
  H   H2014     1.0  0.92454  0.46240  0.52867  1.0000
  H   H2015     1.0  0.61044  0.23413  0.56643  1.0000
  H   H2016     1.0  0.74541  0.46392  0.71459  1.0000
  H   H2017     1.0  0.89686  0.38866  0.64756  1.0000
  C   C1156     1.0  0.53056  0.17522  0.69874  1.0000
  C   C1157     1.0  0.58138  0.10956  0.73171  1.0000
  H   H2018     1.0  0.81434  0.33463  0.57503  1.0000
  C   C1158     1.0  0.81079  0.34646  0.56160  1.0000
  H   H2019     1.0  0.61796  0.07133  0.57123  1.0000
  H   H2020     1.0  0.95831  0.44167  0.55868  1.0000
  C   C1159     1.0  0.96218  0.40938  0.54735  1.0000
  H   H2021     1.0  0.56442  0.14218  0.65008  1.0000
  H   H2022     1.0  0.60779  0.06170  0.54609  1.0000
  C   C1160     1.0  0.59822  0.01856  0.55426  1.0000
  H   H2023     1.0  0.85569  0.38711  0.70263  1.0000
  N   N63       1.0  0.55456  0.14315  0.68396  1.0000
  C   C1161     1.0  0.63637  0.20790  0.63428  1.0000
  H   H2024     1.0  0.60674  0.14099  0.63678  1.0000
  H   H2025     1.0  0.92105  0.37290  0.65434  1.0000
  H   H2026     1.0  0.61555  0.12602  0.66076  1.0000
  C   C1162     1.0  0.53410  0.13157  0.67874  1.0000
  H   H2027     1.0  0.57644  0.12142  0.66603  1.0000
  H   H2028     1.0  0.62551  0.15282  0.65463  1.0000
  C   C1163     1.0  0.92797  0.35508  0.71710  1.0000
  H   H2029     1.0  0.59747  0.15449  0.68397  1.0000
  C   C1164     1.0  0.65587  0.18471  0.55465  1.0000
  H   H2030     1.0  0.58453  0.02560  0.54468  1.0000
  H   H2031     1.0  0.59457  0.12116  0.70123  1.0000
  H   H2032     1.0  0.64231  0.17328  0.55358  1.0000
  C   C1165     1.0  0.54930  0.16728  0.68332  1.0000
  C   C1166     1.0  0.75753  0.44351  0.68884  1.0000
  H   H2033     1.0  0.58882  0.16895  0.65997  1.0000
  C   C1167     1.0  0.89255  0.40705  0.72722  1.0000
  C   C1168     1.0  0.59054  0.08941  0.55933  1.0000
  H   H2034     1.0  0.95467  0.33197  0.72251  1.0000
  C   C1169     1.0  0.95092  0.43208  0.54590  1.0000
  H   H2035     1.0  0.55543  0.01516  0.57242  1.0000
  H   H2036     1.0  0.65055  0.19722  0.59656  1.0000
  C   C1170     1.0  0.64149  0.24173  0.59703  1.0000
  C   C1171     1.0  0.64245  0.25778  0.57712  1.0000
  C   C1172     1.0  0.78518  0.46839  0.73969  1.0000
  H   H2037     1.0  0.88882  0.40307  0.68690  1.0000
  H   H2038     1.0  0.77188  0.43903  0.69873  1.0000
  C   C1173     1.0  0.57148  0.13883  0.66631  1.0000
  C   C1174     1.0  0.66137  0.27316  0.57858  1.0000
  C   C1175     1.0  0.74435  0.29387  0.49858  1.0000
  Fe  Fe129     1.0  0.56063  0.31404  0.73952  1.0000
  H   H2039     1.0  0.75452  0.32950  0.52187  1.0000
  S   S258      1.0  0.56384  0.34985  0.73130  1.0000
  N   N64       1.0  0.59817  0.02801  0.57665  1.0000
  H   H2040     1.0  0.82386  0.36692  0.71685  1.0000
  H   H2041     1.0  0.80735  0.32144  0.53860  1.0000
  H   H2042     1.0  0.75118  0.43230  0.74086  1.0000
  H   H2043     1.0  0.63746  0.25194  0.61130  1.0000
  H   H2044     1.0  0.65828  0.23529  0.59981  1.0000
  H   H2045     1.0  0.59607  0.21429  0.58134  1.0000
  C   C1176     1.0  0.50834  0.33725  0.70843  1.0000
  H   H2046     1.0  0.92484  0.42054  0.73259  1.0000
  C   C1177     1.0  0.91957  0.42574  0.57141  1.0000
  C   C1178     1.0  0.90965  0.42494  0.72407  1.0000
  H   H2047     1.0  0.62733  0.26793  0.57639  1.0000
  H   H2048     1.0  0.75362  0.36349  0.50481  1.0000
  H   H2049     1.0  0.96104  0.40287  0.56429  1.0000
  H   H2050     1.0  0.66928  0.38714  0.70160  1.0000
  H   H2051     1.0  0.72543  0.40758  0.69561  1.0000
  H   H2052     1.0  0.80150  0.36051  0.56838  1.0000
  H   H2053     1.0  0.67711  0.26391  0.57829  1.0000
  H   H2054     1.0  0.66131  0.28476  0.56446  1.0000
  H   H2055     1.0  0.65987  0.28256  0.59369  1.0000
  H   H2056     1.0  0.56451  0.26907  0.58423  1.0000
  N   N65       1.0  0.62599  0.22315  0.59608  1.0000
  H   H2057     1.0  0.91322  0.45916  0.73018  1.0000
  C   C1179     1.0  0.61849  0.21695  0.61892  1.0000
  C   C1180     1.0  0.55934  0.01766  0.58961  1.0000
  S   S259      1.0  0.84784  0.39768  0.50895  1.0000
  H   H2058     1.0  0.84870  0.49379  0.72714  1.0000
  H   H2059     1.0  0.92114  0.46743  0.57832  1.0000
  H   H2060     1.0  0.98752  0.45297  0.73239  1.0000
  H   H2061     1.0  0.90417  0.43434  0.57640  1.0000
  C   C1181     1.0  0.91872  0.45599  0.54476  1.0000
  H   H2062     1.0  0.97466  0.41514  0.72260  1.0000
  C   C1182     1.0  0.63310  0.00686  0.58895  1.0000
  C   C1183     1.0  0.60601  0.22894  0.58328  1.0000
  C   C1184     1.0  0.90116  0.44631  0.73346  1.0000
  H   H2063     1.0  0.72724  0.46140  0.69308  1.0000
  H   H2064     1.0  0.66308  0.18732  0.53810  1.0000
  H   H2065     1.0  0.90734  0.37899  0.60251  1.0000
  C   C1185     1.0  0.79610  0.44865  0.74431  1.0000
  H   H2066     1.0  0.59337  0.09579  0.73248  1.0000
  H   H2067     1.0  0.61387  0.19946  0.66093  1.0000
  H   H2068     1.0  0.76942  0.47584  0.68082  1.0000
  S   S260      1.0  0.86447  0.48511  0.64501  1.0000
  C   C1186     1.0  0.98635  0.41061  0.54123  1.0000
  H   H2069     1.0  0.91582  0.34221  0.71907  1.0000
  H   H2070     1.0  0.78516  0.38977  0.50599  1.0000
  H   H2071     1.0  0.52632  0.20705  0.68305  1.0000
  H   H2072     1.0  0.50029  0.10212  0.68108  1.0000
  C   C1187     1.0  0.65481  0.01009  0.59971  1.0000
  C   C1188     1.0  0.92125  0.42448  0.50784  1.0000
  H   H2073     1.0  0.53268  0.16871  0.71552  1.0000
  H   H2074     1.0  0.87721  0.41433  0.72076  1.0000
  H   H2075     1.0  0.74559  0.01885  0.73203  1.0000
  H   H2076     1.0  0.95497  0.39782  0.53633  1.0000
  H   H2077     1.0  0.51205  0.10236  0.65385  1.0000
  C   C1189     1.0  0.85660  0.37868  0.71873  1.0000
  H   H2078     1.0  0.81655  0.48460  0.69543  1.0000
  H   H2079     1.0  0.72903  0.38912  0.73218  1.0000
  H   H2080     1.0  0.56576  0.10402  0.73911  1.0000
  C   C1190     1.0  0.98792  0.38992  0.70225  1.0000
  H   H2081     1.0  0.93305  0.35690  0.69973  1.0000
  H   H2082     1.0  0.76878  0.03362  0.72184  1.0000
  H   H2083     1.0  0.51129  0.34932  0.67491  1.0000
  N   N66       1.0  0.78272  0.34292  0.50540  1.0000
  H   H2084     1.0  0.51462  0.17018  0.69289  1.0000
  H   H2085     1.0  0.50194  0.32148  0.70366  1.0000
  C   C1191     1.0  0.76815  0.32409  0.51087  1.0000
  H   H2086     1.0  0.98861  0.41646  0.52413  1.0000
  H   H2087     1.0  0.66626  0.45557  0.74028  1.0000
  C   C1192     1.0  0.91493  0.49484  0.55729  1.0000
  H   H2088     1.0  0.75438  0.28127  0.50715  1.0000
  C   C1193     1.0  0.63061  0.20475  0.49871  1.0000
  H   H2089     1.0  0.88961  0.40450  0.74503  1.0000
  C   C1194     1.0  0.51462  0.09699  0.67096  1.0000
  H   H2090     1.0  0.63690  0.99912  0.57323  1.0000
  H   H2091     1.0  0.94360  0.47471  0.56058  1.0000
  H   H2092     1.0  0.80690  0.30360  0.50311  1.0000
  H   H2093     1.0  0.93901  0.42314  0.50445  1.0000
  H   H2094     1.0  0.82753  0.32296  0.50837  1.0000
  H   H2095     1.0  0.52921  0.00364  0.60156  1.0000
  H   H2096     1.0  0.55024  0.00363  0.62131  1.0000
  H   H2097     1.0  0.91534  0.44104  0.50310  1.0000
  H   H2098     1.0  0.51600  0.07899  0.67155  1.0000
  C   C1195     1.0  0.54695  0.00131  0.60390  1.0000
  H   H2099     1.0  0.58879  0.99813  0.59362  1.0000
  H   H2100     1.0  0.71378  0.99628  0.72528  1.0000
  H   H2101     1.0  0.91543  0.39168  0.49702  1.0000
  H   H2102     1.0  0.49780  0.36652  0.72435  1.0000
  H   H2103     1.0  0.99415  0.39422  0.54293  1.0000
  Fe  Fe130     1.0  0.61100  0.99629  0.65317  1.0000
  H   H2104     1.0  0.87370  0.49581  0.74134  1.0000
  C   C1196     1.0  0.81597  0.31755  0.49625  1.0000
  Fe  Fe131     1.0  0.83508  0.11338  0.97512  1.0000
  S   S261      1.0  0.84585  0.14649  0.96370  1.0000
  Fe  Fe132     1.0  0.83627  0.09572  0.92853  1.0000
  S   S262      1.0  0.84781  0.12780  0.91455  1.0000
  S   S263      1.0  0.83729  0.06545  0.90707  1.0000
  Fe  Fe133     1.0  0.87042  0.12854  0.94259  1.0000
  S   S264      1.0  0.90703  0.13416  0.94517  1.0000
  Fe  Fe134     1.0  0.82216  0.14355  0.93676  1.0000
  S   S265      1.0  0.80063  0.17136  0.92192  1.0000
  S   S266      1.0  0.86055  0.09559  0.95544  1.0000
  S   S267      1.0  0.80963  0.11126  0.94934  1.0000
  Fe  Fe135     1.0  0.74132  0.46645  0.78534  1.0000
  H   H2105     1.0  0.90027  0.10254  0.87955  1.0000
  C   C1197     1.0  0.95569  0.09947  0.89076  1.0000
  Fe  Fe136     1.0  0.73194  0.43471  0.82404  1.0000
  S   S268      1.0  0.70174  0.45292  0.83502  1.0000
  S   S269      1.0  0.74361  0.40170  0.83751  1.0000
  Fe  Fe137     1.0  0.69421  0.45488  0.79944  1.0000
  S   S270      1.0  0.65956  0.44880  0.78908  1.0000
  Fe  Fe138     1.0  0.72072  0.48333  0.82870  1.0000
  S   S271      1.0  0.72340  0.43514  0.78873  1.0000
  S   S272      1.0  0.75198  0.46478  0.82007  1.0000
  H   H2106     1.0  0.82116  0.00660  0.85790  1.0000
  S   S273      1.0  0.57457  0.35769  0.78188  1.0000
  C   C1198     1.0  0.65068  0.36846  0.95979  1.0000
  H   H2107     1.0  0.75714  0.07452  0.77951  1.0000
  S   S274      1.0  0.53982  0.32076  0.76972  1.0000
  Fe  Fe139     1.0  0.54445  0.35621  0.76220  1.0000
  H   H2108     1.0  0.99473  0.04732  0.83958  1.0000
  Fe  Fe140     1.0  0.57148  0.32174  0.78750  1.0000
  S   S275      1.0  0.57451  0.31174  0.82326  1.0000
  H   H2109     1.0  0.68888  0.01355  0.81611  1.0000
  Fe  Fe141     1.0  0.69450  0.31903  0.92481  1.0000
  S   S276      1.0  0.70710  0.29116  0.90489  1.0000
  S   S277      1.0  0.70215  0.35496  0.92184  1.0000
  Fe  Fe142     1.0  0.66199  0.29131  0.95134  1.0000
  S   S278      1.0  0.67174  0.26142  0.93252  1.0000
  Fe  Fe143     1.0  0.70656  0.27099  0.93614  1.0000
  S   S279      1.0  0.73175  0.24667  0.95118  1.0000
  Fe  Fe144     1.0  0.67157  0.28332  0.90269  1.0000
  S   S280      1.0  0.65936  0.27384  0.86980  1.0000
  S   S281      1.0  0.69660  0.29994  0.95652  1.0000
  S   S282      1.0  0.65917  0.31217  0.92093  1.0000
  C   C1199     1.0  0.72430  0.01342  0.81401  1.0000
  H   H2110     1.0  0.69525  0.38611  0.95816  1.0000
  C   C1200     1.0  0.70295  0.00861  0.82618  1.0000
  C   C1201     1.0  0.59856  0.30176  0.83575  1.0000
  C   C1202     1.0  0.61453  0.28988  0.82431  1.0000
  C   C1203     1.0  0.63299  0.28143  0.83499  1.0000
  C   C1204     1.0  0.63587  0.28501  0.85714  1.0000
  C   C1205     1.0  0.61997  0.29703  0.86858  1.0000
  C   C1206     1.0  0.60132  0.30517  0.85797  1.0000
  H   H2111     1.0  0.61240  0.28675  0.80733  1.0000
  H   H2112     1.0  0.64507  0.27197  0.82605  1.0000
  H   H2113     1.0  0.62182  0.29969  0.88569  1.0000
  H   H2114     1.0  0.58888  0.31400  0.86706  1.0000
  C   C1207     1.0  0.73200  0.38902  0.86109  1.0000
  C   C1208     1.0  0.73649  0.36684  0.86536  1.0000
  C   C1209     1.0  0.72722  0.35611  0.88371  1.0000
  C   C1210     1.0  0.71362  0.36756  0.89816  1.0000
  C   C1211     1.0  0.70935  0.38977  0.89405  1.0000
  C   C1212     1.0  0.71831  0.40042  0.87551  1.0000
  H   H2115     1.0  0.74715  0.35792  0.85437  1.0000
  H   H2116     1.0  0.73092  0.33909  0.88689  1.0000
  H   H2117     1.0  0.69897  0.39881  0.90517  1.0000
  H   H2118     1.0  0.71485  0.41752  0.87250  1.0000
  C   C1213     1.0  0.65071  0.42429  0.77804  1.0000
  C   C1214     1.0  0.66533  0.40916  0.76884  1.0000
  H   H2119     1.0  0.55763  0.35948  0.86108  1.0000
  H   H2120     1.0  0.94394  0.34429  0.74686  1.0000
  H   H2121     1.0  0.56027  0.44436  0.77702  1.0000
  C   C1215     1.0  0.62834  0.42031  0.77776  1.0000
  H   H2122     1.0  0.73969  0.11840  0.81626  1.0000
  C   C1216     1.0  0.68546  0.42853  0.94644  1.0000
  H   H2123     1.0  0.72572  0.04602  0.82476  1.0000
  C   C1217     1.0  0.74351  0.06870  0.79005  1.0000
  C   C1218     1.0  0.81909  0.04955  0.89234  1.0000
  C   C1219     1.0  0.79651  0.05290  0.89326  1.0000
  C   C1220     1.0  0.78290  0.03951  0.88161  1.0000
  C   C1221     1.0  0.79158  0.02261  0.86884  1.0000
  C   C1222     1.0  0.81414  0.01937  0.86774  1.0000
  C   C1223     1.0  0.82774  0.03268  0.87945  1.0000
  H   H2124     1.0  0.78954  0.06576  0.90304  1.0000
  H   H2125     1.0  0.76550  0.04231  0.88256  1.0000
  H   H2126     1.0  0.88112  0.23759  0.92747  1.0000
  H   H2127     1.0  0.84516  0.02992  0.87852  1.0000
  C   C1224     1.0  0.92773  0.14754  0.92958  1.0000
  C   C1225     1.0  0.92358  0.15917  0.91026  1.0000
  C   C1226     1.0  0.94053  0.17008  0.89899  1.0000
  C   C1227     1.0  0.96192  0.16910  0.90658  1.0000
  C   C1228     1.0  0.96612  0.15716  0.92568  1.0000
  C   C1229     1.0  0.94911  0.14657  0.93713  1.0000
  H   H2128     1.0  0.90732  0.15985  0.90408  1.0000
  H   H2129     1.0  0.93708  0.17928  0.88424  1.0000
  H   H2130     1.0  0.98240  0.15645  0.93186  1.0000
  H   H2131     1.0  0.95254  0.13764  0.95205  1.0000
  C   C1230     1.0  0.78135  0.19201  0.93059  1.0000
  C   C1231     1.0  0.77739  0.19675  0.95246  1.0000
  C   C1232     1.0  0.76242  0.21359  0.95832  1.0000
  C   C1233     1.0  0.75093  0.22591  0.94253  1.0000
  C   C1234     1.0  0.75491  0.22118  0.92067  1.0000
  C   C1235     1.0  0.77006  0.20450  0.91480  1.0000
  H   H2132     1.0  0.78591  0.18748  0.96488  1.0000
  H   H2133     1.0  0.75965  0.21702  0.97529  1.0000
  H   H2134     1.0  0.74633  0.23038  0.90824  1.0000
  H   H2135     1.0  0.77294  0.20115  0.89782  1.0000
  H   H2136     1.0  0.51203  0.43217  0.83016  1.0000
  H   H2137     1.0  0.55618  0.41658  0.77018  1.0000
  H   H2138     1.0  0.74698  0.05551  0.74783  1.0000
  C   C1236     1.0  0.78794  0.04707  0.79920  1.0000
  H   H2139     1.0  0.72866  0.07168  0.78033  1.0000
  H   H2140     1.0  0.51881  0.33205  0.84858  1.0000
  H   H2141     1.0  0.68256  0.41186  0.76919  1.0000
  H   H2142     1.0  0.98942  0.16027  0.84493  1.0000
  H   H2143     1.0  0.91417  0.08153  0.89508  1.0000
  H   H2144     1.0  0.62856  0.35107  0.98281  1.0000
  H   H2145     1.0  0.68667  0.22108  0.95616  1.0000
  H   H2146     1.0  0.67786  0.43993  0.93444  1.0000
  H   H2147     1.0  0.96554  0.04999  0.83685  1.0000
  N   N67       1.0  0.67372  0.34172  0.83890  1.0000
  C   C1237     1.0  0.65567  0.34661  0.85527  1.0000
  C   C1238     1.0  0.66472  0.33158  0.81910  1.0000
  C   C1239     1.0  0.68912  0.32536  0.84940  1.0000
  C   C1240     1.0  0.68643  0.36155  0.83259  1.0000
  C   C1241     1.0  0.67336  0.38120  0.82325  1.0000
  C   C1242     1.0  0.66263  0.35681  0.87661  1.0000
  C   C1243     1.0  0.70774  0.31609  0.83457  1.0000
  C   C1244     1.0  0.64195  0.33971  0.81176  1.0000
  C   C1245     1.0  0.63703  0.33117  0.78953  1.0000
  C   C1246     1.0  0.68737  0.40115  0.82186  1.0000
  C   C1247     1.0  0.64294  0.36299  0.89091  1.0000
  C   C1248     1.0  0.72119  0.29876  0.84674  1.0000
  H   H2148     1.0  0.64706  0.33142  0.85974  1.0000
  H   H2149     1.0  0.64305  0.35768  0.84835  1.0000
  H   H2150     1.0  0.67629  0.33342  0.80500  1.0000
  H   H2151     1.0  0.66310  0.31374  0.82189  1.0000
  H   H2152     1.0  0.67990  0.31141  0.85629  1.0000
  H   H2153     1.0  0.69716  0.33243  0.86334  1.0000
  H   H2154     1.0  0.69565  0.36693  0.84660  1.0000
  H   H2155     1.0  0.69912  0.35768  0.82002  1.0000
  H   H2156     1.0  0.65882  0.38541  0.83338  1.0000
  H   H2157     1.0  0.66846  0.37791  0.80651  1.0000
  H   H2158     1.0  0.67274  0.34511  0.88614  1.0000
  H   H2159     1.0  0.67186  0.37178  0.87334  1.0000
  H   H2160     1.0  0.71897  0.32905  0.82913  1.0000
  H   H2161     1.0  0.70134  0.30844  0.82008  1.0000
  H   H2162     1.0  0.62926  0.33379  0.82343  1.0000
  H   H2163     1.0  0.64028  0.35758  0.81076  1.0000
  C   C1249     1.0  0.98177  0.12308  0.87025  1.0000
  C   C1250     1.0  0.61589  0.23245  0.96197  1.0000
  C   C1251     1.0  0.80600  0.04324  0.81549  1.0000
  H   H2164     1.0  0.73840  0.02052  0.94139  1.0000
  H   H2165     1.0  0.69241  0.40550  0.83826  1.0000
  H   H2166     1.0  0.70199  0.39813  0.81134  1.0000
  H   H2167     1.0  0.64856  0.36876  0.90663  1.0000
  H   H2168     1.0  0.63333  0.37633  0.88303  1.0000
  H   H2169     1.0  0.63252  0.34874  0.89405  1.0000
  H   H2170     1.0  0.72894  0.30583  0.86089  1.0000
  H   H2171     1.0  0.71078  0.28517  0.85245  1.0000
  H   H2172     1.0  0.73420  0.29216  0.83578  1.0000
  H   H2173     1.0  0.93582  0.09307  0.86238  1.0000
  H   H2174     1.0  0.70189  0.01729  0.84174  1.0000
  S   S283      1.0  0.98265  0.18331  0.89180  1.0000
  H   H2175     1.0  0.52341  0.37130  0.85455  1.0000
  H   H2176     1.0  0.81074  0.25927  0.92073  1.0000
  N   N68       1.0  0.74611  0.04476  0.79548  1.0000
  N   N69       1.0  0.66687  0.37460  0.97638  1.0000
  H   H2177     1.0  0.79248  0.03732  0.78486  1.0000
  C   C1252     1.0  0.85334  0.17581  0.87372  1.0000
  H   H2178     1.0  0.80261  0.05273  0.83033  1.0000
  H   H2179     1.0  0.88953  0.17815  0.94036  1.0000
  H   H2180     1.0  0.80754  0.02573  0.82010  1.0000
  H   H2181     1.0  0.50693  0.43249  0.87990  1.0000
  H   H2182     1.0  0.70121  0.42248  0.93939  1.0000
  H   H2183     1.0  0.49889  0.41190  0.84703  1.0000
  H   H2184     1.0  0.61689  0.43193  0.78476  1.0000
  H   H2185     1.0  0.64878  0.33749  0.77707  1.0000
  H   H2186     1.0  0.54827  0.43699  0.81479  1.0000
  H   H2187     1.0  0.63505  0.20382  0.96964  1.0000
  H   H2188     1.0  0.82478  0.20926  0.93212  1.0000
  C   C1253     1.0  0.52528  0.37595  0.83703  1.0000
  H   H2189     1.0  0.53413  0.40471  0.86656  1.0000
  C   C1254     1.0  0.99473  0.09456  0.89558  1.0000
  H   H2190     1.0  0.74671  0.02083  0.91314  1.0000
  C   C1255     1.0  0.75208  0.01681  0.92986  1.0000
  C   C1256     1.0  0.65758  0.39069  0.75881  1.0000
  C   C1257     1.0  0.53951  0.40283  0.81079  1.0000
  H   H2191     1.0  0.67239  0.19747  0.96365  1.0000
  H   H2192     1.0  0.86655  0.23842  0.90320  1.0000
  C   C1258     1.0  0.68796  0.23930  0.99458  1.0000
  C   C1259     1.0  0.53466  0.41173  0.84974  1.0000
  H   H2193     1.0  0.67791  0.41505  0.81499  1.0000
  H   H2194     1.0  0.73023  0.02789  0.76996  1.0000
  H   H2195     1.0  0.75713  0.40404  0.76924  1.0000
  H   H2196     1.0  0.92576  0.22776  0.88730  1.0000
  H   H2197     1.0  0.87934  0.17431  0.97974  1.0000
  C   C1260     1.0  0.63518  0.38685  0.75833  1.0000
  H   H2198     1.0  0.77363  0.04925  0.75752  1.0000
  H   H2199     1.0  0.91842  0.24079  0.91230  1.0000
  N   N70       1.0  0.97759  0.10038  0.87918  1.0000
  H   H2200     1.0  0.84697  0.25320  0.93743  1.0000
  H   H2201     1.0  0.96104  0.16120  0.85309  1.0000
  H   H2202     1.0  0.64657  0.22127  0.94888  1.0000
  H   H2203     1.0  0.83457  0.23609  0.95829  1.0000
  C   C1261     1.0  0.71324  0.18460  0.95511  1.0000
  H   H2204     1.0  0.81009  0.26656  0.94884  1.0000
  N   N71       1.0  0.54088  0.39432  0.83386  1.0000
  H   H2205     1.0  0.84655  0.17948  0.85749  1.0000
  H   H2206     1.0  0.67225  0.34127  0.98748  1.0000
  H   H2207     1.0  0.53316  0.43387  0.77773  1.0000
  H   H2208     1.0  0.63781  0.31317  0.78967  1.0000
  H   H2209     1.0  0.76361  0.04646  0.82545  1.0000
  H   H2210     1.0  0.71074  0.37197  0.99073  1.0000
  H   H2211     1.0  0.82979  0.19590  0.89038  1.0000
  H   H2212     1.0  0.62046  0.33676  0.78507  1.0000
  C   C1262     1.0  0.51628  0.33658  0.83126  1.0000
  H   H2213     1.0  0.60654  0.22388  0.94983  1.0000
  C   C1263     1.0  0.75774  0.04225  0.75432  1.0000
  H   H2214     1.0  0.95435  0.11194  0.90345  1.0000
  H   H2215     1.0  0.64558  0.33388  0.96587  1.0000
  C   C1264     1.0  0.63591  0.34928  0.96634  1.0000
  C   C1265     1.0  0.55324  0.42297  0.80477  1.0000
  H   H2216     1.0  0.84742  0.17864  0.92047  1.0000
  H   H2217     1.0  0.75514  0.01567  0.77806  1.0000
  H   H2218     1.0  0.54491  0.39005  0.79939  1.0000
  H   H2219     1.0  0.96892  0.15663  0.82520  1.0000
  C   C1266     1.0  0.97416  0.12873  0.84687  1.0000
  H   H2220     1.0  0.99142  0.07866  0.90377  1.0000
  H   H2221     1.0  0.78767  0.06456  0.79460  1.0000
  H   H2222     1.0  0.70166  0.17193  0.95104  1.0000
  H   H2223     1.0  0.76592  0.02718  0.93359  1.0000
  C   C1267     1.0  0.56402  0.38685  0.83781  1.0000
  C   C1268     1.0  0.56796  0.37391  0.85934  1.0000
  H   H2224     1.0  0.96835  0.08776  0.84823  1.0000
  C   C1269     1.0  0.93550  0.10353  0.87670  1.0000
  C   C1270     1.0  0.59156  0.36568  0.86027  1.0000
  H   H2225     1.0  0.74477  0.37807  0.76738  1.0000
  H   H2226     1.0  0.57050  0.37694  0.82418  1.0000
  H   H2227     1.0  0.57486  0.40100  0.83792  1.0000
  H   H2228     1.0  0.96134  0.05743  0.87626  1.0000
  H   H2229     1.0  0.57080  0.41936  0.80697  1.0000
  C   C1271     1.0  0.72624  0.03811  0.80876  1.0000
  H   H2230     1.0  0.91319  0.10915  0.90424  1.0000
  C   C1272     1.0  0.81204  0.25280  0.93766  1.0000
  H   H2231     1.0  0.59424  0.35688  0.87597  1.0000
  H   H2232     1.0  0.59528  0.35426  0.84695  1.0000
  H   H2233     1.0  0.60281  0.37945  0.85875  1.0000
  H   H2234     1.0  0.49891  0.34112  0.82898  1.0000
  H   H2235     1.0  0.90126  0.20408  0.94548  1.0000
  C   C1273     1.0  0.53093  0.35522  0.82412  1.0000
  H   H2236     1.0  0.90799  0.17749  0.97499  1.0000
  C   C1274     1.0  0.91196  0.23489  0.89695  1.0000
  H   H2237     1.0  0.88996  0.21157  0.88592  1.0000
  C   C1275     1.0  0.91458  0.09887  0.88974  1.0000
  H   H2238     1.0  0.95786  0.12266  0.84376  1.0000
  C   C1276     1.0  0.62061  0.40157  0.76821  1.0000
  H   H2239     1.0  0.97705  0.02835  0.85347  1.0000
  C   C1277     1.0  0.55048  0.42983  0.78097  1.0000
  C   C1278     1.0  0.51236  0.42351  0.84616  1.0000
  S   S284      1.0  0.77341  0.00562  0.85537  1.0000
  S   S285      1.0  0.59190  0.31232  0.75816  1.0000
  H   H2240     1.0  0.62435  0.39276  0.98579  1.0000
  H   H2241     1.0  0.76771  0.02200  0.81185  1.0000
  H   H2242     1.0  0.72482  0.00373  0.79913  1.0000
  H   H2243     1.0  0.90319  0.20387  0.91031  1.0000
  C   C1279     1.0  0.61730  0.34734  0.95070  1.0000
  H   H2244     1.0  0.60334  0.39895  0.76779  1.0000
  H   H2245     1.0  0.75618  0.11197  0.79262  1.0000
  C   C1280     1.0  0.67035  0.40968  0.95156  1.0000
  H   H2246     1.0  0.97442  0.13531  0.88133  1.0000
  H   H2247     1.0  0.62369  0.34527  0.93388  1.0000
  H   H2248     1.0  0.54733  0.42429  0.84981  1.0000
  H   H2249     1.0  0.99041  0.05426  0.87896  1.0000
  H   H2250     1.0  0.69254  0.24918  0.97980  1.0000
  H   H2251     1.0  0.85304  0.19378  0.95524  1.0000
  S   S286      1.0  0.63369  0.29009  0.97659  1.0000
  Fe  Fe145     1.0  0.59348  0.34865  0.75195  1.0000
  C   C1281     1.0  0.75149  0.39195  0.75774  1.0000
  H   H2252     1.0  0.72919  0.17658  0.95859  1.0000
  H   H2253     1.0  0.95393  0.08372  0.89979  1.0000
  H   H2254     1.0  0.60637  0.36194  0.95127  1.0000
  H   H2255     1.0  0.71119  0.04363  0.80033  1.0000
  H   H2256     1.0  0.60768  0.33288  0.95546  1.0000
  C   C1282     1.0  0.89183  0.18584  0.97381  1.0000
  H   H2257     1.0  0.90480  0.24878  0.88750  1.0000
  H   H2258     1.0  0.56456  0.38436  0.87346  1.0000
  H   H2259     1.0  0.68852  0.43754  0.96136  1.0000
  H   H2260     1.0  0.72681  0.11117  0.79168  1.0000
  C   C1283     1.0  0.68159  0.35501  0.98049  1.0000
  S   S287      1.0  0.51875  0.38409  0.76160  1.0000
  C   C1284     1.0  0.70496  0.19706  0.97492  1.0000
  H   H2261     1.0  0.65480  0.41646  0.95811  1.0000
  H   H2262     1.0  0.61808  0.24943  0.95597  1.0000
  C   C1285     1.0  0.76582  0.03976  0.80892  1.0000
  H   H2263     1.0  0.70281  0.18507  0.98848  1.0000
  C   C1286     1.0  0.97875  0.04562  0.84821  1.0000
  C   C1287     1.0  0.74195  0.08401  0.80963  1.0000
  C   C1288     1.0  0.74696  0.03174  0.77497  1.0000
  C   C1289     1.0  0.98006  0.08422  0.86125  1.0000
  H   H2264     1.0  0.83147  0.22690  0.90981  1.0000
  H   H2265     1.0  0.52889  0.35838  0.80650  1.0000
  H   H2266     1.0  0.89837  0.44451  0.75129  1.0000
  H   H2267     1.0  0.87122  0.17336  0.87179  1.0000
  H   H2268     1.0  0.68874  0.34914  0.96491  1.0000
  C   C1290     1.0  0.97733  0.06001  0.86802  1.0000
  H   H2269     1.0  0.75624  0.08172  0.82010  1.0000
  C   C1291     1.0  0.68091  0.39282  0.96749  1.0000
  H   H2270     1.0  0.52237  0.40667  0.80662  1.0000
  H   H2271     1.0  0.52050  0.32215  0.82145  1.0000
  H   H2272     1.0  0.82175  0.04843  0.80814  1.0000
  H   H2273     1.0  0.71549  0.19582  0.94085  1.0000
  H   H2274     1.0  0.66718  0.40191  0.93593  1.0000
  H   H2275     1.0  0.87364  0.18232  0.90949  1.0000
  H   H2276     1.0  0.89147  0.20014  0.98438  1.0000
  H   H2277     1.0  0.50870  0.38123  0.83205  1.0000
  H   H2278     1.0  0.65945  0.36405  0.94441  1.0000
  H   H2279     1.0  0.86622  0.21888  0.95785  1.0000
  C   C1292     1.0  0.68335  0.20957  0.97005  1.0000
  H   H2280     1.0  0.85352  0.20974  0.88079  1.0000
  H   H2281     1.0  0.54785  0.34951  0.82652  1.0000
  H   H2282     1.0  0.79860  0.24144  0.94117  1.0000
  H   H2283     1.0  0.63983  0.38242  0.95535  1.0000
  H   H2284     1.0  0.72697  0.08117  0.81959  1.0000
  C   C1293     1.0  0.63795  0.22095  0.96497  1.0000
  H   H2285     1.0  0.84603  0.16065  0.88022  1.0000
  H   H2286     1.0  0.72283  0.33456  0.98136  1.0000
  H   H2287     1.0  0.93453  0.12086  0.87136  1.0000
  C   C1294     1.0  0.74111  0.10781  0.80198  1.0000
  N   N72       1.0  0.85933  0.21090  0.92475  1.0000
  C   C1295     1.0  0.85766  0.19077  0.91156  1.0000
  C   C1296     1.0  0.86565  0.20440  0.94758  1.0000
  C   C1297     1.0  0.83685  0.22136  0.92618  1.0000
  C   C1298     1.0  0.87502  0.22703  0.91471  1.0000
  C   C1299     1.0  0.89501  0.21762  0.90173  1.0000
  C   C1300     1.0  0.84779  0.19453  0.88877  1.0000
  C   C1301     1.0  0.83406  0.24129  0.94092  1.0000
  C   C1302     1.0  0.88808  0.19285  0.95019  1.0000
  H   H2288     1.0  0.71784  0.20832  0.97909  1.0000
  H   H2289     1.0  0.73763  0.00757  0.82453  1.0000
  H   H2290     1.0  0.98229  0.11131  0.92469  1.0000
  S   S288      1.0  0.71109  0.48674  0.79371  1.0000
  H   H2291     1.0  0.66896  0.37933  0.75132  1.0000
  H   H2292     1.0  0.65463  0.24875  0.97425  1.0000
  C   C1303     1.0  0.97337  0.15320  0.84230  1.0000
  H   H2293     1.0  0.79055  0.43855  0.75787  1.0000
  H   H2294     1.0  0.68786  0.40181  0.98098  1.0000
  H   H2295     1.0  0.52025  0.45290  0.86288  1.0000
  H   H2296     1.0  0.64332  0.41356  0.99188  1.0000
  H   H2297     1.0  0.79201  0.99731  0.92249  1.0000
  H   H2298     1.0  0.98577  0.12129  0.83492  1.0000
  C   C1304     1.0  0.65154  0.23253  0.98184  1.0000
  H   H2299     1.0  0.71983  0.40651  0.75374  1.0000
  S   S289      1.0  0.76157  0.47754  0.75490  1.0000
  N   N73       1.0  0.67273  0.22166  0.98869  1.0000
  H   H2300     1.0  0.60636  0.23260  0.97752  1.0000
  H   H2301     1.0  0.68243  0.47568  0.75273  1.0000
  C   C1305     1.0  0.50760  0.44037  0.86348  1.0000
  H   H2302     1.0  0.66192  0.17713  0.99145  1.0000
  H   H2303     1.0  0.76561  0.38597  0.74781  1.0000
  H   H2304     1.0  0.99645  0.08573  0.85321  1.0000
  C   C1306     1.0  0.70049  0.35822  0.99616  1.0000
  H   H2305     1.0  0.59876  0.64136  0.11897  1.0000
  H   H2306     1.0  0.86749  0.80196  0.16195  1.0000
  H   H2307     1.0  0.91263  0.95967  0.05142  1.0000
  H   H2308     1.0  0.95744  0.93247  0.09505  1.0000
  Fe  Fe146     1.0  0.60378  0.57772  0.16973  1.0000
  S   S290      1.0  0.63201  0.59650  0.15627  1.0000
  S   S291      1.0  0.58329  0.59807  0.19382  1.0000
  Fe  Fe147     1.0  0.62076  0.53614  0.14736  1.0000
  S   S292      1.0  0.65020  0.55323  0.13288  1.0000
  Fe  Fe148     1.0  0.65326  0.56776  0.16599  1.0000
  S   S293      1.0  0.68552  0.57625  0.18186  1.0000
  Fe  Fe149     1.0  0.62668  0.58061  0.12453  1.0000
  S   S294      1.0  0.62253  0.60318  0.09441  1.0000
  S   S295      1.0  0.62527  0.54939  0.18087  1.0000
  S   S296      1.0  0.59704  0.56309  0.13748  1.0000
  Fe  Fe150     1.0  0.93100  0.88212  0.11988  1.0000
  S   S297      1.0  0.95023  0.88482  0.08852  1.0000
  S   S298      1.0  0.90819  0.91039  0.13011  1.0000
  Fe  Fe151     1.0  0.94443  0.83358  0.12673  1.0000
  S   S299      1.0  0.96434  0.83363  0.09520  1.0000
  S   S300      1.0  0.94229  0.80035  0.14503  1.0000
  Fe  Fe152     1.0  0.97666  0.86575  0.10560  1.0000
  Fe  Fe153     1.0  0.93612  0.85256  0.08040  1.0000
  S   S301      1.0  0.92271  0.85192  0.04574  1.0000
  S   S302      1.0  0.95812  0.86484  0.13785  1.0000
  S   S303      1.0  0.91558  0.85074  0.11109  1.0000
  H   H2309     1.0  0.91274  0.91747  0.05401  1.0000
  H   H2310     1.0  0.65630  0.63353  0.17427  1.0000
  H   H2311     1.0  0.88216  0.97465  0.10559  1.0000
  C   C1307     1.0  0.94514  0.78995  0.17226  1.0000
  C   C1308     1.0  0.94472  0.80329  0.19030  1.0000
  C   C1309     1.0  0.94598  0.79406  0.21154  1.0000
  C   C1310     1.0  0.94780  0.77141  0.21515  1.0000
  C   C1311     1.0  0.94848  0.75811  0.19712  1.0000
  C   C1312     1.0  0.94701  0.76730  0.17591  1.0000
  H   H2312     1.0  0.94323  0.82070  0.18789  1.0000
  H   H2313     1.0  0.94550  0.80460  0.22528  1.0000
  H   H2314     1.0  0.95019  0.74071  0.19949  1.0000
  H   H2315     1.0  0.94744  0.75678  0.16215  1.0000
  C   C1313     1.0  0.69856  0.57152  0.20734  1.0000
  H   H2316     1.0  0.88997  0.93997  0.09277  1.0000
  C   C1314     1.0  0.69249  0.55499  0.22215  1.0000
  C   C1315     1.0  0.89684  0.73142  0.19111  1.0000
  H   H2317     1.0  0.67950  0.54442  0.21825  1.0000
  C   C1316     1.0  0.51525  0.63118  0.18882  1.0000
  C   C1317     1.0  0.52059  0.61258  0.17684  1.0000
  C   C1318     1.0  0.54136  0.60242  0.17797  1.0000
  C   C1319     1.0  0.55709  0.61070  0.19117  1.0000
  C   C1320     1.0  0.55167  0.62913  0.20337  1.0000
  C   C1321     1.0  0.53095  0.63940  0.20213  1.0000
  H   H2318     1.0  0.86315  0.99111  0.04836  1.0000
  H   H2319     1.0  0.54507  0.58795  0.16893  1.0000
  H   H2320     1.0  0.56357  0.63555  0.21384  1.0000
  H   H2321     1.0  0.64567  0.56959  0.21907  1.0000
  C   C1322     1.0  0.90367  0.83536  0.03287  1.0000
  C   C1323     1.0  0.89461  0.84280  0.01317  1.0000
  H   H2322     1.0  0.90571  0.68829  0.17951  1.0000
  C   C1324     1.0  0.99235  0.93752  0.09379  1.0000
  C   C1325     1.0  0.88434  0.80162  0.02930  1.0000
  C   C1326     1.0  0.89819  0.81473  0.04099  1.0000
  H   H2323     1.0  0.90674  0.75434  0.22565  1.0000
  H   H2324     1.0  0.91866  0.93949  0.08624  1.0000
  H   H2325     1.0  0.88076  0.78549  0.03551  1.0000
  H   H2326     1.0  0.90505  0.80865  0.05600  1.0000
  C   C1327     1.0  0.65518  0.60178  0.02586  1.0000
  C   C1328     1.0  0.66282  0.58784  0.04263  1.0000
  C   C1329     1.0  0.65266  0.58751  0.06347  1.0000
  C   C1330     1.0  0.63497  0.60153  0.06798  1.0000
  C   C1331     1.0  0.62730  0.61541  0.05118  1.0000
  C   C1332     1.0  0.63709  0.61534  0.03020  1.0000
  H   H2327     1.0  0.67682  0.57728  0.03954  1.0000
  H   H2328     1.0  0.65881  0.57673  0.07615  1.0000
  H   H2329     1.0  0.61370  0.62632  0.05441  1.0000
  H   H2330     1.0  0.63090  0.62605  0.01751  1.0000
  C   C1333     1.0  0.92242  0.97915  0.15297  1.0000
  C   C1334     1.0  0.90138  0.97357  0.14770  1.0000
  C   C1335     1.0  0.89729  0.95236  0.14106  1.0000
  C   C1336     1.0  0.91423  0.93669  0.13902  1.0000
  C   C1337     1.0  0.93524  0.94230  0.14424  1.0000
  C   C1338     1.0  0.93922  0.96332  0.15145  1.0000
  C   C1339     1.0  0.82397  0.97979  0.18731  1.0000
  H   H2331     1.0  0.88091  0.94802  0.13741  1.0000
  H   H2332     1.0  0.94823  0.93023  0.14323  1.0000
  H   H2333     1.0  0.95538  0.96739  0.15595  1.0000
  C   C1340     1.0  0.64943  0.61462  0.21516  1.0000
  H   H2334     1.0  0.67650  0.65249  0.18143  1.0000
  C   C1341     1.0  0.58565  0.64951  0.12882  1.0000
  H   H2335     1.0  0.57939  0.65267  0.16423  1.0000
  H   H2336     1.0  0.82375  0.70198  0.22211  1.0000
  C   C1342     1.0  0.87538  0.80901  0.00956  1.0000
  C   C1343     1.0  0.62824  0.59209  0.24086  1.0000
  H   H2337     1.0  0.54905  0.57543  0.13147  1.0000
  H   H2338     1.0  0.57269  0.49697  0.14319  1.0000
  C   C1344     1.0  0.66077  0.63625  0.20908  1.0000
  C   C1345     1.0  0.54452  0.67552  0.13972  1.0000
  H   H2339     1.0  0.85404  0.74013  0.18453  1.0000
  H   H2340     1.0  0.92976  0.78181  0.02193  1.0000
  C   C1346     1.0  0.90016  0.91877  0.06720  1.0000
  H   H2341     1.0  0.52987  0.67554  0.17233  1.0000
  C   C1347     1.0  0.65194  0.67590  0.03012  1.0000
  H   H2342     1.0  0.87232  0.78160  0.19705  1.0000
  H   H2343     1.0  0.86868  0.76203  0.16050  1.0000
  H   H2344     1.0  0.72247  0.69025  0.01180  1.0000
  H   H2345     1.0  0.96515  0.64606  0.23871  1.0000
  H   H2346     1.0  0.72464  0.64842  0.02675  1.0000
  H   H2347     1.0  0.88401  0.95727  0.05491  1.0000
  S   S304      1.0  0.67001  0.60301  0.00061  1.0000
  C   C1348     1.0  0.99205  0.95325  0.11286  1.0000
  N   N74       1.0  0.69145  0.66000  0.03253  1.0000
  C   C1349     1.0  0.49732  0.61763  0.24502  1.0000
  H   H2348     1.0  0.78831  0.93897  0.17507  1.0000
  H   H2349     1.0  0.61337  0.67201  0.15540  1.0000
  H   H2350     1.0  0.54701  0.64279  0.15364  1.0000
  C   C1350     1.0  0.70815  0.64624  0.02028  1.0000
  C   C1351     1.0  0.69414  0.62539  0.08687  1.0000
  H   H2351     1.0  0.86491  0.97246  0.08346  1.0000
  H   H2352     1.0  0.62644  0.64679  0.14706  1.0000
  H   H2353     1.0  0.69486  0.70074  0.00936  1.0000
  H   H2354     1.0  0.57081  0.66853  0.05863  1.0000
  H   H2355     1.0  0.50855  0.60597  0.16661  1.0000
  H   H2356     1.0  0.84718  0.65322  0.24584  1.0000
  H   H2357     1.0  0.88378  0.91773  0.06028  1.0000
  C   C1352     1.0  0.88273  0.79336  0.15670  1.0000
  C   C1353     1.0  0.88484  0.76973  0.19103  1.0000
  C   C1354     1.0  0.63394  0.68084  0.01398  1.0000
  C   C1355     1.0  0.70105  0.68096  0.03926  1.0000
  H   H2358     1.0  0.52965  0.64587  0.13151  1.0000
  H   H2359     1.0  0.88349  0.79325  0.13868  1.0000
  C   C1356     1.0  0.85239  0.72038  0.21348  1.0000
  H   H2360     1.0  0.63091  0.53589  0.23450  1.0000
  H   H2361     1.0  0.72854  0.71594  0.04114  1.0000
  C   C1357     1.0  0.52636  0.68209  0.15582  1.0000
  H   H2362     1.0  0.65684  0.69153  0.03668  1.0000
  H   H2363     1.0  0.61282  0.63966  0.21704  1.0000
  H   H2364     1.0  0.93114  0.70225  0.18138  1.0000
  H   H2365     1.0  0.89784  0.76176  0.15838  1.0000
  C   C1358     1.0  0.63918  0.56977  0.23602  1.0000
  H   H2366     1.0  0.63528  0.61324  0.20446  1.0000
  C   C1359     1.0  0.70362  0.55172  0.24182  1.0000
  C   C1360     1.0  0.54581  0.65054  0.13723  1.0000
  H   H2367     1.0  0.57835  0.61072  0.11454  1.0000
  H   H2368     1.0  0.59157  0.64421  0.08389  1.0000
  C   C1361     1.0  0.80430  0.94687  0.17518  1.0000
  S   S305      1.0  0.95118  0.69370  0.24171  1.0000
  C   C1362     1.0  0.88340  0.77006  0.16587  1.0000
  C   C1363     1.0  0.88925  0.75037  0.22568  1.0000
  H   H2369     1.0  0.72038  0.72954  0.01634  1.0000
  H   H2370     1.0  0.61174  0.67246  0.23987  1.0000
  H   H2371     1.0  0.81954  0.73096  0.22321  1.0000
  H   H2372     1.0  0.64476  0.66573  0.04347  1.0000
  C   C1364     1.0  0.90603  0.71209  0.20501  1.0000
  H   H2373     1.0  0.61992  0.68903  0.02234  1.0000
  H   H2374     1.0  0.84796  0.75517  0.20782  1.0000
  C   C1365     1.0  0.62290  0.55158  0.23890  1.0000
  C   C1366     1.0  0.90225  0.93992  0.07926  1.0000
  H   H2375     1.0  0.91157  0.73927  0.18408  1.0000
  C   C1367     1.0  0.56385  0.61757  0.12342  1.0000
  H   H2376     1.0  0.90088  0.77663  0.19469  1.0000
  C   C1368     1.0  0.89910  0.96007  0.06383  1.0000
  H   H2377     1.0  0.50633  0.60705  0.23337  1.0000
  H   H2378     1.0  0.96630  0.62654  0.21752  1.0000
  H   H2379     1.0  0.62823  0.66562  0.00705  1.0000
  H   H2380     1.0  0.52504  0.70006  0.15655  1.0000
  C   C1369     1.0  0.70308  0.63948  0.06804  1.0000
  H   H2381     1.0  0.90250  0.90474  0.07869  1.0000
  H   H2382     1.0  0.57255  0.62304  0.08041  1.0000
  C   C1370     1.0  0.71488  0.71856  0.02988  1.0000
  N   N75       1.0  0.88229  0.74792  0.20259  1.0000
  H   H2383     1.0  0.85764  0.71959  0.23053  1.0000
  H   H2384     1.0  0.98931  0.96963  0.10535  1.0000
  H   H2385     1.0  0.68730  0.61033  0.08071  1.0000
  C   C1371     1.0  0.71588  0.58473  0.21270  1.0000
  H   H2386     1.0  0.66555  0.64800  0.01376  1.0000
  H   H2387     1.0  0.71561  0.62958  0.05929  1.0000
  H   H2388     1.0  0.89684  0.80243  0.16219  1.0000
  C   C1372     1.0  0.94552  0.78353  0.01291  1.0000
  C   C1373     1.0  0.66947  0.63647  0.18564  1.0000
  H   H2389     1.0  0.51046  0.67603  0.15083  1.0000
  C   C1374     1.0  0.60002  0.65924  0.24279  1.0000
  C   C1375     1.0  0.68457  0.64745  0.05289  1.0000
  H   H2390     1.0  0.61457  0.59408  0.22947  1.0000
  H   H2391     1.0  0.56006  0.57745  0.10395  1.0000
  H   H2392     1.0  0.70477  0.62863  0.02285  1.0000
  H   H2393     1.0  0.99623  0.92059  0.09914  1.0000
  H   H2394     1.0  0.96583  0.59623  0.24470  1.0000
  H   H2395     1.0  0.70097  0.72660  0.03858  1.0000
  H   H2396     1.0  0.59222  0.62739  0.15658  1.0000
  H   H2397     1.0  0.73692  0.51422  0.23774  1.0000
  C   C1376     1.0  0.80185  0.96861  0.18646  1.0000
  H   H2398     1.0  0.68124  0.63432  0.09621  1.0000
  C   C1377     1.0  0.96031  0.62955  0.23434  1.0000
  H   H2399     1.0  0.95145  0.80018  0.01509  1.0000
  H   H2400     1.0  0.53124  0.57488  0.10885  1.0000
  H   H2401     1.0  0.89332  0.70397  0.21494  1.0000
  H   H2402     1.0  0.59702  0.62530  0.23738  1.0000
  C   C1378     1.0  0.70810  0.69701  0.02079  1.0000
  H   H2403     1.0  0.89867  0.85870  0.00669  1.0000
  H   H2404     1.0  0.58499  0.66355  0.23390  1.0000
  H   H2405     1.0  0.68248  0.62381  0.18356  1.0000
  C   C1379     1.0  0.54615  0.58214  0.11488  1.0000
  H   H2406     1.0  0.61754  0.65005  0.17490  1.0000
  H   H2407     1.0  0.98752  0.93095  0.15984  1.0000
  H   H2408     1.0  0.49754  0.63469  0.23870  1.0000
  H   H2409     1.0  0.70742  0.62066  0.09802  1.0000
  C   C1380     1.0  0.54323  0.60681  0.11516  1.0000
  H   H2410     1.0  0.67543  0.63294  0.04853  1.0000
  C   C1381     1.0  0.82777  0.71774  0.21398  1.0000
  H   H2411     1.0  0.81019  0.94931  0.15812  1.0000
  H   H2412     1.0  0.67401  0.59514  0.24414  1.0000
  H   H2413     1.0  0.71591  0.67756  0.04873  1.0000
  H   H2414     1.0  0.98991  0.99533  0.12838  1.0000
  H   H2415     1.0  0.52898  0.61054  0.12595  1.0000
  H   H2416     1.0  0.55112  0.64756  0.05557  1.0000
  H   H2417     1.0  0.55991  0.68174  0.14573  1.0000
  H   H2418     1.0  0.92378  0.68153  0.20126  1.0000
  H   H2419     1.0  0.54225  0.64843  0.09537  1.0000
  H   H2420     1.0  0.91825  0.71801  0.21620  1.0000
  C   C1382     1.0  0.91852  0.98407  0.08671  1.0000
  H   H2421     1.0  0.56578  0.61157  0.14042  1.0000
  H   H2422     1.0  0.68969  0.68965  0.05057  1.0000
  N   N76       1.0  0.56369  0.64205  0.12227  1.0000
  C   C1383     1.0  0.87807  0.98243  0.08974  1.0000
  H   H2423     1.0  0.56178  0.66844  0.09852  1.0000
  H   H2424     1.0  0.67538  0.67296  0.00380  1.0000
  H   H2425     1.0  0.88362  0.98445  0.02812  1.0000
  H   H2426     1.0  0.88815  0.73491  0.23521  1.0000
  H   H2427     1.0  0.72089  0.59751  0.20142  1.0000
  H   H2428     1.0  0.67323  0.65736  0.06315  1.0000
  C   C1384     1.0  0.59143  0.64506  0.15291  1.0000
  C   C1385     1.0  0.61358  0.65409  0.15777  1.0000
  H   H2429     1.0  0.58740  0.66716  0.12514  1.0000
  C   C1386     1.0  0.72697  0.58150  0.23241  1.0000
  H   H2430     1.0  0.63984  0.69172  0.00053  1.0000
  H   H2431     1.0  0.96594  0.95431  0.07674  1.0000
  C   C1387     1.0  0.55952  0.65060  0.09956  1.0000
  C   C1388     1.0  0.67151  0.66383  0.01907  1.0000
  H   H2432     1.0  0.71105  0.65342  0.07519  1.0000
  H   H2433     1.0  0.81590  0.93584  0.18389  1.0000
  C   C1389     1.0  0.91735  0.69506  0.19081  1.0000
  H   H2434     1.0  0.57879  0.64335  0.04621  1.0000
  C   C1390     1.0  0.85877  0.74186  0.20163  1.0000
  H   H2435     1.0  0.88846  0.72488  0.17701  1.0000
  H   H2436     1.0  0.87955  0.78438  0.23185  1.0000
  C   C1391     1.0  0.87678  0.76793  0.23900  1.0000
  H   H2437     1.0  0.54096  0.68383  0.12398  1.0000
  H   H2438     1.0  0.66078  0.60132  0.21014  1.0000
  H   H2439     1.0  0.53943  0.61240  0.09843  1.0000
  C   C1392     1.0  0.57425  0.64086  0.08126  1.0000
  H   H2440     1.0  0.97731  0.95021  0.12320  1.0000
  H   H2441     1.0  0.52710  0.65364  0.21151  1.0000
  C   C1393     1.0  0.56832  0.65075  0.05911  1.0000
  H   H2442     1.0  0.67474  0.63884  0.21955  1.0000
  C   C1394     1.0  0.88035  0.82989  0.00175  1.0000
  H   H2443     1.0  0.82153  0.71785  0.19724  1.0000
  H   H2444     1.0  0.83456  0.96867  0.19715  1.0000
  H   H2445     1.0  0.82264  0.98600  0.22813  1.0000
  H   H2446     1.0  0.86753  0.98218  0.20052  1.0000
  H   H2447     1.0  0.88825  0.98547  0.14912  1.0000
  H   H2448     1.0  0.85962  0.70637  0.20469  1.0000
  C   C1395     1.0  0.97023  0.93778  0.08313  1.0000
  H   H2449     1.0  0.99327  0.96419  0.15466  1.0000
  C   C1396     1.0  0.60963  0.63772  0.23475  1.0000
  H   H2450     1.0  0.95742  0.77169  0.02000  1.0000
  H   H2451     1.0  0.91965  0.97163  0.10007  1.0000
  H   H2452     1.0  0.98511  0.91397  0.13698  1.0000
  H   H2453     1.0  0.64920  0.65024  0.21073  1.0000
  H   H2454     1.0  0.98960  0.89212  0.17026  1.0000
  S   S306      1.0  0.94856  0.76068  0.24244  1.0000
  H   H2455     1.0  0.60884  0.55460  0.22820  1.0000
  H   H2456     1.0  0.83627  0.99218  0.10584  1.0000
  H   H2457     1.0  0.74030  0.59175  0.23608  1.0000
  N   N77       1.0  0.89776  0.98189  0.07454  1.0000
  H   H2458     1.0  0.94993  0.99297  0.11571  1.0000
  N   N78       1.0  0.64281  0.61137  0.23875  1.0000
  H   H2459     1.0  0.79545  0.96517  0.20315  1.0000
  H   H2460     1.0  0.85909  0.76499  0.23976  1.0000
  H   H2461     1.0  0.97077  0.92647  0.06941  1.0000
  H   H2462     1.0  0.78980  0.97866  0.17737  1.0000
  H   H2463     1.0  0.94228  0.62883  0.23481  1.0000
  S   S307      1.0  0.62049  0.49952  0.14036  1.0000
  H   H2464     1.0  0.78203  0.99510  0.21758  1.0000
  H   H2465     1.0  0.83163  0.97989  0.17074  1.0000
  H   H2466     1.0  0.93274  0.98088  0.07555  1.0000
  C   C1397     1.0  0.75197  0.50873  0.24601  1.0000
  C   C1398     1.0  0.99662  0.91982  0.14896  1.0000
  H   H2467     1.0  0.76037  0.49614  0.23608  1.0000
  S   S308      1.0  0.51793  0.86624  0.37201  1.0000
  Fe  Fe154     1.0  0.62133  0.89612  0.44409  1.0000
  S   S309      1.0  0.62719  0.93131  0.45017  1.0000
  S   S310      1.0  0.58723  0.88172  0.44530  1.0000
  Fe  Fe155     1.0  0.67070  0.88459  0.44094  1.0000
  S   S311      1.0  0.67966  0.91921  0.44690  1.0000
  S   S312      1.0  0.69333  0.85765  0.42678  1.0000
  Fe  Fe156     1.0  0.65292  0.91899  0.47303  1.0000
  Fe  Fe157     1.0  0.65339  0.92933  0.42395  1.0000
  S   S313      1.0  0.65435  0.95440  0.39578  1.0000
  S   S314      1.0  0.64576  0.88362  0.46860  1.0000
  S   S315      1.0  0.64558  0.89493  0.41641  1.0000
  Fe  Fe158     1.0  0.78395  0.55455  0.33580  1.0000
  S   S316      1.0  0.75296  0.57363  0.32885  1.0000
  C   C1399     1.0  0.99034  0.59113  0.28742  1.0000
  Fe  Fe159     1.0  0.80962  0.58295  0.30321  1.0000
  S   S317      1.0  0.78036  0.60321  0.29338  1.0000
  S   S318      1.0  0.84522  0.58739  0.29323  1.0000
  Fe  Fe160     1.0  0.77297  0.60355  0.32944  1.0000
  S   S319      1.0  0.76089  0.63581  0.34309  1.0000
  Fe  Fe161     1.0  0.76216  0.57184  0.29326  1.0000
  S   S320      1.0  0.73466  0.55944  0.27217  1.0000
  S   S321      1.0  0.80305  0.58487  0.33927  1.0000
  S   S322      1.0  0.79233  0.55124  0.30026  1.0000
  Fe  Fe162     1.0  0.83366  0.73836  0.46467  1.0000
  S   S323      1.0  0.82983  0.77046  0.44639  1.0000
  Fe  Fe163     1.0  0.80616  0.71518  0.43143  1.0000
  S   S324      1.0  0.79966  0.74573  0.41145  1.0000
  S   S325      1.0  0.79956  0.67955  0.42573  1.0000
  Fe  Fe164     1.0  0.83533  0.75117  0.41595  1.0000
  S   S326      1.0  0.85518  0.76213  0.38606  1.0000
  Fe  Fe165     1.0  0.79431  0.76299  0.44319  1.0000
  S   S327      1.0  0.76913  0.78918  0.45483  1.0000
  S   S328      1.0  0.84200  0.72000  0.43451  1.0000
  S   S329      1.0  0.79795  0.73161  0.46290  1.0000
  Fe  Fe166     1.0  0.93547  0.70390  0.30206  1.0000
  S   S330      1.0  0.91560  0.71700  0.27458  1.0000
  S   S331      1.0  0.92566  0.70246  0.33787  1.0000
  Fe  Fe167     1.0  0.96946  0.68282  0.27176  1.0000
  H   H2468     1.0  0.57506  0.83259  0.41034  1.0000
  Fe  Fe168     1.0  0.92100  0.68394  0.26084  1.0000
  H   H2469     1.0  0.62510  0.62805  0.26432  1.0000
  S   S332      1.0  0.96682  0.71576  0.28668  1.0000
  S   S333      1.0  0.93953  0.67037  0.28903  1.0000
  C   C1400     1.0  0.87266  0.74388  0.37182  1.0000
  C   C1401     1.0  0.87902  0.74889  0.35022  1.0000
  C   C1402     1.0  0.89430  0.73559  0.33905  1.0000
  C   C1403     1.0  0.90378  0.71751  0.34967  1.0000
  C   C1404     1.0  0.89708  0.71227  0.37108  1.0000
  C   C1405     1.0  0.88142  0.72522  0.38202  1.0000
  H   H2470     1.0  0.87230  0.76329  0.34221  1.0000
  H   H2471     1.0  0.89934  0.73982  0.32257  1.0000
  H   H2472     1.0  0.90440  0.69837  0.37943  1.0000
  H   H2473     1.0  0.87681  0.72128  0.39867  1.0000
  C   C1406     1.0  0.77142  0.64759  0.36636  1.0000
  C   C1407     1.0  0.76574  0.66926  0.37099  1.0000
  C   C1408     1.0  0.77453  0.67947  0.38884  1.0000
  C   C1409     1.0  0.78878  0.66793  0.40247  1.0000
  C   C1410     1.0  0.79415  0.64615  0.39805  1.0000
  C   C1411     1.0  0.78565  0.63606  0.38001  1.0000
  H   H2474     1.0  0.75467  0.67827  0.36057  1.0000
  H   H2475     1.0  0.77002  0.69613  0.39223  1.0000
  H   H2476     1.0  0.80500  0.63703  0.40858  1.0000
  H   H2477     1.0  0.78999  0.61933  0.37675  1.0000
  C   C1412     1.0  0.85646  0.61169  0.28237  1.0000
  C   C1413     1.0  0.87789  0.61650  0.28732  1.0000
  C   C1414     1.0  0.88821  0.63456  0.27758  1.0000
  C   C1415     1.0  0.87734  0.64774  0.26233  1.0000
  H   H2478     1.0  0.94796  0.63941  0.33942  1.0000
  H   H2479     1.0  0.92467  0.75279  0.36574  1.0000
  H   H2480     1.0  0.88655  0.60607  0.29871  1.0000
  H   H2481     1.0  0.90480  0.63788  0.28126  1.0000
  H   H2482     1.0  0.85265  0.64946  0.36295  1.0000
  C   C1416     1.0  0.71429  0.83871  0.43509  1.0000
  C   C1417     1.0  0.72338  0.82424  0.41980  1.0000
  C   C1418     1.0  0.74006  0.80901  0.42543  1.0000
  C   C1419     1.0  0.74802  0.80802  0.44652  1.0000
  C   C1420     1.0  0.73889  0.82251  0.46178  1.0000
  C   C1421     1.0  0.72222  0.83774  0.45616  1.0000
  H   H2483     1.0  0.71746  0.82474  0.40344  1.0000
  H   H2484     1.0  0.74677  0.79803  0.41347  1.0000
  H   H2485     1.0  0.74479  0.82194  0.47816  1.0000
  H   H2486     1.0  0.71551  0.84866  0.46817  1.0000
  C   C1422     1.0  0.85572  0.64320  0.25768  1.0000
  H   H2487     1.0  0.64745  0.77788  0.37568  1.0000
  H   H2488     1.0  0.79173  0.98385  0.25517  1.0000
  H   H2489     1.0  0.67864  0.59261  0.30431  1.0000
  C   C1423     1.0  0.82121  0.50840  0.37129  1.0000
  C   C1424     1.0  0.53674  0.87069  0.39278  1.0000
  C   C1425     1.0  0.53168  0.86691  0.41479  1.0000
  C   C1426     1.0  0.54727  0.87059  0.43058  1.0000
  C   C1427     1.0  0.56799  0.87832  0.42465  1.0000
  C   C1428     1.0  0.57294  0.88232  0.40265  1.0000
  C   C1429     1.0  0.55749  0.87831  0.38685  1.0000
  H   H2490     1.0  0.51582  0.86111  0.41959  1.0000
  H   H2491     1.0  0.54329  0.86742  0.44753  1.0000
  H   H2492     1.0  0.58871  0.88838  0.39779  1.0000
  H   H2493     1.0  0.56160  0.88123  0.36987  1.0000
  C   C1430     1.0  0.67481  0.97223  0.38577  1.0000
  H   H2494     1.0  0.92677  0.76228  0.29503  1.0000
  H   H2495     1.0  0.94393  0.61338  0.35318  1.0000
  H   H2496     1.0  0.53546  0.91954  0.37567  1.0000
  C   C1431     1.0  0.97022  0.61257  0.24993  1.0000
  C   C1432     1.0  0.69537  0.97272  0.39483  1.0000
  H   H2497     1.0  0.72068  0.50001  0.30565  1.0000
  C   C1433     1.0  0.91809  0.76813  0.40583  1.0000
  C   C1434     1.0  0.65163  0.79563  0.40533  1.0000
  H   H2498     1.0  0.69914  0.96206  0.40851  1.0000
  H   H2499     1.0  0.62066  0.78851  0.42007  1.0000
  C   C1435     1.0  0.85386  0.69514  0.31678  1.0000
  H   H2500     1.0  0.66749  0.83805  0.46696  1.0000
  C   C1436     1.0  0.76169  0.86446  0.38746  1.0000
  H   H2501     1.0  0.87542  0.67279  0.48524  1.0000
  C   C1437     1.0  0.74615  0.49968  0.26871  1.0000
  C   C1438     1.0  0.86648  0.67796  0.47057  1.0000
  H   H2502     1.0  0.72680  0.98750  0.39344  1.0000
  H   H2503     1.0  0.78675  0.67116  0.27645  1.0000
  C   C1439     1.0  0.81143  0.64909  0.47729  1.0000
  H   H2504     1.0  0.76138  0.90809  0.37258  1.0000
  C   C1440     1.0  0.79298  0.62002  0.45666  1.0000
  H   H2505     1.0  0.64614  0.76131  0.40042  1.0000
  C   C1441     1.0  0.84685  0.66338  0.46646  1.0000
  C   C1442     1.0  0.68553  0.89937  0.36962  1.0000
  H   H2506     1.0  0.89194  0.72622  0.48192  1.0000
  H   H2507     1.0  0.83771  0.67139  0.45294  1.0000
  H   H2508     1.0  0.62979  0.82309  0.46700  1.0000
  H   H2509     1.0  0.86891  0.59340  0.34935  1.0000
  H   H2510     1.0  0.80220  0.68389  0.30958  1.0000
  H   H2511     1.0  0.82396  0.63280  0.44793  1.0000
  C   C1443     1.0  0.62719  0.80178  0.40934  1.0000
  C   C1444     1.0  0.56133  0.81255  0.43561  1.0000
  H   H2512     1.0  0.65972  0.79231  0.42098  1.0000
  H   H2513     1.0  0.73759  0.51294  0.27745  1.0000
  H   H2514     1.0  0.59577  0.65794  0.26039  1.0000
  H   H2515     1.0  0.78362  0.63266  0.44737  1.0000
  H   H2516     1.0  0.85867  0.66098  0.30920  1.0000
  H   H2517     1.0  0.84915  0.62864  0.49258  1.0000
  H   H2518     1.0  0.83339  0.67608  0.38237  1.0000
  H   H2519     1.0  0.67013  0.90911  0.37099  1.0000
  H   H2520     1.0  0.82681  0.63775  0.36023  1.0000
  H   H2521     1.0  0.92811  0.79128  0.29101  1.0000
  C   C1445     1.0  0.82273  0.67896  0.34877  1.0000
  H   H2522     1.0  0.74756  0.85590  0.38133  1.0000
  H   H2523     1.0  0.87213  0.71807  0.29709  1.0000
  H   H2524     1.0  0.94984  0.79382  0.32402  1.0000
  H   H2525     1.0  0.87405  0.61540  0.36706  1.0000
  H   H2526     1.0  0.77029  0.94569  0.35760  1.0000
  H   H2527     1.0  0.65430  0.98616  0.36098  1.0000
  H   H2528     1.0  0.61867  0.80025  0.39376  1.0000
  C   C1446     1.0  0.72165  0.52033  0.33310  1.0000
  H   H2529     1.0  0.78203  0.83570  0.38184  1.0000
  H   H2530     1.0  0.93255  0.62544  0.30617  1.0000
  C   C1447     1.0  0.93799  0.62462  0.34012  1.0000
  N   N79       1.0  0.83465  0.66209  0.33543  1.0000
  H   H2531     1.0  0.62033  0.59110  0.25729  1.0000
  H   H2532     1.0  0.72974  0.52118  0.34894  1.0000
  C   C1448     1.0  0.51891  0.94540  0.35648  1.0000
  H   H2533     1.0  0.80889  0.70912  0.37896  1.0000
  C   C1449     1.0  0.79865  0.50600  0.37199  1.0000
  H   H2534     1.0  0.50817  0.80718  0.40808  1.0000
  H   H2535     1.0  0.64018  0.80017  0.45230  1.0000
  H   H2536     1.0  0.92092  0.62962  0.34416  1.0000
  H   H2537     1.0  0.65190  0.61530  0.28487  1.0000
  H   H2538     1.0  0.72825  0.89140  0.36902  1.0000
  H   H2539     1.0  0.89578  0.68943  0.45419  1.0000
  H   H2540     1.0  0.93012  0.78093  0.36453  1.0000
  H   H2541     1.0  0.84807  0.60212  0.36850  1.0000
  H   H2542     1.0  0.90237  0.77059  0.26244  1.0000
  H   H2543     1.0  0.69286  0.90237  0.35319  1.0000
  H   H2544     1.0  0.50412  0.78738  0.42984  1.0000
  H   H2545     1.0  0.72687  0.91320  0.46608  1.0000
  N   N80       1.0  0.95764  0.75990  0.35552  1.0000
  H   H2546     1.0  0.96941  0.71836  0.33434  1.0000
  H   H2547     1.0  0.54635  0.81064  0.42629  1.0000
  H   H2548     1.0  0.96494  0.79399  0.35651  1.0000
  H   H2549     1.0  0.98819  0.61384  0.24842  1.0000
  H   H2550     1.0  0.96151  0.56732  0.27369  1.0000
  C   C1450     1.0  0.82651  0.70972  0.37481  1.0000
  H   H2551     1.0  0.53373  0.91364  0.34738  1.0000
  H   H2552     1.0  0.92051  0.76912  0.42355  1.0000
  H   H2553     1.0  0.95259  0.77475  0.28911  1.0000
  C   C1451     1.0  0.81918  0.65320  0.31949  1.0000
  H   H2554     1.0  0.90741  0.75430  0.40316  1.0000
  H   H2555     1.0  0.65270  0.56589  0.24709  1.0000
  C   C1452     1.0  0.73168  0.90862  0.42118  1.0000
  C   C1453     1.0  0.97329  0.77788  0.35875  1.0000
  H   H2556     1.0  0.67297  0.62261  0.25119  1.0000
  C   C1454     1.0  0.91616  0.56288  0.27719  1.0000
  C   C1455     1.0  0.95296  0.57834  0.28534  1.0000
  H   H2557     1.0  0.97367  0.61904  0.31552  1.0000
  H   H2558     1.0  0.91327  0.55757  0.29437  1.0000
  H   H2559     1.0  0.64938  0.58719  0.27848  1.0000
  H   H2560     1.0  0.73707  0.94548  0.39575  1.0000
  N   N81       1.0  0.96656  0.59778  0.28957  1.0000
  H   H2561     1.0  0.92114  0.59602  0.28445  1.0000
  C   C1456     1.0  0.94003  0.76479  0.39401  1.0000
  H   H2562     1.0  0.99095  0.77663  0.32696  1.0000
  H   H2563     1.0  0.77642  0.50725  0.28198  1.0000
  H   H2564     1.0  0.75881  0.90191  0.44329  1.0000
  H   H2565     1.0  0.95087  0.56832  0.30054  1.0000
  H   H2566     1.0  0.60487  0.83621  0.39062  1.0000
  C   C1457     1.0  0.96260  0.61649  0.27372  1.0000
  H   H2567     1.0  0.97733  0.74028  0.37768  1.0000
  C   C1458     1.0  0.83528  0.68744  0.36816  1.0000
  C   C1459     1.0  0.65967  0.60157  0.27606  1.0000
  H   H2568     1.0  0.86983  0.69186  0.28520  1.0000
  C   C1460     1.0  0.70095  0.90605  0.38708  1.0000
  H   H2569     1.0  0.50577  0.61672  0.26070  1.0000
  H   H2570     1.0  0.76031  0.51437  0.31521  1.0000
  C   C1461     1.0  0.63943  0.83126  0.43336  1.0000
  C   C1462     1.0  0.76192  0.95282  0.37202  1.0000
  C   C1463     1.0  0.53615  0.92672  0.35898  1.0000
  H   H2571     1.0  0.70342  0.92368  0.38506  1.0000
  C   C1464     1.0  0.75525  0.91514  0.38802  1.0000
  H   H2572     1.0  0.50111  0.91513  0.38499  1.0000
  C   C1465     1.0  0.93899  0.61355  0.31823  1.0000
  C   C1466     1.0  0.55912  0.93502  0.35498  1.0000
  H   H2573     1.0  0.62703  0.87854  0.37684  1.0000
  H   H2574     1.0  0.96615  0.59260  0.32455  1.0000
  H   H2575     1.0  0.52177  0.95388  0.34052  1.0000
  C   C1467     1.0  0.61828  0.84078  0.40113  1.0000
  C   C1468     1.0  0.72254  0.89240  0.38627  1.0000
  H   H2576     1.0  0.50663  0.82442  0.44373  1.0000
  H   H2577     1.0  0.55836  0.82586  0.44719  1.0000
  H   H2578     1.0  0.93976  0.74514  0.33052  1.0000
  H   H2579     1.0  0.81737  0.69310  0.33866  1.0000
  C   C1469     1.0  0.79302  0.65911  0.28860  1.0000
  H   H2580     1.0  0.52271  0.95751  0.36877  1.0000
  H   H2581     1.0  0.69256  0.60994  0.28477  1.0000
  H   H2582     1.0  0.56482  0.79716  0.44480  1.0000
  H   H2583     1.0  0.92412  0.54942  0.26809  1.0000
  C   C1470     1.0  0.81480  0.62876  0.46320  1.0000
  H   H2584     1.0  0.79989  0.64468  0.49067  1.0000
  H   H2585     1.0  0.66068  0.80867  0.39672  1.0000
  H   H2586     1.0  0.61792  0.85834  0.35875  1.0000
  C   C1471     1.0  0.63762  0.84526  0.38523  1.0000
  H   H2587     1.0  0.67189  0.77084  0.38997  1.0000
  H   H2588     1.0  0.49887  0.89145  0.31121  1.0000
  H   H2589     1.0  0.87463  0.68273  0.43608  1.0000
  C   C1472     1.0  0.73725  0.92546  0.45764  1.0000
  H   H2590     1.0  0.56270  0.94770  0.36673  1.0000
  H   H2591     1.0  0.57111  0.92140  0.35713  1.0000
  H   H2592     1.0  0.56105  0.94180  0.33817  1.0000
  H   H2593     1.0  0.86645  0.62873  0.32951  1.0000
  C   C1473     1.0  0.93993  0.77928  0.32212  1.0000
  H   H2594     1.0  0.94727  0.74924  0.40021  1.0000
  H   H2595     1.0  0.72079  0.92290  0.41805  1.0000
  C   C1474     1.0  0.63168  0.86323  0.36865  1.0000
  N   N82       1.0  0.62196  0.82375  0.41883  1.0000
  C   C1475     1.0  0.74854  0.91586  0.43757  1.0000
  H   H2596     1.0  0.77914  0.65363  0.29909  1.0000
  C   C1476     1.0  0.96703  0.73817  0.36337  1.0000
  H   H2597     1.0  0.77013  0.91797  0.39727  1.0000
  C   C1477     1.0  0.66460  0.82063  0.46433  1.0000
  H   H2598     1.0  0.76931  0.87364  0.37371  1.0000
  N   N83       1.0  0.83168  0.65889  0.48570  1.0000
  H   H2599     1.0  0.94525  0.62166  0.27358  1.0000
  H   H2600     1.0  0.61307  0.85646  0.40849  1.0000
  H   H2601     1.0  0.59816  0.83763  0.44136  1.0000
  H   H2602     1.0  0.65213  0.85037  0.39384  1.0000
  C   C1478     1.0  0.51558  0.86102  0.48988  1.0000
  C   C1479     1.0  0.67014  0.98641  0.36813  1.0000
  H   H2603     1.0  0.92810  0.59947  0.31956  1.0000
  H   H2604     1.0  0.58281  0.80424  0.40882  1.0000
  C   C1480     1.0  0.77822  0.84714  0.39509  1.0000
  C   C1481     1.0  0.96245  0.60567  0.31233  1.0000
  H   H2605     1.0  0.74562  0.86911  0.41857  1.0000
  H   H2606     1.0  0.86920  0.66863  0.33414  1.0000
  H   H2607     1.0  0.65537  0.83189  0.42464  1.0000
  H   H2608     1.0  0.77412  0.95634  0.38431  1.0000
  H   H2609     1.0  0.51379  0.92804  0.31695  1.0000
  C   C1482     1.0  0.60117  0.82237  0.43239  1.0000
  Fe  Fe169     1.0  0.94695  0.72607  0.25751  1.0000
  H   H2610     1.0  0.75391  0.96840  0.36682  1.0000
  H   H2611     1.0  0.93161  0.58824  0.25854  1.0000
  H   H2612     1.0  0.85584  0.70545  0.33102  1.0000
  C   C1483     1.0  0.81011  0.66946  0.30217  1.0000
  C   C1484     1.0  0.93012  0.58301  0.27588  1.0000
  H   H2613     1.0  0.79353  0.85472  0.39969  1.0000
  C   C1485     1.0  0.64227  0.81773  0.45478  1.0000
  H   H2614     1.0  0.82807  0.52228  0.36276  1.0000
  H   H2615     1.0  0.75913  0.92849  0.43019  1.0000
  H   H2616     1.0  0.69252  0.90326  0.40300  1.0000
  H   H2617     1.0  0.64177  0.83060  0.37582  1.0000
  H   H2618     1.0  0.87618  0.78133  0.27121  1.0000
  C   C1486     1.0  0.84126  0.64370  0.35079  1.0000
  S   S334      1.0  0.78033  0.52513  0.35936  1.0000
  H   H2619     1.0  0.85292  0.68869  0.36437  1.0000
  H   H2620     1.0  0.85369  0.64790  0.45997  1.0000
  H   H2621     1.0  0.64585  0.86638  0.35759  1.0000
  H   H2622     1.0  0.86082  0.69499  0.47269  1.0000
  H   H2623     1.0  0.71755  0.87568  0.39110  1.0000
  H   H2624     1.0  0.60267  0.80931  0.44512  1.0000
  H   H2625     1.0  0.68169  0.88192  0.37178  1.0000
  H   H2626     1.0  0.80518  0.64565  0.32841  1.0000
  H   H2627     1.0  0.78325  0.61481  0.47122  1.0000
  C   C1487     1.0  0.84525  0.62536  0.26778  1.0000
  H   H2628     1.0  0.68920  0.58156  0.27937  1.0000
  H   H2629     1.0  0.83845  0.70025  0.30919  1.0000
  H   H2630     1.0  0.99392  0.58400  0.27128  1.0000
  C   C1488     1.0  0.87214  0.70031  0.30060  1.0000
  H   H2631     1.0  0.76960  0.88423  0.41426  1.0000
  H   H2632     1.0  0.63595  0.84836  0.43806  1.0000
  H   H2633     1.0  0.90979  0.78336  0.40008  1.0000
  H   H2634     1.0  0.95049  0.77821  0.39854  1.0000
  H   H2635     1.0  0.72123  0.89639  0.42972  1.0000
  H   H2636     1.0  0.73273  0.93547  0.36891  1.0000
  H   H2637     1.0  0.74962  0.93053  0.46912  1.0000
  H   H2638     1.0  0.76257  0.52297  0.24705  1.0000
  C   C1489     1.0  0.85266  0.62375  0.34028  1.0000
  H   H2639     1.0  0.82340  0.67456  0.29078  1.0000
  C   C1490     1.0  0.85467  0.67074  0.32381  1.0000
  H   H2640     1.0  0.80735  0.67232  0.35555  1.0000
  H   H2641     1.0  0.82923  0.72200  0.36156  1.0000
  H   H2642     1.0  0.77166  0.83772  0.40931  1.0000
  H   H2643     1.0  0.82717  0.64003  0.31001  1.0000
  H   H2644     1.0  0.88803  0.69515  0.30740  1.0000
  H   H2645     1.0  0.89029  0.66137  0.44962  1.0000
  H   H2646     1.0  0.92360  0.78214  0.32973  1.0000
  C   C1491     1.0  0.75449  0.87948  0.40633  1.0000
  C   C1492     1.0  0.74487  0.93745  0.38162  1.0000
  C   C1493     1.0  0.86146  0.60776  0.35746  1.0000
  N   N84       1.0  0.74078  0.89937  0.40030  1.0000
  H   H2647     1.0  0.80247  0.66150  0.46731  1.0000
  C   C1494     1.0  0.65433  0.77515  0.39202  1.0000
  H   H2648     1.0  0.83511  0.71487  0.38922  1.0000
  H   H2649     1.0  0.80022  0.64509  0.27981  1.0000
  H   H2650     1.0  0.84100  0.61481  0.33077  1.0000
  C   C1495     1.0  0.58022  0.81795  0.41996  1.0000
  C   C1496     1.0  0.68136  0.59614  0.28670  1.0000
  H   H2651     1.0  0.67757  0.81409  0.45328  1.0000
  H   H2652     1.0  0.64129  0.64514  0.24751  1.0000
  S   S335      1.0  0.89064  0.66914  0.24796  1.0000
  H   H2653     1.0  0.95370  0.72734  0.36919  1.0000
  H   H2654     1.0  0.82364  0.61558  0.47215  1.0000
  C   C1497     1.0  0.93730  0.76474  0.36903  1.0000
  H   H2655     1.0  0.96518  0.75449  0.32138  1.0000
  H   H2656     1.0  0.90012  0.56678  0.26999  1.0000
  H   H2657     1.0  0.82520  0.69359  0.48375  1.0000
  H   H2658     1.0  0.72704  0.93992  0.45308  1.0000
  C   C1498     1.0  0.93666  0.77668  0.29787  1.0000
  C   C1499     1.0  0.88274  0.67780  0.45138  1.0000
  C   C1500     1.0  0.95109  0.75867  0.33217  1.0000
  H   H2659     1.0  0.97108  0.63109  0.27898  1.0000
  H   H2660     1.0  0.79760  0.50559  0.32025  1.0000
  C   C1501     1.0  0.72105  0.56483  0.24711  1.0000
  H   H2661     1.0  0.97864  0.69413  0.36565  1.0000
  H   H2662     1.0  0.79578  0.60583  0.44614  1.0000
  C   C1502     1.0  0.99433  0.77766  0.34445  1.0000
  H   H2663     1.0  0.98766  0.56093  0.30742  1.0000
  C   C1503     1.0  0.72884  0.49974  0.32138  1.0000
  H   H2664     1.0  0.82889  0.62157  0.26351  1.0000
  H   H2665     1.0  0.70379  0.52048  0.33609  1.0000
  H   H2666     1.0  0.72574  0.53487  0.32292  1.0000
  H   H2667     1.0  0.88089  0.75240  0.27088  1.0000
  H   H2668     1.0  0.66561  0.81171  0.48017  1.0000
  H   H2669     1.0  0.49836  0.90548  0.34901  1.0000
  H   H2670     1.0  0.97877  0.77753  0.37579  1.0000
  H   H2671     1.0  0.80825  0.49669  0.29439  1.0000
  H   H2672     1.0  0.61694  0.55029  0.25604  1.0000
  C   C1504     1.0  0.71101  0.98718  0.38624  1.0000
  C   C1505     1.0  0.99112  0.70450  0.35756  1.0000
  H   H2673     1.0  0.99561  0.65369  0.31457  1.0000
  H   H2674     1.0  0.52423  0.87576  0.48407  1.0000
  C   C1506     1.0  0.98034  0.72442  0.34667  1.0000
  H   H2675     1.0  0.69883  0.53874  0.25295  1.0000
  H   H2676     1.0  0.52719  0.84694  0.48906  1.0000
  H   H2677     1.0  0.99310  0.73375  0.33798  1.0000
  C   C1507     1.0  0.75402  0.49788  0.31905  1.0000
  H   H2678     1.0  0.50236  0.85565  0.45879  1.0000
  C   C1508     1.0  0.88458  0.76799  0.26230  1.0000
  H   H2679     1.0  0.67070  0.99120  0.43250  1.0000
  C   C1509     1.0  0.63048  0.63098  0.24715  1.0000
  C   C1510     1.0  0.66315  0.60775  0.25166  1.0000
  H   H2680     1.0  0.49803  0.94206  0.39392  1.0000
  H   H2681     1.0  0.49802  0.98455  0.36973  1.0000
  S   S336      1.0  0.91588  0.52364  0.65798  1.0000
  H   H2682     1.0  0.86089  0.72543  0.59573  1.0000
  Fe  Fe170     1.0  0.94437  0.69699  0.62609  1.0000
  S   S337      1.0  0.96720  0.70231  0.59730  1.0000
  S   S338      1.0  0.93447  0.72754  0.64564  1.0000
  Fe  Fe171     1.0  0.93668  0.64920  0.61273  1.0000
  S   S339      1.0  0.95943  0.65217  0.58355  1.0000
  S   S340      1.0  0.91429  0.61984  0.61577  1.0000
  Fe  Fe172     1.0  0.98167  0.66931  0.60552  1.0000
  Fe  Fe173     1.0  0.94301  0.68493  0.57756  1.0000
  S   S341      1.0  0.93473  0.69691  0.54301  1.0000
  S   S342      1.0  0.95975  0.66450  0.63542  1.0000
  S   S343      1.0  0.91944  0.68139  0.60561  1.0000
  H   H2683     1.0  0.60022  0.96762  0.52998  1.0000
  S   S344      1.0  0.64139  0.97529  0.64755  1.0000
  Fe  Fe174     1.0  0.58356  0.95674  0.66762  1.0000
  S   S345      1.0  0.61233  0.93407  0.66339  1.0000
  S   S346      1.0  0.54790  0.94631  0.67139  1.0000
  Fe  Fe175     1.0  0.63223  0.95911  0.67972  1.0000
  S   S347      1.0  0.65538  0.94636  0.70660  1.0000
  Fe  Fe176     1.0  0.61926  0.95211  0.63173  1.0000
  S   S348      1.0  0.62098  0.93081  0.60168  1.0000
  S   S349      1.0  0.60265  0.98097  0.68597  1.0000
  S   S350      1.0  0.58983  0.97404  0.63541  1.0000
  C   C1511     1.0  0.88049  0.77434  0.55136  1.0000
  H   H2684     1.0  0.61963  0.98872  0.52626  1.0000
  H   H2685     1.0  0.74975  0.93379  0.66624  1.0000
  H   H2686     1.0  0.80395  0.91137  0.70937  1.0000
  C   C1512     1.0  0.63079  0.93392  0.57430  1.0000
  C   C1513     1.0  0.64500  0.95029  0.56763  1.0000
  C   C1514     1.0  0.65313  0.95141  0.54598  1.0000
  C   C1515     1.0  0.64718  0.93624  0.53066  1.0000
  C   C1516     1.0  0.63270  0.92007  0.53726  1.0000
  C   C1517     1.0  0.62466  0.91889  0.55894  1.0000
  H   H2687     1.0  0.65026  0.96161  0.57932  1.0000
  H   H2688     1.0  0.66442  0.96389  0.54115  1.0000
  H   H2689     1.0  0.62799  0.90826  0.52575  1.0000
  H   H2690     1.0  0.61380  0.90607  0.56391  1.0000
  C   C1518     1.0  0.67719  0.95585  0.72229  1.0000
  H   H2691     1.0  0.81528  0.96128  0.71631  1.0000
  H   H2692     1.0  0.57924  0.98883  0.55686  1.0000
  C   C1519     1.0  0.80361  0.68208  0.50862  1.0000
  H   H2693     1.0  0.87394  0.51685  0.68253  1.0000
  C   C1520     1.0  0.90988  0.70551  0.53075  1.0000
  C   C1521     1.0  0.88995  0.70580  0.54221  1.0000
  C   C1522     1.0  0.87094  0.71387  0.53213  1.0000
  H   H2694     1.0  0.76168  0.96141  0.71502  1.0000
  H   H2695     1.0  0.83212  0.55181  0.62145  1.0000
  H   H2696     1.0  0.86721  0.54061  0.65317  1.0000
  H   H2697     1.0  0.88923  0.69986  0.55885  1.0000
  H   H2698     1.0  0.85572  0.71433  0.54130  1.0000
  H   H2699     1.0  0.83209  0.51837  0.65946  1.0000
  H   H2700     1.0  0.85873  0.59229  0.68365  1.0000
  C   C1523     1.0  0.94137  0.73987  0.67056  1.0000
  C   C1524     1.0  0.93487  0.76163  0.67403  1.0000
  C   C1525     1.0  0.93976  0.77218  0.69336  1.0000
  C   C1526     1.0  0.95133  0.76114  0.70970  1.0000
  C   C1527     1.0  0.95787  0.73936  0.70624  1.0000
  C   C1528     1.0  0.95280  0.72875  0.68697  1.0000
  H   H2701     1.0  0.92590  0.77048  0.66172  1.0000
  H   H2702     1.0  0.93457  0.78888  0.69563  1.0000
  H   H2703     1.0  0.96671  0.73052  0.71873  1.0000
  H   H2704     1.0  0.95755  0.71191  0.68498  1.0000
  C   C1529     1.0  0.51298  0.88722  0.70297  1.0000
  C   C1530     1.0  0.53409  0.89225  0.70912  1.0000
  C   C1531     1.0  0.54505  0.91012  0.69962  1.0000
  C   C1532     1.0  0.53495  0.92342  0.68393  1.0000
  C   C1533     1.0  0.51378  0.91846  0.67784  1.0000
  C   C1534     1.0  0.87561  0.76155  0.57281  1.0000
  H   H2705     1.0  0.54205  0.88220  0.72135  1.0000
  H   H2706     1.0  0.56125  0.91373  0.70461  1.0000
  H   H2707     1.0  0.78506  0.54147  0.71937  1.0000
  H   H2708     1.0  0.82877  0.65057  0.53287  1.0000
  C   C1535     1.0  0.91663  0.54960  0.64440  1.0000
  C   C1536     1.0  0.93088  0.56517  0.65172  1.0000
  C   C1537     1.0  0.93107  0.58645  0.64258  1.0000
  C   C1538     1.0  0.91663  0.59262  0.62625  1.0000
  C   C1539     1.0  0.90246  0.57700  0.61886  1.0000
  C   C1540     1.0  0.90267  0.55557  0.62760  1.0000
  H   H2709     1.0  0.94172  0.56081  0.66473  1.0000
  H   H2710     1.0  0.94192  0.59826  0.64861  1.0000
  H   H2711     1.0  0.89122  0.58156  0.60625  1.0000
  H   H2712     1.0  0.89176  0.54382  0.62157  1.0000
  N   N85       1.0  0.89333  0.76029  0.58929  1.0000
  C   C1541     1.0  0.68768  0.97536  0.71745  1.0000
  H   H2713     1.0  0.93176  0.81086  0.60521  1.0000
  H   H2714     1.0  0.50578  0.92861  0.66572  1.0000
  H   H2715     1.0  0.96056  0.76183  0.54910  1.0000
  H   H2716     1.0  0.81517  0.87351  0.70360  1.0000
  C   C1542     1.0  0.89733  0.78282  0.59703  1.0000
  H   H2717     1.0  0.49891  0.95566  0.70551  1.0000
  H   H2718     1.0  0.97656  0.73506  0.62967  1.0000
  C   C1543     1.0  0.70566  0.98138  0.72959  1.0000
  C   C1544     1.0  0.84398  0.61911  0.53483  1.0000
  H   H2719     1.0  0.98606  0.71177  0.65585  1.0000
  H   H2720     1.0  0.99672  0.77287  0.60336  1.0000
  N   N86       1.0  0.75835  0.92660  0.71237  1.0000
  C   C1545     1.0  0.73454  0.90026  0.73594  1.0000
  C   C1546     1.0  0.50881  0.84860  0.65023  1.0000
  H   H2721     1.0  0.93107  0.80652  0.63424  1.0000
  H   H2722     1.0  0.54748  0.94649  0.62006  1.0000
  H   H2723     1.0  0.92270  0.74020  0.59308  1.0000
  H   H2724     1.0  0.86422  0.78470  0.52186  1.0000
  H   H2725     1.0  0.93913  0.77355  0.58023  1.0000
  H   H2726     1.0  0.98365  0.76073  0.64007  1.0000
  H   H2727     1.0  0.79613  0.93189  0.73704  1.0000
  H   H2728     1.0  0.89256  0.61374  0.68193  1.0000
  H   H2729     1.0  0.90265  0.77967  0.63195  1.0000
  N   N87       1.0  0.56162  0.88129  0.63724  1.0000
  C   C1547     1.0  0.57798  0.88825  0.65328  1.0000
  C   C1548     1.0  0.55126  0.90126  0.62670  1.0000
  C   C1549     1.0  0.54390  0.86948  0.64986  1.0000
  C   C1550     1.0  0.57140  0.86635  0.62029  1.0000
  C   C1551     1.0  0.59564  0.86960  0.61347  1.0000
  C   C1552     1.0  0.58643  0.87018  0.66915  1.0000
  H   H2730     1.0  0.83495  0.61467  0.55009  1.0000
  C   C1553     1.0  0.56668  0.91692  0.61428  1.0000
  C   C1554     1.0  0.55440  0.93726  0.60615  1.0000
  C   C1555     1.0  0.60192  0.85706  0.59312  1.0000
  C   C1556     1.0  0.60632  0.87733  0.68110  1.0000
  H   H2731     1.0  0.50352  0.85594  0.66582  1.0000
  H   H2732     1.0  0.57092  0.90151  0.66336  1.0000
  H   H2733     1.0  0.59225  0.89565  0.64497  1.0000
  H   H2734     1.0  0.53922  0.89670  0.61464  1.0000
  H   H2735     1.0  0.54205  0.91080  0.63917  1.0000
  H   H2736     1.0  0.53817  0.87914  0.66396  1.0000
  H   H2737     1.0  0.55035  0.85385  0.65687  1.0000
  H   H2738     1.0  0.57046  0.84906  0.62592  1.0000
  H   H2739     1.0  0.56162  0.86745  0.60536  1.0000
  H   H2740     1.0  0.60639  0.86359  0.62662  1.0000
  H   H2741     1.0  0.59947  0.88679  0.61012  1.0000
  H   H2742     1.0  0.57365  0.86637  0.68168  1.0000
  H   H2743     1.0  0.59077  0.85509  0.66046  1.0000
  C   C1557     1.0  0.80415  0.96502  0.73026  1.0000
  H   H2744     1.0  0.80151  0.56350  0.72725  1.0000
  H   H2745     1.0  0.57965  0.92239  0.62477  1.0000
  H   H2746     1.0  0.57391  0.90905  0.59975  1.0000
  H   H2747     1.0  0.85854  0.65087  0.50662  1.0000
  H   H2748     1.0  0.56590  0.94776  0.59681  1.0000
  H   H2749     1.0  0.54114  0.93296  0.59534  1.0000
  H   H2750     1.0  0.59913  0.83946  0.59581  1.0000
  H   H2751     1.0  0.59236  0.86326  0.57913  1.0000
  H   H2752     1.0  0.61942  0.85930  0.58903  1.0000
  H   H2753     1.0  0.61989  0.88099  0.66943  1.0000
  H   H2754     1.0  0.60223  0.89199  0.69064  1.0000
  H   H2755     1.0  0.61180  0.86415  0.69247  1.0000
  C   C1558     1.0  0.52352  0.86396  0.63705  1.0000
  C   C1559     1.0  0.94761  0.75100  0.55545  1.0000
  H   H2756     1.0  0.86724  0.69463  0.62126  1.0000
  C   C1560     1.0  0.86072  0.52395  0.69307  1.0000
  H   H2757     1.0  0.73984  0.88644  0.72580  1.0000
  H   H2758     1.0  0.83900  0.68460  0.50742  1.0000
  H   H2759     1.0  0.85270  0.76128  0.53530  1.0000
  H   H2760     1.0  0.88589  0.52524  0.71735  1.0000
  H   H2761     1.0  0.99038  0.78289  0.68566  1.0000
  C   C1561     1.0  0.81767  0.54086  0.70511  1.0000
  H   H2762     1.0  0.92021  0.50640  0.56948  1.0000
  H   H2763     1.0  0.80329  0.71721  0.51173  1.0000
  H   H2764     1.0  0.82824  0.56989  0.68730  1.0000
  H   H2765     1.0  0.84682  0.51321  0.69099  1.0000
  H   H2766     1.0  0.71851  0.90655  0.73039  1.0000
  H   H2767     1.0  0.78227  0.94867  0.69868  1.0000
  H   H2768     1.0  0.79032  0.68331  0.49676  1.0000
  C   C1562     1.0  0.93052  0.76410  0.56826  1.0000
  C   C1563     1.0  0.79107  0.89911  0.70961  1.0000
  S   S351      1.0  0.50019  0.86431  0.71555  1.0000
  C   C1564     1.0  0.85232  0.54737  0.66146  1.0000
  H   H2769     1.0  0.78801  0.86686  0.69645  1.0000
  H   H2770     1.0  0.91949  0.50129  0.54084  1.0000
  H   H2771     1.0  0.77525  0.91557  0.68337  1.0000
  H   H2772     1.0  0.70907  0.93731  0.66662  1.0000
  H   H2773     1.0  0.81862  0.52619  0.62298  1.0000
  C   C1565     1.0  0.89236  0.59742  0.69005  1.0000
  C   C1566     1.0  0.77014  0.90911  0.69967  1.0000
  H   H2774     1.0  0.52818  0.85616  0.62154  1.0000
  C   C1567     1.0  0.83580  0.55671  0.69750  1.0000
  H   H2775     1.0  0.90926  0.73646  0.56867  1.0000
  H   H2776     1.0  0.88926  0.59947  0.70771  1.0000
  H   H2777     1.0  0.84644  0.60426  0.52516  1.0000
  H   H2778     1.0  0.86035  0.71912  0.63557  1.0000
  H   H2779     1.0  0.80367  0.88542  0.67935  1.0000
  C   C1568     1.0  0.87503  0.56041  0.68994  1.0000
  C   C1569     1.0  0.77221  0.94643  0.71383  1.0000
  H   H2780     1.0  0.75902  0.89574  0.69638  1.0000
  C   C1570     1.0  0.87142  0.72132  0.51032  1.0000
  C   C1571     1.0  0.86003  0.77720  0.53797  1.0000
  S   S352      1.0  0.65880  0.93796  0.50383  1.0000
  H   H2781     1.0  0.85920  0.53209  0.72790  1.0000
  C   C1572     1.0  0.87289  0.71101  0.62509  1.0000
  H   H2782     1.0  0.87137  0.75610  0.61718  1.0000
  C   C1573     1.0  0.79993  0.88008  0.69638  1.0000
  H   H2783     1.0  0.55173  0.98452  0.59950  1.0000
  H   H2784     1.0  0.72802  0.91888  0.69746  1.0000
  H   H2785     1.0  0.94008  0.74350  0.54143  1.0000
  H   H2786     1.0  0.79032  0.56356  0.70035  1.0000
  S   S353      1.0  0.84703  0.73239  0.49899  1.0000
  C   C1574     1.0  0.91031  0.71274  0.50886  1.0000
  N   N88       1.0  0.85544  0.54699  0.68567  1.0000
  H   H2787     1.0  0.59180  0.99343  0.51801  1.0000
  H   H2788     1.0  0.89788  0.74468  0.62082  1.0000
  H   H2789     1.0  0.81724  0.54402  0.65840  1.0000
  C   C1575     1.0  0.78732  0.94739  0.73355  1.0000
  H   H2790     1.0  0.66331  0.99413  0.60214  1.0000
  H   H2791     1.0  0.90772  0.81860  0.62111  1.0000
  H   H2792     1.0  0.85015  0.56426  0.65501  1.0000
  H   H2793     1.0  0.81264  0.53034  0.69202  1.0000
  C   C1576     1.0  0.74135  0.94477  0.67787  1.0000
  H   H2794     1.0  0.88650  0.79076  0.55416  1.0000
  S   S354      1.0  0.95390  0.84000  0.73944  1.0000
  H   H2795     1.0  0.88819  0.70901  0.63417  1.0000
  C   C1577     1.0  0.92119  0.80638  0.61943  1.0000
  H   H2796     1.0  0.88162  0.79106  0.60170  1.0000
  S   S355      1.0  0.95854  0.77371  0.73437  1.0000
  H   H2797     1.0  0.84904  0.88123  0.74457  1.0000
  H   H2798     1.0  0.87168  0.74506  0.56751  1.0000
  H   H2799     1.0  0.84783  0.78787  0.54632  1.0000
  H   H2800     1.0  0.71083  0.96360  0.67859  1.0000
  C   C1578     1.0  0.91366  0.74922  0.58007  1.0000
  C   C1579     1.0  0.79744  0.55321  0.71351  1.0000
  C   C1580     1.0  0.73800  0.93324  0.70040  1.0000
  C   C1581     1.0  0.50292  0.90040  0.68714  1.0000
  H   H2801     1.0  0.92294  0.77587  0.55675  1.0000
  C   C1582     1.0  0.86611  0.49786  0.72526  1.0000
  C   C1583     1.0  0.91221  0.78376  0.61691  1.0000
  H   H2802     1.0  0.89013  0.55230  0.68351  1.0000
  H   H2803     1.0  0.72757  0.94420  0.71056  1.0000
  H   H2804     1.0  0.75097  0.95964  0.67899  1.0000
  C   C1584     1.0  0.75140  0.91857  0.73481  1.0000
  H   H2805     1.0  0.90858  0.58947  0.68742  1.0000
  H   H2806     1.0  0.86035  0.76844  0.58035  1.0000
  H   H2807     1.0  0.90421  0.79335  0.58387  1.0000
  H   H2808     1.0  0.96879  0.76479  0.60374  1.0000
  C   C1585     1.0  0.71951  0.95158  0.66820  1.0000
  H   H2809     1.0  0.88856  0.71529  0.59366  1.0000
  C   C1586     1.0  0.88493  0.74714  0.60869  1.0000
  C   C1587     1.0  0.83104  0.63649  0.52213  1.0000
  C   C1588     1.0  0.83249  0.53539  0.65330  1.0000
  H   H2810     1.0  0.72219  0.95917  0.65184  1.0000
  H   H2811     1.0  0.87791  0.58394  0.66262  1.0000
  H   H2812     1.0  0.87734  0.56155  0.70771  1.0000
  H   H2813     1.0  0.84070  0.56488  0.71243  1.0000
  C   C1589     1.0  0.87465  0.58400  0.68043  1.0000
  H   H2814     1.0  0.95515  0.73808  0.56587  1.0000
  H   H2815     1.0  0.86007  0.62525  0.53916  1.0000
  C   C1590     1.0  0.87667  0.72425  0.60404  1.0000
  H   H2816     1.0  0.82336  0.53004  0.71859  1.0000
  H   H2817     1.0  0.78823  0.89286  0.72643  1.0000
  C   C1591     1.0  0.86843  0.52120  0.71676  1.0000
  H   H2818     1.0  0.92609  0.77194  0.61576  1.0000
  H   H2819     1.0  0.89267  0.76511  0.54139  1.0000
  H   H2820     1.0  0.84785  0.52663  0.62224  1.0000
  C   C1592     1.0  0.83285  0.53503  0.62849  1.0000
  H   H2821     1.0  0.81504  0.70219  0.53435  1.0000
  C   C1593     1.0  0.98828  0.74828  0.62805  1.0000
  H   H2822     1.0  0.97850  0.67623  0.67699  1.0000
  H   H2823     1.0  0.79603  0.98110  0.72738  1.0000
  C   C1594     1.0  0.68470  0.94286  0.73987  1.0000
  H   H2824     1.0  0.67669  0.92784  0.74396  1.0000
  C   C1595     1.0  0.89122  0.72047  0.49865  1.0000
  C   C1596     1.0  0.80197  0.70238  0.52228  1.0000
  H   H2825     1.0  0.68216  0.98562  0.70408  1.0000
  H   H2826     1.0  0.92559  0.71254  0.49977  1.0000
  H   H2827     1.0  0.98968  0.74696  0.59269  1.0000
  H   H2828     1.0  0.60668  0.98441  0.56463  1.0000
  H   H2829     1.0  0.76547  0.91286  0.74440  1.0000
  C   C1597     1.0  0.60232  0.98546  0.53039  1.0000
  H   H2830     1.0  0.80041  0.66793  0.51950  1.0000
  C   C1598     1.0  0.84347  0.64350  0.50109  1.0000
  H   H2831     1.0  0.51740  0.83287  0.65371  1.0000
  H   H2832     1.0  0.78600  0.70309  0.53106  1.0000
  H   H2833     1.0  0.51015  0.86334  0.50701  1.0000
  H   H2834     1.0  0.99117  0.74529  0.67225  1.0000
  H   H2835     1.0  0.51368  0.87894  0.63349  1.0000
  H   H2836     1.0  0.81507  0.62966  0.51875  1.0000
  C   C1599     1.0  0.59624  0.99348  0.55304  1.0000
  C   C1600     1.0  0.98583  0.75886  0.60553  1.0000
  H   H2837     1.0  0.74419  0.93230  0.74409  1.0000
  C   C1601     1.0  0.99634  0.67307  0.67699  1.0000
  H   H2838     1.0  0.78449  0.49644  0.71804  1.0000
  H   H2839     1.0  0.81400  0.96582  0.74505  1.0000
  H   H2840     1.0  0.62359  0.99572  0.59968  1.0000
  C   C1602     1.0  0.82595  0.68022  0.49628  1.0000
  H   H2841     1.0  0.75748  0.54918  0.82980  1.0000
  S   S356      1.0  0.51662  0.65911  0.87592  1.0000
  Fe  Fe177     1.0  0.66266  0.62006  0.96794  1.0000
  S   S357      1.0  0.65668  0.65596  0.96190  1.0000
  Fe  Fe178     1.0  0.66208  0.61017  0.91914  1.0000
  S   S358      1.0  0.65567  0.64551  0.91012  1.0000
  S   S359      1.0  0.66053  0.58567  0.89182  1.0000
  Fe  Fe179     1.0  0.68139  0.65311  0.93424  1.0000
  S   S360      1.0  0.71021  0.67449  0.92280  1.0000
  Fe  Fe180     1.0  0.63157  0.64563  0.93818  1.0000
  S   S361      1.0  0.59695  0.66057  0.94003  1.0000
  S   S362      1.0  0.68889  0.61763  0.94154  1.0000
  S   S363      1.0  0.63641  0.60995  0.94595  1.0000
  Fe  Fe181     1.0  0.77812  0.97774  0.83142  1.0000
  S   S364      1.0  0.74780  0.95961  0.82396  1.0000
  Fe  Fe182     1.0  0.80592  0.94991  0.80004  1.0000
  S   S365      1.0  0.77773  0.93050  0.79003  1.0000
  S   S366      1.0  0.84156  0.94587  0.78995  1.0000
  Fe  Fe183     1.0  0.75826  0.96206  0.78870  1.0000
  N   N89       1.0  0.51585  0.72998  0.84456  1.0000
  Fe  Fe184     1.0  0.76930  0.92951  0.82583  1.0000
  S   S367      1.0  0.75958  0.89695  0.84050  1.0000
  S   S368      1.0  0.78754  0.98185  0.79605  1.0000
  S   S369      1.0  0.79851  0.94720  0.83597  1.0000
  Fe  Fe185     1.0  0.94106  0.82226  0.79970  1.0000
  S   S370      1.0  0.92007  0.81284  0.77232  1.0000
  S   S371      1.0  0.93677  0.81887  0.83667  1.0000
  Fe  Fe186     1.0  0.97301  0.84700  0.76936  1.0000
  Fe  Fe187     1.0  0.92392  0.84756  0.76049  1.0000
  H   H2842     1.0  0.59138  0.55889  0.91664  1.0000
  H   H2843     1.0  0.72833  0.94743  0.86919  1.0000
  S   S372      1.0  0.94328  0.85728  0.78879  1.0000
  S   S373      1.0  0.97165  0.81222  0.78148  1.0000
  Fe  Fe188     1.0  0.79789  0.77403  0.94403  1.0000
  S   S374      1.0  0.80387  0.80356  0.96406  1.0000
  S   S375      1.0  0.76747  0.75382  0.95363  1.0000
  Fe  Fe189     1.0  0.83884  0.78356  0.91545  1.0000
  S   S376      1.0  0.84737  0.81311  0.93339  1.0000
  S   S377      1.0  0.85777  0.77173  0.88564  1.0000
  Fe  Fe190     1.0  0.83934  0.79360  0.96380  1.0000
  Fe  Fe191     1.0  0.81154  0.82107  0.93230  1.0000
  S   S378      1.0  0.80240  0.85659  0.92560  1.0000
  S   S379      1.0  0.83304  0.76291  0.94579  1.0000
  S   S380      1.0  0.80331  0.79266  0.91238  1.0000
  C   C1603     1.0  0.91350  0.80700  0.84923  1.0000
  C   C1604     1.0  0.90254  0.79043  0.83946  1.0000
  C   C1605     1.0  0.88540  0.77994  0.85075  1.0000
  C   C1606     1.0  0.87868  0.78622  0.87167  1.0000
  C   C1607     1.0  0.88904  0.80344  0.88106  1.0000
  C   C1608     1.0  0.90652  0.81360  0.86998  1.0000
  H   H2844     1.0  0.90776  0.78517  0.82351  1.0000
  H   H2845     1.0  0.87747  0.76670  0.84330  1.0000
  H   H2846     1.0  0.88379  0.80865  0.89696  1.0000
  H   H2847     1.0  0.91475  0.82656  0.87754  1.0000
  C   C1609     1.0  0.85498  0.92235  0.77961  1.0000
  C   C1610     1.0  0.87669  0.91779  0.78504  1.0000
  C   C1611     1.0  0.88832  0.89994  0.77621  1.0000
  C   C1612     1.0  0.87846  0.88669  0.76149  1.0000
  H   H2848     1.0  0.84645  0.81977  0.87194  1.0000
  C   C1613     1.0  0.51608  0.75596  0.81046  1.0000
  H   H2849     1.0  0.88467  0.92827  0.79593  1.0000
  H   H2850     1.0  0.90509  0.89679  0.78032  1.0000
  H   H2851     1.0  0.58721  0.61656  0.95966  1.0000
  H   H2852     1.0  0.89312  0.84558  0.92197  1.0000
  C   C1614     1.0  0.77277  0.88561  0.86342  1.0000
  C   C1615     1.0  0.77032  0.86351  0.86882  1.0000
  C   C1616     1.0  0.77994  0.85413  0.88742  1.0000
  C   C1617     1.0  0.79190  0.86692  0.90090  1.0000
  C   C1618     1.0  0.79478  0.88890  0.89518  1.0000
  C   C1619     1.0  0.78543  0.89818  0.87643  1.0000
  H   H2853     1.0  0.76093  0.85366  0.85852  1.0000
  H   H2854     1.0  0.77780  0.83716  0.89157  1.0000
  H   H2855     1.0  0.80433  0.89874  0.90534  1.0000
  H   H2856     1.0  0.78762  0.91513  0.87228  1.0000
  C   C1620     1.0  0.59937  0.55351  0.88316  1.0000
  H   H2857     1.0  0.61197  0.57599  0.90615  1.0000
  H   H2858     1.0  0.72480  0.94100  0.89771  1.0000
  C   C1621     1.0  0.74572  0.65084  0.86188  1.0000
  H   H2859     1.0  0.74368  0.92514  0.88113  1.0000
  C   C1622     1.0  0.72636  0.69603  0.93225  1.0000
  C   C1623     1.0  0.72247  0.70578  0.95230  1.0000
  C   C1624     1.0  0.73528  0.72323  0.95854  1.0000
  C   C1625     1.0  0.75242  0.73109  0.94507  1.0000
  C   C1626     1.0  0.75647  0.72114  0.92516  1.0000
  C   C1627     1.0  0.74350  0.70388  0.91881  1.0000
  H   H2860     1.0  0.70937  0.70014  0.96285  1.0000
  H   H2861     1.0  0.73188  0.73072  0.97395  1.0000
  H   H2862     1.0  0.76958  0.72676  0.91462  1.0000
  H   H2863     1.0  0.74681  0.69654  0.90330  1.0000
  C   C1628     1.0  0.53854  0.65967  0.89423  1.0000
  C   C1629     1.0  0.55994  0.65681  0.88597  1.0000
  C   C1630     1.0  0.57796  0.65701  0.89967  1.0000
  C   C1631     1.0  0.57483  0.66015  0.92193  1.0000
  C   C1632     1.0  0.55344  0.66340  0.93015  1.0000
  C   C1633     1.0  0.53540  0.66302  0.91646  1.0000
  H   H2864     1.0  0.56260  0.65455  0.86876  1.0000
  H   H2865     1.0  0.59428  0.65502  0.89301  1.0000
  H   H2866     1.0  0.55077  0.66605  0.94730  1.0000
  H   H2867     1.0  0.51909  0.66538  0.92311  1.0000
  C   C1634     1.0  0.70481  0.53017  0.86481  1.0000
  C   C1635     1.0  0.71045  0.54090  0.88366  1.0000
  C   C1636     1.0  0.69707  0.55771  0.89232  1.0000
  C   C1637     1.0  0.67785  0.56414  0.88213  1.0000
  C   C1638     1.0  0.67216  0.55341  0.86331  1.0000
  C   C1639     1.0  0.68547  0.53651  0.85473  1.0000
  H   H2868     1.0  0.72529  0.53607  0.89169  1.0000
  H   H2869     1.0  0.70163  0.56561  0.90690  1.0000
  H   H2870     1.0  0.65736  0.55822  0.85522  1.0000
  H   H2871     1.0  0.68090  0.52853  0.84020  1.0000
  H   H2872     1.0  0.90003  0.77222  0.92036  1.0000
  H   H2873     1.0  0.81742  0.93136  0.92848  1.0000
  C   C1640     1.0  0.71446  0.61101  0.86100  1.0000
  C   C1641     1.0  0.76435  0.66483  0.85324  1.0000
  S   S381      1.0  0.72305  0.50986  0.85415  1.0000
  H   H2874     1.0  0.54889  0.69634  0.85667  1.0000
  H   H2875     1.0  0.49914  0.77156  0.85822  1.0000
  H   H2876     1.0  0.79109  0.92082  0.93563  1.0000
  C   C1642     1.0  0.69717  0.62777  0.86936  1.0000
  C   C1643     1.0  0.67799  0.62985  0.85416  1.0000
  H   H2877     1.0  0.51281  0.68922  0.79152  1.0000
  C   C1644     1.0  0.96057  0.90176  0.83526  1.0000
  H   H2878     1.0  0.96871  0.89013  0.87597  1.0000
  H   H2879     1.0  0.72269  0.60292  0.90315  1.0000
  C   C1645     1.0  0.74583  0.57800  0.84646  1.0000
  H   H2880     1.0  0.51317  0.56972  0.90583  1.0000
  H   H2881     1.0  0.70659  0.59506  0.86371  1.0000
  C   C1646     1.0  0.74649  0.58808  0.86926  1.0000
  N   N90       1.0  0.92126  0.79238  0.95512  1.0000
  H   H2882     1.0  0.85735  0.97716  0.89008  1.0000
  H   H2883     1.0  0.70364  0.64412  0.87122  1.0000
  C   C1647     1.0  0.52869  0.72522  0.86480  1.0000
  H   H2884     1.0  0.55403  0.70467  0.89594  1.0000
  N   N91       1.0  0.78542  0.96382  0.91596  1.0000
  C   C1648     1.0  0.93902  0.79314  0.91635  1.0000
  H   H2885     1.0  0.54367  0.74169  0.82596  1.0000
  H   H2886     1.0  0.53022  0.76162  0.84163  1.0000
  H   H2887     1.0  0.69087  0.62225  0.88557  1.0000
  C   C1649     1.0  0.51501  0.70922  0.83212  1.0000
  H   H2888     1.0  0.68338  0.63624  0.83794  1.0000
  H   H2889     1.0  0.67045  0.61384  0.85237  1.0000
  H   H2890     1.0  0.66551  0.64127  0.86097  1.0000
  C   C1650     1.0  0.80309  0.93310  0.93963  1.0000
  H   H2891     1.0  0.77868  0.95636  0.94990  1.0000
  C   C1651     1.0  0.98465  0.86455  0.89352  1.0000
  H   H2892     1.0  0.96671  0.81345  0.90804  1.0000
  H   H2893     1.0  0.93364  0.77702  0.91145  1.0000
  H   H2894     1.0  0.80424  0.96793  0.94473  1.0000
  H   H2895     1.0  0.87914  0.77571  0.94073  1.0000
  C   C1652     1.0  0.70238  0.94911  0.75229  1.0000
  H   H2896     1.0  0.83710  0.97151  0.87062  1.0000
  H   H2897     1.0  0.75925  0.83911  0.95103  1.0000
  H   H2898     1.0  0.85511  0.87179  0.80067  1.0000
  H   H2899     1.0  0.77697  0.77618  0.86597  1.0000
  H   H2900     1.0  0.61947  0.59486  0.87413  1.0000
  H   H2901     1.0  0.83114  0.82359  0.83487  1.0000
  H   H2902     1.0  0.77952  0.75602  0.88770  1.0000
  H   H2903     1.0  0.92789  0.83563  0.93977  1.0000
  H   H2904     1.0  0.94071  0.92488  0.81679  1.0000
  C   C1653     1.0  0.91128  0.77019  0.95445  1.0000
  H   H2905     1.0  0.76721  0.74917  0.86273  1.0000
  H   H2906     1.0  0.69624  0.84071  0.86478  1.0000
  H   H2907     1.0  0.55769  0.58308  0.94028  1.0000
  C   C1654     1.0  0.94285  0.77910  0.98886  1.0000
  H   H2908     1.0  0.63282  0.54460  0.89110  1.0000
  H   H2909     1.0  0.51754  0.74346  0.79787  1.0000
  H   H2910     1.0  0.97283  0.78453  0.90830  1.0000
  C   C1655     1.0  0.58421  0.60051  0.87856  1.0000
  C   C1656     1.0  0.88804  0.84459  0.80651  1.0000
  H   H2911     1.0  0.84385  0.84572  0.80270  1.0000
  C   C1657     1.0  0.84985  0.85901  0.81268  1.0000
  H   H2912     1.0  0.70841  0.82030  0.84731  1.0000
  H   H2913     1.0  0.95919  0.77972  0.98084  1.0000
  H   H2914     1.0  0.53557  0.60159  0.91330  1.0000
  C   C1658     1.0  0.87042  0.84934  0.82364  1.0000
  C   C1659     1.0  0.60777  0.60867  0.87574  1.0000
  C   C1660     1.0  0.57343  0.59134  0.94052  1.0000
  C   C1661     1.0  0.57154  0.60830  0.95811  1.0000
  C   C1662     1.0  0.61034  0.62290  0.85520  1.0000
  H   H2915     1.0  0.59581  0.60881  0.91979  1.0000
  H   H2916     1.0  0.57330  0.61509  0.87771  1.0000
  H   H2917     1.0  0.74461  0.63779  0.93190  1.0000
  H   H2918     1.0  0.61247  0.61833  0.88967  1.0000
  H   H2919     1.0  0.58620  0.57930  0.94548  1.0000
  H   H2920     1.0  0.55864  0.62063  0.95424  1.0000
  H   H2921     1.0  0.50251  0.59462  0.89375  1.0000
  H   H2922     1.0  0.62733  0.62840  0.85358  1.0000
  H   H2923     1.0  0.60670  0.61360  0.84062  1.0000
  H   H2924     1.0  0.59935  0.63745  0.85598  1.0000
  N   N92       1.0  0.73645  0.61063  0.87138  1.0000
  C   C1663     1.0  0.89443  0.76661  0.93669  1.0000
  H   H2925     1.0  0.73141  0.65518  0.85196  1.0000
  H   H2926     1.0  0.51905  0.71498  0.87659  1.0000
  C   C1664     1.0  0.73686  0.94171  0.88400  1.0000
  H   H2927     1.0  0.75447  0.54543  0.85873  1.0000
  C   C1665     1.0  0.89560  0.84930  0.93925  1.0000
  S   S382      1.0  0.89265  0.86468  0.74901  1.0000
  H   H2928     1.0  0.84764  0.94999  0.88831  1.0000
  H   H2929     1.0  0.91217  0.79693  0.98876  1.0000
  C   C1666     1.0  0.75960  0.55703  0.84558  1.0000
  H   H2930     1.0  0.92727  0.80585  0.91084  1.0000
  H   H2931     1.0  0.77738  0.95147  0.74819  1.0000
  C   C1667     1.0  0.55717  0.57754  0.89685  1.0000
  H   H2932     1.0  0.95510  0.85413  0.91076  1.0000
  H   H2933     1.0  0.49872  0.76045  0.81330  1.0000
  H   H2934     1.0  0.90186  0.83586  0.81407  1.0000
  C   C1668     1.0  0.85673  0.89128  0.75606  1.0000
  C   C1669     1.0  0.55108  0.71334  0.86154  1.0000
  H   H2935     1.0  0.51678  0.57523  0.87693  1.0000
  C   C1670     1.0  0.52725  0.74750  0.83137  1.0000
  H   H2936     1.0  0.95645  0.86698  0.83323  1.0000
  H   H2937     1.0  0.88219  0.73654  0.95126  1.0000
  C   C1671     1.0  0.59595  0.56923  0.90226  1.0000
  H   H2938     1.0  0.87716  0.86029  0.83549  1.0000
  H   H2939     1.0  0.83143  0.96694  0.92022  1.0000
  N   N93       1.0  0.98559  0.87101  0.85148  1.0000
  H   H2940     1.0  0.78629  0.85411  0.78061  1.0000
  H   H2941     1.0  0.70765  0.93898  0.76582  1.0000
  C   C1672     1.0  0.82867  0.82014  0.86961  1.0000
  H   H2942     1.0  0.57909  0.70301  0.88024  1.0000
  H   H2943     1.0  0.89404  0.85991  0.79902  1.0000
  C   C1673     1.0  0.92715  0.79618  0.97831  1.0000
  C   C1674     1.0  0.56369  0.71255  0.88258  1.0000
  H   H2944     1.0  0.72895  0.57384  0.84260  1.0000
  C   C1675     1.0  0.51625  0.58254  0.89320  1.0000
  H   H2945     1.0  0.61994  0.52589  0.87399  1.0000
  C   C1676     1.0  0.80835  0.87717  0.79381  1.0000
  H   H2946     1.0  0.71755  0.87990  0.75976  1.0000
  H   H2947     1.0  0.97870  0.87762  0.81757  1.0000
  H   H2948     1.0  0.68115  0.75548  0.93886  1.0000
  C   C1677     1.0  0.57947  0.60195  0.91811  1.0000
  H   H2949     1.0  0.60414  0.56222  0.86788  1.0000
  C   C1678     1.0  0.61729  0.53659  0.88807  1.0000
  H   H2950     1.0  0.76829  0.66135  0.83598  1.0000
  H   H2951     1.0  0.84599  0.85637  0.85752  1.0000
  H   H2952     1.0  0.76627  0.95755  0.87448  1.0000
  H   H2953     1.0  0.51420  0.69495  0.84361  1.0000
  C   C1679     1.0  0.52712  0.77616  0.80100  1.0000
  H   H2954     1.0  0.53932  0.60689  0.88466  1.0000
  H   H2955     1.0  0.56847  0.61628  0.91545  1.0000
  H   H2956     1.0  0.72032  0.84659  0.84869  1.0000
  H   H2957     1.0  0.74234  0.65541  0.87892  1.0000
  H   H2958     1.0  0.92422  0.75731  0.95300  1.0000
  H   H2959     1.0  0.97709  0.83719  0.85107  1.0000
  C   C1680     1.0  0.53747  0.59387  0.89729  1.0000
  H   H2960     1.0  0.55430  0.56483  0.90971  1.0000
  N   N94       1.0  0.57923  0.58726  0.89896  1.0000
  H   H2961     1.0  0.55646  0.56885  0.88132  1.0000
  H   H2962     1.0  0.88176  0.83432  0.79368  1.0000
  H   H2963     1.0  0.70134  0.73738  0.92667  1.0000
  C   C1681     1.0  0.75149  0.62638  0.85981  1.0000
  H   H2964     1.0  0.82056  0.82812  0.88369  1.0000
  H   H2965     1.0  0.71635  0.61318  0.84306  1.0000
  H   H2966     1.0  0.58061  0.59129  0.86386  1.0000
  C   C1682     1.0  0.97310  0.87289  0.87280  1.0000
  H   H2967     1.0  0.90130  0.86619  0.94003  1.0000
  H   H2968     1.0  0.91478  0.83859  0.96608  1.0000
  H   H2969     1.0  0.87649  0.74077  0.92292  1.0000
  S   S383      1.0  0.86007  0.79069  0.99436  1.0000
  N   N95       1.0  0.72770  0.79740  0.90903  1.0000
  C   C1683     1.0  0.71460  0.80782  0.89099  1.0000
  C   C1684     1.0  0.71427  0.78103  0.92194  1.0000
  C   C1685     1.0  0.73350  0.81521  0.92406  1.0000
  C   C1686     1.0  0.74858  0.78695  0.90065  1.0000
  C   C1687     1.0  0.74657  0.76925  0.88361  1.0000
  C   C1688     1.0  0.72614  0.82550  0.87683  1.0000
  C   C1689     1.0  0.74496  0.80785  0.94525  1.0000
  C   C1690     1.0  0.69732  0.76836  0.90943  1.0000
  H   H2970     1.0  0.99094  0.84764  0.89209  1.0000
  C   C1691     1.0  0.76895  0.76230  0.87448  1.0000
  C   C1692     1.0  0.71182  0.83369  0.85830  1.0000
  H   H2971     1.0  0.82843  0.91245  0.76057  1.0000
  H   H2972     1.0  0.69938  0.81535  0.89793  1.0000
  H   H2973     1.0  0.70915  0.79559  0.87963  1.0000
  H   H2974     1.0  0.72509  0.76899  0.93049  1.0000
  H   H2975     1.0  0.70460  0.78916  0.93509  1.0000
  H   H2976     1.0  0.71863  0.82486  0.92878  1.0000
  H   H2977     1.0  0.74474  0.82680  0.91576  1.0000
  H   H2978     1.0  0.75975  0.79949  0.89396  1.0000
  H   H2979     1.0  0.75743  0.77886  0.91422  1.0000
  H   H2980     1.0  0.73673  0.77497  0.86972  1.0000
  H   H2981     1.0  0.73927  0.75460  0.89133  1.0000
  H   H2982     1.0  0.72969  0.83981  0.88653  1.0000
  H   H2983     1.0  0.74152  0.81903  0.86946  1.0000
  H   H2984     1.0  0.76114  0.80045  0.94144  1.0000
  H   H2985     1.0  0.73536  0.79589  0.95494  1.0000
  H   H2986     1.0  0.68344  0.77939  0.90510  1.0000
  H   H2987     1.0  0.70420  0.76153  0.89427  1.0000
  H   H2988     1.0  0.73832  0.57649  0.88079  1.0000
  H   H2989     1.0  0.95279  0.77921  0.94519  1.0000
  C   C1693     1.0  0.97027  0.87829  0.83376  1.0000
  H   H2990     1.0  0.98746  0.84261  0.81340  1.0000
  C   C1694     1.0  0.79272  0.95631  0.93815  1.0000
  H   H2991     1.0  0.77289  0.93299  0.90699  1.0000
  H   H2992     1.0  0.72592  0.63092  0.89831  1.0000
  C   C1695     1.0  0.91245  0.83359  0.94917  1.0000
  H   H2993     1.0  0.77906  0.66180  0.86303  1.0000
  H   H2994     1.0  0.86680  0.83377  0.83230  1.0000
  H   H2995     1.0  0.83519  0.90114  0.81537  1.0000
  C   C1696     1.0  0.85550  0.89809  0.84252  1.0000
  C   C1697     1.0  0.84498  0.90889  0.76520  1.0000
  H   H2996     1.0  0.79683  0.87139  0.82695  1.0000
  H   H2997     1.0  0.75461  0.94848  0.92313  1.0000
  C   C1698     1.0  0.85453  0.92202  0.84833  1.0000
  H   H2998     1.0  0.87983  0.84826  0.94835  1.0000
  H   H2999     1.0  0.94967  0.90342  0.84975  1.0000
  H   H3000     1.0  0.61274  0.52640  0.90253  1.0000
  H   H3001     1.0  0.86987  0.89564  0.83151  1.0000
  H   H3002     1.0  0.74474  0.64483  0.99206  1.0000
  H   H3003     1.0  0.74735  0.97367  0.89035  1.0000
  H   H3004     1.0  0.82176  0.87212  0.78254  1.0000
  C   C1699     1.0  0.94180  0.79329  0.94122  1.0000
  H   H3005     1.0  0.58429  0.54467  0.88036  1.0000
  N   N96       1.0  0.83188  0.86792  0.82730  1.0000
  H   H3006     1.0  0.85330  0.93252  0.83348  1.0000
  H   H3007     1.0  0.95789  0.79711  0.88635  1.0000
  C   C1700     1.0  0.73106  0.89151  0.75917  1.0000
  C   C1701     1.0  0.75524  0.61407  0.90819  1.0000
  H   H3008     1.0  0.82335  0.93900  0.96724  1.0000
  H   H3009     1.0  0.56772  0.72917  0.88736  1.0000
  H   H3010     1.0  0.86955  0.92614  0.85670  1.0000
  H   H3011     1.0  0.93255  0.89717  0.81516  1.0000
  H   H3012     1.0  0.89007  0.80863  0.95966  1.0000
  H   H3013     1.0  0.80531  0.83180  0.84680  1.0000
  H   H3014     1.0  0.84030  0.92542  0.85927  1.0000
  H   H3015     1.0  0.85789  0.88867  0.85784  1.0000
  C   C1702     1.0  0.83465  0.89179  0.83098  1.0000
  C   C1703     1.0  0.94679  0.90782  0.81564  1.0000
  H   H3016     1.0  0.95650  0.90634  0.80030  1.0000
  C   C1704     1.0  0.81048  0.86556  0.81629  1.0000
  C   C1705     1.0  0.76692  0.94992  0.90964  1.0000
  H   H3017     1.0  0.80711  0.94424  0.89565  1.0000
  H   H3018     1.0  0.82028  0.89840  0.84030  1.0000
  S   S384      1.0  0.73722  0.97591  0.76069  1.0000
  H   H3019     1.0  0.95747  0.86420  0.87195  1.0000
  H   H3020     1.0  0.56732  0.60032  0.97397  1.0000
  C   C1706     1.0  0.96049  0.79733  0.90412  1.0000
  C   C1707     1.0  0.75102  0.62078  0.93158  1.0000
  C   C1708     1.0  0.90477  0.80983  0.94879  1.0000
  H   H3021     1.0  0.75231  0.62337  0.84213  1.0000
  C   C1709     1.0  0.83037  0.85620  0.84905  1.0000
  H   H3022     1.0  0.89877  0.80738  0.93232  1.0000
  H   H3023     1.0  0.80845  0.89500  0.79530  1.0000
  C   C1710     1.0  0.99159  0.84742  0.84806  1.0000
  C   C1711     1.0  0.73392  0.61491  0.89532  1.0000
  H   H3024     1.0  0.81861  0.86486  0.86001  1.0000
  C   C1712     1.0  0.82320  0.83232  0.84857  1.0000
  H   H3025     1.0  0.76243  0.59737  0.90872  1.0000
  C   C1713     1.0  0.74858  0.82719  0.95959  1.0000
  Fe  Fe192     1.0  0.95089  0.80564  0.75270  1.0000
  H   H3026     1.0  0.80745  0.84818  0.81346  1.0000
  C   C1714     1.0  0.78701  0.87179  0.78342  1.0000
  H   H3027     1.0  0.97369  0.91371  0.83595  1.0000
  H   H3028     1.0  0.77301  0.87686  0.79405  1.0000
  H   H3029     1.0  0.82318  0.80318  0.86889  1.0000
  H   H3030     1.0  0.93495  0.81211  0.97980  1.0000
  C   C1715     1.0  0.68826  0.74960  0.92327  1.0000
  H   H3031     1.0  0.56135  0.72151  0.84895  1.0000
  C   C1716     1.0  0.96899  0.86487  0.91321  1.0000
  H   H3032     1.0  0.90357  0.73282  0.93074  1.0000
  H   H3033     1.0  0.95120  0.80780  0.94507  1.0000
  H   H3034     1.0  0.76260  0.98929  0.94921  1.0000
  C   C1717     1.0  0.75495  0.95726  0.88876  1.0000
  H   H3035     1.0  0.75954  0.68227  0.85439  1.0000
  H   H3036     1.0  0.53189  0.74051  0.87318  1.0000
  C   C1718     1.0  0.88892  0.74267  0.93541  1.0000
  H   H3037     1.0  0.76732  0.62531  0.90089  1.0000
  H   H3038     1.0  0.73919  0.60986  0.93992  1.0000
  C   C1719     1.0  0.72974  0.63818  0.98553  1.0000
  H   H3039     1.0  0.53026  0.70679  0.82224  1.0000
  C   C1720     1.0  0.80353  0.96162  0.89910  1.0000
  H   H3040     1.0  0.79838  0.96903  0.88332  1.0000
  H   H3041     1.0  0.67540  0.74154  0.91439  1.0000
  H   H3042     1.0  0.81776  0.91086  0.96319  1.0000
  H   H3043     1.0  0.79681  0.92848  0.97445  1.0000
  H   H3044     1.0  0.76383  0.58783  0.87394  1.0000
  C   C1721     1.0  0.81069  0.92764  0.96257  1.0000
  H   H3045     1.0  0.76643  0.61981  0.94054  1.0000
  H   H3046     1.0  0.70212  0.99091  0.82986  1.0000
  H   H3047     1.0  0.76848  0.62354  0.86514  1.0000
  H   H3048     1.0  0.54458  0.77263  0.79723  1.0000
  H   H3049     1.0  0.74591  0.88283  0.76483  1.0000
  H   H3050     1.0  0.75206  0.58921  0.83353  1.0000
  H   H3051     1.0  0.73286  0.83528  0.96417  1.0000
  H   H3052     1.0  0.75664  0.82148  0.97467  1.0000
  H   H3053     1.0  0.77708  0.56044  0.84727  1.0000
  H   H3054     1.0  0.90231  0.76641  0.97004  1.0000
  H   H3055     1.0  0.78584  0.88064  0.76756  1.0000
  H   H3056     1.0  0.99106  0.90510  0.78043  1.0000
  H   H3057     1.0  0.97762  0.85896  0.92790  1.0000
  H   H3058     1.0  0.96268  0.88163  0.91604  1.0000
  H   H3059     1.0  0.52560  0.78967  0.81254  1.0000
  H   H3060     1.0  0.73003  0.64102  0.96771  1.0000
  H   H3061     1.0  0.87355  0.83592  0.98673  1.0000
  H   H3062     1.0  0.72682  0.90485  0.77037  1.0000
  H   H3063     1.0  0.51914  0.78148  0.78572  1.0000
  H   H3064     1.0  0.50152  0.67188  0.81299  1.0000
  H   H3065     1.0  0.72933  0.62041  0.98903  1.0000
  C   C1722     1.0  0.49873  0.68687  0.80290  1.0000
  C   C1723     1.0  0.82513  0.97256  0.90431  1.0000
  C   C1724     1.0  0.84282  0.96745  0.88721  1.0000
  H   H3066     1.0  0.49954  0.75388  0.88210  1.0000
  H   H3067     1.0  0.74430  0.98330  0.92800  1.0000
  C   C1725     1.0  0.71332  0.96824  0.74701  1.0000
  H   H3068     1.0  0.93676  0.76241  0.98777  1.0000
  H   H3069     1.0  0.82282  0.99045  0.90454  1.0000
  C   C1726     1.0  0.77849  0.98742  0.91689  1.0000
  C   C1727     1.0  0.75864  0.99277  0.93199  1.0000
  H   H3070     1.0  0.77502  0.99403  0.90040  1.0000
  C   C1728     1.0  0.70957  0.64953  0.99520  1.0000
  H   H3071     1.0  0.69525  0.64239  0.98786  1.0000
  H   H3072     1.0  0.70991  0.66679  0.98995  1.0000
