data_image0
_chemical_formula_structural       SHFeSHCFeSFeS2FeS2FeSFeS3FeS2FeSCFeSFeS3CHC2HC6H7C3H3C4H4NC7H4CSHC7H6CH4NC12H19CH7CNC12H29CH7CH2NHCH6C2HC3H3C2SHCHCH2C2H4C2H5SH3CH5CH16SHCH6C2H3NC10HCH10CH6C3SC2HCH7C2H5FeHCHCHCHCH4C2NCFeHSH2SH3SCHFeSCFeSCFeS2FeSFeHS2FeS2FeSHFeSFeS3HC2H5CHC7H9C6H5CFeHSC2H3C6H4CH2CH2CNH2CHCH2CH2CHCH6CHCSH4CSHNH2NCSH3SHC2H7SHCH9C2H2C2HNCH4CH6NCH5CH4CHCHCHC2H3CNC2FeC2HFeC5H5CH4C3H7CH2FeH5CH2SCH2C3HC2H2SCH5CHC2H5CH2C3H5C2H8CH2C5HCHCHC2HSCH2C2H2SH3CH8CH2CHCH2C3HC2H2C2H4FeSFeS2FeS2FeSFeS3FeS2FeS2FeSFeS3FeSHC6H4CHCHC7H4CNH2CH2CH3CH2C2HCH3C6H5CNHC2H7CH6CHC2H3CH7CH4CHC2H5C2H3C2H2CHCH2CH6C2H2NHSCH2CH4CHNCHCHCHC3HCHC3H9CHC2HC4H3NC11H26C3H2CH3CH3CHC2H6CH3C2HSH3C3HNH2CH3CHC2H5C2H5NH4CH3CH3CHCH3FeCSCSCH2FeHSHCSFeS2FeS2FeSFeCS2FeS2FeS2FeSFeCS2HC3H4NH2C6H4C9H5C2HCHC6H4CSH3CHCHC2H6C2H2CHCH3CH3SH3C2HFeHNCH2CHCHCH2CHCH4C2H2C2H11SH5CHNC10HCH16CFeCH10CH3C4HCSH4C3H6CH2NHSC2H8CHCH3CH5CHCHCH4CH3NH4CHC2NCH2CH3C2H2C2HCHCSFeHCH5CH2NSHSCH2C2H5C3HCH7SFeSHSCFeSFeS2FeS2FeSFeS3FeS2FeSHFeSFeS3H4CHC2HCH2CHCH2C6H4C3HC9H4NHCHCHC8H4C2NCH9CHC2HCH5CH2CH4C3H2CH7CH3CH4C2H6C3H6CHC3H8C2HNC4HC2H3C2HCH5CH10NCH10CH5C5SH5C2HCH4CH3C3SH2CH2CHCHC2H2CHCH4CH2NH2C3H5CH3CH2CH2C2H5SHC2HCH5CH4CH3CSCH3CHCHC2H3SHFeSH2SHFeSFeS2FeSHFeSFeHS2FeSHFeS2FeSFeS3HC8H4C2H5NH2CHSH6C6H4NHCH2C7H5S2CH2SCH5NCH3CH5C2HCH3CHCH4CH5CHCHC3H2SH7CFeH3CHC3HSHC2H8CH2CH2CH2CHCSCH2CH2C2H3NHCHCH2SC2H3CHCH8CH2NC6NC5H13CH7CH4CH2FeH4C2SCH8CH2NC3HC2H4CH3CH2C2H3C2H2CHC3H2Fe2C3HCSH3CHCHC4H3C2H3C2H2SCH2FeS2FeS2FeSFeS3FeS2FeS2FeSFeS3FeCSCH2SH4CSC6H4C6H4C2H3C2H6C2H5CH6C6H11CH8CH4CH3C2H3CH3C6FeCHCH5CH2CH9CHNHCHCHC3HCHCH2C3HCH3C2H3CH3NC7H11CH6CHC2H4NC12H26CHCHCHCH2CHC3NCH3CNH2CHCHCHCHC2HNCH3C2H5CHCH8CHCH3FeHSH2S2CHFeNSH2SFeS2FeS2FeSFeCS2FeSHFeS2FeSFeS4H7C6H5C2H6C8H4CH3C2H3NCHC6H4NC7H2C3H21CH3CHC5H3Fe2CHC2H8CH5CH2CH5NH3CNC4HC2H2CHCH6SHCH4CH6CH3CHC2H3CH2NC12H28C4SCH8C4H5CH2SHCHCH2C2HCH2C2H5C2H4SCH4CFeCH3CHCHC2H3CHCH2FeCHCH2CSHC2SCH2CHC3HFeSCSHFeSFeS2FeS2FeSFeHS2FeS2FeS2FeSFeS3C6H5C3HCSC2HCHC2H2C2H3CH2C2HCH3C6H6CHC6H4CHCH2CH2SHCH2CH6NHCHC4HCH2CH15CHSH3CHSH6CH2CH3NC12H17NCH4CH5CH6CHCH4C3HCH3NH5C3HCHC2HCH3SH2C2H6C2HCHCH5NCH2NHC2H4CH3CHC2H5C5H2CHCHSCH3CH4CH3CH3C4H2CH5FeH4CH3C2HCH4NC2H2NH6CHCH2CH2CHC2HSHCFeSH4CSFeSHCSFeS2FeSHFeHFeS3FeS2FeSHFeSFeS3H2C2H3C6H4CHFeH3C6H4C2HNH5CHC7H6CHCH10CHCHCH5SH2C2H7SHNCHCHC4H11CHC2H4C3NC3H2CH3C3HCH3CH2CH7SCHCH2CHCH2CH4CHCHCH3CHC2SH13C2H2C3H2CHC2SHCH2C4HCH2CH3CH4CH2FeC2H2CNCH2NH2C2HCSH6C3HCFeS2FeS2FeS2FeSFeS3FeS2FeS2FeHFeS3FeS2CH2C2H2CH6C3SHC2H2C6H4CH3CHC2HC7H6CHC6H5C2HNCHFeC2H6CH5CH2CH3CH3CH3NC12H20NCH6C3H3CH3CH2SC4H9CHCHSH3CNHCH2CH6CH7CH12CHFeH3CHC2HC3H2CHC3HCHCH3CH11CHC2H5CHCH3C3NH3CH4C2HCH7C2SCHCHCHC2H2CH8CH2CHSCHCSNHFeSCHFeHSHCSH2FeS2FeSHFeHFeS3FeS2FeS2FeSFeHS2CH4C6H4CHCHCHC2HCH3C7H4C3H3C6H6C2H3NH3C3H2SC3HCH5FeCH8NC3H3CH3CSCH3CH7CHCH6CH2CHCH4FeCH3CNH3CH2C2HCHCH2CNHC3H2C3H2CH8CHCSH7C2SHCH4C2HC3HC3H2SH2CH2CH4CH2CH2C2H2CH12FeH4CSHCH6CHC2H4C4H7C3SFeSFeSHFeSHFeS2FeSFeS3FeS2FeS2FeSFeS3H2SH2C5H2CHCHSH5C6H4CH3C6H5C8H4C3FeH5NC12H29C2HCH2C2HSH2CH4CH7CH4NC3H2C4H2CHC2H12C2HC3HCSCH6NH3C2HCH7CHCH2C2HC2H4CNH4C2H2C2HC2H3CH4C3H2CH6CH6C2H4C2HNH3CHCH9C2H3SHCHNH2CHC2HNC2H3CH3FeS2FeSC2HCSC2FeSHFeS2FeSCFeCFeS3FeSHFeS2FeSFeS3HFeH2C6H4FeHC2H6CH4C7H4C3HCH3C6H4CHCH7CH2CHS2H4CH4C2H2CH8CH2CH2CHC2SC2HCH2C2HSC2NC12H28NC6NCHC2H5SH7CH8SH3SH2CH3CHCHC2H3C2H3CHCH6CH5C3HC4H3CH3CH5CH6CH2CH3CHCH2CH2FeSHFeS2FeS2FeSFeS3FeS2FeS2FeSFeS3FeSHCH6C6H4CHCHC6H4C2H5C3H4C2H5C6H4CHNHC4HCHCH2CH5NH7CH4C2H2NCH3CNC12H31SC2HCHCH2NH2CH5CHS2HCH3CH5SC3H2CH4CH5CH4CH2C2H2CHC2H2C3HC2HCH2CHCHCH3C3HCSCH4CH3CH5CH5C2H10NH2CH2CHCNH2CH3CNC2H3C3HCHCH2CH5CH3FeCHC2H3CH3FeHSC3SH2CSCFeSNSHFeS2FeSHFeSFeHS2FeSHFeS2FeSFeHS2HCH2C2H3C2HC6H4CHSH3FeHSC6H4C3HC2HC6H10CSHCH12CH5CHCH2CHC2H3CH3CH3SC2H4C2H5FeC3H3NH2CH2CH4CH3CNC7HC3H15C2H16C2H5CFeCSCHCH3CHCH2C2H2NHC2HCH3CHNC9H4CHSHCSH2S2CHC2H3CH2CH6CHC2HCHCHC2H5C2H2CHC2HCH2
_chemical_formula_sum              "S384 H3072 Fe192 C1728 N96"
_cell_length_a       60.0162
_cell_length_b       59.9531
_cell_length_c       64.411
_cell_angle_alpha    88.3899
_cell_angle_beta     89.2729
_cell_angle_gamma    88.9425

_space_group_name_H-M_alt    "P 1"
_space_group_IT_number       1

loop_
  _space_group_symop_operation_xyz
  'x, y, z'

loop_
  _atom_site_type_symbol
  _atom_site_label
  _atom_site_symmetry_multiplicity
  _atom_site_fract_x
  _atom_site_fract_y
  _atom_site_fract_z
  _atom_site_occupancy
  S   S1        1.0  0.13924  0.03303  0.01824  1.0000
  H   H1        1.0  0.38054  0.35672  0.03005  1.0000
  Fe  Fe1       1.0  0.16943  0.05390  0.01184  1.0000
  S   S2        1.0  0.19728  0.06451  0.03367  1.0000
  H   H2        1.0  0.49553  0.38663  0.04076  1.0000
  C   C1        1.0  0.24845  0.31258  0.21452  1.0000
  Fe  Fe2       1.0  0.42763  0.32992  0.00654  1.0000
  S   S3        1.0  0.40962  0.31740  0.03648  1.0000
  Fe  Fe3       1.0  0.41253  0.26405  0.15690  1.0000
  S   S4        1.0  0.42668  0.23607  0.17758  1.0000
  S   S5        1.0  0.42911  0.26804  0.12450  1.0000
  Fe  Fe4       1.0  0.38049  0.27934  0.19152  1.0000
  S   S6        1.0  0.39317  0.25306  0.21408  1.0000
  S   S7        1.0  0.34832  0.29850  0.19880  1.0000
  Fe  Fe5       1.0  0.42793  0.26164  0.20262  1.0000
  S   S8        1.0  0.45561  0.27071  0.22585  1.0000
  Fe  Fe6       1.0  0.39076  0.22972  0.18737  1.0000
  S   S9        1.0  0.37422  0.19578  0.19444  1.0000
  S   S10       1.0  0.41500  0.28985  0.18159  1.0000
  S   S11       1.0  0.37693  0.25574  0.16518  1.0000
  Fe  Fe7       1.0  0.22782  0.08552  0.15667  1.0000
  S   S12       1.0  0.26484  0.07806  0.15652  1.0000
  S   S13       1.0  0.20177  0.07551  0.13262  1.0000
  Fe  Fe8       1.0  0.22944  0.10380  0.20118  1.0000
  S   S14       1.0  0.26629  0.09696  0.20357  1.0000
  C   C2        1.0  0.19588  0.14088  0.23213  1.0000
  Fe  Fe9       1.0  0.26865  0.11185  0.17126  1.0000
  S   S15       1.0  0.29134  0.14099  0.16056  1.0000
  Fe  Fe10      1.0  0.25925  0.06391  0.18924  1.0000
  S   S16       1.0  0.27532  0.03126  0.20232  1.0000
  S   S17       1.0  0.23169  0.12003  0.16943  1.0000
  S   S18       1.0  0.22235  0.06993  0.18880  1.0000
  C   C3        1.0  0.02442  0.17486  0.10528  1.0000
  H   H3        1.0  0.21814  0.07021  0.24029  1.0000
  C   C4        1.0  0.00267  0.18130  0.13883  1.0000
  C   C5        1.0  0.17529  0.06355  0.22850  1.0000
  H   H4        1.0  0.23867  0.31947  0.20118  1.0000
  C   C6        1.0  0.35025  0.18166  0.18536  1.0000
  C   C7        1.0  0.33843  0.18892  0.16773  1.0000
  C   C8        1.0  0.32043  0.17638  0.16055  1.0000
  C   C9        1.0  0.31370  0.15655  0.17098  1.0000
  C   C10       1.0  0.32508  0.14968  0.18896  1.0000
  C   C11       1.0  0.34327  0.16204  0.19596  1.0000
  H   H5        1.0  0.34343  0.20395  0.15940  1.0000
  H   H6        1.0  0.31178  0.18196  0.14667  1.0000
  H   H7        1.0  0.32029  0.13448  0.19715  1.0000
  H   H8        1.0  0.35223  0.15615  0.20957  1.0000
  H   H9        1.0  0.28688  0.02558  0.99671  1.0000
  H   H10       1.0  0.24743  0.16149  0.19627  1.0000
  H   H11       1.0  0.15719  0.06754  0.22973  1.0000
  C   C12       1.0  0.26389  0.00943  0.21845  1.0000
  C   C13       1.0  0.19211  0.15484  0.21473  1.0000
  C   C14       1.0  0.17853  0.17415  0.21650  1.0000
  H   H12       1.0  0.34231  0.38952  0.01842  1.0000
  H   H13       1.0  0.19955  0.15074  0.19990  1.0000
  H   H14       1.0  0.17561  0.18483  0.20296  1.0000
  C   C15       1.0  0.27987  0.19995  0.21847  1.0000
  C   C16       1.0  0.36328  0.33105  0.22469  1.0000
  C   C17       1.0  0.02408  0.02346  0.03191  1.0000
  C   C18       1.0  0.03083  0.10657  0.00400  1.0000
  H   H15       1.0  0.37968  0.32782  0.21821  1.0000
  H   H16       1.0  0.01774  0.20226  0.20158  1.0000
  H   H17       1.0  0.04514  0.25066  0.22439  1.0000
  H   H18       1.0  0.20552  0.30360  0.21398  1.0000
  N   N1        1.0  0.23366  0.31027  0.23356  1.0000
  C   C19       1.0  0.25984  0.16763  0.23243  1.0000
  C   C20       1.0  0.41561  0.30377  0.06090  1.0000
  C   C21       1.0  0.39875  0.30281  0.07635  1.0000
  C   C22       1.0  0.40268  0.29256  0.09606  1.0000
  C   C23       1.0  0.42350  0.28279  0.10054  1.0000
  C   C24       1.0  0.44027  0.28356  0.08502  1.0000
  C   C25       1.0  0.43645  0.29408  0.06542  1.0000
  H   H19       1.0  0.38255  0.31019  0.07309  1.0000
  H   H20       1.0  0.38954  0.29203  0.10770  1.0000
  H   H21       1.0  0.45639  0.27594  0.08818  1.0000
  H   H22       1.0  0.44960  0.29457  0.05379  1.0000
  C   C26       1.0  0.04943  0.02147  0.02982  1.0000
  S   S19       1.0  0.08844  0.07178  0.01479  1.0000
  H   H23       1.0  0.33890  0.43437  0.08168  1.0000
  C   C27       1.0  0.24098  0.00768  0.22225  1.0000
  C   C28       1.0  0.19870  0.06658  0.06132  1.0000
  C   C29       1.0  0.18323  0.05648  0.07486  1.0000
  C   C30       1.0  0.18464  0.05919  0.09655  1.0000
  C   C31       1.0  0.20183  0.07155  0.10516  1.0000
  C   C32       1.0  0.21765  0.08118  0.09166  1.0000
  C   C33       1.0  0.21602  0.07877  0.06993  1.0000
  H   H24       1.0  0.17028  0.04644  0.06864  1.0000
  H   H25       1.0  0.17238  0.05151  0.10677  1.0000
  H   H26       1.0  0.23096  0.09077  0.09794  1.0000
  H   H27       1.0  0.22826  0.08649  0.05972  1.0000
  H   H28       1.0  0.10433  0.04459  0.05500  1.0000
  H   H29       1.0  0.30413  0.43689  0.20329  1.0000
  C   C34       1.0  0.48350  0.26321  0.23372  1.0000
  H   H30       1.0  0.05614  0.01036  0.04244  1.0000
  H   H31       1.0  0.28206  0.27950  0.18229  1.0000
  H   H32       1.0  0.21824  0.34895  0.20982  1.0000
  H   H33       1.0  0.35116  0.41130  0.09634  1.0000
  N   N2        1.0  0.13124  0.10666  0.06679  1.0000
  C   C35       1.0  0.10924  0.11591  0.07463  1.0000
  C   C36       1.0  0.14802  0.10726  0.08400  1.0000
  C   C37       1.0  0.13846  0.12064  0.04812  1.0000
  C   C38       1.0  0.12916  0.08280  0.06032  1.0000
  C   C39       1.0  0.11971  0.06632  0.07715  1.0000
  C   C40       1.0  0.08901  0.11304  0.06016  1.0000
  C   C41       1.0  0.16253  0.11629  0.03998  1.0000
  C   C42       1.0  0.15399  0.13074  0.09147  1.0000
  C   C43       1.0  0.17255  0.12911  0.10753  1.0000
  C   C44       1.0  0.49791  0.40645  0.01215  1.0000
  C   C45       1.0  0.06791  0.12385  0.06924  1.0000
  C   C46       1.0  0.16804  0.13195  0.02157  1.0000
  H   H34       1.0  0.11053  0.13411  0.07721  1.0000
  H   H35       1.0  0.10498  0.10851  0.09020  1.0000
  H   H36       1.0  0.14192  0.09786  0.09801  1.0000
  H   H37       1.0  0.16371  0.09845  0.07945  1.0000
  H   H38       1.0  0.13662  0.13875  0.05125  1.0000
  H   H39       1.0  0.12731  0.11783  0.03478  1.0000
  H   H40       1.0  0.11887  0.08193  0.04616  1.0000
  H   H41       1.0  0.14566  0.07589  0.05547  1.0000
  H   H42       1.0  0.10351  0.07228  0.08351  1.0000
  H   H43       1.0  0.13155  0.06402  0.09016  1.0000
  H   H44       1.0  0.09205  0.12092  0.04462  1.0000
  H   H45       1.0  0.08547  0.09516  0.05802  1.0000
  H   H46       1.0  0.16436  0.09899  0.03466  1.0000
  H   H47       1.0  0.17516  0.11891  0.05204  1.0000
  H   H48       1.0  0.15987  0.14173  0.07849  1.0000
  H   H49       1.0  0.13927  0.13885  0.09891  1.0000
  H   H50       1.0  0.18805  0.12199  0.10053  1.0000
  H   H51       1.0  0.17623  0.14597  0.11316  1.0000
  H   H52       1.0  0.16755  0.11835  0.12107  1.0000
  C   C47       1.0  0.48701  0.40133  0.03329  1.0000
  H   H53       1.0  0.27746  0.45024  0.20770  1.0000
  H   H54       1.0  0.01360  0.16992  0.17809  1.0000
  H   H55       1.0  0.22964  0.01924  0.21444  1.0000
  H   H56       1.0  0.16713  0.14962  0.02630  1.0000
  H   H57       1.0  0.07019  0.14203  0.07107  1.0000
  H   H58       1.0  0.26736  0.23332  0.20814  1.0000
  H   H59       1.0  0.29086  0.11837  0.24162  1.0000
  C   C48       1.0  0.01403  0.03768  0.01364  1.0000
  N   N3        1.0  0.38922  0.21472  0.10409  1.0000
  C   C49       1.0  0.40672  0.20548  0.11879  1.0000
  C   C50       1.0  0.40064  0.22642  0.08592  1.0000
  C   C51       1.0  0.37588  0.23226  0.11552  1.0000
  C   C52       1.0  0.37354  0.19714  0.09689  1.0000
  C   C53       1.0  0.38332  0.17316  0.09444  1.0000
  C   C54       1.0  0.39780  0.19624  0.14003  1.0000
  C   C55       1.0  0.35820  0.24565  0.10264  1.0000
  C   C56       1.0  0.41609  0.21211  0.07202  1.0000
  C   C57       1.0  0.42880  0.22689  0.05635  1.0000
  C   C58       1.0  0.36669  0.15819  0.08402  1.0000
  C   C59       1.0  0.41503  0.18098  0.15081  1.0000
  C   C60       1.0  0.34319  0.25982  0.11662  1.0000
  H   H60       1.0  0.41894  0.21865  0.12227  1.0000
  H   H61       1.0  0.41685  0.19210  0.11155  1.0000
  H   H62       1.0  0.38822  0.23410  0.07512  1.0000
  H   H63       1.0  0.41062  0.24043  0.09161  1.0000
  H   H64       1.0  0.38725  0.24463  0.12213  1.0000
  H   H65       1.0  0.36676  0.22452  0.12896  1.0000
  H   H66       1.0  0.35915  0.19533  0.10791  1.0000
  H   H67       1.0  0.36600  0.20257  0.08181  1.0000
  H   H68       1.0  0.38709  0.16536  0.10985  1.0000
  H   H69       1.0  0.39893  0.17293  0.08517  1.0000
  H   H70       1.0  0.39402  0.21028  0.15046  1.0000
  H   H71       1.0  0.38222  0.18682  0.13838  1.0000
  H   H72       1.0  0.34744  0.23437  0.09400  1.0000
  H   H73       1.0  0.36639  0.25736  0.09141  1.0000
  H   H74       1.0  0.42868  0.20246  0.08112  1.0000
  H   H75       1.0  0.40600  0.20057  0.06298  1.0000
  H   H76       1.0  0.43988  0.23834  0.06452  1.0000
  H   H77       1.0  0.43928  0.21633  0.04607  1.0000
  H   H78       1.0  0.41707  0.23699  0.04654  1.0000
  H   H79       1.0  0.37386  0.14104  0.08291  1.0000
  H   H80       1.0  0.35095  0.15726  0.09327  1.0000
  H   H81       1.0  0.36294  0.16464  0.06808  1.0000
  H   H82       1.0  0.43073  0.19006  0.15319  1.0000
  H   H83       1.0  0.40846  0.17532  0.16624  1.0000
  H   H84       1.0  0.41861  0.16602  0.14148  1.0000
  H   H85       1.0  0.35324  0.27206  0.12493  1.0000
  H   H86       1.0  0.33074  0.26921  0.10702  1.0000
  H   H87       1.0  0.33415  0.24912  0.12816  1.0000
  H   H88       1.0  0.26946  0.47059  0.16602  1.0000
  C   C61       1.0  0.25993  0.29075  0.20699  1.0000
  H   H89       1.0  0.36643  0.43689  0.09209  1.0000
  H   H90       1.0  0.01548  0.25589  0.19793  1.0000
  H   H91       1.0  0.18034  0.26472  0.23264  1.0000
  H   H92       1.0  0.00894  0.16416  0.14292  1.0000
  H   H93       1.0  0.36282  0.37071  0.04825  1.0000
  H   H94       1.0  0.46916  0.39734  0.03143  1.0000
  H   H95       1.0  0.41274  0.30353  0.23740  1.0000
  C   C62       1.0  0.21370  0.29668  0.22824  1.0000
  H   H96       1.0  0.24746  0.27816  0.20312  1.0000
  H   H97       1.0  0.01523  0.06738  0.04713  1.0000
  N   N4        1.0  0.25861  0.18704  0.21696  1.0000
  H   H98       1.0  0.23035  0.48496  0.23008  1.0000
  C   C63       1.0  0.27975  0.48175  0.17544  1.0000
  H   H99       1.0  0.32952  0.49840  0.17796  1.0000
  H   H100      1.0  0.45691  0.34222  0.22006  1.0000
  H   H101      1.0  0.48837  0.41576  0.04362  1.0000
  H   H102      1.0  0.43939  0.45482  0.04709  1.0000
  H   H103      1.0  0.02425  0.17757  0.08814  1.0000
  H   H104      1.0  0.48939  0.44113  0.01153  1.0000
  C   C64       1.0  0.49520  0.24466  0.22612  1.0000
  C   C65       1.0  0.04848  0.09464  0.01365  1.0000
  H   H105      1.0  0.30433  0.24903  0.19934  1.0000
  C   C66       1.0  0.23817  0.20088  0.22243  1.0000
  C   C67       1.0  0.06665  0.08656  0.00190  1.0000
  C   C68       1.0  0.21072  0.34665  0.22553  1.0000
  H   H106      1.0  0.46822  0.42409  0.00182  1.0000
  H   H107      1.0  0.42419  0.34240  0.08671  1.0000
  H   H108      1.0  0.43937  0.32006  0.21216  1.0000
  C   C69       1.0  0.11589  0.04334  0.06835  1.0000
  C   C70       1.0  0.29021  0.44627  0.19564  1.0000
  S   S20       1.0  0.21303  0.11656  0.23083  1.0000
  H   H109      1.0  0.29441  0.18950  0.21351  1.0000
  C   C71       1.0  0.27872  0.15007  0.22868  1.0000
  H   H110      1.0  0.26168  0.32502  0.21695  1.0000
  C   C72       1.0  0.22671  0.33334  0.24022  1.0000
  H   H111      1.0  0.34181  0.35946  0.01782  1.0000
  H   H112      1.0  0.01598  0.17592  0.21556  1.0000
  C   C73       1.0  0.25639  0.17766  0.19548  1.0000
  C   C74       1.0  0.02827  0.24571  0.22806  1.0000
  H   H113      1.0  0.02459  0.05265  0.01110  1.0000
  H   H114      1.0  0.21898  0.27945  0.22433  1.0000
  H   H115      1.0  0.22104  0.37955  0.23511  1.0000
  H   H116      1.0  0.06365  0.11596  0.08456  1.0000
  C   C75       1.0  0.24349  0.19216  0.17906  1.0000
  C   C76       1.0  0.24745  0.18374  0.15713  1.0000
  H   H117      1.0  0.05377  0.12157  0.05857  1.0000
  H   H118      1.0  0.21691  0.23994  0.23578  1.0000
  H   H119      1.0  0.30703  0.47721  0.19747  1.0000
  H   H120      1.0  0.23583  0.21516  0.21135  1.0000
  H   H121      1.0  0.29091  0.48182  0.13566  1.0000
  S   S21       1.0  0.15186  0.20432  0.23693  1.0000
  H   H122      1.0  0.27314  0.17350  0.18892  1.0000
  H   H123      1.0  0.18522  0.12827  0.01590  1.0000
  H   H124      1.0  0.28273  0.43541  0.18401  1.0000
  C   C77       1.0  0.30305  0.23385  0.20953  1.0000
  H   H125      1.0  0.30964  0.31544  0.21971  1.0000
  H   H126      1.0  0.26331  0.30192  0.17456  1.0000
  H   H127      1.0  0.28208  0.21763  0.18837  1.0000
  H   H128      1.0  0.29230  0.07191  0.24044  1.0000
  H   H129      1.0  0.15634  0.12957  0.00862  1.0000
  C   C78       1.0  0.27395  0.29525  0.18738  1.0000
  H   H130      1.0  0.28722  0.30739  0.19035  1.0000
  H   H131      1.0  0.22530  0.19144  0.18249  1.0000
  H   H132      1.0  0.24830  0.20987  0.17893  1.0000
  H   H133      1.0  0.26531  0.18520  0.15261  1.0000
  H   H134      1.0  0.24262  0.16603  0.15619  1.0000
  H   H135      1.0  0.23731  0.19382  0.14589  1.0000
  H   H136      1.0  0.18324  0.07705  0.21901  1.0000
  H   H137      1.0  0.37921  0.29086  0.24250  1.0000
  H   H138      1.0  0.36023  0.37457  0.00050  1.0000
  H   H139      1.0  0.27117  0.28331  0.21896  1.0000
  H   H140      1.0  0.27760  0.14294  0.21304  1.0000
  H   H141      1.0  0.48744  0.23435  0.21485  1.0000
  H   H142      1.0  0.28319  0.20391  0.23491  1.0000
  H   H143      1.0  0.42708  0.34662  0.21934  1.0000
  H   H144      1.0  0.01580  0.19262  0.14425  1.0000
  H   H145      1.0  0.13194  0.03565  0.06328  1.0000
  S   S22       1.0  0.15019  0.08076  0.99428  1.0000
  H   H146      1.0  0.31785  0.22295  0.20638  1.0000
  C   C79       1.0  0.00659  0.18817  0.20563  1.0000
  H   H147      1.0  0.24368  0.15866  0.23292  1.0000
  H   H148      1.0  0.21101  0.10121  0.99928  1.0000
  H   H149      1.0  0.45148  0.35290  0.09150  1.0000
  H   H150      1.0  0.05704  0.03811  0.03110  1.0000
  H   H151      1.0  0.44523  0.34259  0.06625  1.0000
  H   H152      1.0  0.21274  0.04135  0.23913  1.0000
  C   C80       1.0  0.29898  0.46764  0.18519  1.0000
  C   C81       1.0  0.35272  0.37420  0.01634  1.0000
  H   H153      1.0  0.31160  0.46261  0.17345  1.0000
  H   H154      1.0  0.04818  0.09186  0.03031  1.0000
  H   H155      1.0  0.43681  0.44665  0.02043  1.0000
  N   N5        1.0  0.40046  0.39610  0.05038  1.0000
  C   C82       1.0  0.38676  0.39256  0.03130  1.0000
  C   C83       1.0  0.41754  0.41370  0.04531  1.0000
  C   C84       1.0  0.41294  0.37446  0.05527  1.0000
  C   C85       1.0  0.38642  0.40230  0.06910  1.0000
  C   C86       1.0  0.36462  0.41610  0.06493  1.0000
  C   C87       1.0  0.37090  0.37238  0.03273  1.0000
  C   C88       1.0  0.43056  0.37523  0.07269  1.0000
  C   C89       1.0  0.40860  0.43764  0.04048  1.0000
  C   C90       1.0  0.42760  0.45315  0.03410  1.0000
  C   C91       1.0  0.35475  0.42517  0.08506  1.0000
  H   H156      1.0  0.42067  0.46996  0.02984  1.0000
  C   C92       1.0  0.43828  0.35182  0.07966  1.0000
  H   H157      1.0  0.39792  0.38986  0.01759  1.0000
  H   H158      1.0  0.37681  0.40771  0.02702  1.0000
  H   H159      1.0  0.42896  0.41567  0.05852  1.0000
  H   H160      1.0  0.42815  0.40840  0.03191  1.0000
  H   H161      1.0  0.42162  0.36828  0.04110  1.0000
  H   H162      1.0  0.40109  0.36110  0.05998  1.0000
  H   H163      1.0  0.38111  0.38706  0.07802  1.0000
  H   H164      1.0  0.39664  0.41159  0.08017  1.0000
  H   H165      1.0  0.35185  0.40549  0.05806  1.0000
  H   H166      1.0  0.36714  0.43041  0.05401  1.0000
  C   C93       1.0  0.28150  0.22167  0.20507  1.0000
  H   H167      1.0  0.31578  0.48736  0.14846  1.0000
  H   H168      1.0  0.42380  0.38384  0.08650  1.0000
  H   H169      1.0  0.44562  0.38404  0.06690  1.0000
  H   H170      1.0  0.39638  0.43802  0.02775  1.0000
  H   H171      1.0  0.40069  0.44470  0.05456  1.0000
  H   H172      1.0  0.22299  0.19063  0.22092  1.0000
  C   C94       1.0  0.34514  0.31929  0.21759  1.0000
  C   C95       1.0  0.17548  0.28162  0.23796  1.0000
  C   C96       1.0  0.32047  0.34045  0.24063  1.0000
  S   S23       1.0  0.45230  0.35802  0.00618  1.0000
  C   C97       1.0  0.00275  0.18405  0.11472  1.0000
  C   C98       1.0  0.29966  0.49516  0.14390  1.0000
  H   H173      1.0  0.30335  0.23901  0.22596  1.0000
  C   C99       1.0  0.32372  0.32429  0.22538  1.0000
  H   H174      1.0  0.01748  0.00630  0.03205  1.0000
  H   H175      1.0  0.24158  0.34388  0.24205  1.0000
  H   H176      1.0  0.29539  0.15751  0.23007  1.0000
  H   H177      1.0  0.10842  0.03222  0.08053  1.0000
  H   H178      1.0  0.19461  0.33807  0.22411  1.0000
  H   H179      1.0  0.19402  0.37908  0.22323  1.0000
  H   H180      1.0  0.49663  0.39123  0.00293  1.0000
  C   C100      1.0  0.44057  0.33420  0.22286  1.0000
  C   C101      1.0  0.01130  0.24872  0.21304  1.0000
  H   H181      1.0  0.01726  0.11333  0.01318  1.0000
  H   H182      1.0  0.25376  0.06198  0.23447  1.0000
  H   H183      1.0  0.16731  0.29121  0.22508  1.0000
  H   H184      1.0  0.26923  0.48651  0.18899  1.0000
  H   H185      1.0  0.46743  0.46899  0.99912  1.0000
  Fe  Fe11      1.0  0.12033  0.05907  0.99911  1.0000
  H   H186      1.0  0.05438  0.01435  0.01467  1.0000
  C   C102      1.0  0.36005  0.34725  0.23993  1.0000
  H   H187      1.0  0.03900  0.18352  0.11151  1.0000
  C   C103      1.0  0.29040  0.50175  0.24292  1.0000
  H   H188      1.0  0.25671  0.50186  0.14330  1.0000
  C   C104      1.0  0.20554  0.36982  0.23389  1.0000
  H   H189      1.0  0.02616  0.15664  0.10870  1.0000
  C   C105      1.0  0.16850  0.17963  0.23560  1.0000
  H   H190      1.0  0.17750  0.04747  0.22049  1.0000
  H   H191      1.0  0.02016  0.03054  0.04721  1.0000
  H   H192      1.0  0.31931  0.49219  0.10444  1.0000
  H   H193      1.0  0.01697  0.02766  0.99951  1.0000
  C   C106      1.0  0.48649  0.42688  0.00127  1.0000
  C   C107      1.0  0.24723  0.48950  0.23360  1.0000
  N   N6        1.0  0.28610  0.50220  0.16259  1.0000
  C   C108      1.0  0.26835  0.30885  0.25722  1.0000
  Fe  Fe12      1.0  0.07090  0.15748  0.45826  1.0000
  H   H194      1.0  0.07446  0.02220  0.49090  1.0000
  S   S24       1.0  0.07886  0.18473  0.43332  1.0000
  H   H195      1.0  0.21136  0.01759  0.26866  1.0000
  H   H196      1.0  0.23887  0.48298  0.28853  1.0000
  S   S25       1.0  0.06768  0.12132  0.45128  1.0000
  H   H197      1.0  0.48636  0.21715  0.31077  1.0000
  H   H198      1.0  0.22013  0.35266  0.40585  1.0000
  H   H199      1.0  0.32698  0.46003  0.28111  1.0000
  S   S26       1.0  0.37812  0.44955  0.45894  1.0000
  C   C109      1.0  0.42617  0.28226  0.27083  1.0000
  H   H200      1.0  0.23015  0.03462  0.30956  1.0000
  Fe  Fe13      1.0  0.35140  0.42356  0.45893  1.0000
  S   S27       1.0  0.34197  0.40640  0.42860  1.0000
  C   C110      1.0  0.10931  0.01431  0.48615  1.0000
  Fe  Fe14      1.0  0.30166  0.38361  0.27929  1.0000
  S   S28       1.0  0.26962  0.38261  0.26172  1.0000
  C   C111      1.0  0.04779  0.24225  0.35612  1.0000
  Fe  Fe15      1.0  0.28006  0.40666  0.31675  1.0000
  S   S29       1.0  0.24626  0.40690  0.30159  1.0000
  S   S30       1.0  0.28217  0.42464  0.34775  1.0000
  Fe  Fe16      1.0  0.25402  0.37148  0.29242  1.0000
  S   S31       1.0  0.23525  0.33839  0.29794  1.0000
  Fe  Fe17      1.0  0.26450  0.41822  0.27220  1.0000
  H   H201      1.0  0.16315  0.27961  0.25087  1.0000
  S   S32       1.0  0.28683  0.37072  0.30940  1.0000
  S   S33       1.0  0.29753  0.41967  0.28786  1.0000
  Fe  Fe18      1.0  0.11154  0.21334  0.30918  1.0000
  S   S34       1.0  0.09331  0.24630  0.30489  1.0000
  S   S35       1.0  0.10648  0.18750  0.33626  1.0000
  Fe  Fe19      1.0  0.13052  0.21638  0.26428  1.0000
  S   S36       1.0  0.11221  0.24898  0.25747  1.0000
  H   H202      1.0  0.28144  0.36522  0.40458  1.0000
  Fe  Fe20      1.0  0.12488  0.25866  0.28879  1.0000
  S   S37       1.0  0.13847  0.29439  0.29140  1.0000
  Fe  Fe21      1.0  0.08221  0.23394  0.27378  1.0000
  S   S38       1.0  0.04394  0.23280  0.26787  1.0000
  S   S39       1.0  0.14393  0.22643  0.29512  1.0000
  S   S40       1.0  0.09995  0.20070  0.27842  1.0000
  H   H203      1.0  0.18289  0.07875  0.25702  1.0000
  C   C112      1.0  0.24031  0.37618  0.36881  1.0000
  C   C113      1.0  0.26342  0.39732  0.42945  1.0000
  H   H204      1.0  0.08208  0.25300  0.35146  1.0000
  H   H205      1.0  0.20258  0.28401  0.25893  1.0000
  H   H206      1.0  0.16483  0.16981  0.26781  1.0000
  H   H207      1.0  0.45820  0.25673  0.36277  1.0000
  H   H208      1.0  0.26742  0.41328  0.42117  1.0000
  C   C114      1.0  0.05902  0.16483  0.30189  1.0000
  H   H209      1.0  0.07409  0.16206  0.31153  1.0000
  C   C115      1.0  0.25187  0.38159  0.41487  1.0000
  C   C116      1.0  0.20795  0.32680  0.29678  1.0000
  C   C117      1.0  0.20546  0.30369  0.30060  1.0000
  C   C118      1.0  0.18451  0.29345  0.29891  1.0000
  C   C119      1.0  0.16555  0.30623  0.29357  1.0000
  C   C120      1.0  0.16801  0.32939  0.29001  1.0000
  C   C121      1.0  0.18901  0.33959  0.29147  1.0000
  H   H210      1.0  0.21989  0.29355  0.30479  1.0000
  H   H211      1.0  0.18297  0.27569  0.30186  1.0000
  H   H212      1.0  0.15351  0.33952  0.28599  1.0000
  H   H213      1.0  0.19047  0.35734  0.28850  1.0000
  H   H214      1.0  0.25597  0.04498  0.27961  1.0000
  H   H215      1.0  0.32320  0.49147  0.31788  1.0000
  H   H216      1.0  0.29501  0.30365  0.27930  1.0000
  H   H217      1.0  0.25252  0.45674  0.29476  1.0000
  H   H218      1.0  0.03126  0.25059  0.35716  1.0000
  C   C122      1.0  0.32642  0.41320  0.40571  1.0000
  C   C123      1.0  0.31062  0.43067  0.40470  1.0000
  C   C124      1.0  0.29761  0.43421  0.38670  1.0000
  C   C125      1.0  0.30042  0.42064  0.36931  1.0000
  C   C126      1.0  0.31665  0.40359  0.37009  1.0000
  C   C127      1.0  0.32932  0.39976  0.38823  1.0000
  H   H219      1.0  0.30802  0.44105  0.41802  1.0000
  H   H220      1.0  0.28498  0.44730  0.38646  1.0000
  H   H221      1.0  0.31924  0.39312  0.35685  1.0000
  H   H222      1.0  0.34151  0.38624  0.38877  1.0000
  H   H223      1.0  0.05125  0.19634  0.37415  1.0000
  C   C128      1.0  0.21234  0.03125  0.27999  1.0000
  Fe  Fe22      1.0  0.39394  0.42922  0.48494  1.0000
  H   H224      1.0  0.25726  0.46633  0.33093  1.0000
  S   S41       1.0  0.11827  0.09028  0.48041  1.0000
  C   C129      1.0  0.02502  0.19225  0.39692  1.0000
  C   C130      1.0  0.31283  0.33790  0.35448  1.0000
  H   H225      1.0  0.31643  0.49825  0.29125  1.0000
  H   H226      1.0  0.26784  0.29653  0.28938  1.0000
  H   H227      1.0  0.20817  0.47409  0.31316  1.0000
  C   C131      1.0  0.08671  0.18491  0.40636  1.0000
  C   C132      1.0  0.09206  0.20536  0.39632  1.0000
  C   C133      1.0  0.09818  0.20652  0.37502  1.0000
  C   C134      1.0  0.09897  0.18720  0.36331  1.0000
  C   C135      1.0  0.09361  0.16672  0.37333  1.0000
  C   C136      1.0  0.08745  0.16557  0.39464  1.0000
  H   H228      1.0  0.09159  0.22046  0.40514  1.0000
  H   H229      1.0  0.10254  0.22233  0.36776  1.0000
  H   H230      1.0  0.09414  0.15164  0.36451  1.0000
  H   H231      1.0  0.08324  0.14974  0.40199  1.0000
  C   C137      1.0  0.03392  0.19038  0.37470  1.0000
  H   H232      1.0  0.33283  0.45234  0.30796  1.0000
  H   H233      1.0  0.30412  0.47584  0.34746  1.0000
  C   C138      1.0  0.21897  0.31694  0.40594  1.0000
  H   H234      1.0  0.49064  0.22646  0.34401  1.0000
  H   H235      1.0  0.38439  0.26729  0.25983  1.0000
  C   C139      1.0  0.33226  0.46636  0.29630  1.0000
  N   N7        1.0  0.25785  0.36184  0.37959  1.0000
  H   H236      1.0  0.49144  0.19788  0.27803  1.0000
  H   H237      1.0  0.25229  0.22086  0.24720  1.0000
  C   C140      1.0  0.31631  0.48483  0.30346  1.0000
  H   H238      1.0  0.22584  0.37945  0.37921  1.0000
  C   C141      1.0  0.01909  0.20363  0.35889  1.0000
  H   H239      1.0  0.19637  0.11022  0.29519  1.0000
  H   H240      1.0  0.27982  0.13719  0.26070  1.0000
  C   C142      1.0  0.09083  0.02892  0.48796  1.0000
  H   H241      1.0  0.26611  0.32640  0.26192  1.0000
  H   H242      1.0  0.48558  0.29079  0.25437  1.0000
  C   C143      1.0  0.01235  0.21735  0.32310  1.0000
  H   H243      1.0  0.42865  0.23560  0.27468  1.0000
  C   C144      1.0  0.14807  0.04462  0.42378  1.0000
  H   H244      1.0  0.05127  0.23428  0.37153  1.0000
  H   H245      1.0  0.02926  0.01527  0.47937  1.0000
  H   H246      1.0  0.20132  0.21615  0.24529  1.0000
  H   H247      1.0  0.22915  0.31444  0.42014  1.0000
  H   H248      1.0  0.10450  0.04869  0.42055  1.0000
  H   H249      1.0  0.45056  0.23805  0.34251  1.0000
  C   C145      1.0  0.41579  0.31530  0.25011  1.0000
  H   H250      1.0  0.18452  0.07101  0.29068  1.0000
  C   C146      1.0  0.22543  0.02139  0.29884  1.0000
  S   S42       1.0  0.32958  0.44091  0.48270  1.0000
  H   H251      1.0  0.42397  0.38121  0.48817  1.0000
  H   H252      1.0  0.23528  0.29889  0.26564  1.0000
  H   H253      1.0  0.34890  0.27475  0.27843  1.0000
  H   H254      1.0  0.29337  0.46101  0.31774  1.0000
  C   C147      1.0  0.09334  0.05218  0.48616  1.0000
  S   S43       1.0  0.03999  0.15822  0.47906  1.0000
  H   H255      1.0  0.19638  0.01151  0.31742  1.0000
  N   N8        1.0  0.22212  0.05179  0.26955  1.0000
  H   H256      1.0  0.45273  0.31361  0.24803  1.0000
  H   H257      1.0  0.49178  0.22760  0.27319  1.0000
  N   N9        1.0  0.27535  0.49262  0.31484  1.0000
  C   C148      1.0  0.17104  0.03767  0.43199  1.0000
  S   S44       1.0  0.43182  0.42940  0.48733  1.0000
  H   H258      1.0  0.28225  0.27827  0.27143  1.0000
  H   H259      1.0  0.20250  0.06167  0.31115  1.0000
  H   H260      1.0  0.22222  0.30289  0.39536  1.0000
  S   S45       1.0  0.09394  0.15065  0.48540  1.0000
  H   H261      1.0  0.26248  0.17356  0.24838  1.0000
  C   C149      1.0  0.14337  0.08455  0.35875  1.0000
  C   C150      1.0  0.49416  0.27629  0.24842  1.0000
  H   H262      1.0  0.40015  0.49229  0.48213  1.0000
  H   H263      1.0  0.03540  0.18164  0.40757  1.0000
  H   H264      1.0  0.27532  0.39033  0.39036  1.0000
  H   H265      1.0  0.05110  0.23344  0.32365  1.0000
  H   H266      1.0  0.34445  0.27247  0.25090  1.0000
  H   H267      1.0  0.44410  0.28564  0.26806  1.0000
  H   H268      1.0  0.18494  0.09795  0.31873  1.0000
  S   S46       1.0  0.33565  0.37151  0.26792  1.0000
  H   H269      1.0  0.21470  0.10080  0.31590  1.0000
  C   C151      1.0  0.07974  0.07439  0.41653  1.0000
  H   H270      1.0  0.42451  0.34795  0.32045  1.0000
  H   H271      1.0  0.19621  0.37487  0.35345  1.0000
  H   H272      1.0  0.27008  0.34744  0.35104  1.0000
  H   H273      1.0  0.30369  0.48802  0.38339  1.0000
  H   H274      1.0  0.06150  0.26987  0.33761  1.0000
  H   H275      1.0  0.48277  0.27715  0.33746  1.0000
  H   H276      1.0  0.30397  0.34404  0.24670  1.0000
  H   H277      1.0  0.30427  0.32633  0.34416  1.0000
  H   H278      1.0  0.04456  0.06969  0.42342  1.0000
  C   C152      1.0  0.26771  0.37485  0.39690  1.0000
  C   C153      1.0  0.11447  0.06110  0.48285  1.0000
  H   H279      1.0  0.27620  0.47696  0.35783  1.0000
  H   H280      1.0  0.41576  0.32871  0.34080  1.0000
  C   C154      1.0  0.50092  0.21328  0.28062  1.0000
  C   C155      1.0  0.04900  0.22452  0.33894  1.0000
  H   H281      1.0  0.42126  0.27216  0.25744  1.0000
  N   N10       1.0  0.02988  0.20848  0.33797  1.0000
  C   C156      1.0  0.43892  0.32576  0.24543  1.0000
  H   H282      1.0  0.45478  0.24742  0.28208  1.0000
  H   H283      1.0  0.06194  0.06879  0.44597  1.0000
  H   H284      1.0  0.26114  0.12261  0.24417  1.0000
  H   H285      1.0  0.18438  0.04653  0.42317  1.0000
  C   C157      1.0  0.04742  0.18692  0.30712  1.0000
  H   H286      1.0  0.14767  0.04039  0.40716  1.0000
  H   H287      1.0  0.06438  0.27224  0.36528  1.0000
  H   H288      1.0  0.15766  0.09300  0.35098  1.0000
  H   H289      1.0  0.28708  0.46930  0.29205  1.0000
  H   H290      1.0  0.21213  0.45267  0.29430  1.0000
  H   H291      1.0  0.01981  0.22075  0.30745  1.0000
  N   N11       1.0  0.41280  0.30379  0.27115  1.0000
  C   C158      1.0  0.03859  0.18650  0.32985  1.0000
  H   H292      1.0  0.19484  0.03426  0.28501  1.0000
  H   H293      1.0  0.06514  0.21539  0.34129  1.0000
  H   H294      1.0  0.23583  0.07356  0.29249  1.0000
  H   H295      1.0  0.31834  0.35274  0.34518  1.0000
  H   H296      1.0  0.25064  0.32688  0.37544  1.0000
  C   C159      1.0  0.33870  0.35185  0.24809  1.0000
  H   H297      1.0  0.20109  0.31683  0.41060  1.0000
  H   H298      1.0  0.37890  0.31612  0.27398  1.0000
  H   H299      1.0  0.29439  0.46796  0.25542  1.0000
  H   H300      1.0  0.05266  0.17999  0.33956  1.0000
  C   C160      1.0  0.10294  0.06654  0.42466  1.0000
  H   H301      1.0  0.22870  0.34866  0.34951  1.0000
  C   C161      1.0  0.27894  0.29592  0.27545  1.0000
  H   H302      1.0  0.28187  0.37359  0.35658  1.0000
  C   C162      1.0  0.02337  0.23656  0.24782  1.0000
  H   H303      1.0  0.17588  0.04946  0.25937  1.0000
  C   C163      1.0  0.38818  0.29980  0.27436  1.0000
  C   C164      1.0  0.45636  0.25509  0.34573  1.0000
  H   H304      1.0  0.45042  0.34873  0.48961  1.0000
  H   H305      1.0  0.03440  0.17239  0.37093  1.0000
  H   H306      1.0  0.18892  0.13582  0.26482  1.0000
  C   C165      1.0  0.35208  0.28273  0.26293  1.0000
  N   N12       1.0  0.12266  0.07966  0.41659  1.0000
  C   C166      1.0  0.14327  0.06987  0.42687  1.0000
  C   C167      1.0  0.11908  0.10377  0.42260  1.0000
  Fe  Fe23      1.0  0.08847  0.11432  0.47954  1.0000
  C   C168      1.0  0.12360  0.07783  0.39330  1.0000
  C   C169      1.0  0.14357  0.08897  0.38201  1.0000
  H   H307      1.0  0.21874  0.33263  0.25584  1.0000
  Fe  Fe24      1.0  0.03833  0.12129  0.47345  1.0000
  C   C170      1.0  0.14002  0.11761  0.42715  1.0000
  C   C171      1.0  0.13390  0.14230  0.42948  1.0000
  C   C172      1.0  0.43717  0.24480  0.28696  1.0000
  C   C173      1.0  0.47845  0.25962  0.33445  1.0000
  C   C174      1.0  0.06096  0.06385  0.42950  1.0000
  H   H308      1.0  0.14210  0.07231  0.44392  1.0000
  H   H309      1.0  0.15841  0.07889  0.42176  1.0000
  H   H310      1.0  0.10910  0.11316  0.41066  1.0000
  H   H311      1.0  0.10904  0.10461  0.43719  1.0000
  H   H312      1.0  0.24721  0.36654  0.42425  1.0000
  C   C175      1.0  0.29037  0.48725  0.35228  1.0000
  H   H313      1.0  0.24836  0.03017  0.25749  1.0000
  H   H314      1.0  0.10844  0.08575  0.38628  1.0000
  H   H315      1.0  0.15971  0.08252  0.38808  1.0000
  H   H316      1.0  0.14250  0.10732  0.38364  1.0000
  C   C176      1.0  0.17238  0.16572  0.25302  1.0000
  C   C177      1.0  0.20957  0.37843  0.34180  1.0000
  C   C178      1.0  0.22070  0.07226  0.28278  1.0000
  H   H317      1.0  0.07744  0.09273  0.41686  1.0000
  H   H318      1.0  0.14755  0.11160  0.44201  1.0000
  H   H319      1.0  0.15290  0.11637  0.41479  1.0000
  H   H320      1.0  0.14882  0.15160  0.43403  1.0000
  H   H321      1.0  0.12777  0.14965  0.41455  1.0000
  H   H322      1.0  0.12081  0.14446  0.44166  1.0000
  H   H323      1.0  0.14490  0.06636  0.35601  1.0000
  C   C179      1.0  0.27631  0.35754  0.36393  1.0000
  H   H324      1.0  0.17231  0.04133  0.44873  1.0000
  H   H325      1.0  0.06196  0.04537  0.42881  1.0000
  Fe  Fe25      1.0  0.35778  0.46542  0.48414  1.0000
  H   H326      1.0  0.22193  0.44791  0.32043  1.0000
  H   H327      1.0  0.13570  0.03436  0.43253  1.0000
  H   H328      1.0  0.06428  0.16526  0.28529  1.0000
  H   H329      1.0  0.32784  0.32923  0.36090  1.0000
  H   H330      1.0  0.29285  0.32978  0.38147  1.0000
  C   C180      1.0  0.18536  0.06207  0.25019  1.0000
  H   H331      1.0  0.21303  0.34121  0.38158  1.0000
  H   H332      1.0  0.05943  0.20059  0.30455  1.0000
  S   S47       1.0  0.36885  0.40198  0.48353  1.0000
  C   C181      1.0  0.24910  0.33969  0.38763  1.0000
  H   H333      1.0  0.12309  0.06006  0.38884  1.0000
  H   H334      1.0  0.37406  0.35647  0.24531  1.0000
  C   C182      1.0  0.41078  0.31692  0.30966  1.0000
  C   C183      1.0  0.42395  0.33001  0.32526  1.0000
  C   C184      1.0  0.37712  0.28443  0.25866  1.0000
  H   H335      1.0  0.34397  0.29954  0.26231  1.0000
  C   C185      1.0  0.42117  0.31915  0.28748  1.0000
  C   C186      1.0  0.25879  0.06389  0.25084  1.0000
  H   H336      1.0  0.38463  0.29222  0.28991  1.0000
  H   H337      1.0  0.19740  0.36843  0.24946  1.0000
  S   S48       1.0  0.01021  0.09893  0.46350  1.0000
  C   C187      1.0  0.44173  0.38387  0.48873  1.0000
  H   H338      1.0  0.30717  0.35592  0.38219  1.0000
  H   H339      1.0  0.25225  0.40109  0.44282  1.0000
  H   H340      1.0  0.03351  0.18934  0.29604  1.0000
  H   H341      1.0  0.40791  0.26368  0.29554  1.0000
  H   H342      1.0  0.43419  0.27522  0.30330  1.0000
  C   C188      1.0  0.29738  0.34498  0.37226  1.0000
  H   H343      1.0  0.41765  0.33691  0.28277  1.0000
  C   C189      1.0  0.21053  0.05607  0.24910  1.0000
  C   C190      1.0  0.29240  0.47593  0.30709  1.0000
  H   H344      1.0  0.39346  0.32388  0.30957  1.0000
  H   H345      1.0  0.40999  0.29944  0.31547  1.0000
  H   H346      1.0  0.29031  0.06319  0.26742  1.0000
  H   H347      1.0  0.44122  0.32319  0.32657  1.0000
  H   H348      1.0  0.27910  0.38959  0.43553  1.0000
  C   C191      1.0  0.47289  0.40882  0.48938  1.0000
  H   H349      1.0  0.25490  0.08123  0.25546  1.0000
  H   H350      1.0  0.22073  0.08766  0.27263  1.0000
  C   C192      1.0  0.42529  0.26717  0.29062  1.0000
  C   C193      1.0  0.22435  0.33920  0.39502  1.0000
  C   C194      1.0  0.18606  0.14648  0.25127  1.0000
  H   H351      1.0  0.34932  0.47303  0.29436  1.0000
  H   H352      1.0  0.43697  0.23440  0.30150  1.0000
  H   H353      1.0  0.12774  0.09124  0.35167  1.0000
  H   H354      1.0  0.24702  0.39305  0.36492  1.0000
  H   H355      1.0  0.14945  0.05334  0.47891  1.0000
  C   C195      1.0  0.06502  0.26041  0.35232  1.0000
  C   C196      1.0  0.19915  0.09719  0.30754  1.0000
  H   H356      1.0  0.21176  0.39676  0.34010  1.0000
  H   H357      1.0  0.00372  0.19377  0.35698  1.0000
  H   H358      1.0  0.24373  0.36993  0.33555  1.0000
  H   H359      1.0  0.04754  0.15069  0.30450  1.0000
  H   H360      1.0  0.02540  0.17365  0.33101  1.0000
  H   H361      1.0  0.10243  0.06669  0.44194  1.0000
  H   H362      1.0  0.43965  0.31751  0.28867  1.0000
  H   H363      1.0  0.44348  0.26738  0.34033  1.0000
  C   C197      1.0  0.28311  0.47996  0.24812  1.0000
  H   H364      1.0  0.07773  0.06928  0.40022  1.0000
  H   H365      1.0  0.48539  0.44235  0.45402  1.0000
  C   C198      1.0  0.24643  0.04663  0.26493  1.0000
  C   C199      1.0  0.45676  0.36551  0.48954  1.0000
  C   C200      1.0  0.20062  0.07407  0.29815  1.0000
  C   C201      1.0  0.13044  0.02322  0.48260  1.0000
  C   C202      1.0  0.47989  0.36875  0.48991  1.0000
  H   H366      1.0  0.24864  0.28067  0.24812  1.0000
  C   C203      1.0  0.23739  0.21073  0.24446  1.0000
  H   H367      1.0  0.20433  0.37206  0.32661  1.0000
  C   C204      1.0  0.23141  0.36691  0.34827  1.0000
  H   H368      1.0  0.25962  0.33313  0.40064  1.0000
  C   C205      1.0  0.25402  0.48057  0.31985  1.0000
  C   C206      1.0  0.13301  0.04655  0.48115  1.0000
  H   H369      1.0  0.40334  0.32912  0.24821  1.0000
  S   S49       1.0  0.49824  0.34529  0.49084  1.0000
  C   C207      1.0  0.24214  0.47045  0.30116  1.0000
  H   H370      1.0  0.14481  0.01215  0.48134  1.0000
  H   H371      1.0  0.23663  0.39035  0.40920  1.0000
  C   C208      1.0  0.21972  0.46071  0.30778  1.0000
  C   C209      1.0  0.27750  0.13092  0.24482  1.0000
  H   H372      1.0  0.47572  0.25777  0.31762  1.0000
  H   H373      1.0  0.17368  0.01942  0.43021  1.0000
  S   S50       1.0  0.25076  0.44675  0.25087  1.0000
  H   H374      1.0  0.00755  0.18653  0.39813  1.0000
  H   H375      1.0  0.01257  0.25333  0.32809  1.0000
  H   H376      1.0  0.02588  0.20976  0.40202  1.0000
  C   C210      1.0  0.24579  0.29866  0.25129  1.0000
  H   H377      1.0  0.01318  0.21915  0.36628  1.0000
  H   H378      1.0  0.07893  0.06319  0.48747  1.0000
  H   H379      1.0  0.23631  0.19730  0.25661  1.0000
  H   H380      1.0  0.37826  0.49961  0.43846  1.0000
  H   H381      1.0  0.44167  0.34023  0.25540  1.0000
  H   H382      1.0  0.04868  0.02021  0.45833  1.0000
  H   H383      1.0  0.21645  0.23261  0.26311  1.0000
  H   H384      1.0  0.28038  0.30845  0.24410  1.0000
  C   C211      1.0  0.26127  0.47378  0.24390  1.0000
  H   H385      1.0  0.24195  0.49165  0.32808  1.0000
  H   H386      1.0  0.24096  0.01286  0.29337  1.0000
  C   C212      1.0  0.03511  0.00920  0.46406  1.0000
  H   H387      1.0  0.18970  0.31030  0.25129  1.0000
  C   C213      1.0  0.48791  0.39050  0.48986  1.0000
  H   H388      1.0  0.28858  0.04289  0.24718  1.0000
  H   H389      1.0  0.02117  0.01044  0.45287  1.0000
  C   C214      1.0  0.19573  0.29396  0.24563  1.0000
  C   C215      1.0  0.28404  0.06019  0.25161  1.0000
  C   C216      1.0  0.44978  0.40563  0.48855  1.0000
  H   H390      1.0  0.47918  0.42557  0.48954  1.0000
  C   C217      1.0  0.29858  0.50004  0.37080  1.0000
  C   C218      1.0  0.21678  0.22579  0.24725  1.0000
  H   H391      1.0  0.50210  0.45710  0.43495  1.0000
  H   H392      1.0  0.26932  0.50286  0.28283  1.0000
  C   C219      1.0  0.49712  0.24373  0.34271  1.0000
  C   C220      1.0  0.21187  0.00390  0.31091  1.0000
  H   H393      1.0  0.49981  0.24858  0.35903  1.0000
  H   H394      1.0  0.11886  0.15107  0.55323  1.0000
  H   H395      1.0  0.05288  0.17507  0.67386  1.0000
  H   H396      1.0  0.34530  0.02830  0.70337  1.0000
  Fe  Fe26      1.0  0.06311  0.14880  0.50574  1.0000
  S   S51       1.0  0.05917  0.15754  0.54045  1.0000
  Fe  Fe27      1.0  0.26817  0.41805  0.69900  1.0000
  S   S52       1.0  0.30147  0.41618  0.68233  1.0000
  S   S53       1.0  0.25718  0.44484  0.72276  1.0000
  Fe  Fe28      1.0  0.25098  0.37468  0.67839  1.0000
  S   S54       1.0  0.28314  0.37167  0.66016  1.0000
  S   S55       1.0  0.23022  0.34322  0.67212  1.0000
  Fe  Fe29      1.0  0.30037  0.37913  0.68979  1.0000
  S   S56       1.0  0.32891  0.35427  0.69558  1.0000
  Fe  Fe30      1.0  0.28174  0.40845  0.65384  1.0000
  S   S57       1.0  0.28762  0.42659  0.62227  1.0000
  S   S58       1.0  0.26854  0.38105  0.70836  1.0000
  S   S59       1.0  0.24817  0.41172  0.67007  1.0000
  Fe  Fe31      1.0  0.08091  0.22552  0.68465  1.0000
  S   S60       1.0  0.09501  0.19709  0.66582  1.0000
  S   S61       1.0  0.04439  0.21844  0.69569  1.0000
  Fe  Fe32      1.0  0.12454  0.25295  0.67703  1.0000
  S   S62       1.0  0.14043  0.22602  0.65781  1.0000
  S   S63       1.0  0.14014  0.28662  0.68574  1.0000
  Fe  Fe33      1.0  0.10697  0.22268  0.64252  1.0000
  S   S64       1.0  0.10490  0.22000  0.60682  1.0000
  Fe  Fe34      1.0  0.12723  0.20202  0.68242  1.0000
  S   S65       1.0  0.14793  0.17085  0.69105  1.0000
  S   S66       1.0  0.09152  0.25135  0.66030  1.0000
  S   S67       1.0  0.11288  0.22882  0.70264  1.0000
  Fe  Fe35      1.0  0.34874  0.42121  0.50735  1.0000
  S   S68       1.0  0.33547  0.40147  0.53605  1.0000
  H   H397      1.0  0.38991  0.49304  0.52354  1.0000
  C   C221      1.0  0.30259  0.41964  0.59906  1.0000
  C   C222      1.0  0.31218  0.39849  0.59608  1.0000
  C   C223      1.0  0.32231  0.39334  0.57681  1.0000
  C   C224      1.0  0.32357  0.40938  0.56041  1.0000
  C   C225      1.0  0.31455  0.43071  0.56361  1.0000
  C   C226      1.0  0.30403  0.43574  0.58274  1.0000
  H   H398      1.0  0.31160  0.38600  0.60850  1.0000
  H   H399      1.0  0.32927  0.37680  0.57457  1.0000
  H   H400      1.0  0.31520  0.44312  0.55114  1.0000
  H   H401      1.0  0.29670  0.45215  0.58480  1.0000
  C   C227      1.0  0.26447  0.47261  0.72993  1.0000
  H   H402      1.0  0.48183  0.29118  0.55854  1.0000
  C   C228      1.0  0.34426  0.49236  0.54870  1.0000
  H   H403      1.0  0.48123  0.35158  0.56078  1.0000
  C   C229      1.0  0.41108  0.28853  0.71941  1.0000
  C   C230      1.0  0.20487  0.32793  0.67593  1.0000
  C   C231      1.0  0.18721  0.33549  0.68846  1.0000
  C   C232      1.0  0.16769  0.32269  0.69112  1.0000
  C   C233      1.0  0.16534  0.30208  0.68138  1.0000
  C   C234      1.0  0.18302  0.29453  0.66880  1.0000
  C   C235      1.0  0.20256  0.30734  0.66614  1.0000
  H   H404      1.0  0.18854  0.35121  0.69614  1.0000
  H   H405      1.0  0.15425  0.32882  0.70088  1.0000
  H   H406      1.0  0.18167  0.27878  0.66118  1.0000
  H   H407      1.0  0.21602  0.30116  0.65644  1.0000
  C   C236      1.0  0.45671  0.33274  0.71693  1.0000
  N   N13       1.0  0.41892  0.31192  0.71437  1.0000
  H   H408      1.0  0.15128  0.11319  0.60886  1.0000
  H   H409      1.0  0.03450  0.15196  0.67199  1.0000
  C   C237      1.0  0.15747  0.16130  0.71578  1.0000
  H   H410      1.0  0.32687  0.01814  0.68404  1.0000
  H   H411      1.0  0.42417  0.48387  0.55848  1.0000
  C   C238      1.0  0.33095  0.35369  0.73849  1.0000
  H   H412      1.0  0.12256  0.10917  0.61700  1.0000
  H   H413      1.0  0.49554  0.32687  0.59058  1.0000
  H   H414      1.0  0.03318  0.17344  0.73866  1.0000
  C   C239      1.0  0.33518  0.34226  0.72020  1.0000
  H   H415      1.0  0.33753  0.09640  0.73503  1.0000
  H   H416      1.0  0.24580  0.33036  0.73650  1.0000
  C   C240      1.0  0.02225  0.22397  0.71412  1.0000
  C   C241      1.0  0.47981  0.30937  0.55556  1.0000
  H   H417      1.0  0.21972  0.30314  0.73433  1.0000
  C   C242      1.0  0.01818  0.18403  0.59693  1.0000
  H   H418      1.0  0.43726  0.29724  0.54354  1.0000
  H   H419      1.0  0.13422  0.13665  0.61657  1.0000
  H   H420      1.0  0.33295  0.05981  0.72490  1.0000
  C   C243      1.0  0.07367  0.17415  0.55844  1.0000
  C   C244      1.0  0.08594  0.19285  0.55220  1.0000
  C   C245      1.0  0.09556  0.20643  0.56719  1.0000
  C   C246      1.0  0.09345  0.20139  0.58863  1.0000
  C   C247      1.0  0.08197  0.18216  0.59483  1.0000
  C   C248      1.0  0.07192  0.16887  0.57987  1.0000
  H   H421      1.0  0.08748  0.19726  0.53584  1.0000
  H   H422      1.0  0.10451  0.22115  0.56212  1.0000
  H   H423      1.0  0.08079  0.17760  0.61114  1.0000
  H   H424      1.0  0.06266  0.15441  0.58499  1.0000
  H   H425      1.0  0.48987  0.34648  0.71399  1.0000
  C   C249      1.0  0.00609  0.20010  0.61209  1.0000
  N   N14       1.0  0.02093  0.21354  0.62560  1.0000
  H   H426      1.0  0.21449  0.00928  0.71343  1.0000
  C   C250      1.0  0.41122  0.24729  0.71109  1.0000
  C   C251      1.0  0.23724  0.00739  0.73908  1.0000
  H   H427      1.0  0.12947  0.04132  0.52503  1.0000
  H   H428      1.0  0.06440  0.23483  0.62911  1.0000
  H   H429      1.0  0.04195  0.09032  0.57449  1.0000
  H   H430      1.0  0.37775  0.48728  0.57821  1.0000
  H   H431      1.0  0.38941  0.31736  0.69596  1.0000
  H   H432      1.0  0.36294  0.49545  0.61315  1.0000
  H   H433      1.0  0.41886  0.28196  0.73394  1.0000
  C   C252      1.0  0.33135  0.03305  0.69287  1.0000
  H   H434      1.0  0.28511  0.34641  0.73830  1.0000
  H   H435      1.0  0.03883  0.24938  0.73067  1.0000
  H   H436      1.0  0.35046  0.47785  0.53987  1.0000
  H   H437      1.0  0.42935  0.34545  0.68116  1.0000
  H   H438      1.0  0.00361  0.24505  0.63135  1.0000
  H   H439      1.0  0.41482  0.23502  0.69883  1.0000
  C   C253      1.0  0.49349  0.26914  0.73814  1.0000
  H   H440      1.0  0.45149  0.29784  0.72223  1.0000
  C   C254      1.0  0.45010  0.29615  0.53101  1.0000
  C   C255      1.0  0.17235  0.14291  0.71684  1.0000
  H   H441      1.0  0.01683  0.23291  0.65348  1.0000
  H   H442      1.0  0.07295  0.27143  0.61388  1.0000
  H   H443      1.0  0.32304  0.37006  0.73776  1.0000
  C   C256      1.0  0.02547  0.18074  0.65249  1.0000
  H   H444      1.0  0.04672  0.10396  0.54958  1.0000
  H   H445      1.0  0.13898  0.18532  0.73363  1.0000
  H   H446      1.0  0.04636  0.20923  0.64902  1.0000
  H   H447      1.0  0.07710  0.07697  0.55947  1.0000
  H   H448      1.0  0.48189  0.33016  0.69231  1.0000
  H   H449      1.0  0.02390  0.23802  0.60038  1.0000
  H   H450      1.0  0.39250  0.32904  0.73107  1.0000
  C   C257      1.0  0.11861  0.08027  0.54400  1.0000
  H   H451      1.0  0.29765  0.10357  0.71964  1.0000
  H   H452      1.0  0.27394  0.04657  0.72511  1.0000
  H   H453      1.0  0.26056  0.29312  0.68826  1.0000
  H   H454      1.0  0.01453  0.16997  0.64354  1.0000
  C   C258      1.0  0.12661  0.12455  0.58608  1.0000
  H   H455      1.0  0.10975  0.13236  0.58678  1.0000
  C   C259      1.0  0.49681  0.34580  0.55280  1.0000
  C   C260      1.0  0.03487  0.22814  0.61121  1.0000
  H   H456      1.0  0.27880  0.07842  0.69548  1.0000
  H   H457      1.0  0.19122  0.33469  0.57138  1.0000
  H   H458      1.0  0.19201  0.31195  0.59028  1.0000
  H   H459      1.0  0.42188  0.24291  0.72465  1.0000
  H   H460      1.0  0.35987  0.29519  0.74140  1.0000
  C   C261      1.0  0.34557  0.32108  0.72135  1.0000
  C   C262      1.0  0.39679  0.35009  0.66840  1.0000
  H   H461      1.0  0.05115  0.11875  0.57317  1.0000
  H   H462      1.0  0.26181  0.09499  0.71257  1.0000
  H   H463      1.0  0.23194  0.06732  0.71257  1.0000
  C   C263      1.0  0.48196  0.23083  0.73894  1.0000
  C   C264      1.0  0.35199  0.31152  0.74061  1.0000
  H   H464      1.0  0.09224  0.20281  0.73464  1.0000
  H   H465      1.0  0.25767  0.27206  0.71990  1.0000
  C   C265      1.0  0.31643  0.06247  0.71743  1.0000
  H   H466      1.0  0.29742  0.04458  0.69426  1.0000
  C   C266      1.0  0.04291  0.16548  0.66293  1.0000
  H   H467      1.0  0.23125  0.30642  0.70860  1.0000
  H   H468      1.0  0.28930  0.29680  0.66077  1.0000
  C   C267      1.0  0.40781  0.31949  0.69441  1.0000
  H   H469      1.0  0.30619  0.31315  0.67737  1.0000
  H   H470      1.0  0.04610  0.21790  0.60126  1.0000
  H   H471      1.0  0.17783  0.13514  0.70266  1.0000
  H   H472      1.0  0.44879  0.30640  0.69588  1.0000
  H   H473      1.0  0.27918  0.32362  0.66893  1.0000
  H   H474      1.0  0.10488  0.16412  0.70984  1.0000
  C   C268      1.0  0.12914  0.11932  0.53813  1.0000
  C   C269      1.0  0.05050  0.24448  0.62188  1.0000
  H   H475      1.0  0.29396  0.32020  0.71308  1.0000
  H   H476      1.0  0.21574  0.31666  0.57342  1.0000
  N   N15       1.0  0.11678  0.10344  0.55268  1.0000
  H   H477      1.0  0.46753  0.31483  0.56761  1.0000
  S   S69       1.0  0.05916  0.11179  0.50114  1.0000
  C   C270      1.0  0.30062  0.09522  0.73502  1.0000
  H   H478      1.0  0.13844  0.13647  0.57871  1.0000
  H   H479      1.0  0.26617  0.32742  0.70677  1.0000
  C   C271      1.0  0.28884  0.30847  0.67386  1.0000
  H   H480      1.0  0.42016  0.45286  0.53381  1.0000
  H   H481      1.0  0.04734  0.27231  0.59946  1.0000
  H   H482      1.0  0.40558  0.27389  0.68892  1.0000
  H   H483      1.0  0.06917  0.25222  0.59331  1.0000
  C   C272      1.0  0.13792  0.15894  0.52575  1.0000
  H   H484      1.0  0.34324  0.48749  0.56542  1.0000
  N   N16       1.0  0.50150  0.32137  0.55793  1.0000
  C   C273      1.0  0.31110  0.04111  0.70539  1.0000
  H   H485      1.0  0.49363  0.34827  0.53588  1.0000
  C   C274      1.0  0.09236  0.10984  0.55356  1.0000
  H   H486      1.0  0.41336  0.30890  0.68136  1.0000
  C   C275      1.0  0.30137  0.27281  0.73474  1.0000
  H   H487      1.0  0.46048  0.32998  0.53314  1.0000
  C   C276      1.0  0.50168  0.22494  0.72786  1.0000
  C   C277      1.0  0.32299  0.10433  0.74287  1.0000
  C   C278      1.0  0.18042  0.13462  0.73606  1.0000
  H   H488      1.0  0.40237  0.50270  0.57976  1.0000
  C   C279      1.0  0.03650  0.19892  0.63848  1.0000
  H   H489      1.0  0.45729  0.27894  0.53083  1.0000
  C   C280      1.0  0.25187  0.28560  0.73012  1.0000
  C   C281      1.0  0.42793  0.46885  0.52883  1.0000
  C   C282      1.0  0.15040  0.17115  0.73424  1.0000
  H   H490      1.0  0.39341  0.24599  0.71579  1.0000
  H   H491      1.0  0.08975  0.12658  0.56006  1.0000
  H   H492      1.0  0.30577  0.02714  0.71575  1.0000
  H   H493      1.0  0.41733  0.34391  0.72951  1.0000
  H   H494      1.0  0.04920  0.19078  0.62841  1.0000
  H   H495      1.0  0.15415  0.15888  0.53386  1.0000
  H   H496      1.0  0.21259  0.26257  0.72752  1.0000
  H   H497      1.0  0.48054  0.31182  0.52116  1.0000
  H   H498      1.0  0.14050  0.15304  0.50968  1.0000
  C   C283      1.0  0.28387  0.48316  0.72275  1.0000
  H   H499      1.0  0.05417  0.15779  0.65121  1.0000
  C   C284      1.0  0.08989  0.15381  0.70811  1.0000
  C   C285      1.0  0.05275  0.10228  0.56581  1.0000
  H   H500      1.0  0.48960  0.31651  0.71663  1.0000
  C   C286      1.0  0.12695  0.10256  0.57402  1.0000
  C   C287      1.0  0.14343  0.04715  0.53452  1.0000
  C   C288      1.0  0.32432  0.12956  0.73901  1.0000
  C   C289      1.0  0.14220  0.07249  0.53660  1.0000
  H   H501      1.0  0.02784  0.19341  0.58488  1.0000
  H   H502      1.0  0.38647  0.47492  0.54556  1.0000
  H   H503      1.0  0.40827  0.35604  0.69889  1.0000
  N   N17       1.0  0.23926  0.37340  0.60177  1.0000
  C   C290      1.0  0.22935  0.37544  0.62329  1.0000
  C   C291      1.0  0.26271  0.36401  0.60357  1.0000
  C   C292      1.0  0.24091  0.39672  0.59235  1.0000
  C   C293      1.0  0.22539  0.35942  0.58782  1.0000
  C   C294      1.0  0.21176  0.34029  0.59840  1.0000
  C   C295      1.0  0.20700  0.38882  0.62463  1.0000
  C   C296      1.0  0.25302  0.39880  0.57094  1.0000
  C   C297      1.0  0.26536  0.34029  0.61344  1.0000
  C   C298      1.0  0.28999  0.33347  0.61508  1.0000
  C   C299      1.0  0.19435  0.38353  0.64487  1.0000
  C   C300      1.0  0.25012  0.42227  0.56136  1.0000
  H   H504      1.0  0.24128  0.38371  0.63357  1.0000
  H   H505      1.0  0.22688  0.35881  0.63076  1.0000
  H   H506      1.0  0.27083  0.36298  0.58802  1.0000
  H   H507      1.0  0.27298  0.37550  0.61264  1.0000
  H   H508      1.0  0.24954  0.40781  0.60317  1.0000
  H   H509      1.0  0.22401  0.40428  0.59015  1.0000
  H   H510      1.0  0.21293  0.37006  0.57926  1.0000
  H   H511      1.0  0.23615  0.35204  0.57547  1.0000
  H   H512      1.0  0.19753  0.34727  0.60744  1.0000
  H   H513      1.0  0.22179  0.32980  0.60929  1.0000
  H   H514      1.0  0.21042  0.40700  0.62413  1.0000
  H   H515      1.0  0.19599  0.38531  0.61147  1.0000
  H   H516      1.0  0.24657  0.38671  0.55987  1.0000
  H   H517      1.0  0.27120  0.39578  0.57266  1.0000
  H   H518      1.0  0.25798  0.33922  0.62929  1.0000
  H   H519      1.0  0.25755  0.32792  0.60348  1.0000
  H   H520      1.0  0.29906  0.34520  0.62482  1.0000
  H   H521      1.0  0.29148  0.31650  0.62234  1.0000
  H   H522      1.0  0.29799  0.33323  0.59943  1.0000
  H   H523      1.0  0.18958  0.36569  0.64566  1.0000
  H   H524      1.0  0.20476  0.38703  0.65849  1.0000
  H   H525      1.0  0.17892  0.39399  0.64569  1.0000
  H   H526      1.0  0.23233  0.42587  0.55781  1.0000
  H   H527      1.0  0.25618  0.43491  0.57215  1.0000
  H   H528      1.0  0.26002  0.42363  0.54670  1.0000
  H   H529      1.0  0.14733  0.11852  0.54137  1.0000
  C   C301      1.0  0.26637  0.07762  0.70836  1.0000
  C   C302      1.0  0.22906  0.29442  0.72185  1.0000
  C   C303      1.0  0.27774  0.29731  0.69281  1.0000
  H   H530      1.0  0.42412  0.47238  0.51221  1.0000
  H   H531      1.0  0.08207  0.09240  0.58263  1.0000
  C   C304      1.0  0.48097  0.33131  0.70949  1.0000
  H   H532      1.0  0.31919  0.07576  0.70526  1.0000
  H   H533      1.0  0.05571  0.15335  0.71794  1.0000
  H   H534      1.0  0.15939  0.04223  0.52684  1.0000
  C   C305      1.0  0.44404  0.31122  0.71194  1.0000
  H   H535      1.0  0.24865  0.04937  0.69617  1.0000
  H   H536      1.0  0.04189  0.25421  0.63407  1.0000
  H   H537      1.0  0.14475  0.09726  0.57309  1.0000
  C   C306      1.0  0.02390  0.23968  0.72971  1.0000
  H   H538      1.0  0.32063  0.50180  0.52440  1.0000
  C   C307      1.0  0.24528  0.06695  0.70046  1.0000
  C   C308      1.0  0.27582  0.06466  0.72761  1.0000
  H   H539      1.0  0.29495  0.47456  0.71214  1.0000
  H   H540      1.0  0.23918  0.07640  0.68652  1.0000
  H   H541      1.0  0.02961  0.17234  0.60539  1.0000
  H   H542      1.0  0.09402  0.13623  0.71268  1.0000
  H   H543      1.0  0.12743  0.11412  0.52172  1.0000
  H   H544      1.0  0.10516  0.14585  0.52957  1.0000
  C   C309      1.0  0.20214  0.32502  0.58230  1.0000
  H   H545      1.0  0.01076  0.15904  0.57447  1.0000
  H   H546      1.0  0.43394  0.27103  0.69781  1.0000
  H   H547      1.0  0.10747  0.07888  0.53033  1.0000
  C   C310      1.0  0.41617  0.27083  0.70275  1.0000
  C   C311      1.0  0.27711  0.31300  0.71161  1.0000
  H   H548      1.0  0.28996  0.25992  0.72942  1.0000
  S   S70       1.0  0.37513  0.44694  0.51016  1.0000
  H   H549      1.0  0.34866  0.31205  0.70726  1.0000
  H   H550      1.0  0.39973  0.33862  0.65536  1.0000
  H   H551      1.0  0.39279  0.28862  0.72247  1.0000
  C   C312      1.0  0.32057  0.49761  0.54132  1.0000
  C   C313      1.0  0.41092  0.32678  0.73159  1.0000
  C   C314      1.0  0.46838  0.31307  0.53418  1.0000
  H   H552      1.0  0.40031  0.36737  0.66279  1.0000
  N   N18       1.0  0.26947  0.30304  0.73229  1.0000
  H   H553      1.0  0.19776  0.28205  0.71076  1.0000
  H   H554      1.0  0.11896  0.08944  0.58396  1.0000
  C   C315      1.0  0.07693  0.09382  0.56616  1.0000
  H   H555      1.0  0.07754  0.24089  0.74101  1.0000
  H   H556      1.0  0.08579  0.11133  0.53750  1.0000
  H   H557      1.0  0.14259  0.03870  0.55007  1.0000
  C   C316      1.0  0.41186  0.34378  0.68669  1.0000
  H   H558      1.0  0.01573  0.18865  0.66512  1.0000
  C   C317      1.0  0.06053  0.26110  0.60610  1.0000
  C   C318      1.0  0.12134  0.14420  0.53763  1.0000
  H   H559      1.0  0.28686  0.28150  0.69627  1.0000
  H   H560      1.0  0.11272  0.06763  0.55572  1.0000
  H   H561      1.0  0.08517  0.15443  0.69150  1.0000
  H   H562      1.0  0.44904  0.34787  0.70964  1.0000
  H   H563      1.0  0.33689  0.04627  0.68163  1.0000
  C   C319      1.0  0.21457  0.27539  0.71487  1.0000
  C   C320      1.0  0.13415  0.12052  0.60847  1.0000
  H   H564      1.0  0.44194  0.29976  0.51587  1.0000
  H   H565      1.0  0.22202  0.26751  0.70093  1.0000
  H   H566      1.0  0.13129  0.17637  0.52485  1.0000
  H   H567      1.0  0.14609  0.08020  0.52111  1.0000
  H   H568      1.0  0.15546  0.07718  0.54735  1.0000
  N   N19       1.0  0.29938  0.07014  0.73333  1.0000
  H   H569      1.0  0.37895  0.34947  0.67327  1.0000
  H   H570      1.0  0.44627  0.46687  0.53029  1.0000
  H   H571      1.0  0.32543  0.13362  0.72211  1.0000
  H   H572      1.0  0.45677  0.33506  0.73397  1.0000
  C   C321      1.0  0.00718  0.22870  0.63945  1.0000
  H   H573      1.0  0.30997  0.48281  0.54408  1.0000
  H   H574      1.0  0.06768  0.18066  0.71671  1.0000
  H   H575      1.0  0.31187  0.27873  0.72144  1.0000
  C   C322      1.0  0.07079  0.16297  0.72145  1.0000
  H   H576      1.0  0.49467  0.39211  0.55178  1.0000
  H   H577      1.0  0.19200  0.12058  0.73658  1.0000
  H   H578      1.0  0.50083  0.28396  0.58683  1.0000
  C   C323      1.0  0.41943  0.48795  0.54221  1.0000
  H   H579      1.0  0.26429  0.06799  0.74081  1.0000
  C   C324      1.0  0.39374  0.49111  0.54036  1.0000
  H   H580      1.0  0.49064  0.28629  0.74234  1.0000
  H   H581      1.0  0.32704  0.24812  0.74302  1.0000
  H   H582      1.0  0.28780  0.02768  0.75117  1.0000
  Fe  Fe36      1.0  0.15699  0.06137  0.96518  1.0000
  C   C325      1.0  0.06415  0.19881  0.75631  1.0000
  S   S71       1.0  0.16918  0.08144  0.93636  1.0000
  C   C326      1.0  0.30424  0.06004  0.75459  1.0000
  S   S72       1.0  0.12526  0.04178  0.96867  1.0000
  C   C327      1.0  0.48932  0.31323  0.87892  1.0000
  H   H583      1.0  0.01970  0.19808  0.76633  1.0000
  H   H584      1.0  0.48368  0.28148  0.84889  1.0000
  Fe  Fe37      1.0  0.42230  0.33247  0.95858  1.0000
  H   H585      1.0  0.09361  0.18677  0.79183  1.0000
  S   S73       1.0  0.40567  0.32476  0.92761  1.0000
  H   H586      1.0  0.30164  0.48452  0.89258  1.0000
  C   C328      1.0  0.34851  0.26935  0.87184  1.0000
  S   S74       1.0  0.44580  0.36102  0.95593  1.0000
  Fe  Fe38      1.0  0.40164  0.25372  0.82179  1.0000
  S   S75       1.0  0.41095  0.22565  0.80014  1.0000
  S   S76       1.0  0.41150  0.25216  0.85634  1.0000
  Fe  Fe39      1.0  0.37810  0.28050  0.78678  1.0000
  S   S77       1.0  0.38587  0.25490  0.76298  1.0000
  S   S78       1.0  0.35746  0.31249  0.78315  1.0000
  Fe  Fe40      1.0  0.37556  0.22929  0.78783  1.0000
  S   S79       1.0  0.34552  0.20678  0.78101  1.0000
  Fe  Fe41      1.0  0.42056  0.25309  0.77671  1.0000
  C   C329      1.0  0.00615  0.24299  0.74411  1.0000
  S   S80       1.0  0.36627  0.25559  0.81075  1.0000
  S   S81       1.0  0.41286  0.28048  0.79933  1.0000
  Fe  Fe42      1.0  0.20998  0.10743  0.78411  1.0000
  S   S82       1.0  0.23932  0.09865  0.76361  1.0000
  S   S83       1.0  0.18305  0.13449  0.77906  1.0000
  Fe  Fe43      1.0  0.22361  0.07385  0.81880  1.0000
  S   S84       1.0  0.25426  0.06286  0.80068  1.0000
  S   S85       1.0  0.21254  0.05483  0.84872  1.0000
  Fe  Fe44      1.0  0.25943  0.09971  0.79302  1.0000
  S   S86       1.0  0.29526  0.11301  0.79549  1.0000
  Fe  Fe45      1.0  0.23244  0.06233  0.77249  1.0000
  C   C330      1.0  0.28886  0.29296  0.74429  1.0000
  S   S87       1.0  0.23031  0.11035  0.81320  1.0000
  S   S88       1.0  0.20154  0.07151  0.79096  1.0000
  H   H587      1.0  0.36542  0.23450  0.84982  1.0000
  C   C331      1.0  0.35619  0.22095  0.85775  1.0000
  C   C332      1.0  0.03109  0.11029  0.98248  1.0000
  C   C333      1.0  0.28721  0.47745  0.81565  1.0000
  H   H588      1.0  0.35987  0.29555  0.83703  1.0000
  H   H589      1.0  0.47153  0.34539  0.92003  1.0000
  H   H590      1.0  0.25225  0.04441  0.98529  1.0000
  H   H591      1.0  0.07706  0.11522  0.84118  1.0000
  N   N20       1.0  0.06145  0.17393  0.75931  1.0000
  H   H592      1.0  0.50144  0.39850  0.97014  1.0000
  H   H593      1.0  0.45390  0.27942  0.85133  1.0000
  C   C334      1.0  0.30841  0.13969  0.79241  1.0000
  C   C335      1.0  0.29765  0.15850  0.78349  1.0000
  C   C336      1.0  0.30924  0.17872  0.78024  1.0000
  C   C337      1.0  0.33164  0.18080  0.78622  1.0000
  C   C338      1.0  0.34226  0.16213  0.79555  1.0000
  C   C339      1.0  0.33081  0.14176  0.79840  1.0000
  H   H594      1.0  0.28052  0.15735  0.77868  1.0000
  H   H595      1.0  0.30075  0.19291  0.77297  1.0000
  H   H596      1.0  0.35944  0.16324  0.80020  1.0000
  H   H597      1.0  0.33945  0.12743  0.80525  1.0000
  C   C340      1.0  0.29146  0.49270  0.86099  1.0000
  C   C341      1.0  0.33595  0.23000  0.87038  1.0000
  C   C342      1.0  0.36358  0.25913  0.91638  1.0000
  C   C343      1.0  0.40939  0.30500  0.90755  1.0000
  C   C344      1.0  0.40070  0.31013  0.88772  1.0000
  C   C345      1.0  0.40201  0.29458  0.87164  1.0000
  C   C346      1.0  0.41155  0.27338  0.87530  1.0000
  C   C347      1.0  0.42052  0.26835  0.89503  1.0000
  C   C348      1.0  0.41952  0.28404  0.91103  1.0000
  H   H598      1.0  0.39273  0.32622  0.88481  1.0000
  H   H599      1.0  0.39520  0.29884  0.85655  1.0000
  H   H600      1.0  0.42795  0.25203  0.89808  1.0000
  H   H601      1.0  0.42587  0.27962  0.92626  1.0000
  H   H602      1.0  0.24574  0.01320  0.93700  1.0000
  C   C349      1.0  0.43993  0.36622  0.89439  1.0000
  C   C350      1.0  0.25940  0.32147  0.74519  1.0000
  H   H603      1.0  0.00908  0.06432  0.97965  1.0000
  C   C351      1.0  0.46264  0.35600  0.88874  1.0000
  H   H604      1.0  0.30711  0.25340  0.76346  1.0000
  C   C352      1.0  0.18084  0.07355  0.91197  1.0000
  C   C353      1.0  0.18280  0.05128  0.90614  1.0000
  C   C354      1.0  0.19290  0.04590  0.88693  1.0000
  C   C355      1.0  0.20078  0.06267  0.87308  1.0000
  C   C356      1.0  0.19896  0.08491  0.87899  1.0000
  C   C357      1.0  0.18899  0.09030  0.89824  1.0000
  H   H605      1.0  0.17664  0.03818  0.91646  1.0000
  H   H606      1.0  0.19437  0.02861  0.88265  1.0000
  H   H607      1.0  0.20540  0.09795  0.86878  1.0000
  H   H608      1.0  0.18776  0.10757  0.90262  1.0000
  C   C358      1.0  0.47765  0.25303  0.74420  1.0000
  S   S89       1.0  0.22929  0.03471  0.74798  1.0000
  H   H609      1.0  0.27409  0.04353  0.94160  1.0000
  H   H610      1.0  0.48403  0.45704  0.95545  1.0000
  H   H611      1.0  0.43403  0.31192  0.75488  1.0000
  C   C359      1.0  0.26352  0.08143  0.89007  1.0000
  H   H612      1.0  0.34025  0.19034  0.84846  1.0000
  C   C360      1.0  0.41665  0.31850  0.75394  1.0000
  H   H613      1.0  0.46128  0.44533  0.96960  1.0000
  C   C361      1.0  0.09024  0.16891  0.78932  1.0000
  C   C362      1.0  0.49602  0.30743  0.91685  1.0000
  H   H614      1.0  0.42680  0.35343  0.89399  1.0000
  H   H615      1.0  0.39622  0.34390  0.76906  1.0000
  H   H616      1.0  0.24800  0.08111  0.88087  1.0000
  H   H617      1.0  0.03522  0.14988  0.75610  1.0000
  H   H618      1.0  0.22427  0.02176  0.91905  1.0000
  H   H619      1.0  0.49528  0.28559  0.95576  1.0000
  C   C363      1.0  0.33760  0.34422  0.75773  1.0000
  C   C364      1.0  0.28135  0.44775  0.78873  1.0000
  H   H620      1.0  0.35052  0.28374  0.88216  1.0000
  H   H621      1.0  0.25887  0.02079  0.96994  1.0000
  C   C365      1.0  0.22814  0.01900  0.93576  1.0000
  H   H622      1.0  0.24853  0.27710  0.74544  1.0000
  C   C366      1.0  0.22406  0.04088  0.94764  1.0000
  H   H623      1.0  0.49416  0.47784  0.98909  1.0000
  H   H624      1.0  0.48982  0.32593  0.86598  1.0000
  H   H625      1.0  0.26518  0.44275  0.79586  1.0000
  C   C367      1.0  0.36375  0.43784  0.98635  1.0000
  H   H626      1.0  0.27304  0.09638  0.88501  1.0000
  H   H627      1.0  0.29501  0.43721  0.79544  1.0000
  H   H628      1.0  0.42541  0.35079  0.76599  1.0000
  S   S90       1.0  0.42756  0.41326  0.98511  1.0000
  H   H629      1.0  0.34333  0.31264  0.85427  1.0000
  H   H630      1.0  0.02130  0.17544  0.78530  1.0000
  H   H631      1.0  0.24282  0.08032  0.98497  1.0000
  C   C368      1.0  0.26359  0.05279  0.95300  1.0000
  C   C369      1.0  0.04928  0.10225  0.97076  1.0000
  H   H632      1.0  0.47726  0.42566  0.93608  1.0000
  Fe  Fe46      1.0  0.46756  0.34176  0.97821  1.0000
  H   H633      1.0  0.15821  0.09493  0.76509  1.0000
  N   N21       1.0  0.24108  0.05884  0.94394  1.0000
  C   C370      1.0  0.25037  0.48432  0.74374  1.0000
  H   H634      1.0  0.28063  0.44478  0.77178  1.0000
  H   H635      1.0  0.08455  0.23783  0.76826  1.0000
  C   C371      1.0  0.03752  0.16830  0.75488  1.0000
  H   H636      1.0  0.19737  0.10206  0.97452  1.0000
  C   C372      1.0  0.36696  0.46094  0.98762  1.0000
  H   H637      1.0  0.13436  0.07918  0.75815  1.0000
  C   C373      1.0  0.28548  0.47244  0.79214  1.0000
  H   H638      1.0  0.32988  0.21543  0.87970  1.0000
  H   H639      1.0  0.37174  0.27400  0.90931  1.0000
  C   C374      1.0  0.14642  0.03393  0.85874  1.0000
  H   H640      1.0  0.32337  0.48082  0.87336  1.0000
  C   C375      1.0  0.49011  0.41265  0.96582  1.0000
  H   H641      1.0  0.33206  0.26495  0.84185  1.0000
  H   H642      1.0  0.19520  0.00561  0.94271  1.0000
  H   H643      1.0  0.36798  0.21174  0.86819  1.0000
  H   H644      1.0  0.28618  0.47543  0.85809  1.0000
  C   C376      1.0  0.08785  0.20719  0.75079  1.0000
  C   C377      1.0  0.27557  0.33977  0.75188  1.0000
  H   H645      1.0  0.27568  0.24987  0.91052  1.0000
  H   H646      1.0  0.31639  0.28208  0.85951  1.0000
  C   C378      1.0  0.31047  0.23869  0.91209  1.0000
  C   C379      1.0  0.24378  0.06237  0.92070  1.0000
  H   H647      1.0  0.33467  0.35335  0.77179  1.0000
  H   H648      1.0  0.39479  0.24227  0.92511  1.0000
  H   H649      1.0  0.25147  0.04730  0.91363  1.0000
  H   H650      1.0  0.29208  0.03261  0.78894  1.0000
  H   H651      1.0  0.33757  0.21349  0.82992  1.0000
  H   H652      1.0  0.09090  0.13849  0.80861  1.0000
  H   H653      1.0  0.30637  0.00786  0.78030  1.0000
  H   H654      1.0  0.30681  0.22242  0.90523  1.0000
  H   H655      1.0  0.43556  0.37980  0.88300  1.0000
  H   H656      1.0  0.34700  0.43147  0.98668  1.0000
  H   H657      1.0  0.27364  0.46838  0.82407  1.0000
  S   S91       1.0  0.44474  0.31195  0.97983  1.0000
  H   H658      1.0  0.44019  0.37333  0.91011  1.0000
  H   H659      1.0  0.30115  0.47676  0.78379  1.0000
  H   H660      1.0  0.32277  0.23576  0.92461  1.0000
  H   H661      1.0  0.38406  0.26179  0.94368  1.0000
  H   H662      1.0  0.24872  0.09837  0.91570  1.0000
  C   C380      1.0  0.25806  0.08246  0.91330  1.0000
  H   H663      1.0  0.28307  0.23492  0.93418  1.0000
  N   N22       1.0  0.14353  0.09265  0.83035  1.0000
  C   C381      1.0  0.14668  0.06783  0.83427  1.0000
  C   C382      1.0  0.14682  0.09854  0.80750  1.0000
  C   C383      1.0  0.16147  0.10412  0.84217  1.0000
  C   C384      1.0  0.12124  0.10111  0.83817  1.0000
  C   C385      1.0  0.10042  0.09007  0.82936  1.0000
  C   C386      1.0  0.14246  0.05916  0.85689  1.0000
  C   C387      1.0  0.16282  0.12985  0.83875  1.0000
  C   C388      1.0  0.13894  0.08162  0.79142  1.0000
  C   C389      1.0  0.14058  0.09137  0.76927  1.0000
  C   C390      1.0  0.07941  0.09679  0.84151  1.0000
  H   H664      1.0  0.13052  0.10705  0.76761  1.0000
  C   C391      1.0  0.18242  0.13921  0.85043  1.0000
  H   H665      1.0  0.16394  0.06261  0.82957  1.0000
  H   H666      1.0  0.13553  0.05812  0.82452  1.0000
  H   H667      1.0  0.13900  0.11511  0.80360  1.0000
  H   H668      1.0  0.16488  0.10049  0.80394  1.0000
  H   H669      1.0  0.17818  0.09683  0.83812  1.0000
  H   H670      1.0  0.15925  0.10131  0.85918  1.0000
  H   H671      1.0  0.12046  0.09980  0.85545  1.0000
  H   H672      1.0  0.11917  0.11923  0.83444  1.0000
  H   H673      1.0  0.10173  0.07161  0.83009  1.0000
  H   H674      1.0  0.09799  0.09581  0.81301  1.0000
  H   H675      1.0  0.15368  0.06695  0.86795  1.0000
  H   H676      1.0  0.12500  0.06262  0.86187  1.0000
  H   H677      1.0  0.14751  0.13832  0.84461  1.0000
  H   H678      1.0  0.16511  0.13458  0.82212  1.0000
  H   H679      1.0  0.14977  0.06638  0.79206  1.0000
  H   H680      1.0  0.12157  0.07646  0.79428  1.0000
  C   C392      1.0  0.22696  0.08045  0.97627  1.0000
  Fe  Fe47      1.0  0.42905  0.37545  0.98369  1.0000
  C   C393      1.0  0.41358  0.33713  0.76949  1.0000
  H   H681      1.0  0.42360  0.46070  0.98522  1.0000
  H   H682      1.0  0.47475  0.36976  0.88837  1.0000
  H   H683      1.0  0.06460  0.08930  0.83447  1.0000
  H   H684      1.0  0.05798  0.20758  0.77034  1.0000
  H   H685      1.0  0.32446  0.10117  0.75987  1.0000
  H   H686      1.0  0.21692  0.06609  0.98165  1.0000
  H   H687      1.0  0.19840  0.13190  0.84469  1.0000
  H   H688      1.0  0.18293  0.15758  0.84781  1.0000
  H   H689      1.0  0.18068  0.13559  0.86738  1.0000
  H   H690      1.0  0.29934  0.02967  0.97130  1.0000
  C   C394      1.0  0.28895  0.24730  0.92227  1.0000
  H   H691      1.0  0.05569  0.17622  0.79251  1.0000
  H   H692      1.0  0.29184  0.26330  0.93003  1.0000
  H   H693      1.0  0.34840  0.26492  0.92472  1.0000
  C   C395      1.0  0.47613  0.29669  0.92874  1.0000
  C   C396      1.0  0.34888  0.20488  0.84122  1.0000
  C   C397      1.0  0.33338  0.27777  0.85381  1.0000
  C   C398      1.0  0.49265  0.41727  0.94207  1.0000
  H   H694      1.0  0.10091  0.19971  0.76081  1.0000
  C   C399      1.0  0.38212  0.42297  0.98465  1.0000
  S   S92       1.0  0.17812  0.03593  0.98240  1.0000
  H   H695      1.0  0.35442  0.22579  0.90698  1.0000
  H   H696      1.0  0.37451  0.23922  0.89097  1.0000
  H   H697      1.0  0.10294  0.16201  0.77853  1.0000
  H   H698      1.0  0.47565  0.49718  0.95921  1.0000
  C   C400      1.0  0.49618  0.39574  0.93024  1.0000
  C   C401      1.0  0.28712  0.03666  0.98259  1.0000
  C   C402      1.0  0.35841  0.24217  0.89938  1.0000
  H   H699      1.0  0.31780  0.49750  0.83839  1.0000
  H   H700      1.0  0.30285  0.46886  0.82092  1.0000
  H   H701      1.0  0.41681  0.33041  0.78543  1.0000
  H   H702      1.0  0.16369  0.02949  0.85372  1.0000
  H   H703      1.0  0.14415  0.02824  0.87518  1.0000
  H   H704      1.0  0.32048  0.27216  0.90253  1.0000
  C   C403      1.0  0.31905  0.25561  0.89526  1.0000
  H   H705      1.0  0.24385  0.09417  0.94981  1.0000
  H   H706      1.0  0.37109  0.23505  0.94143  1.0000
  N   N23       1.0  0.34049  0.24925  0.88425  1.0000
  H   H707      1.0  0.21645  0.08554  0.94430  1.0000
  S   S93       1.0  0.45286  0.26177  0.75801  1.0000
  C   C404      1.0  0.47731  0.47244  0.98472  1.0000
  C   C405      1.0  0.23198  0.08037  0.95262  1.0000
  H   H708      1.0  0.47308  0.40599  0.96858  1.0000
  H   H709      1.0  0.44880  0.48736  0.96830  1.0000
  H   H710      1.0  0.25587  0.49894  0.83898  1.0000
  H   H711      1.0  0.36543  0.26623  0.86529  1.0000
  H   H712      1.0  0.30536  0.25789  0.88385  1.0000
  H   H713      1.0  0.27296  0.06824  0.95596  1.0000
  H   H714      1.0  0.27191  0.48208  0.78452  1.0000
  H   H715      1.0  0.46944  0.27133  0.95254  1.0000
  C   C406      1.0  0.34842  0.32326  0.75882  1.0000
  H   H716      1.0  0.32115  0.06453  0.75971  1.0000
  C   C407      1.0  0.08900  0.23254  0.75232  1.0000
  H   H717      1.0  0.27399  0.08283  0.92183  1.0000
  H   H718      1.0  0.47032  0.28293  0.88560  1.0000
  H   H719      1.0  0.29240  0.06713  0.76630  1.0000
  C   C408      1.0  0.46967  0.33742  0.90475  1.0000
  H   H720      1.0  0.13443  0.02507  0.84905  1.0000
  H   H721      1.0  0.06132  0.14871  0.78389  1.0000
  H   H722      1.0  0.46439  0.28919  0.91807  1.0000
  H   H723      1.0  0.08154  0.16320  0.82204  1.0000
  H   H724      1.0  0.08049  0.09066  0.85793  1.0000
  C   C409      1.0  0.40380  0.43112  0.98458  1.0000
  H   H725      1.0  0.27379  0.06633  0.88671  1.0000
  C   C410      1.0  0.01930  0.17965  0.76857  1.0000
  H   H726      1.0  0.22721  0.06463  0.91334  1.0000
  C   C411      1.0  0.09343  0.15665  0.81022  1.0000
  H   H727      1.0  0.45518  0.32631  0.90685  1.0000
  H   H728      1.0  0.15291  0.17050  0.76770  1.0000
  H   H729      1.0  0.08092  0.08432  0.97120  1.0000
  H   H730      1.0  0.22249  0.03628  0.96434  1.0000
  C   C412      1.0  0.30624  0.02639  0.77934  1.0000
  H   H731      1.0  0.04970  0.10526  0.95411  1.0000
  H   H732      1.0  0.49713  0.39961  0.91330  1.0000
  H   H733      1.0  0.33209  0.30413  0.82993  1.0000
  N   N24       1.0  0.49373  0.43253  0.97922  1.0000
  H   H734      1.0  0.20717  0.04731  0.94330  1.0000
  H   H735      1.0  0.28748  0.33302  0.76363  1.0000
  H   H736      1.0  0.46135  0.34931  0.87294  1.0000
  H   H737      1.0  0.07542  0.14245  0.74917  1.0000
  C   C413      1.0  0.06609  0.16650  0.78148  1.0000
  H   H738      1.0  0.25409  0.35339  0.77617  1.0000
  C   C414      1.0  0.34278  0.29879  0.84319  1.0000
  C   C415      1.0  0.26383  0.03806  0.97326  1.0000
  N   N25       1.0  0.49069  0.32436  0.89961  1.0000
  C   C416      1.0  0.17351  0.14453  0.75449  1.0000
  H   H739      1.0  0.36371  0.19866  0.83248  1.0000
  H   H740      1.0  0.32213  0.23430  0.85954  1.0000
  C   C417      1.0  0.37934  0.24884  0.93261  1.0000
  H   H741      1.0  0.40522  0.30490  0.75878  1.0000
  H   H742      1.0  0.46693  0.30948  0.93779  1.0000
  H   H743      1.0  0.11067  0.15913  0.81570  1.0000
  C   C418      1.0  0.48404  0.27849  0.94415  1.0000
  C   C419      1.0  0.07623  0.16057  0.74491  1.0000
  H   H744      1.0  0.32209  0.03234  0.78576  1.0000
  H   H745      1.0  0.45299  0.30703  0.87892  1.0000
  C   C420      1.0  0.46815  0.29072  0.85317  1.0000
  C   C421      1.0  0.06699  0.09039  0.98040  1.0000
  H   H746      1.0  0.00782  0.25513  0.75607  1.0000
  C   C422      1.0  0.46899  0.29824  0.87564  1.0000
  H   H747      1.0  0.27498  0.37218  0.76604  1.0000
  C   C423      1.0  0.30367  0.03429  0.75672  1.0000
  S   S94       1.0  0.40355  0.34861  0.98512  1.0000
  Fe  Fe48      1.0  0.14618  0.01724  0.98751  1.0000
  H   H748      1.0  0.27695  0.50237  0.86710  1.0000
  C   C424      1.0  0.15831  0.16270  0.75351  1.0000
  H   H749      1.0  0.46579  0.30529  0.84234  1.0000
  H   H750      1.0  0.48214  0.38427  0.93330  1.0000
  H   H751      1.0  0.37953  0.40526  0.98360  1.0000
  H   H752      1.0  0.09402  0.16480  0.74657  1.0000
  H   H753      1.0  0.10622  0.23807  0.74869  1.0000
  C   C425      1.0  0.26298  0.35920  0.76185  1.0000
  H   H754      1.0  0.39132  0.48683  0.98782  1.0000
  H   H755      1.0  0.23524  0.47655  0.74935  1.0000
  N   N26       1.0  0.28688  0.50176  0.82152  1.0000
  S   S95       1.0  0.34375  0.47923  0.99053  1.0000
  H   H756      1.0  0.22324  0.11670  0.97771  1.0000
  S   S96       1.0  0.00936  0.12532  0.96970  1.0000
  C   C426      1.0  0.21387  0.10147  0.98220  1.0000
  H   H757      1.0  0.32840  0.27348  0.75727  1.0000
  H   H758      1.0  0.24398  0.49304  0.80309  1.0000
  C   C427      1.0  0.47864  0.45133  0.97129  1.0000
  C   C428      1.0  0.30903  0.49162  0.87800  1.0000
  H   H759      1.0  0.28318  0.28791  0.76028  1.0000
  H   H760      1.0  0.49295  0.26487  0.93593  1.0000
  H   H761      1.0  0.25151  0.31435  0.75962  1.0000
  H   H762      1.0  0.25073  0.36691  0.75090  1.0000
  H   H763      1.0  0.32719  0.49571  0.80209  1.0000
  C   C429      1.0  0.46576  0.49197  0.97315  1.0000
  C   C430      1.0  0.40693  0.45423  0.98536  1.0000
  C   C431      1.0  0.38864  0.46908  0.98691  1.0000
  H   H764      1.0  0.31780  0.02683  0.74788  1.0000
  C   C432      1.0  0.31690  0.26135  0.75060  1.0000
  H   H765      1.0  0.29252  0.05344  0.98714  1.0000
  H   H766      1.0  0.30942  0.13815  0.74563  1.0000
  H   H767      1.0  0.28718  0.10151  0.74559  1.0000
  H   H768      1.0  0.30203  0.30551  0.74628  1.0000
  H   H769      1.0  0.33934  0.13599  0.74661  1.0000
  H   H770      1.0  0.05341  0.20532  0.74345  1.0000
  H   H771      1.0  0.47010  0.21815  0.74342  1.0000
  S   S97       1.0  0.03868  0.85958  0.01074  1.0000
  Fe  Fe49      1.0  0.06290  0.83031  0.01132  1.0000
  S   S98       1.0  0.06580  0.80493  0.03878  1.0000
  H   H772      1.0  0.37453  0.63589  0.00008  1.0000
  S   S99       1.0  0.37110  0.53078  0.01530  1.0000
  C   C433      1.0  0.45299  0.67535  0.22707  1.0000
  Fe  Fe50      1.0  0.34639  0.55944  0.01463  1.0000
  S   S100      1.0  0.34111  0.57872  0.04500  1.0000
  Fe  Fe51      1.0  0.27804  0.59047  0.15918  1.0000
  S   S101      1.0  0.25083  0.57936  0.18183  1.0000
  S   S102      1.0  0.28003  0.57219  0.12802  1.0000
  Fe  Fe52      1.0  0.29798  0.62068  0.19171  1.0000
  S   S103      1.0  0.27296  0.61077  0.21631  1.0000
  S   S104      1.0  0.32392  0.64776  0.19496  1.0000
  Fe  Fe53      1.0  0.27790  0.57535  0.20554  1.0000
  S   S105      1.0  0.28619  0.54523  0.22773  1.0000
  Fe  Fe54      1.0  0.24752  0.61562  0.19084  1.0000
  S   S106      1.0  0.21437  0.63308  0.20056  1.0000
  S   S107      1.0  0.30514  0.58523  0.18267  1.0000
  S   S108      1.0  0.27251  0.62690  0.16651  1.0000
  Fe  Fe55      1.0  0.10281  0.78178  0.15985  1.0000
  S   S109      1.0  0.09240  0.74606  0.16176  1.0000
  S   S110      1.0  0.10358  0.80573  0.13141  1.0000
  Fe  Fe56      1.0  0.11601  0.78054  0.20605  1.0000
  S   S111      1.0  0.10634  0.74453  0.21084  1.0000
  H   H773      1.0  0.32643  0.51870  0.21067  1.0000
  Fe  Fe57      1.0  0.12395  0.73909  0.18003  1.0000
  S   S112      1.0  0.15215  0.71549  0.16862  1.0000
  Fe  Fe58      1.0  0.07562  0.75471  0.19252  1.0000
  S   S113      1.0  0.03808  0.74825  0.19792  1.0000
  S   S114      1.0  0.13499  0.77477  0.17660  1.0000
  S   S115      1.0  0.08466  0.79089  0.18935  1.0000
  H   H774      1.0  0.23328  0.54719  0.15217  1.0000
  H   H775      1.0  0.29847  0.69497  0.21065  1.0000
  H   H776      1.0  0.22627  0.86212  0.16504  1.0000
  H   H777      1.0  0.07951  0.85009  0.13850  1.0000
  C   C434      1.0  0.32379  0.51599  0.17714  1.0000
  H   H778      1.0  0.38271  0.58234  0.11836  1.0000
  C   C435      1.0  0.18645  0.82946  0.21924  1.0000
  C   C436      1.0  0.16663  0.81745  0.21764  1.0000
  H   H779      1.0  0.43109  0.58729  0.08203  1.0000
  C   C437      1.0  0.34393  0.74013  0.23490  1.0000
  H   H780      1.0  0.16213  0.81053  0.20298  1.0000
  H   H781      1.0  0.25413  0.52986  0.18296  1.0000
  C   C438      1.0  0.33976  0.65242  0.21740  1.0000
  H   H782      1.0  0.49879  0.73686  0.14047  1.0000
  C   C439      1.0  0.22738  0.53212  0.16089  1.0000
  H   H783      1.0  0.20807  0.73253  0.20907  1.0000
  H   H784      1.0  0.17376  0.70247  0.23363  1.0000
  C   C440      1.0  0.19754  0.65628  0.19141  1.0000
  C   C441      1.0  0.20333  0.66950  0.17396  1.0000
  C   C442      1.0  0.18930  0.68751  0.16736  1.0000
  C   C443      1.0  0.16944  0.69287  0.17819  1.0000
  C   C444      1.0  0.16381  0.67989  0.19582  1.0000
  C   C445      1.0  0.17765  0.66166  0.20223  1.0000
  H   H785      1.0  0.21847  0.66564  0.16539  1.0000
  H   H786      1.0  0.19387  0.69731  0.15366  1.0000
  H   H787      1.0  0.14851  0.68350  0.20422  1.0000
  H   H788      1.0  0.17276  0.65144  0.21556  1.0000
  C   C446      1.0  0.36652  0.67546  0.23508  1.0000
  C   C447      1.0  0.01959  0.74931  0.22004  1.0000
  C   C448      1.0  0.41672  0.59696  0.07566  1.0000
  H   H789      1.0  0.41238  0.57369  0.02714  1.0000
  C   C449      1.0  0.18763  0.71125  0.24116  1.0000
  C   C450      1.0  0.41218  0.57357  0.04440  1.0000
  C   C451      1.0  0.50109  0.75314  0.13220  1.0000
  C   C452      1.0  0.32409  0.57624  0.06805  1.0000
  C   C453      1.0  0.30750  0.56024  0.07060  1.0000
  C   C454      1.0  0.29423  0.55937  0.08894  1.0000
  C   C455      1.0  0.29745  0.57423  0.10520  1.0000
  C   C456      1.0  0.31422  0.59006  0.10275  1.0000
  C   C457      1.0  0.32729  0.59112  0.08429  1.0000
  H   H790      1.0  0.30462  0.54875  0.05830  1.0000
  H   H791      1.0  0.28120  0.54720  0.09044  1.0000
  H   H792      1.0  0.31690  0.60172  0.11495  1.0000
  H   H793      1.0  0.33980  0.60378  0.08252  1.0000
  N   N27       1.0  0.41632  0.59665  0.05222  1.0000
  H   H794      1.0  0.02576  0.78582  0.11474  1.0000
  C   C458      1.0  0.45962  0.60096  0.05486  1.0000
  H   H795      1.0  0.20994  0.69632  0.21788  1.0000
  C   C459      1.0  0.03123  0.82919  0.10138  1.0000
  H   H796      1.0  0.20097  0.86550  0.18012  1.0000
  C   C460      1.0  0.25462  0.51120  0.22813  1.0000
  C   C461      1.0  0.26477  0.51293  0.15451  1.0000
  C   C462      1.0  0.07609  0.80586  0.06458  1.0000
  C   C463      1.0  0.08670  0.82452  0.07211  1.0000
  C   C464      1.0  0.09493  0.82415  0.09258  1.0000
  C   C465      1.0  0.09263  0.80522  0.10581  1.0000
  C   C466      1.0  0.08184  0.78664  0.09835  1.0000
  C   C467      1.0  0.07366  0.78698  0.07788  1.0000
  H   H797      1.0  0.08870  0.83918  0.06212  1.0000
  H   H798      1.0  0.10322  0.83866  0.09816  1.0000
  H   H799      1.0  0.08006  0.77188  0.10820  1.0000
  H   H800      1.0  0.06539  0.77249  0.07226  1.0000
  C   C468      1.0  0.42774  0.67919  0.22792  1.0000
  C   C469      1.0  0.42905  0.55499  0.05120  1.0000
  N   N28       1.0  0.18629  0.73601  0.23600  1.0000
  C   C470      1.0  0.30451  0.51407  0.12755  1.0000
  H   H801      1.0  0.17130  0.97019  0.16664  1.0000
  H   H802      1.0  0.29477  0.53616  0.16992  1.0000
  H   H803      1.0  0.19829  0.97519  0.15460  1.0000
  H   H804      1.0  0.03852  0.85544  0.14010  1.0000
  H   H805      1.0  0.32788  0.54498  0.19639  1.0000
  H   H806      1.0  0.15109  0.73630  0.22917  1.0000
  H   H807      1.0  0.11704  0.76818  0.02895  1.0000
  H   H808      1.0  0.04417  0.84112  0.10581  1.0000
  H   H809      1.0  0.45983  0.68688  0.21486  1.0000
  C   C471      1.0  0.19224  0.83905  0.23806  1.0000
  H   H810      1.0  0.05161  0.80861  0.15742  1.0000
  C   C472      1.0  0.39563  0.58798  0.08710  1.0000
  C   C473      1.0  0.19047  0.76325  0.20413  1.0000
  H   H811      1.0  0.49535  0.60536  0.05103  1.0000
  C   C474      1.0  0.00907  0.80137  0.17553  1.0000
  H   H812      1.0  0.16051  0.76195  0.23768  1.0000
  H   H813      1.0  0.04780  0.73608  0.14503  1.0000
  H   H814      1.0  0.41241  0.57790  0.11583  1.0000
  H   H815      1.0  0.40439  0.52894  0.05596  1.0000
  H   H816      1.0  0.13657  0.72481  0.12701  1.0000
  C   C475      1.0  0.18221  0.93075  0.22805  1.0000
  H   H817      1.0  0.11551  0.72569  0.07140  1.0000
  H   H818      1.0  0.28944  0.51756  0.11806  1.0000
  C   C476      1.0  0.35412  0.67070  0.21736  1.0000
  H   H819      1.0  0.17403  0.77133  0.20701  1.0000
  H   H820      1.0  0.03704  0.74492  0.12005  1.0000
  H   H821      1.0  0.07943  0.83890  0.16489  1.0000
  H   H822      1.0  0.37752  0.68954  0.23487  1.0000
  C   C477      1.0  0.11661  0.70307  0.11011  1.0000
  C   C478      1.0  0.16264  0.74370  0.24040  1.0000
  C   C479      1.0  0.24688  0.51931  0.17100  1.0000
  H   H823      1.0  0.35559  0.68125  0.20352  1.0000
  H   H824      1.0  0.31405  0.73518  0.21726  1.0000
  C   C480      1.0  0.20261  0.94109  0.18518  1.0000
  H   H825      1.0  0.37530  0.75010  0.22072  1.0000
  H   H826      1.0  0.23972  0.50426  0.17874  1.0000
  H   H827      1.0  0.01858  0.74216  0.14250  1.0000
  H   H828      1.0  0.00375  0.83299  0.15893  1.0000
  H   H829      1.0  0.15186  0.71690  0.05677  1.0000
  H   H830      1.0  0.21100  0.93877  0.16986  1.0000
  H   H831      1.0  0.48153  0.59727  0.02788  1.0000
  C   C481      1.0  0.04502  0.81907  0.14437  1.0000
  H   H832      1.0  0.02390  0.91465  0.02566  1.0000
  H   H833      1.0  0.48620  0.74301  0.19488  1.0000
  H   H834      1.0  0.45977  0.61071  0.06929  1.0000
  C   C482      1.0  0.19941  0.96665  0.18774  1.0000
  H   H835      1.0  0.08809  0.70492  0.13145  1.0000
  H   H836      1.0  0.05670  0.77567  0.13715  1.0000
  H   H837      1.0  0.26599  0.66813  0.23832  1.0000
  H   H838      1.0  0.07122  0.86757  0.15966  1.0000
  C   C483      1.0  0.07064  0.85038  0.15375  1.0000
  C   C484      1.0  0.20960  0.69897  0.23490  1.0000
  H   H839      1.0  0.47867  0.62558  0.03663  1.0000
  H   H840      1.0  0.14139  0.69696  0.07541  1.0000
  H   H841      1.0  0.22444  0.70863  0.23897  1.0000
  H   H842      1.0  0.32591  0.52127  0.10092  1.0000
  H   H843      1.0  0.21560  0.97496  0.18953  1.0000
  H   H844      1.0  0.19726  0.83143  0.20580  1.0000
  C   C485      1.0  0.39813  0.58863  0.11065  1.0000
  C   C486      1.0  0.01413  0.82565  0.11950  1.0000
  C   C487      1.0  0.21911  0.86894  0.17957  1.0000
  H   H845      1.0  0.41928  0.61435  0.08074  1.0000
  H   H846      1.0  0.18883  0.97025  0.20155  1.0000
  H   H847      1.0  0.18021  0.68521  0.08456  1.0000
  H   H848      1.0  0.19467  0.90002  0.20000  1.0000
  H   H849      1.0  0.43267  0.51889  0.05248  1.0000
  H   H850      1.0  0.48989  0.75404  0.11863  1.0000
  C   C488      1.0  0.28033  0.92850  0.20891  1.0000
  H   H851      1.0  0.17134  0.93620  0.21505  1.0000
  C   C489      1.0  0.39715  0.61173  0.04534  1.0000
  C   C490      1.0  0.39614  0.61790  0.02181  1.0000
  C   C491      1.0  0.27622  0.51761  0.23296  1.0000
  H   H852      1.0  0.44000  0.60046  0.02671  1.0000
  H   H853      1.0  0.43658  0.62458  0.04192  1.0000
  H   H854      1.0  0.39737  0.62778  0.05367  1.0000
  H   H855      1.0  0.38093  0.60400  0.04947  1.0000
  H   H856      1.0  0.39502  0.56817  0.04869  1.0000
  H   H857      1.0  0.38066  0.59823  0.08309  1.0000
  H   H858      1.0  0.03799  0.84534  0.16669  1.0000
  H   H859      1.0  0.37388  0.64673  0.02585  1.0000
  C   C492      1.0  0.36060  0.74015  0.21677  1.0000
  C   C493      1.0  0.33803  0.63880  0.23531  1.0000
  H   H860      1.0  0.25488  0.90433  0.21364  1.0000
  N   N29       1.0  0.13633  0.73867  0.09556  1.0000
  C   C494      1.0  0.11976  0.74181  0.07821  1.0000
  C   C495      1.0  0.12504  0.72686  0.11372  1.0000
  C   C496      1.0  0.14256  0.76155  0.10264  1.0000
  C   C497      1.0  0.15736  0.72627  0.08906  1.0000
  H   H861      1.0  0.10563  0.70254  0.09645  1.0000
  C   C498      1.0  0.12678  0.75808  0.06022  1.0000
  C   C499      1.0  0.15763  0.76209  0.12203  1.0000
  H   H862      1.0  0.19091  0.70559  0.06585  1.0000
  H   H863      1.0  0.18573  0.99570  0.17117  1.0000
  H   H864      1.0  0.26847  0.52868  0.14568  1.0000
  C   C500      1.0  0.11235  0.75553  0.04108  1.0000
  C   C501      1.0  0.16661  0.78546  0.12505  1.0000
  H   H865      1.0  0.10359  0.74828  0.08443  1.0000
  C   C502      1.0  0.47798  0.74135  0.22770  1.0000
  H   H866      1.0  0.35988  0.62104  0.02052  1.0000
  H   H867      1.0  0.11071  0.73724  0.11935  1.0000
  H   H868      1.0  0.12729  0.77167  0.10611  1.0000
  H   H869      1.0  0.15152  0.77087  0.09001  1.0000
  H   H870      1.0  0.17010  0.73814  0.08294  1.0000
  C   C503      1.0  0.47996  0.60775  0.04177  1.0000
  H   H871      1.0  0.09798  0.67702  0.12631  1.0000
  H   H872      1.0  0.00552  0.78033  0.13384  1.0000
  H   H873      1.0  0.12467  0.77562  0.06521  1.0000
  H   H874      1.0  0.14449  0.75534  0.05566  1.0000
  H   H875      1.0  0.17205  0.75034  0.12077  1.0000
  H   H876      1.0  0.14791  0.75752  0.13622  1.0000
  H   H877      1.0  0.21861  0.52133  0.15001  1.0000
  H   H878      1.0  0.00839  0.84255  0.12424  1.0000
  H   H879      1.0  0.13101  0.69142  0.10808  1.0000
  H   H880      1.0  0.39634  0.60278  0.01244  1.0000
  N   N30       1.0  0.02228  0.81170  0.13794  1.0000
  C   C504      1.0  0.17662  0.69470  0.06986  1.0000
  H   H881      1.0  0.46018  0.74130  0.22533  1.0000
  H   H882      1.0  0.11474  0.73867  0.03460  1.0000
  H   H883      1.0  0.09445  0.75824  0.04504  1.0000
  H   H884      1.0  0.15267  0.79776  0.12669  1.0000
  H   H885      1.0  0.17664  0.78552  0.13940  1.0000
  H   H886      1.0  0.17739  0.79063  0.11170  1.0000
  H   H887      1.0  0.47604  0.76856  0.15204  1.0000
  H   H888      1.0  0.32958  0.71042  0.22353  1.0000
  H   H889      1.0  0.21139  0.75660  0.17692  1.0000
  H   H890      1.0  0.35288  0.74765  0.20256  1.0000
  C   C505      1.0  0.37480  0.63121  0.01683  1.0000
  H   H891      1.0  0.28480  0.92252  0.19320  1.0000
  H   H892      1.0  0.29175  0.92031  0.22036  1.0000
  H   H893      1.0  0.30897  0.52981  0.13500  1.0000
  H   H894      1.0  0.32703  0.62469  0.23554  1.0000
  H   H895      1.0  0.41990  0.66753  0.23946  1.0000
  C   C506      1.0  0.04642  0.84354  0.15136  1.0000
  C   C507      1.0  0.27158  0.67576  0.22328  1.0000
  C   C508      1.0  0.25626  0.92268  0.21450  1.0000
  C   C509      1.0  0.21269  0.90412  0.19994  1.0000
  C   C510      1.0  0.19115  0.73905  0.21304  1.0000
  S   S116      1.0  0.21725  0.85413  0.23923  1.0000
  H   H896      1.0  0.17928  0.72915  0.20404  1.0000
  H   H897      1.0  0.24161  0.95333  0.20310  1.0000
  H   H898      1.0  0.29085  0.51827  0.19168  1.0000
  H   H899      1.0  0.21067  0.95288  0.22619  1.0000
  H   H900      1.0  0.00763  0.82684  0.07608  1.0000
  C   C511      1.0  0.23968  0.93533  0.19991  1.0000
  C   C512      1.0  0.22308  0.89401  0.18006  1.0000
  H   H901      1.0  0.17479  0.68257  0.05730  1.0000
  C   C513      1.0  0.49360  0.77130  0.14709  1.0000
  H   H902      1.0  0.21655  0.92559  0.23562  1.0000
  H   H903      1.0  0.27761  0.72238  0.22978  1.0000
  H   H904      1.0  0.42051  0.67622  0.21248  1.0000
  H   H905      1.0  0.21945  0.89475  0.21370  1.0000
  C   C514      1.0  0.02003  0.83868  0.08180  1.0000
  H   H906      1.0  0.18182  0.75430  0.17263  1.0000
  H   H907      1.0  0.35131  0.52584  0.19622  1.0000
  H   H908      1.0  0.24136  0.89640  0.17934  1.0000
  C   C515      1.0  0.03544  0.74721  0.13706  1.0000
  C   C516      1.0  0.15515  0.70859  0.07206  1.0000
  C   C517      1.0  0.42025  0.53174  0.04728  1.0000
  S   S117      1.0  0.09032  0.84936  0.99466  1.0000
  H   H909      1.0  0.36648  0.72291  0.21355  1.0000
  H   H910      1.0  0.20380  0.77314  0.21099  1.0000
  C   C518      1.0  0.19469  0.76382  0.18067  1.0000
  H   H911      1.0  0.28272  0.94681  0.20921  1.0000
  H   H912      1.0  0.25321  0.92751  0.23079  1.0000
  C   C519      1.0  0.43765  0.60599  0.04298  1.0000
  H   H913      1.0  0.42367  0.69662  0.23222  1.0000
  C   C520      1.0  0.03957  0.77147  0.14237  1.0000
  H   H914      1.0  0.39256  0.57042  0.08312  1.0000
  C   C521      1.0  0.18796  0.97749  0.16884  1.0000
  C   C522      1.0  0.29798  0.51869  0.17568  1.0000
  H   H915      1.0  0.02610  0.80346  0.18154  1.0000
  H   H916      1.0  0.24336  0.52315  0.22069  1.0000
  C   C523      1.0  0.08919  0.93287  0.99352  1.0000
  H   H917      1.0  0.49470  0.78807  0.13942  1.0000
  C   C524      1.0  0.33284  0.52709  0.19627  1.0000
  H   H918      1.0  0.01168  0.85495  0.08487  1.0000
  H   H919      1.0  0.43280  0.55536  0.06795  1.0000
  H   H920      1.0  0.21556  0.90182  0.16593  1.0000
  H   H921      1.0  0.41045  0.62827  0.01675  1.0000
  C   C525      1.0  0.02243  0.78749  0.13163  1.0000
  H   H922      1.0  0.46170  0.58312  0.05930  1.0000
  H   H923      1.0  0.03902  0.77268  0.15943  1.0000
  N   N31       1.0  0.21554  0.92888  0.20211  1.0000
  H   H924      1.0  0.25791  0.68618  0.21642  1.0000
  H   H925      1.0  0.11357  0.69425  0.14316  1.0000
  C   C526      1.0  0.32314  0.72626  0.23012  1.0000
  C   C527      1.0  0.27832  0.99355  0.22803  1.0000
  C   C528      1.0  0.50108  0.67950  0.23272  1.0000
  H   H926      1.0  0.44475  0.55685  0.04204  1.0000
  H   H927      1.0  0.24566  0.93351  0.18361  1.0000
  H   H928      1.0  0.22728  0.86022  0.19298  1.0000
  H   H929      1.0  0.18584  0.93378  0.18339  1.0000
  H   H930      1.0  0.05723  0.81637  0.13160  1.0000
  C   C529      1.0  0.49282  0.74228  0.21043  1.0000
  H   H931      1.0  0.16522  0.71790  0.10289  1.0000
  H   H932      1.0  0.40067  0.60601  0.11558  1.0000
  H   H933      1.0  0.41745  0.52964  0.03048  1.0000
  C   C530      1.0  0.10325  0.69437  0.12893  1.0000
  H   H934      1.0  0.19398  0.78139  0.17473  1.0000
  H   H935      1.0  0.21535  0.53753  0.17308  1.0000
  C   C531      1.0  0.20720  0.93513  0.22336  1.0000
  H   H936      1.0  0.29607  0.99455  0.22508  1.0000
  H   H937      1.0  0.22553  0.66628  0.23889  1.0000
  C   C532      1.0  0.02716  0.74749  0.24051  1.0000
  C   C533      1.0  0.29233  0.68958  0.22633  1.0000
  H   H938      1.0  0.33902  0.75779  0.23746  1.0000
  H   H939      1.0  0.30531  0.67863  0.23352  1.0000
  H   H940      1.0  0.36719  0.80685  0.21231  1.0000
  H   H941      1.0  0.17975  0.91260  0.23108  1.0000
  H   H942      1.0  0.27560  0.66209  0.21248  1.0000
  S   S118      1.0  0.12788  0.79907  0.23400  1.0000
  H   H943      1.0  0.33180  0.52385  0.16320  1.0000
  C   C534      1.0  0.15264  0.81456  0.23499  1.0000
  C   C535      1.0  0.28730  0.71027  0.23972  1.0000
  H   H944      1.0  0.03282  0.84128  0.06936  1.0000
  C   C536      1.0  0.23281  0.99121  0.23639  1.0000
  H   H945      1.0  0.19150  0.78269  0.24142  1.0000
  H   H946      1.0  0.45647  0.65799  0.22227  1.0000
  H   H947      1.0  0.03989  0.81344  0.09729  1.0000
  H   H948      1.0  0.49856  0.69783  0.23036  1.0000
  H   H949      1.0  0.21970  0.74784  0.24052  1.0000
  C   C537      1.0  0.00525  0.81505  0.15508  1.0000
  H   H950      1.0  0.00633  0.78338  0.17302  1.0000
  H   H951      1.0  0.35283  0.80352  0.23692  1.0000
  H   H952      1.0  0.03047  0.95775  0.99316  1.0000
  H   H953      1.0  0.21512  0.99059  0.23966  1.0000
  C   C538      1.0  0.36948  0.80489  0.22935  1.0000
  H   H954      1.0  0.33923  0.50491  0.12126  1.0000
  H   H955      1.0  0.37149  0.84015  0.23358  1.0000
  H   H956      1.0  0.49076  0.63915  0.23603  1.0000
  C   C539      1.0  0.27011  0.97669  0.24176  1.0000
  S   S119      1.0  0.06589  0.91541  0.99704  1.0000
  C   C540      1.0  0.08662  0.95582  0.99702  1.0000
  H   H957      1.0  0.10220  0.98814  0.99611  1.0000
  H   H958      1.0  0.07078  0.96230  0.00255  1.0000
  H   H959      1.0  0.39781  0.82642  0.22884  1.0000
  C   C541      1.0  0.32343  0.50758  0.11268  1.0000
  H   H960      1.0  0.49545  0.67198  0.21812  1.0000
  C   C542      1.0  0.00551  0.91563  0.02784  1.0000
  H   H961      1.0  0.37920  0.78925  0.23257  1.0000
  C   C543      1.0  0.38172  0.82497  0.23739  1.0000
  C   C544      1.0  0.10444  0.97048  0.99353  1.0000
  H   H962      1.0  0.41469  0.90035  0.24299  1.0000
  H   H963      1.0  0.46210  0.81198  0.24132  1.0000
  H   H964      1.0  0.13372  0.81145  0.47056  1.0000
  S   S120      1.0  0.12566  0.93613  0.45618  1.0000
  H   H965      1.0  0.33874  0.60977  0.46267  1.0000
  Fe  Fe59      1.0  0.16292  0.93111  0.45623  1.0000
  S   S121      1.0  0.18535  0.93649  0.42716  1.0000
  H   H966      1.0  0.48273  0.67515  0.37621  1.0000
  H   H967      1.0  0.16798  0.89439  0.41170  1.0000
  S   S122      1.0  0.45835  0.61593  0.46451  1.0000
  H   H968      1.0  0.42498  0.79451  0.27062  1.0000
  Fe  Fe60      1.0  0.43150  0.64250  0.46378  1.0000
  S   S123      1.0  0.41657  0.64722  0.43107  1.0000
  Fe  Fe61      1.0  0.22242  0.88968  0.31235  1.0000
  S   S124      1.0  0.25420  0.90883  0.30984  1.0000
  S   S125      1.0  0.20013  0.88528  0.34152  1.0000
  Fe  Fe62      1.0  0.22815  0.87294  0.26748  1.0000
  S   S126      1.0  0.26045  0.89111  0.26248  1.0000
  H   H969      1.0  0.18529  0.70813  0.25816  1.0000
  Fe  Fe63      1.0  0.26890  0.87794  0.29472  1.0000
  S   S127      1.0  0.30147  0.86173  0.30708  1.0000
  Fe  Fe64      1.0  0.24291  0.92023  0.27766  1.0000
  H   H970      1.0  0.21280  0.80094  0.26823  1.0000
  S   S128      1.0  0.23756  0.85838  0.29870  1.0000
  S   S129      1.0  0.21021  0.90230  0.28114  1.0000
  Fe  Fe65      1.0  0.39372  0.70037  0.28421  1.0000
  S   S130      1.0  0.40016  0.73026  0.26332  1.0000
  H   H971      1.0  0.31323  0.51021  0.36626  1.0000
  Fe  Fe66      1.0  0.40909  0.72325  0.32343  1.0000
  S   S131      1.0  0.41594  0.75525  0.30505  1.0000
  S   S132      1.0  0.41862  0.72242  0.35800  1.0000
  Fe  Fe67      1.0  0.38328  0.74986  0.28901  1.0000
  S   S133      1.0  0.35509  0.77395  0.27789  1.0000
  Fe  Fe68      1.0  0.43221  0.73344  0.28088  1.0000
  S   S134      1.0  0.46859  0.73983  0.27059  1.0000
  S   S135      1.0  0.37534  0.71945  0.30894  1.0000
  S   S136      1.0  0.42682  0.70197  0.30011  1.0000
  H   H972      1.0  0.38466  0.84321  0.29821  1.0000
  C   C545      1.0  0.04769  0.93284  0.44438  1.0000
  C   C546      1.0  0.41282  0.87948  0.27128  1.0000
  C   C547      1.0  0.31518  0.83646  0.29932  1.0000
  C   C548      1.0  0.31046  0.82628  0.28061  1.0000
  C   C549      1.0  0.32260  0.80705  0.27454  1.0000
  C   C550      1.0  0.33938  0.79738  0.28719  1.0000
  C   C551      1.0  0.34373  0.80720  0.30614  1.0000
  C   C552      1.0  0.33192  0.82673  0.31202  1.0000
  H   H973      1.0  0.29770  0.83349  0.27062  1.0000
  H   H974      1.0  0.27555  0.70516  0.25230  1.0000
  H   H975      1.0  0.35621  0.79978  0.31624  1.0000
  H   H976      1.0  0.33569  0.83431  0.32657  1.0000
  C   C553      1.0  0.02652  0.79551  0.37750  1.0000
  C   C554      1.0  0.28309  0.50347  0.33426  1.0000
  H   H977      1.0  0.18249  0.84353  0.26996  1.0000
  H   H978      1.0  0.01616  0.97712  0.48674  1.0000
  H   H979      1.0  0.45611  0.58519  0.42981  1.0000
  H   H980      1.0  0.29705  0.51497  0.33064  1.0000
  H   H981      1.0  0.39195  0.50846  0.41466  1.0000
  N   N32       1.0  0.48727  0.67107  0.25104  1.0000
  H   H982      1.0  0.01859  0.91238  0.47892  1.0000
  H   H983      1.0  0.40449  0.79867  0.33512  1.0000
  C   C555      1.0  0.38516  0.82299  0.26124  1.0000
  H   H984      1.0  0.29148  0.77485  0.28818  1.0000
  S   S137      1.0  0.16146  0.90021  0.47682  1.0000
  H   H985      1.0  0.05045  0.98032  0.45069  1.0000
  H   H986      1.0  0.30719  0.50637  0.24665  1.0000
  H   H987      1.0  0.26957  0.51429  0.34068  1.0000
  H   H988      1.0  0.33270  0.69636  0.25668  1.0000
  H   H989      1.0  0.39950  0.86278  0.24519  1.0000
  H   H990      1.0  0.13112  0.84138  0.46846  1.0000
  C   C556      1.0  0.41677  0.66879  0.41133  1.0000
  C   C557      1.0  0.40748  0.66451  0.39189  1.0000
  C   C558      1.0  0.40805  0.68052  0.37537  1.0000
  C   C559      1.0  0.41771  0.70129  0.37813  1.0000
  C   C560      1.0  0.42686  0.70564  0.39764  1.0000
  C   C561      1.0  0.42641  0.68954  0.41411  1.0000
  H   H991      1.0  0.40008  0.64856  0.38945  1.0000
  H   H992      1.0  0.40089  0.67688  0.36054  1.0000
  H   H993      1.0  0.43426  0.72167  0.40005  1.0000
  H   H994      1.0  0.43339  0.69326  0.42898  1.0000
  N   N33       1.0  0.40301  0.83749  0.26968  1.0000
  H   H995      1.0  0.35252  0.73333  0.24891  1.0000
  C   C562      1.0  0.43066  0.80578  0.25782  1.0000
  H   H996      1.0  0.32593  0.85976  0.39805  1.0000
  H   H997      1.0  0.20634  0.73866  0.26371  1.0000
  C   C563      1.0  0.47716  0.62836  0.40137  1.0000
  C   C564      1.0  0.18824  0.92246  0.40309  1.0000
  C   C565      1.0  0.20163  0.93194  0.38712  1.0000
  C   C566      1.0  0.20503  0.92119  0.36803  1.0000
  C   C567      1.0  0.19533  0.90053  0.36471  1.0000
  C   C568      1.0  0.18189  0.89110  0.38064  1.0000
  C   C569      1.0  0.17830  0.90197  0.39965  1.0000
  H   H998      1.0  0.20941  0.94777  0.38955  1.0000
  H   H999      1.0  0.21526  0.92882  0.35596  1.0000
  H   H1000     1.0  0.17422  0.87519  0.37831  1.0000
  H   H1001     1.0  0.11139  0.82559  0.48416  1.0000
  H   H1002     1.0  0.39738  0.53498  0.44315  1.0000
  S   S138      1.0  0.41177  0.62523  0.48953  1.0000
  S   S139      1.0  0.38076  0.66660  0.27532  1.0000
  C   C570      1.0  0.47360  0.60842  0.26460  1.0000
  H   H1003     1.0  0.47077  0.64076  0.36967  1.0000
  H   H1004     1.0  0.23639  0.51903  0.30379  1.0000
  S   S140      1.0  0.16728  0.95373  0.48353  1.0000
  C   C571      1.0  0.00470  0.79667  0.34386  1.0000
  H   H1005     1.0  0.22217  0.83642  0.34191  1.0000
  H   H1006     1.0  0.28725  0.52049  0.29592  1.0000
  H   H1007     1.0  0.48569  0.61400  0.39400  1.0000
  H   H1008     1.0  0.32458  0.69442  0.30631  1.0000
  H   H1009     1.0  0.46813  0.69420  0.45007  1.0000
  N   N34       1.0  0.25812  0.87450  0.38299  1.0000
  C   C572      1.0  0.12915  0.82668  0.47918  1.0000
  H   H1010     1.0  0.18478  0.93872  0.26082  1.0000
  H   H1011     1.0  0.06086  0.85877  0.45618  1.0000
  H   H1012     1.0  0.02607  0.79011  0.39415  1.0000
  C   C573      1.0  0.27681  0.76637  0.28189  1.0000
  H   H1013     1.0  0.31516  0.75206  0.26345  1.0000
  H   H1014     1.0  0.43074  0.87467  0.27025  1.0000
  H   H1015     1.0  0.43353  0.51580  0.48468  1.0000
  H   H1016     1.0  0.29374  0.75483  0.24465  1.0000
  H   H1017     1.0  0.49391  0.70908  0.45008  1.0000
  C   C574      1.0  0.22812  0.87856  0.43728  1.0000
  C   C575      1.0  0.01178  0.74688  0.25737  1.0000
  H   H1018     1.0  0.45242  0.67375  0.26070  1.0000
  C   C576      1.0  0.45546  0.80102  0.25405  1.0000
  H   H1019     1.0  0.12031  0.75149  0.25667  1.0000
  H   H1020     1.0  0.16656  0.73932  0.27446  1.0000
  H   H1021     1.0  0.36144  0.60272  0.48011  1.0000
  C   C577      1.0  0.15854  0.82397  0.25385  1.0000
  H   H1022     1.0  0.30890  0.66909  0.30544  1.0000
  C   C578      1.0  0.40218  0.81549  0.32766  1.0000
  H   H1023     1.0  0.45303  0.65345  0.38893  1.0000
  H   H1024     1.0  0.27904  0.84864  0.39708  1.0000
  H   H1025     1.0  0.43880  0.83601  0.27375  1.0000
  H   H1026     1.0  0.01744  0.78546  0.33662  1.0000
  C   C579      1.0  0.39819  0.51000  0.48470  1.0000
  H   H1027     1.0  0.01170  0.81371  0.34213  1.0000
  H   H1028     1.0  0.01793  0.74481  0.27302  1.0000
  H   H1029     1.0  0.32934  0.71766  0.27474  1.0000
  H   H1030     1.0  0.25441  0.89678  0.40886  1.0000
  H   H1031     1.0  0.43221  0.62799  0.36741  1.0000
  C   C580      1.0  0.25260  0.52746  0.30182  1.0000
  H   H1032     1.0  0.39177  0.90736  0.26035  1.0000
  C   C581      1.0  0.30052  0.74350  0.25717  1.0000
  H   H1033     1.0  0.25576  0.92405  0.38375  1.0000
  C   C582      1.0  0.00905  0.80083  0.27659  1.0000
  C   C583      1.0  0.48128  0.66187  0.42182  1.0000
  C   C584      1.0  0.31922  0.68094  0.29610  1.0000
  H   H1034     1.0  0.07962  0.94474  0.43237  1.0000
  H   H1035     1.0  0.29076  0.73423  0.28909  1.0000
  S   S141      1.0  0.23610  0.95644  0.26538  1.0000
  H   H1036     1.0  0.03788  0.91742  0.44294  1.0000
  H   H1037     1.0  0.38023  0.86584  0.26619  1.0000
  H   H1038     1.0  0.26065  0.93583  0.34722  1.0000
  H   H1039     1.0  0.17485  0.96149  0.24430  1.0000
  H   H1040     1.0  0.46932  0.65394  0.43304  1.0000
  H   H1041     1.0  0.42303  0.80824  0.30161  1.0000
  H   H1042     1.0  0.39402  0.80120  0.29868  1.0000
  C   C585      1.0  0.13354  0.75219  0.26853  1.0000
  Fe  Fe69      1.0  0.12429  0.90676  0.47853  1.0000
  H   H1043     1.0  0.12655  0.74625  0.28369  1.0000
  H   H1044     1.0  0.41385  0.84798  0.29983  1.0000
  H   H1045     1.0  0.24632  0.53492  0.26902  1.0000
  C   C586      1.0  0.05217  0.93700  0.46760  1.0000
  H   H1046     1.0  0.20748  0.99008  0.30062  1.0000
  C   C587      1.0  0.03455  0.86241  0.47912  1.0000
  C   C588      1.0  0.30570  0.69060  0.27791  1.0000
  C   C589      1.0  0.06945  0.92945  0.43221  1.0000
  H   H1047     1.0  0.21427  0.67760  0.26258  1.0000
  S   S142      1.0  0.35282  0.50305  0.48559  1.0000
  H   H1048     1.0  0.42181  0.80099  0.24366  1.0000
  C   C590      1.0  0.40952  0.90179  0.25953  1.0000
  C   C591      1.0  0.40554  0.81392  0.30416  1.0000
  H   H1049     1.0  0.36767  0.53808  0.44626  1.0000
  H   H1050     1.0  0.41986  0.91467  0.26662  1.0000
  H   H1051     1.0  0.28154  0.96499  0.24930  1.0000
  H   H1052     1.0  0.34950  0.63255  0.26660  1.0000
  H   H1053     1.0  0.26786  0.73440  0.27094  1.0000
  H   H1054     1.0  0.29047  0.69854  0.28436  1.0000
  H   H1055     1.0  0.26615  0.55305  0.28057  1.0000
  H   H1056     1.0  0.14817  0.71996  0.26303  1.0000
  C   C592      1.0  0.23800  0.82781  0.34650  1.0000
  H   H1057     1.0  0.03819  0.94697  0.43708  1.0000
  H   H1058     1.0  0.28228  0.94676  0.36291  1.0000
  C   C593      1.0  0.37460  0.54251  0.49006  1.0000
  H   H1059     1.0  0.06652  0.94836  0.46833  1.0000
  H   H1060     1.0  0.27070  0.88787  0.35338  1.0000
  C   C594      1.0  0.15359  0.73760  0.26252  1.0000
  H   H1061     1.0  0.06575  0.92575  0.41582  1.0000
  H   H1062     1.0  0.02241  0.85369  0.47027  1.0000
  C   C595      1.0  0.25442  0.84455  0.35472  1.0000
  H   H1063     1.0  0.28847  0.92343  0.34659  1.0000
  C   C596      1.0  0.26009  0.89300  0.36669  1.0000
  S   S143      1.0  0.43914  0.56228  0.49131  1.0000
  C   C597      1.0  0.36494  0.66172  0.25291  1.0000
  H   H1064     1.0  0.15676  0.93863  0.25111  1.0000
  H   H1065     1.0  0.46398  0.55814  0.42040  1.0000
  C   C598      1.0  0.25040  0.54388  0.28332  1.0000
  H   H1066     1.0  0.24313  0.84191  0.38605  1.0000
  H   H1067     1.0  0.45370  0.63516  0.25162  1.0000
  C   C599      1.0  0.35075  0.64332  0.25290  1.0000
  C   C600      1.0  0.27550  0.93124  0.35665  1.0000
  H   H1068     1.0  0.46329  0.69846  0.24989  1.0000
  H   H1069     1.0  0.49842  0.62502  0.43856  1.0000
  H   H1070     1.0  0.43067  0.84010  0.24764  1.0000
  N   N35       1.0  0.49381  0.64429  0.40979  1.0000
  H   H1071     1.0  0.22761  0.86178  0.37091  1.0000
  C   C601      1.0  0.28052  0.86602  0.39069  1.0000
  H   H1072     1.0  0.31615  0.83520  0.38537  1.0000
  C   C602      1.0  0.20325  0.74788  0.24872  1.0000
  H   H1073     1.0  0.24531  0.81972  0.33262  1.0000
  H   H1074     1.0  0.04485  0.74589  0.24334  1.0000
  S   S144      1.0  0.09968  0.87937  0.47212  1.0000
  C   C603      1.0  0.17820  0.83626  0.25538  1.0000
  C   C604      1.0  0.02536  0.96907  0.47373  1.0000
  H   H1075     1.0  0.25565  0.53724  0.31584  1.0000
  H   H1076     1.0  0.36876  0.82711  0.26864  1.0000
  H   H1077     1.0  0.30573  0.88387  0.37185  1.0000
  C   C605      1.0  0.48517  0.67453  0.29127  1.0000
  H   H1078     1.0  0.23433  0.81465  0.35847  1.0000
  C   C606      1.0  0.48311  0.69859  0.44063  1.0000
  H   H1079     1.0  0.45791  0.78342  0.24948  1.0000
  H   H1080     1.0  0.47789  0.70845  0.42659  1.0000
  H   H1081     1.0  0.36196  0.51179  0.41765  1.0000
  H   H1082     1.0  0.38511  0.82171  0.33147  1.0000
  H   H1083     1.0  0.26384  0.76550  0.29431  1.0000
  H   H1084     1.0  0.31893  0.79965  0.25988  1.0000
  H   H1085     1.0  0.05846  0.92092  0.47450  1.0000
  H   H1086     1.0  0.26991  0.83503  0.35854  1.0000
  C   C607      1.0  0.05634  0.86536  0.47116  1.0000
  H   H1087     1.0  0.48768  0.60554  0.27544  1.0000
  H   H1088     1.0  0.23681  0.55622  0.28638  1.0000
  N   N36       1.0  0.38673  0.57707  0.42464  1.0000
  C   C608      1.0  0.38593  0.59315  0.40619  1.0000
  C   C609      1.0  0.41004  0.57703  0.43331  1.0000
  C   C610      1.0  0.38052  0.55420  0.41770  1.0000
  C   C611      1.0  0.37052  0.58406  0.44143  1.0000
  C   C612      1.0  0.37162  0.60874  0.44782  1.0000
  C   C613      1.0  0.36285  0.59636  0.39579  1.0000
  N   N37       1.0  0.30752  0.72138  0.24823  1.0000
  C   C614      1.0  0.42836  0.56519  0.42014  1.0000
  C   C615      1.0  0.45136  0.56742  0.42969  1.0000
  C   C616      1.0  0.35633  0.61323  0.46644  1.0000
  C   C617      1.0  0.36294  0.61587  0.38000  1.0000
  C   C618      1.0  0.04394  0.98517  0.46616  1.0000
  H   H1089     1.0  0.39757  0.58755  0.39376  1.0000
  H   H1090     1.0  0.39211  0.60980  0.41048  1.0000
  H   H1091     1.0  0.41558  0.59444  0.43543  1.0000
  H   H1092     1.0  0.41042  0.56927  0.44921  1.0000
  H   H1093     1.0  0.39101  0.54913  0.40420  1.0000
  H   H1094     1.0  0.36314  0.55442  0.41192  1.0000
  H   H1095     1.0  0.35304  0.58064  0.43710  1.0000
  H   H1096     1.0  0.37329  0.57371  0.45577  1.0000
  H   H1097     1.0  0.36636  0.62024  0.43492  1.0000
  H   H1098     1.0  0.38877  0.61293  0.45218  1.0000
  H   H1099     1.0  0.35856  0.58115  0.38736  1.0000
  H   H1100     1.0  0.34941  0.59981  0.40726  1.0000
  H   H1101     1.0  0.01734  0.81449  0.26762  1.0000
  C   C619      1.0  0.40140  0.83683  0.29312  1.0000
  H   H1102     1.0  0.42518  0.54707  0.41927  1.0000
  H   H1103     1.0  0.42917  0.57240  0.40413  1.0000
  H   H1104     1.0  0.07924  0.91518  0.43902  1.0000
  H   H1105     1.0  0.27010  0.77648  0.26858  1.0000
  H   H1106     1.0  0.40837  0.88232  0.28780  1.0000
  H   H1107     1.0  0.25230  0.85619  0.42359  1.0000
  H   H1108     1.0  0.22466  0.85570  0.41276  1.0000
  C   C620      1.0  0.38135  0.53545  0.43479  1.0000
  H   H1109     1.0  0.36474  0.63187  0.38806  1.0000
  H   H1110     1.0  0.37674  0.61391  0.36849  1.0000
  H   H1111     1.0  0.34691  0.61662  0.37156  1.0000
  H   H1112     1.0  0.43271  0.61789  0.39401  1.0000
  C   C621      1.0  0.32039  0.85308  0.38310  1.0000
  H   H1113     1.0  0.22267  0.86605  0.44924  1.0000
  H   H1114     1.0  0.24075  0.88932  0.44424  1.0000
  Fe  Fe70      1.0  0.47491  0.63618  0.48823  1.0000
  H   H1115     1.0  0.46691  0.67680  0.29059  1.0000
  H   H1116     1.0  0.02935  0.81378  0.37661  1.0000
  H   H1117     1.0  0.48471  0.68420  0.32347  1.0000
  H   H1118     1.0  0.28604  0.87587  0.40405  1.0000
  C   C622      1.0  0.07227  0.87682  0.48239  1.0000
  C   C623      1.0  0.23787  0.86667  0.41842  1.0000
  S   S145      1.0  0.44931  0.66435  0.48611  1.0000
  C   C624      1.0  0.19749  0.77233  0.25472  1.0000
  H   H1119     1.0  0.22932  0.89214  0.39547  1.0000
  H   H1120     1.0  0.35749  0.63103  0.47063  1.0000
  H   H1121     1.0  0.18411  0.77262  0.26677  1.0000
  H   H1122     1.0  0.25785  0.85687  0.34199  1.0000
  H   H1123     1.0  0.30040  0.67636  0.26861  1.0000
  H   H1124     1.0  0.33418  0.67174  0.29034  1.0000
  H   H1125     1.0  0.33438  0.85423  0.37168  1.0000
  H   H1126     1.0  0.47060  0.67241  0.41146  1.0000
  C   C625      1.0  0.31977  0.70699  0.26424  1.0000
  H   H1127     1.0  0.22401  0.77442  0.27742  1.0000
  H   H1128     1.0  0.02142  0.78705  0.27911  1.0000
  N   N38       1.0  0.03245  0.94551  0.48006  1.0000
  C   C626      1.0  0.24487  0.88371  0.40108  1.0000
  C   C627      1.0  0.21767  0.78381  0.26354  1.0000
  C   C628      1.0  0.01317  0.93017  0.47660  1.0000
  H   H1129     1.0  0.14778  0.82184  0.26734  1.0000
  C   C629      1.0  0.42622  0.83086  0.26233  1.0000
  C   C630      1.0  0.26896  0.91539  0.37457  1.0000
  H   H1130     1.0  0.29599  0.85966  0.35966  1.0000
  H   H1131     1.0  0.46683  0.62129  0.41440  1.0000
  H   H1132     1.0  0.04063  0.78667  0.36975  1.0000
  H   H1133     1.0  0.45147  0.56038  0.44584  1.0000
  C   C631      1.0  0.30031  0.86646  0.37484  1.0000
  H   H1134     1.0  0.28364  0.91255  0.38466  1.0000
  H   H1135     1.0  0.38829  0.80519  0.26548  1.0000
  H   H1136     1.0  0.13863  0.76978  0.27007  1.0000
  C   C632      1.0  0.46377  0.68003  0.24825  1.0000
  H   H1137     1.0  0.45873  0.59988  0.27120  1.0000
  H   H1138     1.0  0.46503  0.80348  0.26843  1.0000
  C   C633      1.0  0.27194  0.51047  0.29812  1.0000
  C   C634      1.0  0.46132  0.63772  0.38438  1.0000
  H   H1139     1.0  0.41453  0.82683  0.33424  1.0000
  H   H1140     1.0  0.24358  0.89668  0.35962  1.0000
  H   H1141     1.0  0.21341  0.88906  0.43276  1.0000
  C   C635      1.0  0.39791  0.86122  0.26240  1.0000
  C   C636      1.0  0.24489  0.85576  0.37435  1.0000
  H   H1142     1.0  0.05817  0.98504  0.47681  1.0000
  H   H1143     1.0  0.45059  0.60501  0.37469  1.0000
  C   C637      1.0  0.48626  0.74085  0.24795  1.0000
  H   H1144     1.0  0.28512  0.51108  0.37694  1.0000
  C   C638      1.0  0.24729  0.97560  0.24631  1.0000
  C   C639      1.0  0.46846  0.63338  0.26178  1.0000
  C   C640      1.0  0.44314  0.62103  0.37989  1.0000
  H   H1145     1.0  0.01317  0.96897  0.46082  1.0000
  H   H1146     1.0  0.23112  0.78525  0.25159  1.0000
  Fe  Fe71      1.0  0.43979  0.60014  0.49129  1.0000
  Fe  Fe72      1.0  0.12978  0.95639  0.48468  1.0000
  C   C641      1.0  0.28334  0.74281  0.27529  1.0000
  C   C642      1.0  0.41709  0.52337  0.48611  1.0000
  C   C643      1.0  0.00446  0.79002  0.36739  1.0000
  H   H1147     1.0  0.50125  0.66872  0.44905  1.0000
  C   C644      1.0  0.49593  0.67748  0.43451  1.0000
  S   S146      1.0  0.10496  0.98523  0.48886  1.0000
  H   H1148     1.0  0.46358  0.63983  0.27712  1.0000
  H   H1149     1.0  0.22189  0.99673  0.32393  1.0000
  H   H1150     1.0  0.48908  0.70696  0.30518  1.0000
  C   C645      1.0  0.49322  0.68909  0.30867  1.0000
  H   H1151     1.0  0.48919  0.65690  0.29573  1.0000
  C   C646      1.0  0.37819  0.51248  0.42570  1.0000
  H   H1152     1.0  0.01491  0.81530  0.30609  1.0000
  C   C647      1.0  0.37687  0.51949  0.48681  1.0000
  C   C648      1.0  0.41485  0.54637  0.48931  1.0000
  C   C649      1.0  0.48865  0.64584  0.25192  1.0000
  C   C650      1.0  0.39353  0.55594  0.49121  1.0000
  H   H1153     1.0  0.00745  0.93174  0.46024  1.0000
  H   H1154     1.0  0.47787  0.60097  0.24942  1.0000
  H   H1155     1.0  0.49707  0.69922  0.26870  1.0000
  C   C651      1.0  0.50004  0.67614  0.38170  1.0000
  C   C652      1.0  0.21143  0.67596  0.24569  1.0000
  H   H1156     1.0  0.16155  0.83013  0.49162  1.0000
  H   H1157     1.0  0.35813  0.54994  0.49173  1.0000
  H   H1158     1.0  0.50053  0.69025  0.39245  1.0000
  C   C653      1.0  0.17421  0.94317  0.24725  1.0000
  C   C654      1.0  0.49681  0.68070  0.27037  1.0000
  H   H1159     1.0  0.19605  0.66634  0.24349  1.0000
  H   H1160     1.0  0.39165  0.57363  0.49384  1.0000
  S   S147      1.0  0.18911  0.91282  0.52953  1.0000
  C   C655      1.0  0.30922  0.59029  0.71791  1.0000
  H   H1161     1.0  0.08130  0.73585  0.71327  1.0000
  H   H1162     1.0  0.39019  0.50683  0.61760  1.0000
  Fe  Fe73      1.0  0.22620  0.86413  0.69526  1.0000
  S   S148      1.0  0.26116  0.87509  0.70063  1.0000
  S   S149      1.0  0.21513  0.83864  0.71998  1.0000
  Fe  Fe74      1.0  0.22342  0.89112  0.65364  1.0000
  S   S150      1.0  0.25856  0.90371  0.65706  1.0000
  S   S151      1.0  0.19669  0.90048  0.62902  1.0000
  Fe  Fe75      1.0  0.26773  0.86791  0.66719  1.0000
  S   S152      1.0  0.29519  0.84404  0.65449  1.0000
  Fe  Fe76      1.0  0.24892  0.90977  0.69085  1.0000
  S   S153      1.0  0.25776  0.93740  0.71406  1.0000
  S   S154      1.0  0.23302  0.85545  0.66207  1.0000
  S   S155      1.0  0.21365  0.89869  0.68698  1.0000
  Fe  Fe77      1.0  0.43000  0.71823  0.69914  1.0000
  S   S156      1.0  0.41871  0.69113  0.67801  1.0000
  S   S157      1.0  0.45743  0.71052  0.72353  1.0000
  Fe  Fe78      1.0  0.39248  0.75096  0.68345  1.0000
  S   S158      1.0  0.37942  0.72644  0.66118  1.0000
  S   S159      1.0  0.37691  0.78507  0.69121  1.0000
  Fe  Fe79      1.0  0.38363  0.70105  0.68737  1.0000
  S   S160      1.0  0.35423  0.67793  0.69229  1.0000
  Fe  Fe80      1.0  0.41533  0.71826  0.65327  1.0000
  S   S161      1.0  0.43034  0.71663  0.62028  1.0000
  S   S162      1.0  0.39473  0.72594  0.71017  1.0000
  S   S163      1.0  0.42850  0.74500  0.67394  1.0000
  Fe  Fe81      1.0  0.43164  0.64511  0.51217  1.0000
  C   C656      1.0  0.30432  0.71988  0.68239  1.0000
  S   S164      1.0  0.41215  0.65669  0.54117  1.0000
  C   C657      1.0  0.17380  0.85047  0.52806  1.0000
  H   H1163     1.0  0.28968  0.76555  0.68274  1.0000
  H   H1164     1.0  0.41730  0.77058  0.71822  1.0000
  S   S165      1.0  0.45854  0.61846  0.51537  1.0000
  H   H1165     1.0  0.17957  0.94694  0.73732  1.0000
  H   H1166     1.0  0.27463  0.80022  0.71461  1.0000
  H   H1167     1.0  0.18420  0.86490  0.55761  1.0000
  H   H1168     1.0  0.21189  0.92300  0.72956  1.0000
  C   C658      1.0  0.37340  0.52063  0.59009  1.0000
  S   S166      1.0  0.12608  0.92703  0.50720  1.0000
  C   C659      1.0  0.42570  0.69889  0.59892  1.0000
  C   C660      1.0  0.40853  0.68341  0.59900  1.0000
  C   C661      1.0  0.40478  0.67064  0.58128  1.0000
  C   C662      1.0  0.41848  0.67263  0.56339  1.0000
  C   C663      1.0  0.43590  0.68786  0.56345  1.0000
  C   C664      1.0  0.43931  0.70102  0.58100  1.0000
  H   H1169     1.0  0.39804  0.68135  0.61265  1.0000
  H   H1170     1.0  0.39122  0.65900  0.58146  1.0000
  H   H1171     1.0  0.44651  0.68978  0.54984  1.0000
  H   H1172     1.0  0.45266  0.71290  0.58068  1.0000
  C   C665      1.0  0.31627  0.82633  0.66609  1.0000
  C   C666      1.0  0.32532  0.80845  0.65472  1.0000
  C   C667      1.0  0.34316  0.79503  0.66251  1.0000
  C   C668      1.0  0.35269  0.79970  0.68160  1.0000
  C   C669      1.0  0.34337  0.81725  0.69317  1.0000
  C   C670      1.0  0.32515  0.83029  0.68562  1.0000
  H   H1173     1.0  0.31863  0.80520  0.63961  1.0000
  H   H1174     1.0  0.35002  0.78160  0.65342  1.0000
  H   H1175     1.0  0.35053  0.82109  0.70794  1.0000
  H   H1176     1.0  0.31854  0.84398  0.69455  1.0000
  C   C671      1.0  0.25939  0.97266  0.74106  1.0000
  C   C672      1.0  0.17002  0.84780  0.72651  1.0000
  H   H1177     1.0  0.11102  0.75427  0.72097  1.0000
  H   H1178     1.0  0.17187  0.86196  0.71588  1.0000
  H   H1179     1.0  0.04261  0.72520  0.71285  1.0000
  C   C673      1.0  0.32470  0.65740  0.71911  1.0000
  C   C674      1.0  0.34467  0.66923  0.71724  1.0000
  H   H1180     1.0  0.30831  0.70193  0.72783  1.0000
  H   H1181     1.0  0.35864  0.58345  0.69046  1.0000
  H   H1182     1.0  0.31511  0.65444  0.70539  1.0000
  H   H1183     1.0  0.45125  0.78199  0.69772  1.0000
  H   H1184     1.0  0.34562  0.69372  0.60083  1.0000
  H   H1185     1.0  0.28324  0.76282  0.73041  1.0000
  C   C675      1.0  0.29086  0.77271  0.69838  1.0000
  C   C676      1.0  0.24923  0.96442  0.72324  1.0000
  H   H1186     1.0  0.25645  0.58490  0.69619  1.0000
  H   H1187     1.0  0.35592  0.52459  0.58583  1.0000
  H   H1188     1.0  0.06664  0.93056  0.53511  1.0000
  H   H1189     1.0  0.42432  0.79047  0.64950  1.0000
  H   H1190     1.0  0.13348  0.78548  0.73104  1.0000
  C   C677      1.0  0.48417  0.72009  0.73123  1.0000
  H   H1191     1.0  0.08428  0.75784  0.68048  1.0000
  H   H1192     1.0  0.31312  0.51177  0.54992  1.0000
  H   H1193     1.0  0.03423  0.75114  0.70030  1.0000
  H   H1194     1.0  0.11028  0.88244  0.52685  1.0000
  H   H1195     1.0  0.36533  0.52316  0.62291  1.0000
  H   H1196     1.0  0.33433  0.73069  0.73787  1.0000
  C   C678      1.0  0.19099  0.91069  0.55732  1.0000
  C   C679      1.0  0.17260  0.91407  0.57054  1.0000
  C   C680      1.0  0.17473  0.91088  0.59230  1.0000
  C   C681      1.0  0.19526  0.90442  0.60132  1.0000
  C   C682      1.0  0.21368  0.90120  0.58810  1.0000
  C   C683      1.0  0.21153  0.90434  0.56633  1.0000
  H   H1197     1.0  0.15677  0.91917  0.56402  1.0000
  H   H1198     1.0  0.16037  0.91358  0.60229  1.0000
  H   H1199     1.0  0.22960  0.89631  0.59465  1.0000
  H   H1200     1.0  0.22595  0.90176  0.55640  1.0000
  H   H1201     1.0  0.00626  0.90231  0.54758  1.0000
  H   H1202     1.0  0.27113  0.74627  0.71150  1.0000
  H   H1203     1.0  0.26788  0.60897  0.70814  1.0000
  H   H1204     1.0  0.28728  0.72722  0.68103  1.0000
  H   H1205     1.0  0.15672  0.84179  0.57504  1.0000
  H   H1206     1.0  0.10176  0.83860  0.66339  1.0000
  H   H1207     1.0  0.33689  0.71538  0.61820  1.0000
  C   C684      1.0  0.28904  0.50483  0.72936  1.0000
  H   H1208     1.0  0.12094  0.75544  0.69489  1.0000
  H   H1209     1.0  0.26307  0.58357  0.72334  1.0000
  H   H1210     1.0  0.30278  0.70190  0.68681  1.0000
  H   H1211     1.0  0.37159  0.55558  0.53464  1.0000
  H   H1212     1.0  0.10258  0.80624  0.72496  1.0000
  H   H1213     1.0  0.12299  0.80373  0.57644  1.0000
  H   H1214     1.0  0.15312  0.81618  0.54220  1.0000
  H   H1215     1.0  0.06426  0.75717  0.72505  1.0000
  C   C685      1.0  0.21325  0.85332  0.54127  1.0000
  H   H1216     1.0  0.30410  0.51259  0.72364  1.0000
  H   H1217     1.0  0.14319  0.81289  0.50735  1.0000
  H   H1218     1.0  0.16766  0.91161  0.70586  1.0000
  H   H1219     1.0  0.08354  0.79139  0.65836  1.0000
  C   C686      1.0  0.37300  0.51084  0.61227  1.0000
  H   H1220     1.0  0.40251  0.53061  0.53047  1.0000
  H   H1221     1.0  0.39586  0.80029  0.64784  1.0000
  H   H1222     1.0  0.08830  0.78279  0.73492  1.0000
  C   C687      1.0  0.06890  0.74946  0.71016  1.0000
  C   C688      1.0  0.39945  0.57338  0.54589  1.0000
  H   H1223     1.0  0.10739  0.86204  0.54748  1.0000
  H   H1224     1.0  0.17836  0.86483  0.51752  1.0000
  H   H1225     1.0  0.12500  0.82541  0.54140  1.0000
  C   C689      1.0  0.31711  0.64930  0.73862  1.0000
  H   H1226     1.0  0.00413  0.81565  0.55296  1.0000
  H   H1227     1.0  0.34694  0.51617  0.73507  1.0000
  H   H1228     1.0  0.48809  0.74502  0.70685  1.0000
  C   C690      1.0  0.11596  0.76604  0.70819  1.0000
  C   C691      1.0  0.43983  0.79438  0.70500  1.0000
  C   C692      1.0  0.28702  0.75433  0.71558  1.0000
  C   C693      1.0  0.39612  0.53110  0.54678  1.0000
  C   C694      1.0  0.27334  0.79148  0.69970  1.0000
  C   C695      1.0  0.14432  0.82859  0.49791  1.0000
  Fe  Fe82      1.0  0.16344  0.92286  0.50428  1.0000
  C   C696      1.0  0.19802  0.91477  0.73835  1.0000
  H   H1229     1.0  0.17096  0.76977  0.72529  1.0000
  C   C697      1.0  0.08957  0.79416  0.72101  1.0000
  H   H1230     1.0  0.30526  0.71279  0.64956  1.0000
  H   H1231     1.0  0.31780  0.73885  0.65580  1.0000
  H   H1232     1.0  0.34239  0.76554  0.71415  1.0000
  H   H1233     1.0  0.44953  0.80904  0.70951  1.0000
  H   H1234     1.0  0.11894  0.91156  0.55223  1.0000
  C   C698      1.0  0.11652  0.87719  0.54240  1.0000
  H   H1235     1.0  0.33277  0.72084  0.70250  1.0000
  H   H1236     1.0  0.09245  0.89888  0.55762  1.0000
  C   C699      1.0  0.18872  0.85091  0.54746  1.0000
  H   H1237     1.0  0.15153  0.74787  0.73108  1.0000
  H   H1238     1.0  0.21910  0.83895  0.53202  1.0000
  H   H1239     1.0  0.35081  0.52708  0.55253  1.0000
  H   H1240     1.0  0.00664  0.86917  0.58493  1.0000
  H   H1241     1.0  0.36662  0.55254  0.73304  1.0000
  H   H1242     1.0  0.14908  0.88668  0.53130  1.0000
  H   H1243     1.0  0.45420  0.76040  0.73225  1.0000
  H   H1244     1.0  0.41120  0.53190  0.55664  1.0000
  H   H1245     1.0  0.28249  0.70969  0.71616  1.0000
  C   C700      1.0  0.14205  0.83083  0.54543  1.0000
  H   H1246     1.0  0.17932  0.83517  0.52003  1.0000
  N   N39       1.0  0.30541  0.73699  0.71881  1.0000
  H   H1247     1.0  0.30336  0.58481  0.73367  1.0000
  C   C701      1.0  0.38466  0.50416  0.57498  1.0000
  H   H1248     1.0  0.36568  0.59027  0.72570  1.0000
  C   C702      1.0  0.22701  0.99910  0.72132  1.0000
  H   H1249     1.0  0.12723  0.84511  0.57373  1.0000
  C   C703      1.0  0.23279  0.97781  0.71355  1.0000
  C   C704      1.0  0.26843  0.59045  0.70791  1.0000
  C   C705      1.0  0.07832  0.76702  0.69436  1.0000
  H   H1250     1.0  0.07239  0.81210  0.67534  1.0000
  C   C706      1.0  0.35666  0.52136  0.72102  1.0000
  H   H1251     1.0  0.14924  0.87472  0.55646  1.0000
  C   C707      1.0  0.11076  0.89584  0.55734  1.0000
  H   H1252     1.0  0.32511  0.74699  0.69158  1.0000
  H   H1253     1.0  0.11320  0.81765  0.64635  1.0000
  C   C708      1.0  0.06752  0.80783  0.71943  1.0000
  C   C709      1.0  0.14146  0.83408  0.56932  1.0000
  C   C710      1.0  0.29185  0.58187  0.70244  1.0000
  H   H1254     1.0  0.41078  0.57331  0.55939  1.0000
  C   C711      1.0  0.35941  0.51285  0.54506  1.0000
  H   H1255     1.0  0.16115  0.75302  0.70460  1.0000
  H   H1256     1.0  0.00828  0.90981  0.57457  1.0000
  H   H1257     1.0  0.38990  0.58943  0.54544  1.0000
  C   C712      1.0  0.05958  0.95473  0.50997  1.0000
  C   C713      1.0  0.32177  0.74432  0.73477  1.0000
  H   H1258     1.0  0.18447  0.93613  0.70092  1.0000
  H   H1259     1.0  0.36375  0.70158  0.62135  1.0000
  H   H1260     1.0  0.15548  0.93917  0.70787  1.0000
  C   C714      1.0  0.15629  0.76097  0.71939  1.0000
  H   H1261     1.0  0.32485  0.55243  0.73223  1.0000
  H   H1262     1.0  0.29570  0.58770  0.68633  1.0000
  H   H1263     1.0  0.06390  0.77739  0.68898  1.0000
  N   N40       1.0  0.33296  0.58249  0.71431  1.0000
  C   C715      1.0  0.33436  0.76607  0.72961  1.0000
  C   C716      1.0  0.34067  0.58786  0.69237  1.0000
  C   C717      1.0  0.33411  0.55748  0.71784  1.0000
  C   C718      1.0  0.35780  0.54680  0.71918  1.0000
  C   C719      1.0  0.42794  0.78398  0.72394  1.0000
  C   C720      1.0  0.33813  0.61266  0.68498  1.0000
  C   C721      1.0  0.34567  0.61587  0.66237  1.0000
  H   H1264     1.0  0.07980  0.95711  0.53743  1.0000
  H   H1265     1.0  0.13762  0.81474  0.59809  1.0000
  H   H1266     1.0  0.33194  0.57739  0.68113  1.0000
  H   H1267     1.0  0.30810  0.60880  0.71793  1.0000
  H   H1268     1.0  0.36793  0.55106  0.70517  1.0000
  H   H1269     1.0  0.19618  0.89836  0.73089  1.0000
  H   H1270     1.0  0.32057  0.61862  0.68604  1.0000
  H   H1271     1.0  0.34856  0.62356  0.69434  1.0000
  H   H1272     1.0  0.36345  0.61074  0.66044  1.0000
  H   H1273     1.0  0.33523  0.60603  0.65198  1.0000
  H   H1274     1.0  0.34399  0.63380  0.65769  1.0000
  C   C722      1.0  0.10496  0.79719  0.68499  1.0000
  H   H1275     1.0  0.35919  0.51719  0.52814  1.0000
  H   H1276     1.0  0.02421  0.95150  0.51238  1.0000
  H   H1277     1.0  0.04045  0.88762  0.52519  1.0000
  H   H1278     1.0  0.37367  0.55565  0.56233  1.0000
  H   H1279     1.0  0.03003  0.89326  0.56266  1.0000
  H   H1280     1.0  0.29133  0.56338  0.70286  1.0000
  C   C723      1.0  0.14203  0.87269  0.54089  1.0000
  H   H1281     1.0  0.37203  0.68260  0.73388  1.0000
  C   C724      1.0  0.49546  0.73722  0.72053  1.0000
  C   C725      1.0  0.13858  0.81183  0.58113  1.0000
  H   H1282     1.0  0.27604  0.80391  0.68682  1.0000
  H   H1283     1.0  0.07816  0.89434  0.51041  1.0000
  H   H1284     1.0  0.14120  0.86439  0.50120  1.0000
  H   H1285     1.0  0.11257  0.81216  0.69173  1.0000
  N   N41       1.0  0.38017  0.76446  0.59455  1.0000
  C   C726      1.0  0.38668  0.78218  0.60947  1.0000
  C   C727      1.0  0.36133  0.77295  0.58083  1.0000
  C   C728      1.0  0.37178  0.74477  0.60737  1.0000
  C   C729      1.0  0.39971  0.75639  0.58167  1.0000
  C   C730      1.0  0.41208  0.77418  0.56836  1.0000
  C   C731      1.0  0.40567  0.77584  0.62478  1.0000
  C   C732      1.0  0.36190  0.72537  0.59509  1.0000
  C   C733      1.0  0.36075  0.79822  0.57476  1.0000
  C   C734      1.0  0.34317  0.80353  0.55829  1.0000
  C   C735      1.0  0.43326  0.76418  0.55863  1.0000
  C   C736      1.0  0.41083  0.79541  0.63857  1.0000
  C   C737      1.0  0.35141  0.70800  0.60984  1.0000
  H   H1286     1.0  0.37183  0.78733  0.61890  1.0000
  H   H1287     1.0  0.39209  0.79758  0.60111  1.0000
  H   H1288     1.0  0.36103  0.76337  0.56625  1.0000
  H   H1289     1.0  0.34490  0.76999  0.58864  1.0000
  H   H1290     1.0  0.35891  0.75045  0.61881  1.0000
  H   H1291     1.0  0.38549  0.73695  0.61659  1.0000
  H   H1292     1.0  0.41212  0.74752  0.59169  1.0000
  H   H1293     1.0  0.39438  0.74363  0.57065  1.0000
  H   H1294     1.0  0.41713  0.78843  0.57770  1.0000
  H   H1295     1.0  0.40133  0.78027  0.55544  1.0000
  H   H1296     1.0  0.40094  0.76174  0.63527  1.0000
  H   H1297     1.0  0.42123  0.77122  0.61633  1.0000
  H   H1298     1.0  0.37518  0.71674  0.58606  1.0000
  H   H1299     1.0  0.34879  0.73128  0.58417  1.0000
  H   H1300     1.0  0.35631  0.80814  0.58861  1.0000
  H   H1301     1.0  0.37698  0.80407  0.56863  1.0000
  H   H1302     1.0  0.32638  0.79862  0.56405  1.0000
  H   H1303     1.0  0.34275  0.82176  0.55467  1.0000
  H   H1304     1.0  0.34719  0.79465  0.54377  1.0000
  H   H1305     1.0  0.42919  0.74986  0.54884  1.0000
  H   H1306     1.0  0.44166  0.77701  0.54872  1.0000
  H   H1307     1.0  0.44500  0.75832  0.57092  1.0000
  H   H1308     1.0  0.41646  0.81000  0.62902  1.0000
  H   H1309     1.0  0.32541  0.54901  0.70518  1.0000
  H   H1310     1.0  0.38303  0.53624  0.59033  1.0000
  H   H1311     1.0  0.11935  0.84884  0.51290  1.0000
  C   C738      1.0  0.13781  0.84917  0.51097  1.0000
  H   H1312     1.0  0.06894  0.82116  0.70729  1.0000
  C   C739      1.0  0.14924  0.84346  0.73612  1.0000
  H   H1313     1.0  0.40963  0.57243  0.53139  1.0000
  C   C740      1.0  0.06625  0.88519  0.50175  1.0000
  H   H1314     1.0  0.03878  0.92601  0.50803  1.0000
  C   C741      1.0  0.06427  0.94888  0.53278  1.0000
  H   H1315     1.0  0.05325  0.79705  0.71609  1.0000
  H   H1316     1.0  0.33215  0.71255  0.66158  1.0000
  C   C742      1.0  0.17081  0.92893  0.71064  1.0000
  H   H1317     1.0  0.22472  0.97191  0.69988  1.0000
  C   C743      1.0  0.38340  0.55387  0.54777  1.0000
  C   C744      1.0  0.02875  0.87030  0.49871  1.0000
  C   C745      1.0  0.31798  0.73177  0.69900  1.0000
  N   N42       1.0  0.38323  0.51017  0.55214  1.0000
  C   C746      1.0  0.31565  0.72120  0.66104  1.0000
  H   H1318     1.0  0.05157  0.73115  0.68653  1.0000
  H   H1319     1.0  0.11874  0.78921  0.67587  1.0000
  H   H1320     1.0  0.08552  0.82896  0.64219  1.0000
  C   C747      1.0  0.09779  0.82377  0.65424  1.0000
  N   N43       1.0  0.09671  0.78138  0.70211  1.0000
  H   H1321     1.0  0.05036  0.95480  0.54288  1.0000
  H   H1322     1.0  0.15302  0.80047  0.57811  1.0000
  C   C748      1.0  0.04807  0.73865  0.70182  1.0000
  H   H1323     1.0  0.30172  0.64023  0.73995  1.0000
  C   C749      1.0  0.08795  0.80543  0.66836  1.0000
  H   H1324     1.0  0.11623  0.89117  0.57332  1.0000
  C   C750      1.0  0.01175  0.89649  0.56328  1.0000
  H   H1325     1.0  0.18738  0.83496  0.55652  1.0000
  C   C751      1.0  0.13709  0.77770  0.71595  1.0000
  H   H1326     1.0  0.25627  0.78484  0.69834  1.0000
  C   C752      1.0  0.29533  0.71547  0.72701  1.0000
  C   C753      1.0  0.18840  0.83382  0.73085  1.0000
  H   H1327     1.0  0.05804  0.97315  0.50859  1.0000
  N   N44       1.0  0.14890  0.85060  0.53186  1.0000
  C   C754      1.0  0.17681  0.92926  0.73359  1.0000
  H   H1328     1.0  0.34625  0.61259  0.72678  1.0000
  H   H1329     1.0  0.14297  0.79085  0.70484  1.0000
  H   H1330     1.0  0.34872  0.51457  0.70710  1.0000
  C   C755      1.0  0.03784  0.94386  0.50293  1.0000
  C   C756      1.0  0.34782  0.59420  0.72908  1.0000
  H   H1331     1.0  0.37375  0.51408  0.72229  1.0000
  H   H1332     1.0  0.21576  0.86903  0.53203  1.0000
  H   H1333     1.0  0.23301  0.88444  0.73686  1.0000
  H   H1334     1.0  0.42730  0.80004  0.69333  1.0000
  H   H1335     1.0  0.22352  0.85396  0.55547  1.0000
  C   C757      1.0  0.04477  0.88149  0.51003  1.0000
  H   H1336     1.0  0.30741  0.78037  0.69926  1.0000
  C   C758      1.0  0.35665  0.67350  0.73512  1.0000
  H   H1337     1.0  0.13511  0.85441  0.73287  1.0000
  H   H1338     1.0  0.07430  0.94883  0.50100  1.0000
  H   H1339     1.0  0.32273  0.78066  0.73020  1.0000
  H   H1340     1.0  0.41710  0.79711  0.73073  1.0000
  H   H1341     1.0  0.00449  0.86232  0.55832  1.0000
  H   H1342     1.0  0.36139  0.78557  0.74109  1.0000
  H   H1343     1.0  0.25699  0.69348  0.74204  1.0000
  H   H1344     1.0  0.04588  0.82838  0.73862  1.0000
  C   C759      1.0  0.06216  0.81937  0.73981  1.0000
  H   H1345     1.0  0.45759  0.78731  0.74193  1.0000
  C   C760      1.0  0.44498  0.77431  0.73989  1.0000
  H   H1346     1.0  0.42843  0.50310  0.53689  1.0000
  H   H1347     1.0  0.16215  0.92361  0.74269  1.0000
  H   H1348     1.0  0.23787  0.92166  0.75481  1.0000
  Fe  Fe83      1.0  0.07544  0.83725  0.96474  1.0000
  H   H1349     1.0  0.38171  0.72089  0.75875  1.0000
  S   S167      1.0  0.09762  0.82658  0.93715  1.0000
  H   H1350     1.0  0.25223  0.52113  0.79555  1.0000
  H   H1351     1.0  0.06115  0.80695  0.75288  1.0000
  S   S168      1.0  0.04978  0.81645  0.98150  1.0000
  S   S169      1.0  0.05268  0.86716  0.96144  1.0000
  C   C761      1.0  0.49432  0.71013  0.74891  1.0000
  H   H1352     1.0  0.11659  0.86885  0.96035  1.0000
  Fe  Fe84      1.0  0.34568  0.56028  0.96568  1.0000
  N   N45       1.0  0.20395  0.91117  0.76098  1.0000
  S   S170      1.0  0.33744  0.58066  0.93564  1.0000
  H   H1353     1.0  0.21585  0.98518  0.93497  1.0000
  H   H1354     1.0  0.41123  0.81768  0.79894  1.0000
  S   S171      1.0  0.37058  0.53186  0.96405  1.0000
  Fe  Fe85      1.0  0.27774  0.58436  0.82098  1.0000
  S   S172      1.0  0.24939  0.57341  0.80099  1.0000
  S   S173      1.0  0.28168  0.56565  0.85251  1.0000
  Fe  Fe86      1.0  0.29390  0.61674  0.78645  1.0000
  S   S174      1.0  0.26707  0.60781  0.76429  1.0000
  S   S175      1.0  0.32116  0.64221  0.78110  1.0000
  Fe  Fe87      1.0  0.24422  0.61015  0.79242  1.0000
  S   S176      1.0  0.20832  0.62477  0.79212  1.0000
  Fe  Fe88      1.0  0.27411  0.57179  0.77445  1.0000
  C   C762      1.0  0.21095  0.95253  0.76888  1.0000
  S   S177      1.0  0.27090  0.62088  0.81410  1.0000
  S   S178      1.0  0.30268  0.58101  0.79489  1.0000
  Fe  Fe89      1.0  0.11363  0.78827  0.78053  1.0000
  S   S179      1.0  0.11394  0.75447  0.76626  1.0000
  H   H1355     1.0  0.18298  0.97614  0.77096  1.0000
  Fe  Fe90      1.0  0.09362  0.77070  0.82209  1.0000
  S   S180      1.0  0.09328  0.73546  0.81038  1.0000
  S   S181      1.0  0.07381  0.77987  0.85167  1.0000
  Fe  Fe91      1.0  0.12775  0.74188  0.79703  1.0000
  S   S182      1.0  0.16118  0.72183  0.79905  1.0000
  Fe  Fe92      1.0  0.07946  0.75073  0.78044  1.0000
  S   S183      1.0  0.04948  0.73536  0.76391  1.0000
  S   S184      1.0  0.12883  0.77645  0.81071  1.0000
  S   S185      1.0  0.07857  0.78522  0.79274  1.0000
  S   S186      1.0  0.28272  0.54383  0.75119  1.0000
  H   H1356     1.0  0.02895  0.93776  0.96177  1.0000
  H   H1357     1.0  0.13475  0.85478  0.94241  1.0000
  H   H1358     1.0  0.40674  0.55730  0.88526  1.0000
  H   H1359     1.0  0.36510  0.75590  0.74496  1.0000
  H   H1360     1.0  0.39845  0.74598  0.78439  1.0000
  H   H1361     1.0  0.49972  0.58344  0.98666  1.0000
  H   H1362     1.0  0.26282  0.69607  0.76921  1.0000
  C   C763      1.0  0.19578  0.65220  0.79227  1.0000
  C   C764      1.0  0.17237  0.65445  0.79139  1.0000
  C   C765      1.0  0.16152  0.67555  0.79286  1.0000
  C   C766      1.0  0.17389  0.69480  0.79563  1.0000
  C   C767      1.0  0.19732  0.69257  0.79633  1.0000
  C   C768      1.0  0.20820  0.67154  0.79441  1.0000
  H   H1363     1.0  0.16249  0.63971  0.78971  1.0000
  H   H1364     1.0  0.14354  0.67684  0.79224  1.0000
  H   H1365     1.0  0.20715  0.70728  0.79834  1.0000
  H   H1366     1.0  0.22617  0.67029  0.79489  1.0000
  H   H1367     1.0  0.27203  0.96255  0.74885  1.0000
  C   C769      1.0  0.14671  0.82513  0.75002  1.0000
  C   C770      1.0  0.13930  0.89128  0.94340  1.0000
  H   H1368     1.0  0.42885  0.83888  0.78757  1.0000
  H   H1369     1.0  0.34556  0.77115  0.76121  1.0000
  H   H1370     1.0  0.40643  0.70319  0.75974  1.0000
  H   H1371     1.0  0.03108  0.78029  0.75295  1.0000
  H   H1372     1.0  0.16068  0.88891  0.75501  1.0000
  H   H1373     1.0  0.05572  0.71204  0.83336  1.0000
  C   C771      1.0  0.01372  0.78500  0.81967  1.0000
  C   C772      1.0  0.47721  0.76715  0.77227  1.0000
  C   C773      1.0  0.32225  0.57571  0.91247  1.0000
  C   C774      1.0  0.30934  0.55675  0.91011  1.0000
  C   C775      1.0  0.29712  0.55404  0.89171  1.0000
  C   C776      1.0  0.29780  0.57002  0.87524  1.0000
  C   C777      1.0  0.31096  0.58884  0.87747  1.0000
  C   C778      1.0  0.32296  0.59168  0.89598  1.0000
  H   H1374     1.0  0.30846  0.54434  0.92260  1.0000
  H   H1375     1.0  0.28688  0.53952  0.89036  1.0000
  H   H1376     1.0  0.31170  0.60134  0.86506  1.0000
  H   H1377     1.0  0.33279  0.60646  0.89756  1.0000
  C   C779      1.0  0.02309  0.96658  0.97944  1.0000
  H   H1378     1.0  0.01628  0.91455  0.98820  1.0000
  H   H1379     1.0  0.15752  0.89131  0.93986  1.0000
  H   H1380     1.0  0.35675  0.59679  0.78254  1.0000
  C   C780      1.0  0.14956  0.86229  0.97139  1.0000
  C   C781      1.0  0.22890  0.90757  0.76262  1.0000
  H   H1381     1.0  0.03139  0.82216  0.78020  1.0000
  H   H1382     1.0  0.14846  0.87505  0.98356  1.0000
  H   H1383     1.0  0.19765  0.97099  0.79515  1.0000
  N   N46       1.0  0.43553  0.76608  0.76051  1.0000
  C   C782      1.0  0.32212  0.51357  0.80080  1.0000
  H   H1384     1.0  0.41737  0.52499  0.95059  1.0000
  C   C783      1.0  0.09052  0.81395  0.91333  1.0000
  C   C784      1.0  0.06867  0.80814  0.90876  1.0000
  C   C785      1.0  0.06395  0.79788  0.88985  1.0000
  C   C786      1.0  0.08089  0.79338  0.87509  1.0000
  C   C787      1.0  0.10271  0.79947  0.87954  1.0000
  C   C788      1.0  0.10746  0.80959  0.89854  1.0000
  H   H1385     1.0  0.05544  0.81130  0.91992  1.0000
  H   H1386     1.0  0.04703  0.79327  0.88672  1.0000
  H   H1387     1.0  0.11597  0.79608  0.86848  1.0000
  H   H1388     1.0  0.12444  0.81381  0.90190  1.0000
  N   N47       1.0  0.12614  0.89891  0.92448  1.0000
  C   C789      1.0  0.10241  0.89094  0.92604  1.0000
  C   C790      1.0  0.39753  0.57333  0.88334  1.0000
  C   C791      1.0  0.12509  0.92416  0.92409  1.0000
  C   C792      1.0  0.13766  0.89153  0.90481  1.0000
  C   C793      1.0  0.13827  0.86609  0.90109  1.0000
  C   C794      1.0  0.08735  0.89686  0.90715  1.0000
  C   C795      1.0  0.14777  0.93617  0.92528  1.0000
  H   H1389     1.0  0.14695  0.84280  0.87699  1.0000
  H   H1390     1.0  0.01085  0.71428  0.81098  1.0000
  C   C796      1.0  0.14614  0.86116  0.87900  1.0000
  C   C797      1.0  0.06408  0.88730  0.91019  1.0000
  C   C798      1.0  0.14428  0.96150  0.92542  1.0000
  H   H1391     1.0  0.10183  0.87259  0.92810  1.0000
  H   H1392     1.0  0.36498  0.55756  0.88411  1.0000
  H   H1393     1.0  0.46110  0.57972  0.92634  1.0000
  H   H1394     1.0  0.33153  0.52268  0.81256  1.0000
  H   H1395     1.0  0.11449  0.93013  0.93728  1.0000
  H   H1396     1.0  0.11705  0.93076  0.90968  1.0000
  H   H1397     1.0  0.13011  0.90019  0.89102  1.0000
  H   H1398     1.0  0.15534  0.89673  0.90450  1.0000
  H   H1399     1.0  0.12171  0.85847  0.90324  1.0000
  H   H1400     1.0  0.40635  0.82824  0.77271  1.0000
  H   H1401     1.0  0.08524  0.91516  0.90485  1.0000
  H   H1402     1.0  0.09444  0.88976  0.89273  1.0000
  H   H1403     1.0  0.15857  0.93232  0.91170  1.0000
  H   H1404     1.0  0.15687  0.93126  0.93963  1.0000
  H   H1405     1.0  0.13344  0.96630  0.93875  1.0000
  H   H1406     1.0  0.47939  0.58373  0.89160  1.0000
  H   H1407     1.0  0.05149  0.70911  0.80570  1.0000
  H   H1408     1.0  0.16303  0.87232  0.80052  1.0000
  H   H1409     1.0  0.16646  0.85474  0.77834  1.0000
  H   H1410     1.0  0.37771  0.56008  0.85866  1.0000
  H   H1411     1.0  0.16300  0.86796  0.87595  1.0000
  C   C799      1.0  0.27052  0.69518  0.75347  1.0000
  H   H1412     1.0  0.06505  0.86890  0.91292  1.0000
  H   H1413     1.0  0.21665  0.99633  0.96064  1.0000
  H   H1414     1.0  0.05404  0.89079  0.89606  1.0000
  C   C800      1.0  0.23864  0.88597  0.75307  1.0000
  H   H1415     1.0  0.16058  0.96972  0.92708  1.0000
  C   C801      1.0  0.16504  0.81111  0.75418  1.0000
  C   C802      1.0  0.47301  0.60734  0.98174  1.0000
  C   C803      1.0  0.46752  0.56770  0.98831  1.0000
  C   C804      1.0  0.19300  0.89054  0.77008  1.0000
  C   C805      1.0  0.41936  0.82366  0.78428  1.0000
  H   H1416     1.0  0.28161  0.68014  0.75315  1.0000
  H   H1417     1.0  0.21278  0.95544  0.75188  1.0000
  H   H1418     1.0  0.14484  0.84594  0.97854  1.0000
  Fe  Fe93      1.0  0.02781  0.84725  0.98001  1.0000
  Fe  Fe94      1.0  0.06516  0.87783  0.99219  1.0000
  C   C806      1.0  0.40960  0.73488  0.77528  1.0000
  H   H1419     1.0  0.47629  0.78552  0.77306  1.0000
  C   C807      1.0  0.15886  0.87055  0.78391  1.0000
  C   C808      1.0  0.43051  0.52799  0.93862  1.0000
  H   H1420     1.0  0.20050  0.92672  0.79079  1.0000
  H   H1421     1.0  0.19752  0.87567  0.76082  1.0000
  H   H1422     1.0  0.44287  0.62688  0.97734  1.0000
  H   H1423     1.0  0.19931  0.88695  0.78606  1.0000
  H   H1424     1.0  0.23404  0.90744  0.77920  1.0000
  H   H1425     1.0  0.41687  0.77768  0.78716  1.0000
  H   H1426     1.0  0.49230  0.60052  0.91071  1.0000
  H   H1427     1.0  0.41766  0.59453  0.98177  1.0000
  C   C809      1.0  0.43523  0.80576  0.77581  1.0000
  H   H1428     1.0  0.37028  0.63253  0.96277  1.0000
  H   H1429     1.0  0.22504  0.53591  0.82197  1.0000
  H   H1430     1.0  0.43598  0.54666  0.91051  1.0000
  H   H1431     1.0  0.21220  0.51972  0.80243  1.0000
  H   H1432     1.0  0.01156  0.95815  0.94890  1.0000
  C   C810      1.0  0.18578  0.81551  0.74469  1.0000
  H   H1433     1.0  0.40703  0.58400  0.87210  1.0000
  H   H1434     1.0  0.27032  0.88743  0.76927  1.0000
  C   C811      1.0  0.02628  0.74589  0.81915  1.0000
  H   H1435     1.0  0.01185  0.89481  0.95741  1.0000
  H   H1436     1.0  0.16331  0.79698  0.76488  1.0000
  H   H1437     1.0  0.23342  0.87096  0.76224  1.0000
  H   H1438     1.0  0.03485  0.99071  0.95592  1.0000
  H   H1439     1.0  0.15026  0.85766  0.91181  1.0000
  N   N48       1.0  0.00631  0.76113  0.82238  1.0000
  H   H1440     1.0  0.14047  0.86943  0.78259  1.0000
  H   H1441     1.0  0.29394  0.53469  0.80894  1.0000
  H   H1442     1.0  0.30257  0.52225  0.84424  1.0000
  C   C812      1.0  0.32922  0.52247  0.77933  1.0000
  N   N49       1.0  0.41452  0.58804  0.91763  1.0000
  C   C813      1.0  0.43519  0.59185  0.90446  1.0000
  C   C814      1.0  0.39430  0.58560  0.90410  1.0000
  C   C815      1.0  0.41091  0.60861  0.93044  1.0000
  C   C816      1.0  0.41725  0.56818  0.93239  1.0000
  H   H1443     1.0  0.04032  0.68894  0.82402  1.0000
  C   C817      1.0  0.45717  0.59476  0.91653  1.0000
  C   C818      1.0  0.38807  0.61070  0.94187  1.0000
  H   H1444     1.0  0.26378  0.52685  0.83281  1.0000
  H   H1445     1.0  0.16699  0.86090  0.96553  1.0000
  C   C819      1.0  0.04382  0.70692  0.82139  1.0000
  H   H1446     1.0  0.43267  0.60695  0.89419  1.0000
  C   C820      1.0  0.02400  0.74534  0.75216  1.0000
  H   H1447     1.0  0.38069  0.57727  0.91318  1.0000
  H   H1448     1.0  0.38741  0.60234  0.89931  1.0000
  H   H1449     1.0  0.41267  0.62402  0.92049  1.0000
  H   H1450     1.0  0.42385  0.60951  0.94256  1.0000
  H   H1451     1.0  0.43022  0.57138  0.94405  1.0000
  H   H1452     1.0  0.40183  0.56562  0.94182  1.0000
  S   S187      1.0  0.12059  0.82050  0.76223  1.0000
  H   H1453     1.0  0.45618  0.60946  0.92662  1.0000
  C   C821      1.0  0.42266  0.78407  0.77167  1.0000
  H   H1454     1.0  0.38495  0.59588  0.95198  1.0000
  H   H1455     1.0  0.37421  0.61254  0.93069  1.0000
  H   H1456     1.0  0.20990  0.98801  0.77467  1.0000
  H   H1457     1.0  0.48588  0.69684  0.75735  1.0000
  C   C822      1.0  0.26412  0.88582  0.75322  1.0000
  H   H1458     1.0  0.07520  0.83161  0.74325  1.0000
  H   H1459     1.0  0.04047  0.75081  0.82893  1.0000
  H   H1460     1.0  0.13427  0.86845  0.86747  1.0000
  H   H1461     1.0  0.44309  0.81286  0.76150  1.0000
  H   H1462     1.0  0.02044  0.91510  0.93781  1.0000
  H   H1463     1.0  0.48522  0.76304  0.75720  1.0000
  C   C823      1.0  0.44978  0.61034  0.98045  1.0000
  H   H1464     1.0  0.02636  0.74635  0.86139  1.0000
  H   H1465     1.0  0.31511  0.50858  0.88114  1.0000
  H   H1466     1.0  0.43833  0.57805  0.89366  1.0000
  C   C824      1.0  0.42263  0.54544  0.92245  1.0000
  H   H1467     1.0  0.42285  0.72806  0.78563  1.0000
  C   C825      1.0  0.22375  0.51890  0.81579  1.0000
  C   C826      1.0  0.39585  0.71513  0.76859  1.0000
  H   H1468     1.0  0.34755  0.52055  0.77737  1.0000
  H   H1469     1.0  0.13681  0.90324  0.95610  1.0000
  H   H1470     1.0  0.35858  0.66846  0.76837  1.0000
  C   C827      1.0  0.02217  0.72057  0.82289  1.0000
  H   H1471     1.0  0.17978  0.93515  0.77300  1.0000
  H   H1472     1.0  0.00379  0.79297  0.78728  1.0000
  N   N50       1.0  0.20921  0.64403  0.85801  1.0000
  C   C828      1.0  0.22962  0.65004  0.84523  1.0000
  C   C829      1.0  0.20254  0.62030  0.85389  1.0000
  C   C830      1.0  0.19040  0.65949  0.85103  1.0000
  C   C831      1.0  0.21260  0.64722  0.88090  1.0000
  C   C832      1.0  0.23249  0.63437  0.89098  1.0000
  C   C833      1.0  0.23751  0.67448  0.84637  1.0000
  C   C834      1.0  0.16710  0.65493  0.86088  1.0000
  C   C835      1.0  0.22156  0.60307  0.84940  1.0000
  C   C836      1.0  0.21298  0.57923  0.84993  1.0000
  C   C837      1.0  0.23558  0.64122  0.91343  1.0000
  C   C838      1.0  0.25983  0.67752  0.83503  1.0000
  C   C839      1.0  0.14923  0.67007  0.85087  1.0000
  H   H1473     1.0  0.22658  0.64677  0.82859  1.0000
  H   H1474     1.0  0.24406  0.63916  0.84943  1.0000
  H   H1475     1.0  0.19218  0.61355  0.86700  1.0000
  H   H1476     1.0  0.19174  0.61994  0.83990  1.0000
  H   H1477     1.0  0.18866  0.65898  0.83387  1.0000
  H   H1478     1.0  0.19401  0.67712  0.85448  1.0000
  H   H1479     1.0  0.21414  0.66525  0.88416  1.0000
  H   H1480     1.0  0.19762  0.64181  0.88990  1.0000
  H   H1481     1.0  0.24840  0.63759  0.88262  1.0000
  H   H1482     1.0  0.22927  0.61620  0.89146  1.0000
  H   H1483     1.0  0.22536  0.68616  0.83877  1.0000
  H   H1484     1.0  0.23973  0.67936  0.86267  1.0000
  H   H1485     1.0  0.16706  0.65837  0.87772  1.0000
  H   H1486     1.0  0.16204  0.63743  0.85887  1.0000
  H   H1487     1.0  0.22853  0.60642  0.83361  1.0000
  H   H1488     1.0  0.23542  0.60373  0.86049  1.0000
  H   H1489     1.0  0.22705  0.56746  0.84680  1.0000
  H   H1490     1.0  0.20580  0.57485  0.86546  1.0000
  H   H1491     1.0  0.20015  0.57732  0.83785  1.0000
  H   H1492     1.0  0.23951  0.65923  0.91403  1.0000
  H   H1493     1.0  0.22029  0.63788  0.92284  1.0000
  H   H1494     1.0  0.24964  0.63143  0.92041  1.0000
  H   H1495     1.0  0.25848  0.67313  0.81845  1.0000
  H   H1496     1.0  0.26487  0.69522  0.83567  1.0000
  H   H1497     1.0  0.27302  0.66688  0.84242  1.0000
  H   H1498     1.0  0.15360  0.68793  0.85198  1.0000
  H   H1499     1.0  0.14735  0.66611  0.83426  1.0000
  H   H1500     1.0  0.13295  0.66744  0.85887  1.0000
  C   C840      1.0  0.34902  0.66544  0.75463  1.0000
  C   C841      1.0  0.28384  0.71628  0.74873  1.0000
  C   C842      1.0  0.38705  0.63124  0.95537  1.0000
  C   C843      1.0  0.41947  0.74772  0.75609  1.0000
  S   S188      1.0  0.36574  0.57815  0.98950  1.0000
  C   C844      1.0  0.47688  0.59836  0.90164  1.0000
  H   H1501     1.0  0.38985  0.64665  0.94579  1.0000
  H   H1502     1.0  0.21662  0.50765  0.82804  1.0000
  H   H1503     1.0  0.28793  0.51542  0.78989  1.0000
  H   H1504     1.0  0.02189  0.77609  0.86118  1.0000
  H   H1505     1.0  0.02916  0.78758  0.82869  1.0000
  H   H1506     1.0  0.01419  0.75905  0.89561  1.0000
  H   H1507     1.0  0.09413  0.89752  0.94030  1.0000
  H   H1508     1.0  0.01430  0.82865  0.80253  1.0000
  C   C845      1.0  0.45396  0.75619  0.77397  1.0000
  C   C846      1.0  0.32943  0.65300  0.75642  1.0000
  C   C847      1.0  0.13370  0.86833  0.95364  1.0000
  C   C848      1.0  0.29669  0.51691  0.80482  1.0000
  H   H1509     1.0  0.42769  0.73521  0.74602  1.0000
  H   H1510     1.0  0.44811  0.80244  0.78775  1.0000
  H   H1511     1.0  0.45726  0.73838  0.77006  1.0000
  H   H1512     1.0  0.13653  0.96770  0.91075  1.0000
  H   H1513     1.0  0.36552  0.58437  0.87053  1.0000
  C   C849      1.0  0.27495  0.51648  0.74322  1.0000
  H   H1514     1.0  0.39975  0.62989  0.96775  1.0000
  H   H1515     1.0  0.04257  0.81826  0.80591  1.0000
  S   S189      1.0  0.49013  0.63078  0.97791  1.0000
  H   H1516     1.0  0.05546  0.89517  0.92353  1.0000
  C   C850      1.0  0.01449  0.94935  0.96413  1.0000
  H   H1517     1.0  0.27228  0.73088  0.74977  1.0000
  C   C851      1.0  0.44431  0.57074  0.98697  1.0000
  H   H1518     1.0  0.44585  0.53354  0.94631  1.0000
  H   H1519     1.0  0.40709  0.78861  0.76320  1.0000
  C   C852      1.0  0.19778  0.93094  0.77404  1.0000
  C   C853      1.0  0.02729  0.81701  0.79647  1.0000
  H   H1520     1.0  0.32102  0.51302  0.76704  1.0000
  C   C854      1.0  0.37505  0.56857  0.87361  1.0000
  H   H1521     1.0  0.29650  0.71721  0.76109  1.0000
  H   H1522     1.0  0.22796  0.95106  0.77548  1.0000
  C   C855      1.0  0.04146  0.98068  0.96932  1.0000
  C   C856      1.0  0.16722  0.89053  0.77094  1.0000
  H   H1523     1.0  0.44872  0.75588  0.79063  1.0000
  H   H1524     1.0  0.40733  0.53898  0.91541  1.0000
  H   H1525     1.0  0.32465  0.54041  0.77743  1.0000
  H   H1526     1.0  0.43428  0.51196  0.93100  1.0000
  H   H1527     1.0  0.38900  0.70616  0.78251  1.0000
  C   C857      1.0  0.25335  0.99379  0.74903  1.0000
  C   C858      1.0  0.19958  0.97310  0.77804  1.0000
  H   H1528     1.0  0.16002  0.90574  0.77792  1.0000
  H   H1529     1.0  0.03166  0.78222  0.78991  1.0000
  H   H1530     1.0  0.40498  0.75441  0.74720  1.0000
  H   H1531     1.0  0.03273  0.74783  0.80300  1.0000
  S   S190      1.0  0.42701  0.54735  0.98980  1.0000
  C   C859      1.0  0.01884  0.79310  0.79708  1.0000
  H   H1532     1.0  0.49380  0.73993  0.78966  1.0000
  H   H1533     1.0  0.34165  0.57169  0.75644  1.0000
  H   H1534     1.0  0.47414  0.61362  0.89175  1.0000
  H   H1535     1.0  0.01038  0.87945  0.92265  1.0000
  C   C860      1.0  0.43547  0.59213  0.98305  1.0000
  Fe  Fe95      1.0  0.38908  0.54864  0.98918  1.0000
  C   C861      1.0  0.00828  0.72979  0.74581  1.0000
  H   H1536     1.0  0.31321  0.74746  0.74983  1.0000
  H   H1537     1.0  0.01486  0.71701  0.83848  1.0000
  H   H1538     1.0  0.27064  0.86983  0.74705  1.0000
  C   C862      1.0  0.48185  0.58593  0.98569  1.0000
  H   H1539     1.0  0.05546  0.96984  0.96390  1.0000
  C   C863      1.0  0.01343  0.75980  0.86196  1.0000
  H   H1540     1.0  0.19994  0.80465  0.74816  1.0000
  C   C864      1.0  0.49264  0.75844  0.78950  1.0000
  C   C865      1.0  0.36137  0.59892  0.76585  1.0000
  H   H1541     1.0  0.01178  0.71215  0.74823  1.0000
  H   H1542     1.0  0.00983  0.97830  0.98457  1.0000
  H   H1543     1.0  0.04805  0.99229  0.98079  1.0000
  C   C866      1.0  0.35270  0.76983  0.74529  1.0000
  H   H1544     1.0  0.24401  0.51481  0.76033  1.0000
  C   C867      1.0  0.26344  0.50970  0.82655  1.0000
  H   H1545     1.0  0.47447  0.55116  0.99128  1.0000
  H   H1546     1.0  0.26120  0.99953  0.76286  1.0000
  Fe  Fe96      1.0  0.35076  0.51631  0.99023  1.0000
  C   C868      1.0  0.00601  0.90605  0.94456  1.0000
  H   H1547     1.0  0.14404  0.93268  0.97910  1.0000
  C   C869      1.0  0.12788  0.93917  0.98379  1.0000
  H   H1548     1.0  0.48646  0.76396  0.80489  1.0000
  H   H1549     1.0  0.11220  0.90682  0.98495  1.0000
  C   C870      1.0  0.12514  0.96220  0.98678  1.0000
  S   S191      1.0  0.14789  0.98000  0.98157  1.0000
  H   H1550     1.0  0.37740  0.58991  0.76301  1.0000
  C   C871      1.0  0.25542  0.50607  0.75018  1.0000
  C   C872      1.0  0.10997  0.92454  0.98709  1.0000
  S   S192      1.0  0.32429  0.54381  0.99083  1.0000
  C   C873      1.0  0.34298  0.58971  0.75251  1.0000
  H   H1551     1.0  0.36356  0.61702  0.76241  1.0000
  H   H1552     1.0  0.46410  0.50647  0.98349  1.0000
  C   C874      1.0  0.01914  0.76806  0.74864  1.0000
  H   H1553     1.0  0.32710  0.59815  0.75699  1.0000
  C   C875      1.0  0.24658  0.51012  0.80859  1.0000
  C   C876      1.0  0.30060  0.50424  0.84085  1.0000
  C   C877      1.0  0.21302  0.00044  0.94408  1.0000
  H   H1554     1.0  0.27066  0.89971  0.74326  1.0000
  Fe  Fe97      1.0  0.94050  0.15450  0.01148  1.0000
  S   S193      1.0  0.93615  0.18292  0.03480  1.0000
  C   C878      1.0  0.92729  0.28183  0.99449  1.0000
  S   S194      1.0  0.96162  0.12313  0.01507  1.0000
  H   H1555     1.0  0.88349  0.34618  0.21690  1.0000
  Fe  Fe98      1.0  0.65166  0.43188  0.01275  1.0000
  S   S195      1.0  0.65975  0.43833  0.04700  1.0000
  Fe  Fe99      1.0  0.88495  0.25439  0.17657  1.0000
  S   S196      1.0  0.87200  0.21952  0.17373  1.0000
  S   S197      1.0  0.86384  0.28504  0.16540  1.0000
  Fe  Fe100     1.0  0.93184  0.23654  0.19156  1.0000
  S   S198      1.0  0.92110  0.20089  0.18965  1.0000
  S   S199      1.0  0.96854  0.24623  0.19729  1.0000
  Fe  Fe101     1.0  0.90538  0.21083  0.15885  1.0000
  S   S200      1.0  0.90930  0.18598  0.13207  1.0000
  Fe  Fe102     1.0  0.88877  0.21251  0.20435  1.0000
  H   H1556     1.0  0.99801  0.09262  0.07255  1.0000
  S   S201      1.0  0.91756  0.24601  0.15998  1.0000
  S   S202      1.0  0.90026  0.24790  0.20794  1.0000
  Fe  Fe103     1.0  0.73225  0.39993  0.14971  1.0000
  S   S203      1.0  0.75904  0.41227  0.17113  1.0000
  S   S204      1.0  0.73242  0.40503  0.11406  1.0000
  Fe  Fe104     1.0  0.70934  0.37353  0.18522  1.0000
  S   S205      1.0  0.73367  0.38462  0.20873  1.0000
  S   S206      1.0  0.68392  0.34597  0.18996  1.0000
  Fe  Fe105     1.0  0.73058  0.41906  0.19373  1.0000
  S   S207      1.0  0.72134  0.45037  0.21288  1.0000
  Fe  Fe106     1.0  0.76044  0.37679  0.18477  1.0000
  S   S208      1.0  0.78871  0.35410  0.19850  1.0000
  S   S209      1.0  0.70393  0.40815  0.17150  1.0000
  S   S210      1.0  0.73591  0.36446  0.16194  1.0000
  C   C879      1.0  0.84151  0.30256  0.17485  1.0000
  C   C880      1.0  0.83053  0.31736  0.16080  1.0000
  C   C881      1.0  0.81378  0.33256  0.16755  1.0000
  C   C882      1.0  0.80800  0.33360  0.18864  1.0000
  C   C883      1.0  0.81892  0.31873  0.20272  1.0000
  C   C884      1.0  0.83540  0.30324  0.19591  1.0000
  H   H1557     1.0  0.83511  0.31719  0.14450  1.0000
  H   H1558     1.0  0.80579  0.34391  0.15649  1.0000
  H   H1559     1.0  0.81483  0.31943  0.21909  1.0000
  H   H1560     1.0  0.84374  0.29222  0.20702  1.0000
  H   H1561     1.0  0.89119  0.31996  0.14692  1.0000
  C   C885      1.0  0.84827  0.16288  0.21940  1.0000
  C   C886      1.0  0.93588  0.28872  0.23154  1.0000
  C   C887      1.0  0.98565  0.19370  0.17164  1.0000
  H   H1562     1.0  0.85441  0.16750  0.20404  1.0000
  C   C888      1.0  0.88549  0.35553  0.20190  1.0000
  S   S211      1.0  0.92288  0.07311  0.01380  1.0000
  C   C889      1.0  0.67109  0.33937  0.21413  1.0000
  C   C890      1.0  0.66922  0.35496  0.22981  1.0000
  H   H1563     1.0  0.59021  0.23866  0.21653  1.0000
  C   C891      1.0  0.93343  0.34514  0.18717  1.0000
  H   H1564     1.0  0.57712  0.46841  0.02094  1.0000
  C   C892      1.0  0.91754  0.30420  0.12984  1.0000
  C   C893      1.0  0.77918  0.06204  0.20606  1.0000
  H   H1565     1.0  0.90594  0.25539  0.00482  1.0000
  H   H1566     1.0  0.95236  0.39353  0.16154  1.0000
  C   C894      1.0  0.98911  0.24244  0.21730  1.0000
  C   C895      1.0  0.85495  0.17480  0.23653  1.0000
  H   H1567     1.0  0.87906  0.10201  0.01809  1.0000
  H   H1568     1.0  0.99836  0.10537  0.04691  1.0000
  H   H1569     1.0  0.91095  0.31007  0.11457  1.0000
  C   C896      1.0  0.73282  0.47345  0.22610  1.0000
  H   H1570     1.0  0.96017  0.00629  0.00571  1.0000
  H   H1571     1.0  0.91077  0.29644  0.17188  1.0000
  C   C897      1.0  0.86442  0.09098  0.01744  1.0000
  C   C898      1.0  0.98735  0.06717  0.02552  1.0000
  H   H1572     1.0  0.78435  0.15522  0.17215  1.0000
  C   C899      1.0  0.72784  0.14616  0.22853  1.0000
  H   H1573     1.0  0.55048  0.36423  0.02246  1.0000
  H   H1574     1.0  0.98225  0.02546  0.04368  1.0000
  H   H1575     1.0  0.77814  0.15276  0.22938  1.0000
  C   C900      1.0  0.68034  0.42905  0.06529  1.0000
  C   C901      1.0  0.70081  0.41962  0.05925  1.0000
  C   C902      1.0  0.71652  0.41258  0.07437  1.0000
  C   C903      1.0  0.71195  0.41458  0.09577  1.0000
  C   C904      1.0  0.69141  0.42396  0.10182  1.0000
  C   C905      1.0  0.67585  0.43131  0.08668  1.0000
  H   H1576     1.0  0.70471  0.41797  0.04291  1.0000
  H   H1577     1.0  0.73236  0.40547  0.06946  1.0000
  H   H1578     1.0  0.68762  0.42571  0.11817  1.0000
  H   H1579     1.0  0.66011  0.43858  0.09162  1.0000
  H   H1580     1.0  0.61494  0.33659  0.21982  1.0000
  H   H1581     1.0  0.82961  0.07135  0.18411  1.0000
  C   C906      1.0  0.99872  0.17699  0.18609  1.0000
  H   H1582     1.0  0.91855  0.37128  0.16625  1.0000
  C   C907      1.0  0.92851  0.18336  0.06186  1.0000
  C   C908      1.0  0.92219  0.16418  0.07320  1.0000
  C   C909      1.0  0.91607  0.16547  0.09444  1.0000
  C   C910      1.0  0.91626  0.18586  0.10485  1.0000
  C   C911      1.0  0.92261  0.20505  0.09353  1.0000
  C   C912      1.0  0.92864  0.20379  0.07225  1.0000
  H   H1583     1.0  0.92186  0.14835  0.06557  1.0000
  H   H1584     1.0  0.91112  0.15049  0.10290  1.0000
  H   H1585     1.0  0.92273  0.22089  0.10113  1.0000
  H   H1586     1.0  0.93339  0.21880  0.06373  1.0000
  C   C913      1.0  0.59960  0.33685  0.21022  1.0000
  H   H1587     1.0  0.73450  0.00364  0.21397  1.0000
  C   C914      1.0  0.91889  0.31272  0.16831  1.0000
  H   H1588     1.0  0.60680  0.37376  0.18273  1.0000
  H   H1589     1.0  0.76380  0.49785  0.18812  1.0000
  C   C915      1.0  0.75578  0.47664  0.22775  1.0000
  H   H1590     1.0  0.94511  0.39032  0.18867  1.0000
  H   H1591     1.0  0.94140  0.35526  0.15510  1.0000
  S   S212      1.0  0.59177  0.37851  0.00400  1.0000
  H   H1592     1.0  0.89803  0.36867  0.20368  1.0000
  C   C916      1.0  0.91509  0.31462  0.20611  1.0000
  H   H1593     1.0  0.92965  0.14020  0.14310  1.0000
  H   H1594     1.0  0.87009  0.07337  0.01992  1.0000
  C   C917      1.0  0.97666  0.22729  0.13828  1.0000
  H   H1595     1.0  0.96733  0.22828  0.24073  1.0000
  H   H1596     1.0  0.68484  0.48510  0.01142  1.0000
  H   H1597     1.0  0.51533  0.35057  0.00764  1.0000
  H   H1598     1.0  0.70044  0.48702  0.23414  1.0000
  H   H1599     1.0  0.74039  0.49180  0.17217  1.0000
  H   H1600     1.0  0.61325  0.49107  0.01918  1.0000
  N   N51       1.0  0.58455  0.31788  0.21688  1.0000
  H   H1601     1.0  0.64745  0.49965  0.10677  1.0000
  C   C918      1.0  0.59587  0.29641  0.21040  1.0000
  H   H1602     1.0  0.90420  0.21777  0.99883  1.0000
  C   C919      1.0  0.56230  0.32109  0.20627  1.0000
  C   C920      1.0  0.54144  0.31166  0.21787  1.0000
  C   C921      1.0  0.85290  0.09281  0.19799  1.0000
  C   C922      1.0  0.60734  0.33749  0.18715  1.0000
  H   H1603     1.0  0.74403  0.34351  0.23370  1.0000
  C   C923      1.0  0.89228  0.33954  0.18430  1.0000
  H   H1604     1.0  0.78832  0.17990  0.22516  1.0000
  H   H1605     1.0  0.77182  0.04751  0.19856  1.0000
  C   C924      1.0  0.61872  0.35947  0.18141  1.0000
  H   H1606     1.0  0.84673  0.11159  0.99531  1.0000
  H   H1607     1.0  0.93603  0.30346  0.12882  1.0000
  H   H1608     1.0  0.59744  0.29586  0.19321  1.0000
  H   H1609     1.0  0.61316  0.29556  0.21645  1.0000
  H   H1610     1.0  0.94793  0.24298  0.12301  1.0000
  H   H1611     1.0  0.75317  0.16009  0.19652  1.0000
  H   H1612     1.0  0.55847  0.33915  0.20334  1.0000
  H   H1613     1.0  0.56307  0.31384  0.19053  1.0000
  H   H1614     1.0  0.78537  0.01475  0.16940  1.0000
  H   H1615     1.0  0.85273  0.09534  0.03026  1.0000
  H   H1616     1.0  0.64552  0.49753  0.00386  1.0000
  H   H1617     1.0  0.91439  0.32561  0.21975  1.0000
  H   H1618     1.0  0.59303  0.33556  0.17663  1.0000
  H   H1619     1.0  0.61980  0.32392  0.18435  1.0000
  H   H1620     1.0  0.56826  0.27304  0.20898  1.0000
  C   C925      1.0  0.96187  0.15263  0.13240  1.0000
  H   H1621     1.0  0.68936  0.35874  0.00881  1.0000
  S   S213      1.0  0.91185  0.13696  0.99712  1.0000
  H   H1622     1.0  0.51743  0.32872  0.19744  1.0000
  H   H1623     1.0  0.63881  0.47112  0.10959  1.0000
  H   H1624     1.0  0.99498  0.22677  0.13586  1.0000
  C   C926      1.0  0.95109  0.38130  0.17477  1.0000
  H   H1625     1.0  0.85830  0.37812  0.21029  1.0000
  S   S214      1.0  0.65350  0.40049  0.99428  1.0000
  H   H1626     1.0  0.61805  0.49319  0.10800  1.0000
  H   H1627     1.0  0.63309  0.36207  0.19174  1.0000
  H   H1628     1.0  0.62511  0.35904  0.16516  1.0000
  H   H1629     1.0  0.95021  0.20518  0.14739  1.0000
  H   H1630     1.0  0.90132  0.03341  0.02866  1.0000
  H   H1631     1.0  0.97729  0.14513  0.12567  1.0000
  C   C927      1.0  0.94571  0.13360  0.13680  1.0000
  H   H1632     1.0  0.78398  0.04250  0.23410  1.0000
  H   H1633     1.0  0.62219  0.47267  0.07496  1.0000
  C   C928      1.0  0.61406  0.49011  0.03641  1.0000
  H   H1634     1.0  0.81013  0.04125  0.18562  1.0000
  H   H1635     1.0  0.84992  0.35477  0.19550  1.0000
  H   H1636     1.0  0.95137  0.16852  0.16091  1.0000
  N   N52       1.0  0.65567  0.36456  0.06601  1.0000
  C   C929      1.0  0.67233  0.36512  0.08339  1.0000
  C   C930      1.0  0.66678  0.37069  0.04542  1.0000
  C   C931      1.0  0.63781  0.38202  0.07032  1.0000
  C   C932      1.0  0.64446  0.34231  0.06506  1.0000
  C   C933      1.0  0.65986  0.32159  0.06248  1.0000
  C   C934      1.0  0.66325  0.36015  0.10568  1.0000
  C   C935      1.0  0.62046  0.38652  0.05290  1.0000
  C   C936      1.0  0.69152  0.36327  0.04224  1.0000
  C   C937      1.0  0.58950  0.49046  0.04436  1.0000
  C   C938      1.0  0.64668  0.30008  0.06492  1.0000
  C   C939      1.0  0.68201  0.36014  0.12156  1.0000
  C   C940      1.0  0.60391  0.40499  0.05893  1.0000
  H   H1637     1.0  0.68009  0.38183  0.08344  1.0000
  H   H1638     1.0  0.68643  0.35326  0.08089  1.0000
  H   H1639     1.0  0.65696  0.36438  0.03230  1.0000
  H   H1640     1.0  0.66687  0.38917  0.04299  1.0000
  H   H1641     1.0  0.64560  0.39825  0.07357  1.0000
  H   H1642     1.0  0.62799  0.37738  0.08448  1.0000
  H   H1643     1.0  0.63366  0.33948  0.07902  1.0000
  H   H1644     1.0  0.63290  0.34225  0.05169  1.0000
  H   H1645     1.0  0.67328  0.32074  0.07414  1.0000
  H   H1646     1.0  0.66727  0.32179  0.04661  1.0000
  H   H1647     1.0  0.65092  0.37310  0.11041  1.0000
  H   H1648     1.0  0.65538  0.34356  0.10676  1.0000
  H   H1649     1.0  0.61067  0.37142  0.05008  1.0000
  H   H1650     1.0  0.62857  0.39189  0.03807  1.0000
  H   H1651     1.0  0.75751  0.27265  0.22926  1.0000
  H   H1652     1.0  0.69434  0.34532  0.04580  1.0000
  H   H1653     1.0  0.78945  0.13864  0.19546  1.0000
  N   N53       1.0  0.81642  0.04312  0.21872  1.0000
  C   C941      1.0  0.69941  0.36804  0.01993  1.0000
  H   H1654     1.0  0.63927  0.29851  0.08078  1.0000
  H   H1655     1.0  0.63319  0.29979  0.05327  1.0000
  H   H1656     1.0  0.65797  0.28547  0.06248  1.0000
  H   H1657     1.0  0.71120  0.31115  0.21167  1.0000
  C   C942      1.0  0.85271  0.09399  0.99659  1.0000
  H   H1658     1.0  0.86431  0.37769  0.18281  1.0000
  H   H1659     1.0  0.61271  0.42094  0.06087  1.0000
  H   H1660     1.0  0.59143  0.40750  0.04644  1.0000
  H   H1661     1.0  0.59496  0.40039  0.07357  1.0000
  H   H1662     1.0  0.74958  0.06771  0.22526  1.0000
  C   C943      1.0  0.76886  0.16853  0.19993  1.0000
  H   H1663     1.0  0.50642  0.30561  0.21257  1.0000
  H   H1664     1.0  0.74041  0.13578  0.22022  1.0000
  H   H1665     1.0  0.89055  0.34919  0.16946  1.0000
  H   H1666     1.0  0.76636  0.09225  0.22037  1.0000
  H   H1667     1.0  0.93890  0.30203  0.24276  1.0000
  H   H1668     1.0  0.72110  0.23616  0.21011  1.0000
  C   C944      1.0  0.63452  0.48552  0.07859  1.0000
  H   H1669     1.0  0.93699  0.30866  0.16655  1.0000
  C   C945      1.0  0.79430  0.05403  0.22435  1.0000
  H   H1670     1.0  0.93464  0.28438  0.19857  1.0000
  H   H1671     1.0  0.94998  0.33653  0.18723  1.0000
  H   H1672     1.0  0.61526  0.25456  0.21820  1.0000
  H   H1673     1.0  0.76262  0.30999  0.20632  1.0000
  C   C946      1.0  0.82299  0.02657  0.23585  1.0000
  C   C947      1.0  0.75991  0.07686  0.21353  1.0000
  C   C948      1.0  0.96630  0.24177  0.12091  1.0000
  H   H1674     1.0  0.82883  0.13560  0.20891  1.0000
  C   C949      1.0  0.72787  0.30511  0.21705  1.0000
  H   H1675     1.0  0.78842  0.07159  0.19395  1.0000
  H   H1676     1.0  0.93365  0.24642  0.99781  1.0000
  H   H1677     1.0  0.97016  0.23463  0.10552  1.0000
  N   N54       1.0  0.91499  0.32842  0.18607  1.0000
  H   H1678     1.0  0.95854  0.03518  0.03015  1.0000
  H   H1679     1.0  0.65129  0.47939  0.07372  1.0000
  H   H1680     1.0  0.72791  0.28688  0.21476  1.0000
  H   H1681     1.0  0.97311  0.25885  0.12120  1.0000
  H   H1682     1.0  0.97625  0.15195  0.16215  1.0000
  C   C950      1.0  0.57725  0.46963  0.03809  1.0000
  C   C951      1.0  0.97319  0.00514  0.01786  1.0000
  C   C952      1.0  0.83375  0.14481  0.22221  1.0000
  H   H1683     1.0  0.67604  0.37142  0.22736  1.0000
  C   C953      1.0  0.74545  0.31495  0.20171  1.0000
  H   H1684     1.0  0.70243  0.37266  0.05256  1.0000
  C   C954      1.0  0.52864  0.35623  0.99743  1.0000
  C   C955      1.0  0.66204  0.31809  0.21746  1.0000
  H   H1685     1.0  0.83280  0.02464  0.19429  1.0000
  C   C956      1.0  0.93543  0.29847  0.20934  1.0000
  H   H1686     1.0  0.96244  0.19879  0.12337  1.0000
  H   H1687     1.0  0.98989  0.05618  0.05854  1.0000
  H   H1688     1.0  0.86769  0.08252  0.19355  1.0000
  S   S215      1.0  0.61451  0.43402  0.01018  1.0000
  H   H1689     1.0  0.69490  0.34721  0.11802  1.0000
  H   H1690     1.0  0.72523  0.31203  0.17407  1.0000
  C   C957      1.0  0.96735  0.16479  0.15252  1.0000
  C   C958      1.0  0.73975  0.19603  0.22576  1.0000
  H   H1691     1.0  0.64453  0.29592  0.23888  1.0000
  H   H1692     1.0  0.94956  0.27604  0.23295  1.0000
  H   H1693     1.0  0.58533  0.45439  0.04500  1.0000
  H   H1694     1.0  0.75262  0.22855  0.23415  1.0000
  H   H1695     1.0  0.55972  0.47052  0.04375  1.0000
  H   H1696     1.0  0.89986  0.30420  0.20730  1.0000
  C   C959      1.0  0.73807  0.23218  0.20401  1.0000
  C   C960      1.0  0.83450  0.06030  0.21692  1.0000
  H   H1697     1.0  0.73280  0.18939  0.21138  1.0000
  C   C961      1.0  0.97577  0.02823  0.02778  1.0000
  H   H1698     1.0  0.74916  0.08182  0.20022  1.0000
  C   C962      1.0  0.52122  0.31163  0.20368  1.0000
  H   H1699     1.0  0.53698  0.32209  0.23132  1.0000
  H   H1700     1.0  0.76788  0.18552  0.19269  1.0000
  H   H1701     1.0  0.99203  0.19438  0.21471  1.0000
  H   H1702     1.0  0.88859  0.18286  0.01357  1.0000
  H   H1703     1.0  0.76846  0.21552  0.21386  1.0000
  N   N55       1.0  0.73065  0.31050  0.23963  1.0000
  C   C963      1.0  0.78781  0.15598  0.18901  1.0000
  H   H1704     1.0  0.95292  0.12121  0.14809  1.0000
  H   H1705     1.0  0.73670  0.22296  0.18937  1.0000
  N   N56       1.0  0.98976  0.04475  0.01553  1.0000
  H   H1706     1.0  0.74673  0.24806  0.20038  1.0000
  C   C964      1.0  0.54860  0.36394  0.00579  1.0000
  C   C965      1.0  0.86317  0.36722  0.19727  1.0000
  H   H1707     1.0  0.86216  0.19442  0.00473  1.0000
  H   H1708     1.0  0.91992  0.28053  0.23564  1.0000
  H   H1709     1.0  0.83809  0.08295  0.99709  1.0000
  H   H1710     1.0  0.51565  0.40995  0.01509  1.0000
  C   C966      1.0  0.58261  0.31798  0.24028  1.0000
  H   H1711     1.0  0.93253  0.28504  0.01060  1.0000
  H   H1712     1.0  0.62159  0.47335  0.03998  1.0000
  H   H1713     1.0  0.60064  0.25360  0.19383  1.0000
  C   C967      1.0  0.74202  0.30682  0.17973  1.0000
  H   H1714     1.0  0.95152  0.30683  0.20655  1.0000
  C   C968      1.0  0.81569  0.03039  0.19883  1.0000
  C   C969      1.0  0.82567  0.13858  0.24208  1.0000
  H   H1715     1.0  0.91470  0.33711  0.14186  1.0000
  H   H1716     1.0  0.71452  0.34236  0.23250  1.0000
  H   H1717     1.0  0.69000  0.37670  0.12162  1.0000
  H   H1718     1.0  0.83838  0.01709  0.23135  1.0000
  H   H1719     1.0  0.71715  0.36275  0.01816  1.0000
  C   C970      1.0  0.83206  0.07852  0.19956  1.0000
  C   C971      1.0  0.89327  0.01453  0.00182  1.0000
  C   C972      1.0  0.90970  0.32011  0.14667  1.0000
  C   C973      1.0  0.96667  0.20356  0.13932  1.0000
  C   C974      1.0  0.59858  0.25415  0.21097  1.0000
  H   H1720     1.0  0.76731  0.46472  0.22098  1.0000
  H   H1721     1.0  0.95412  0.16400  0.12068  1.0000
  C   C975      1.0  0.90274  0.03254  0.01194  1.0000
  H   H1722     1.0  0.85607  0.10071  0.21306  1.0000
  C   C976      1.0  0.58437  0.27444  0.21701  1.0000
  H   H1723     1.0  0.74386  0.28838  0.17929  1.0000
  S   S216      1.0  0.87338  0.19750  0.23402  1.0000
  C   C977      1.0  0.93485  0.36301  0.16942  1.0000
  H   H1724     1.0  0.67518  0.35652  0.13739  1.0000
  H   H1725     1.0  0.94225  0.12505  0.12214  1.0000
  H   H1726     1.0  0.81787  0.08993  0.20328  1.0000
  C   C978      1.0  0.63468  0.48761  0.10218  1.0000
  H   H1727     1.0  0.66349  0.30593  0.20540  1.0000
  H   H1728     1.0  0.99602  0.08017  0.01615  1.0000
  H   H1729     1.0  0.74403  0.33341  0.20094  1.0000
  H   H1730     1.0  0.87928  0.32657  0.18375  1.0000
  C   C979      1.0  0.91315  0.04982  0.00052  1.0000
  H   H1731     1.0  0.96946  0.07251  0.02594  1.0000
  H   H1732     1.0  0.59127  0.35323  0.21310  1.0000
  H   H1733     1.0  0.96796  0.37406  0.17779  1.0000
  C   C980      1.0  0.98419  0.23326  0.23705  1.0000
  H   H1734     1.0  0.93252  0.35384  0.20221  1.0000
  H   H1735     1.0  0.91114  0.28720  0.13321  1.0000
  H   H1736     1.0  0.75476  0.31433  0.16913  1.0000
  C   C981      1.0  0.71117  0.13017  0.23877  1.0000
  C   C982      1.0  0.65122  0.31240  0.23634  1.0000
  C   C983      1.0  0.51691  0.23917  0.23332  1.0000
  C   C984      1.0  0.99108  0.09174  0.05670  1.0000
  H   H1737     1.0  0.80379  0.16474  0.19088  1.0000
  H   H1738     1.0  0.85106  0.05181  0.21493  1.0000
  C   C985      1.0  0.72920  0.33562  0.24120  1.0000
  H   H1739     1.0  0.78502  0.01271  0.20817  1.0000
  H   H1740     1.0  0.96986  0.19834  0.17988  1.0000
  H   H1741     1.0  0.70319  0.12020  0.22674  1.0000
  H   H1742     1.0  0.69806  0.38620  0.01607  1.0000
  H   H1743     1.0  0.58840  0.49112  0.06150  1.0000
  Fe  Fe107     1.0  0.93378  0.10609  0.99888  1.0000
  H   H1744     1.0  0.58170  0.27334  0.23401  1.0000
  H   H1745     1.0  0.85051  0.10626  0.18597  1.0000
  H   H1746     1.0  0.71850  0.15681  0.21720  1.0000
  H   H1747     1.0  0.79698  0.06848  0.23449  1.0000
  C   C986      1.0  0.77304  0.16977  0.22364  1.0000
  H   H1748     1.0  0.97271  0.09434  0.05776  1.0000
  H   H1749     1.0  0.52550  0.22456  0.22749  1.0000
  H   H1750     1.0  0.54411  0.29444  0.22398  1.0000
  C   C987      1.0  0.99678  0.06899  0.04766  1.0000
  C   C988      1.0  0.80082  0.00943  0.19966  1.0000
  H   H1751     1.0  0.65737  0.48655  0.04008  1.0000
  C   C989      1.0  0.71823  0.48924  0.23520  1.0000
  H   H1752     1.0  0.99551  0.20925  0.17075  1.0000
  H   H1753     1.0  0.80975  0.01396  0.23837  1.0000
  H   H1754     1.0  0.96186  0.05091  0.99495  1.0000
  H   H1755     1.0  0.98879  0.17550  0.10750  1.0000
  N   N57       1.0  0.98083  0.18577  0.15007  1.0000
  C   C990      1.0  0.87678  0.18383  0.00040  1.0000
  C   C991      1.0  0.76392  0.49545  0.23791  1.0000
  H   H1756     1.0  0.79510  0.28301  0.24039  1.0000
  H   H1757     1.0  0.87085  0.16677  0.99754  1.0000
  N   N58       1.0  0.75412  0.17873  0.23697  1.0000
  H   H1758     1.0  0.52428  0.30024  0.19058  1.0000
  H   H1759     1.0  0.98788  0.16313  0.19146  1.0000
  H   H1760     1.0  0.97326  0.23568  0.15318  1.0000
  H   H1761     1.0  0.83541  0.06986  0.23144  1.0000
  H   H1762     1.0  0.78172  0.49774  0.23878  1.0000
  H   H1763     1.0  0.56061  0.43811  0.99489  1.0000
  C   C992      1.0  0.98008  0.04709  0.99400  1.0000
  H   H1764     1.0  0.69296  0.28025  0.23150  1.0000
  C   C993      1.0  0.75134  0.21838  0.22007  1.0000
  H   H1765     1.0  0.72481  0.20029  0.23548  1.0000
  H   H1766     1.0  0.76660  0.31315  0.24041  1.0000
  C   C994      1.0  0.68055  0.50274  0.00711  1.0000
  H   H1767     1.0  0.00136  0.20194  0.10996  1.0000
  H   H1768     1.0  0.74276  0.02887  0.24283  1.0000
  C   C995      1.0  0.75028  0.01235  0.24257  1.0000
  H   H1769     1.0  0.56182  0.34883  0.24064  1.0000
  C   C996      1.0  0.91962  0.25775  0.99321  1.0000
  C   C997      1.0  0.70259  0.27786  0.24605  1.0000
  H   H1770     1.0  0.76764  0.17450  0.35481  1.0000
  S   S217      1.0  0.88445  0.04494  0.47524  1.0000
  H   H1771     1.0  0.98543  0.13111  0.48857  1.0000
  C   C998      1.0  0.94626  0.08193  0.47751  1.0000
  Fe  Fe108     1.0  0.84856  0.05440  0.46830  1.0000
  S   S218      1.0  0.83709  0.04868  0.43473  1.0000
  H   H1772     1.0  0.74418  0.47182  0.31012  1.0000
  H   H1773     1.0  0.99940  0.20454  0.32099  1.0000
  H   H1774     1.0  0.52470  0.22421  0.37332  1.0000
  H   H1775     1.0  0.50677  0.25191  0.29953  1.0000
  C   C999      1.0  0.53414  0.22621  0.34020  1.0000
  S   S219      1.0  0.55361  0.37278  0.46550  1.0000
  Fe  Fe109     1.0  0.57749  0.34355  0.46086  1.0000
  S   S220      1.0  0.59292  0.33829  0.42835  1.0000
  H   H1776     1.0  0.97395  0.26164  0.31749  1.0000
  C   C1000     1.0  0.75109  0.09983  0.39529  1.0000
  S   S221      1.0  0.55798  0.31993  0.48162  1.0000
  Fe  Fe110     1.0  0.59881  0.26544  0.32255  1.0000
  S   S222      1.0  0.59629  0.23288  0.30561  1.0000
  S   S223      1.0  0.58497  0.26707  0.35597  1.0000
  Fe  Fe111     1.0  0.61957  0.28881  0.28443  1.0000
  S   S224      1.0  0.61830  0.25847  0.26497  1.0000
  H   H1777     1.0  0.97196  0.11529  0.42611  1.0000
  Fe  Fe112     1.0  0.58344  0.25414  0.27842  1.0000
  H   H1778     1.0  0.78695  0.16159  0.26300  1.0000
  Fe  Fe113     1.0  0.63121  0.23943  0.29333  1.0000
  S   S225      1.0  0.66450  0.21938  0.29107  1.0000
  S   S226      1.0  0.58407  0.28591  0.29606  1.0000
  S   S227      1.0  0.63420  0.27052  0.31208  1.0000
  Fe  Fe114     1.0  0.78510  0.09252  0.32147  1.0000
  S   S228      1.0  0.75258  0.07517  0.31667  1.0000
  S   S229      1.0  0.79908  0.10099  0.35357  1.0000
  Fe  Fe115     1.0  0.78963  0.10416  0.27445  1.0000
  S   S230      1.0  0.75725  0.08788  0.26725  1.0000
  H   H1779     1.0  0.76001  0.13598  0.36847  1.0000
  Fe  Fe116     1.0  0.74354  0.10483  0.29560  1.0000
  S   S231      1.0  0.70821  0.12058  0.29612  1.0000
  Fe  Fe117     1.0  0.76902  0.05981  0.28831  1.0000
  S   S232      1.0  0.77067  0.02243  0.28019  1.0000
  S   S233      1.0  0.77518  0.12282  0.30144  1.0000
  S   S234      1.0  0.80219  0.07552  0.29464  1.0000
  H   H1780     1.0  0.84170  0.04720  0.25732  1.0000
  H   H1781     1.0  0.74638  0.14381  0.40134  1.0000
  C   C1001     1.0  0.83234  0.15048  0.25920  1.0000
  C   C1002     1.0  0.72762  0.34481  0.26353  1.0000
  H   H1782     1.0  0.82639  0.14575  0.27460  1.0000
  H   H1783     1.0  0.75561  0.11945  0.34690  1.0000
  H   H1784     1.0  0.69703  0.31208  0.25237  1.0000
  C   C1003     1.0  0.67607  0.19169  0.29331  1.0000
  C   C1004     1.0  0.66295  0.17261  0.29445  1.0000
  C   C1005     1.0  0.67308  0.15110  0.29540  1.0000
  C   C1006     1.0  0.69645  0.14826  0.29539  1.0000
  C   C1007     1.0  0.70955  0.16735  0.29467  1.0000
  C   C1008     1.0  0.69945  0.18883  0.29344  1.0000
  H   H1785     1.0  0.64498  0.17442  0.29433  1.0000
  H   H1786     1.0  0.66269  0.13654  0.29598  1.0000
  H   H1787     1.0  0.72747  0.16558  0.29486  1.0000
  H   H1788     1.0  0.70981  0.20341  0.29268  1.0000
  C   C1009     1.0  0.93782  0.10503  0.42231  1.0000
  H   H1789     1.0  0.76422  0.16499  0.28114  1.0000
  Fe  Fe118     1.0  0.53563  0.34976  0.48784  1.0000
  H   H1790     1.0  0.69588  0.26386  0.27714  1.0000
  H   H1791     1.0  0.74249  0.33979  0.27269  1.0000
  H   H1792     1.0  0.57048  0.48278  0.43490  1.0000
  C   C1010     1.0  0.58994  0.31842  0.40834  1.0000
  C   C1011     1.0  0.57671  0.29950  0.41079  1.0000
  C   C1012     1.0  0.57537  0.28409  0.39461  1.0000
  C   C1013     1.0  0.58710  0.28737  0.37569  1.0000
  C   C1014     1.0  0.60012  0.30640  0.37314  1.0000
  C   C1015     1.0  0.60156  0.32173  0.38936  1.0000
  H   H1793     1.0  0.56771  0.29662  0.42524  1.0000
  H   H1794     1.0  0.56530  0.26944  0.39687  1.0000
  H   H1795     1.0  0.60930  0.30923  0.35878  1.0000
  H   H1796     1.0  0.61188  0.33624  0.38723  1.0000
  C   C1016     1.0  0.96843  0.08177  0.47000  1.0000
  C   C1017     1.0  0.98230  0.24575  0.31308  1.0000
  H   H1797     1.0  0.69269  0.48400  0.33018  1.0000
  N   N59       1.0  0.51884  0.24395  0.33070  1.0000
  H   H1798     1.0  0.54815  0.44958  0.46224  1.0000
  H   H1799     1.0  0.78135  0.19956  0.29406  1.0000
  H   H1800     1.0  0.77582  0.20279  0.25044  1.0000
  H   H1801     1.0  0.99699  0.22316  0.26720  1.0000
  H   H1802     1.0  0.71690  0.47872  0.34487  1.0000
  C   C1018     1.0  0.97464  0.11736  0.48547  1.0000
  H   H1803     1.0  0.69502  0.46860  0.29770  1.0000
  C   C1019     1.0  0.76435  0.00522  0.25874  1.0000
  C   C1020     1.0  0.82616  0.06369  0.41254  1.0000
  C   C1021     1.0  0.82288  0.08688  0.41195  1.0000
  C   C1022     1.0  0.81478  0.09791  0.39377  1.0000
  C   C1023     1.0  0.80946  0.08598  0.37598  1.0000
  C   C1024     1.0  0.81254  0.06277  0.37664  1.0000
  C   C1025     1.0  0.82094  0.05178  0.39472  1.0000
  H   H1804     1.0  0.82654  0.09634  0.42551  1.0000
  H   H1805     1.0  0.81246  0.11585  0.39355  1.0000
  H   H1806     1.0  0.80858  0.05327  0.36318  1.0000
  H   H1807     1.0  0.82336  0.03385  0.39491  1.0000
  H   H1808     1.0  0.81208  0.04615  0.26239  1.0000
  H   H1809     1.0  0.73570  0.43862  0.28754  1.0000
  C   C1026     1.0  0.73946  0.16007  0.24498  1.0000
  H   H1810     1.0  0.91863  0.11320  0.39539  1.0000
  C   C1027     1.0  0.67172  0.10470  0.34093  1.0000
  H   H1811     1.0  0.71971  0.11850  0.24988  1.0000
  H   H1812     1.0  0.93158  0.12070  0.42929  1.0000
  H   H1813     1.0  0.67309  0.28028  0.26624  1.0000
  H   H1814     1.0  0.71677  0.29900  0.26925  1.0000
  H   H1815     1.0  0.71052  0.45186  0.31614  1.0000
  H   H1816     1.0  0.81713  0.00619  0.27486  1.0000
  H   H1817     1.0  0.53345  0.28079  0.30133  1.0000
  H   H1818     1.0  0.84679  0.00837  0.27002  1.0000
  H   H1819     1.0  0.58081  0.46731  0.47239  1.0000
  H   H1820     1.0  0.73712  0.16602  0.38440  1.0000
  C   C1028     1.0  0.51596  0.23845  0.30812  1.0000
  H   H1821     1.0  0.96029  0.12318  0.40123  1.0000
  C   C1029     1.0  0.71606  0.13638  0.38335  1.0000
  H   H1822     1.0  0.93987  0.09199  0.43463  1.0000
  C   C1030     1.0  0.71188  0.30059  0.25263  1.0000
  H   H1823     1.0  0.76638  0.10878  0.39054  1.0000
  H   H1824     1.0  0.88682  0.12159  0.41496  1.0000
  H   H1825     1.0  0.92849  0.03492  0.44809  1.0000
  H   H1826     1.0  0.72462  0.37642  0.27908  1.0000
  H   H1827     1.0  0.90447  0.02185  0.43713  1.0000
  S   S235      1.0  0.59994  0.35336  0.48708  1.0000
  H   H1828     1.0  0.96869  0.09442  0.40692  1.0000
  H   H1829     1.0  0.52369  0.31292  0.33692  1.0000
  C   C1031     1.0  0.71905  0.44622  0.28424  1.0000
  C   C1032     1.0  0.88521  0.10495  0.42294  1.0000
  H   H1830     1.0  0.75047  0.19851  0.26459  1.0000
  H   H1831     1.0  0.87708  0.12958  0.47118  1.0000
  H   H1832     1.0  0.86739  0.10038  0.42157  1.0000
  H   H1833     1.0  0.85205  0.17762  0.26975  1.0000
  H   H1834     1.0  0.97458  0.06786  0.46111  1.0000
  H   H1835     1.0  0.88135  0.14380  0.44651  1.0000
  H   H1836     1.0  0.86465  0.10831  0.38639  1.0000
  S   S236      1.0  0.65694  0.48304  0.47936  1.0000
  H   H1837     1.0  0.59883  0.31292  0.24733  1.0000
  N   N60       1.0  0.89999  0.08786  0.41237  1.0000
  C   C1033     1.0  0.90350  0.06761  0.42652  1.0000
  H   H1838     1.0  0.93547  0.06817  0.47451  1.0000
  C   C1034     1.0  0.88792  0.08019  0.39342  1.0000
  H   H1839     1.0  0.89133  0.11083  0.37359  1.0000
  C   C1035     1.0  0.91853  0.04866  0.41776  1.0000
  C   C1036     1.0  0.87835  0.09888  0.37864  1.0000
  C   C1037     1.0  0.53306  0.30742  0.32293  1.0000
  C   C1038     1.0  0.86872  0.08902  0.35912  1.0000
  H   H1840     1.0  0.88703  0.06035  0.43083  1.0000
  H   H1841     1.0  0.91091  0.07210  0.44148  1.0000
  H   H1842     1.0  0.69320  0.08632  0.36160  1.0000
  H   H1843     1.0  0.87360  0.06948  0.39820  1.0000
  H   H1844     1.0  0.89908  0.06957  0.38376  1.0000
  H   H1845     1.0  0.93092  0.08633  0.39477  1.0000
  H   H1846     1.0  0.91136  0.04183  0.40354  1.0000
  H   H1847     1.0  0.93551  0.05478  0.41412  1.0000
  H   H1848     1.0  0.66672  0.12218  0.33674  1.0000
  H   H1849     1.0  0.53260  0.23745  0.30023  1.0000
  H   H1850     1.0  0.70682  0.12613  0.39518  1.0000
  C   C1039     1.0  0.98274  0.09946  0.47397  1.0000
  H   H1851     1.0  0.52382  0.28141  0.26644  1.0000
  C   C1040     1.0  0.57567  0.34080  0.24949  1.0000
  C   C1041     1.0  0.73412  0.09923  0.37743  1.0000
  H   H1852     1.0  0.99250  0.23850  0.34432  1.0000
  H   H1853     1.0  0.77701  0.15704  0.33390  1.0000
  H   H1854     1.0  0.50567  0.39321  0.49022  1.0000
  H   H1855     1.0  0.78788  0.25548  0.24978  1.0000
  C   C1042     1.0  0.93808  0.10001  0.48876  1.0000
  C   C1043     1.0  0.57950  0.49169  0.44693  1.0000
  C   C1044     1.0  0.92097  0.02924  0.43351  1.0000
  N   N61       1.0  0.54820  0.48296  0.47425  1.0000
  C   C1045     1.0  0.84688  0.16853  0.25641  1.0000
  C   C1046     1.0  0.57283  0.48398  0.46924  1.0000
  C   C1047     1.0  0.78384  0.27354  0.25111  1.0000
  H   H1856     1.0  0.55457  0.32653  0.27419  1.0000
  H   H1857     1.0  0.58125  0.49579  0.47941  1.0000
  C   C1048     1.0  0.64876  0.32823  0.25177  1.0000
  H   H1858     1.0  0.61442  0.49524  0.45500  1.0000
  H   H1859     1.0  0.71975  0.45533  0.26900  1.0000
  H   H1860     1.0  0.65366  0.36675  0.48560  1.0000
  C   C1049     1.0  0.51596  0.27095  0.25542  1.0000
  C   C1050     1.0  0.83128  0.01787  0.27383  1.0000
  C   C1051     1.0  0.63361  0.44425  0.47588  1.0000
  H   H1861     1.0  0.59005  0.35225  0.24882  1.0000
  C   C1052     1.0  0.00049  0.23954  0.32873  1.0000
  H   H1862     1.0  0.60819  0.46927  0.44300  1.0000
  H   H1863     1.0  0.60926  0.49477  0.42753  1.0000
  H   H1864     1.0  0.53060  0.32013  0.31025  1.0000
  C   C1053     1.0  0.71055  0.11664  0.35084  1.0000
  H   H1865     1.0  0.54411  0.24586  0.36725  1.0000
  H   H1866     1.0  0.88212  0.08111  0.34965  1.0000
  C   C1054     1.0  0.68482  0.50018  0.36801  1.0000
  H   H1867     1.0  0.65611  0.36177  0.26037  1.0000
  H   H1868     1.0  0.52701  0.20935  0.33913  1.0000
  H   H1869     1.0  0.69054  0.50168  0.28331  1.0000
  H   H1870     1.0  0.70475  0.13245  0.34301  1.0000
  H   H1871     1.0  0.55110  0.30639  0.32664  1.0000
  H   H1872     1.0  0.74915  0.26763  0.25611  1.0000
  H   H1873     1.0  0.53853  0.47032  0.44444  1.0000
  S   S237      1.0  0.84891  0.08536  0.48730  1.0000
  C   C1055     1.0  0.71184  0.46198  0.30145  1.0000
  H   H1874     1.0  0.74119  0.08810  0.36529  1.0000
  C   C1056     1.0  0.56845  0.33844  0.27225  1.0000
  H   H1875     1.0  0.90585  0.10990  0.45090  1.0000
  H   H1876     1.0  0.71869  0.10663  0.33844  1.0000
  C   C1057     1.0  0.55866  0.21305  0.37023  1.0000
  H   H1877     1.0  0.80471  0.19542  0.27632  1.0000
  C   C1058     1.0  0.96106  0.10976  0.41346  1.0000
  H   H1878     1.0  0.96956  0.23255  0.31278  1.0000
  H   H1879     1.0  0.74339  0.10790  0.40898  1.0000
  C   C1059     1.0  0.68921  0.10416  0.35800  1.0000
  H   H1880     1.0  0.73390  0.48713  0.28818  1.0000
  H   H1881     1.0  0.72996  0.17505  0.42072  1.0000
  H   H1882     1.0  0.76572  0.06701  0.38920  1.0000
  H   H1883     1.0  0.78695  0.27840  0.26733  1.0000
  C   C1060     1.0  0.79131  0.18696  0.28545  1.0000
  H   H1884     1.0  0.70683  0.43262  0.28313  1.0000
  C   C1061     1.0  0.71887  0.16323  0.41305  1.0000
  H   H1885     1.0  0.75422  0.30618  0.26463  1.0000
  C   C1062     1.0  0.68677  0.26820  0.26263  1.0000
  H   H1886     1.0  0.72859  0.16336  0.34971  1.0000
  H   H1887     1.0  0.79930  0.17521  0.29687  1.0000
  H   H1888     1.0  0.71363  0.15036  0.42478  1.0000
  C   C1063     1.0  0.52477  0.28481  0.31612  1.0000
  H   H1889     1.0  0.69791  0.13956  0.24722  1.0000
  C   C1064     1.0  0.92174  0.09793  0.40517  1.0000
  C   C1065     1.0  0.87509  0.12826  0.45413  1.0000
  S   S238      1.0  0.55446  0.24339  0.25751  1.0000
  H   H1890     1.0  0.65668  0.09566  0.34644  1.0000
  H   H1891     1.0  0.85606  0.07634  0.36331  1.0000
  H   H1892     1.0  0.74367  0.06685  0.40864  1.0000
  H   H1893     1.0  0.56201  0.21509  0.38699  1.0000
  H   H1894     1.0  0.61497  0.41397  0.47266  1.0000
  H   H1895     1.0  0.56274  0.35492  0.27795  1.0000
  H   H1896     1.0  0.73676  0.14742  0.32769  1.0000
  H   H1897     1.0  0.93200  0.01605  0.42698  1.0000
  H   H1898     1.0  0.68156  0.11172  0.37197  1.0000
  H   H1899     1.0  0.66957  0.49329  0.36122  1.0000
  H   H1900     1.0  0.71951  0.09049  0.38431  1.0000
  H   H1901     1.0  0.70309  0.14733  0.37584  1.0000
  H   H1902     1.0  0.65693  0.39635  0.48141  1.0000
  C   C1066     1.0  0.52747  0.25213  0.24814  1.0000
  C   C1067     1.0  0.53945  0.22865  0.36358  1.0000
  H   H1903     1.0  0.88200  0.09306  0.45522  1.0000
  H   H1904     1.0  0.70394  0.17266  0.40736  1.0000
  C   C1068     1.0  0.65837  0.38243  0.49309  1.0000
  C   C1069     1.0  0.75312  0.30296  0.24777  1.0000
  C   C1070     1.0  0.73136  0.15238  0.39502  1.0000
  H   H1905     1.0  0.67838  0.09647  0.32685  1.0000
  H   H1906     1.0  0.75906  0.18095  0.32855  1.0000
  C   C1071     1.0  0.76383  0.18973  0.25559  1.0000
  H   H1907     1.0  0.57410  0.21724  0.36135  1.0000
  C   C1072     1.0  0.77643  0.17402  0.27115  1.0000
  C   C1073     1.0  0.63552  0.46432  0.48645  1.0000
  S   S239      1.0  0.63346  0.32265  0.27487  1.0000
  H   H1908     1.0  0.55025  0.22562  0.33134  1.0000
  C   C1074     1.0  0.75818  0.07621  0.40235  1.0000
  H   H1909     1.0  0.51243  0.20171  0.31019  1.0000
  H   H1910     1.0  0.71132  0.37629  0.25417  1.0000
  C   C1075     1.0  0.76278  0.16716  0.33993  1.0000
  C   C1076     1.0  0.65793  0.34945  0.24848  1.0000
  C   C1077     1.0  0.60435  0.48747  0.44291  1.0000
  C   C1078     1.0  0.82693  0.03635  0.25747  1.0000
  H   H1911     1.0  0.74142  0.37745  0.25571  1.0000
  C   C1079     1.0  0.74217  0.15280  0.34316  1.0000
  H   H1912     1.0  0.58278  0.33265  0.28186  1.0000
  H   H1913     1.0  0.54855  0.26390  0.33131  1.0000
  C   C1080     1.0  0.61669  0.42907  0.48128  1.0000
  H   H1914     1.0  0.52705  0.27308  0.34827  1.0000
  H   H1915     1.0  0.51758  0.21139  0.27309  1.0000
  H   H1916     1.0  0.86050  0.10244  0.34956  1.0000
  C   C1081     1.0  0.72904  0.48072  0.30400  1.0000
  H   H1917     1.0  0.64500  0.44064  0.46321  1.0000
  H   H1918     1.0  0.71256  0.33876  0.27196  1.0000
  H   H1919     1.0  0.55447  0.19538  0.36769  1.0000
  H   H1920     1.0  0.98965  0.24816  0.29727  1.0000
  C   C1082     1.0  0.72617  0.37030  0.26300  1.0000
  H   H1921     1.0  0.83316  0.02537  0.28927  1.0000
  H   H1922     1.0  0.85707  0.12659  0.45088  1.0000
  Fe  Fe119     1.0  0.57478  0.38081  0.49280  1.0000
  C   C1083     1.0  0.53803  0.46538  0.46114  1.0000
  C   C1084     1.0  0.53015  0.26618  0.33258  1.0000
  H   H1923     1.0  0.67921  0.25277  0.25695  1.0000
  H   H1924     1.0  0.77084  0.07705  0.41473  1.0000
  C   C1085     1.0  0.88829  0.10795  0.44656  1.0000
  N   N62       1.0  0.72711  0.12139  0.36760  1.0000
  C   C1086     1.0  0.74715  0.13179  0.35708  1.0000
  H   H1925     1.0  0.74917  0.14760  0.25447  1.0000
  H   H1926     1.0  0.72632  0.16693  0.25548  1.0000
  N   N63       1.0  0.72252  0.49997  0.31775  1.0000
  H   H1927     1.0  0.51210  0.43084  0.44639  1.0000
  H   H1928     1.0  0.50328  0.47414  0.47024  1.0000
  C   C1087     1.0  0.70792  0.49204  0.33567  1.0000
  C   C1088     1.0  0.00114  0.23038  0.25211  1.0000
  H   H1929     1.0  0.51351  0.44792  0.48089  1.0000
  C   C1089     1.0  0.51366  0.45914  0.46685  1.0000
  S   S240      1.0  0.80701  0.11607  0.24459  1.0000
  H   H1930     1.0  0.75067  0.49638  0.33839  1.0000
  H   H1931     1.0  0.57086  0.30523  0.24633  1.0000
  H   H1932     1.0  0.69383  0.48676  0.37692  1.0000
  H   H1933     1.0  0.50678  0.28663  0.31292  1.0000
  H   H1934     1.0  0.51278  0.50234  0.44662  1.0000
  H   H1935     1.0  0.76710  0.50124  0.30098  1.0000
  C   C1090     1.0  0.95237  0.11769  0.49269  1.0000
  C   C1091     1.0  0.50339  0.21663  0.30389  1.0000
  C   C1092     1.0  0.50274  0.44661  0.44942  1.0000
  H   H1936     1.0  0.71589  0.26530  0.24319  1.0000
  C   C1093     1.0  0.75948  0.27805  0.24541  1.0000
  Fe  Fe120     1.0  0.83827  0.06392  0.51506  1.0000
  S   S241      1.0  0.81209  0.07873  0.53750  1.0000
  S   S242      1.0  0.87333  0.05542  0.52435  1.0000
  Fe  Fe121     1.0  0.62089  0.23802  0.67591  1.0000
  S   S243      1.0  0.62956  0.27446  0.67134  1.0000
  S   S244      1.0  0.64550  0.21095  0.66393  1.0000
  Fe  Fe122     1.0  0.57386  0.24979  0.69467  1.0000
  S   S245      1.0  0.58005  0.28656  0.69142  1.0000
  S   S246      1.0  0.54229  0.23234  0.70789  1.0000
  Fe  Fe123     1.0  0.59442  0.27957  0.65941  1.0000
  S   S247      1.0  0.58286  0.30389  0.63298  1.0000
  Fe  Fe124     1.0  0.61463  0.27865  0.70329  1.0000
  S   S248      1.0  0.62869  0.29519  0.73178  1.0000
  S   S249      1.0  0.58650  0.24299  0.66203  1.0000
  S   S250      1.0  0.60771  0.24202  0.70842  1.0000
  Fe  Fe125     1.0  0.77159  0.08025  0.66032  1.0000
  S   S251      1.0  0.74280  0.07218  0.68249  1.0000
  S   S252      1.0  0.78272  0.05935  0.63241  1.0000
  Fe  Fe126     1.0  0.79174  0.11284  0.69048  1.0000
  S   S253      1.0  0.76524  0.10653  0.71452  1.0000
  S   S254      1.0  0.81911  0.13865  0.69094  1.0000
  Fe  Fe127     1.0  0.76874  0.06992  0.70751  1.0000
  H   H1937     1.0  0.97232  0.22053  0.63374  1.0000
  Fe  Fe128     1.0  0.74091  0.10959  0.68812  1.0000
  S   S255      1.0  0.71073  0.13179  0.69781  1.0000
  S   S256      1.0  0.79732  0.07638  0.68532  1.0000
  S   S257      1.0  0.76761  0.11743  0.66416  1.0000
  Fe  Fe129     1.0  0.57842  0.33192  0.50825  1.0000
  S   S258      1.0  0.59308  0.30839  0.53356  1.0000
  S   S259      1.0  0.55482  0.35986  0.51550  1.0000
  C   C1094     1.0  0.64291  0.38706  0.51156  1.0000
  H   H1938     1.0  0.82560  0.01895  0.65632  1.0000
  H   H1939     1.0  0.99521  0.21159  0.60261  1.0000
  C   C1095     1.0  0.61047  0.38209  0.54570  1.0000
  C   C1096     1.0  0.54808  0.17979  0.66619  1.0000
  H   H1940     1.0  0.57434  0.49095  0.51193  1.0000
  H   H1941     1.0  0.71582  0.27111  0.72282  1.0000
  C   C1097     1.0  0.85601  0.17247  0.73202  1.0000
  H   H1942     1.0  0.70333  0.22622  0.72597  1.0000
  H   H1943     1.0  0.68697  0.45981  0.68685  1.0000
  H   H1944     1.0  0.98496  0.23599  0.67721  1.0000
  H   H1945     1.0  0.74260  0.14863  0.73817  1.0000
  H   H1946     1.0  0.58591  0.09958  0.68770  1.0000
  H   H1947     1.0  0.52423  0.39691  0.55227  1.0000
  C   C1098     1.0  0.63196  0.35156  0.56180  1.0000
  C   C1099     1.0  0.67268  0.39016  0.55633  1.0000
  C   C1100     1.0  0.83222  0.14654  0.71409  1.0000
  S   S260      1.0  0.58015  0.41554  0.50506  1.0000
  H   H1948     1.0  0.63295  0.17600  0.63518  1.0000
  C   C1101     1.0  0.51520  0.36235  0.55837  1.0000
  C   C1102     1.0  0.85066  0.07387  0.65725  1.0000
  H   H1949     1.0  0.82022  0.11898  0.73292  1.0000
  H   H1950     1.0  0.55466  0.27946  0.54252  1.0000
  C   C1103     1.0  0.58518  0.30424  0.60526  1.0000
  C   C1104     1.0  0.57573  0.32234  0.59376  1.0000
  C   C1105     1.0  0.57745  0.32362  0.57185  1.0000
  C   C1106     1.0  0.58881  0.30685  0.56108  1.0000
  C   C1107     1.0  0.59798  0.28863  0.57254  1.0000
  C   C1108     1.0  0.59620  0.28729  0.59444  1.0000
  H   H1951     1.0  0.56717  0.33555  0.60193  1.0000
  H   H1952     1.0  0.57032  0.33773  0.56331  1.0000
  H   H1953     1.0  0.60682  0.27554  0.56442  1.0000
  H   H1954     1.0  0.60356  0.27327  0.60297  1.0000
  C   C1109     1.0  0.60447  0.45323  0.50875  1.0000
  H   H1955     1.0  0.59088  0.37088  0.57306  1.0000
  H   H1956     1.0  0.54061  0.26211  0.52471  1.0000
  H   H1957     1.0  0.51496  0.36505  0.57538  1.0000
  C   C1110     1.0  0.66303  0.32229  0.71705  1.0000
  H   H1958     1.0  0.52402  0.32909  0.58271  1.0000
  C   C1111     1.0  0.65398  0.33919  0.56752  1.0000
  C   C1112     1.0  0.77275  0.01450  0.67376  1.0000
  H   H1959     1.0  0.65888  0.31715  0.70163  1.0000
  C   C1113     1.0  0.77056  0.34455  0.73634  1.0000
  C   C1114     1.0  0.66438  0.18988  0.67401  1.0000
  C   C1115     1.0  0.66396  0.18251  0.69483  1.0000
  C   C1116     1.0  0.67812  0.16471  0.70167  1.0000
  C   C1117     1.0  0.69334  0.15427  0.68800  1.0000
  C   C1118     1.0  0.69405  0.16190  0.66726  1.0000
  C   C1119     1.0  0.67953  0.17938  0.66032  1.0000
  H   H1960     1.0  0.65252  0.19034  0.70560  1.0000
  H   H1961     1.0  0.67731  0.15900  0.71774  1.0000
  H   H1962     1.0  0.70551  0.15410  0.65646  1.0000
  H   H1963     1.0  0.67998  0.18476  0.64415  1.0000
  H   H1964     1.0  0.65418  0.39984  0.68586  1.0000
  H   H1965     1.0  0.55822  0.49270  0.54666  1.0000
  C   C1120     1.0  0.76489  0.17124  0.70814  1.0000
  H   H1966     1.0  0.51426  0.18945  0.65769  1.0000
  C   C1121     1.0  0.80515  0.07356  0.56425  1.0000
  C   C1122     1.0  0.81426  0.05561  0.57589  1.0000
  C   C1123     1.0  0.80749  0.05177  0.59678  1.0000
  C   C1124     1.0  0.79185  0.06600  0.60650  1.0000
  C   C1125     1.0  0.78299  0.08412  0.59496  1.0000
  C   C1126     1.0  0.78956  0.08781  0.57401  1.0000
  H   H1967     1.0  0.82630  0.04453  0.56869  1.0000
  H   H1968     1.0  0.81430  0.03757  0.60542  1.0000
  H   H1969     1.0  0.77048  0.09483  0.60193  1.0000
  H   H1970     1.0  0.78222  0.10162  0.56516  1.0000
  H   H1971     1.0  0.95748  0.22934  0.66867  1.0000
  C   C1127     1.0  0.70316  0.45460  0.69395  1.0000
  C   C1128     1.0  0.73280  0.18969  0.72416  1.0000
  H   H1972     1.0  0.76783  0.20521  0.69386  1.0000
  N   N64       1.0  0.69914  0.44205  0.71429  1.0000
  C   C1129     1.0  0.73867  0.42435  0.70777  1.0000
  H   H1973     1.0  0.67597  0.38106  0.49814  1.0000
  Fe  Fe130     1.0  0.87095  0.02622  0.50318  1.0000
  C   C1130     1.0  0.51952  0.28765  0.53851  1.0000
  C   C1131     1.0  0.75663  0.40994  0.71837  1.0000
  H   H1974     1.0  0.96939  0.20592  0.72632  1.0000
  H   H1975     1.0  0.86880  0.07292  0.65365  1.0000
  H   H1976     1.0  0.62236  0.48398  0.51134  1.0000
  H   H1977     1.0  0.71124  0.44380  0.68227  1.0000
  H   H1978     1.0  0.55601  0.46468  0.53762  1.0000
  H   H1979     1.0  0.66106  0.36149  0.52919  1.0000
  C   C1132     1.0  0.62080  0.46878  0.50287  1.0000
  H   H1980     1.0  0.95350  0.30171  0.74237  1.0000
  H   H1981     1.0  0.88189  0.09157  0.56867  1.0000
  H   H1982     1.0  0.56527  0.40280  0.57483  1.0000
  H   H1983     1.0  0.74700  0.43917  0.70076  1.0000
  H   H1984     1.0  0.73205  0.41468  0.69493  1.0000
  C   C1133     1.0  0.72017  0.43171  0.72342  1.0000
  H   H1985     1.0  0.60114  0.18718  0.65756  1.0000
  H   H1986     1.0  0.54763  0.29018  0.51684  1.0000
  C   C1134     1.0  0.60209  0.43352  0.49780  1.0000
  H   H1987     1.0  0.81954  0.01004  0.54921  1.0000
  H   H1988     1.0  0.74328  0.02806  0.65852  1.0000
  H   H1989     1.0  0.67839  0.41519  0.72609  1.0000
  C   C1135     1.0  0.61763  0.15460  0.65917  1.0000
  H   H1990     1.0  0.50442  0.30148  0.62109  1.0000
  H   H1991     1.0  0.61211  0.13038  0.69424  1.0000
  H   H1992     1.0  0.70197  0.39520  0.70224  1.0000
  C   C1136     1.0  0.51458  0.29573  0.58894  1.0000
  H   H1993     1.0  0.50469  0.20770  0.72400  1.0000
  H   H1994     1.0  0.68043  0.37338  0.55826  1.0000
  H   H1995     1.0  0.51940  0.18999  0.68519  1.0000
  N   N65       1.0  0.83573  0.12484  0.62026  1.0000
  C   C1137     1.0  0.83895  0.11365  0.59971  1.0000
  C   C1138     1.0  0.81107  0.12773  0.62444  1.0000
  C   C1139     1.0  0.84716  0.14707  0.61917  1.0000
  C   C1140     1.0  0.84578  0.11101  0.63783  1.0000
  C   C1141     1.0  0.83826  0.08642  0.63981  1.0000
  C   C1142     1.0  0.86328  0.10695  0.59386  1.0000
  C   C1143     1.0  0.84228  0.16272  0.63759  1.0000
  C   C1144     1.0  0.79823  0.14298  0.60858  1.0000
  C   C1145     1.0  0.77411  0.14703  0.61557  1.0000
  C   C1146     1.0  0.98400  0.22041  0.64700  1.0000
  C   C1147     1.0  0.86428  0.09537  0.57300  1.0000
  C   C1148     1.0  0.85528  0.18432  0.63511  1.0000
  H   H1996     1.0  0.83289  0.12478  0.58678  1.0000
  H   H1997     1.0  0.82852  0.09857  0.59901  1.0000
  H   H1998     1.0  0.80276  0.11132  0.62445  1.0000
  H   H1999     1.0  0.80800  0.13397  0.64037  1.0000
  H   H2000     1.0  0.84306  0.15638  0.60447  1.0000
  H   H2001     1.0  0.86556  0.14451  0.61850  1.0000
  H   H2002     1.0  0.86431  0.11107  0.63685  1.0000
  H   H2003     1.0  0.84155  0.11855  0.65301  1.0000
  H   H2004     1.0  0.84139  0.07725  0.62533  1.0000
  H   H2005     1.0  0.82025  0.08579  0.64362  1.0000
  H   H2006     1.0  0.87385  0.12191  0.59241  1.0000
  H   H2007     1.0  0.87065  0.09526  0.60563  1.0000
  H   H2008     1.0  0.84718  0.15463  0.65258  1.0000
  H   H2009     1.0  0.82435  0.16743  0.63858  1.0000
  H   H2010     1.0  0.80598  0.15952  0.60650  1.0000
  H   H2011     1.0  0.79777  0.13503  0.59323  1.0000
  H   H2012     1.0  0.76522  0.15736  0.60360  1.0000
  H   H2013     1.0  0.76528  0.13099  0.61765  1.0000
  H   H2014     1.0  0.77351  0.15605  0.63038  1.0000
  H   H2015     1.0  0.61097  0.39820  0.53671  1.0000
  N   N66       1.0  0.58596  0.16927  0.68353  1.0000
  C   C1149     1.0  0.54200  0.27945  0.53011  1.0000
  H   H2016     1.0  0.85516  0.07943  0.57398  1.0000
  H   H2017     1.0  0.85688  0.10620  0.56050  1.0000
  H   H2018     1.0  0.84428  0.05665  0.65893  1.0000
  H   H2019     1.0  0.87350  0.18070  0.63481  1.0000
  H   H2020     1.0  0.85051  0.19352  0.62057  1.0000
  H   H2021     1.0  0.85146  0.19515  0.64846  1.0000
  C   C1150     1.0  0.76573  0.48926  0.73038  1.0000
  C   C1151     1.0  0.79576  0.19736  0.73148  1.0000
  C   C1152     1.0  0.59542  0.13068  0.70168  1.0000
  H   H2022     1.0  0.53177  0.48311  0.53784  1.0000
  H   H2023     1.0  0.56332  0.14680  0.69990  1.0000
  H   H2024     1.0  0.54368  0.16189  0.66669  1.0000
  C   C1153     1.0  0.68064  0.33714  0.71991  1.0000
  H   H2025     1.0  0.75498  0.15658  0.70371  1.0000
  H   H2026     1.0  0.66590  0.43235  0.70617  1.0000
  H   H2027     1.0  0.57310  0.13715  0.67572  1.0000
  C   C1154     1.0  0.72621  0.48396  0.67431  1.0000
  H   H2028     1.0  0.59753  0.13650  0.71772  1.0000
  H   H2029     1.0  0.55354  0.45823  0.49900  1.0000
  S   S261      1.0  0.77467  0.04422  0.73432  1.0000
  C   C1155     1.0  0.00157  0.16999  0.58544  1.0000
  C   C1156     1.0  0.51756  0.24104  0.72185  1.0000
  C   C1157     1.0  0.55593  0.49063  0.51313  1.0000
  C   C1158     1.0  0.59669  0.16970  0.66217  1.0000
  H   H2030     1.0  0.58487  0.16416  0.65034  1.0000
  H   H2031     1.0  0.72237  0.17669  0.71721  1.0000
  H   H2032     1.0  0.56537  0.39210  0.54895  1.0000
  H   H2033     1.0  0.63455  0.35345  0.52128  1.0000
  H   H2034     1.0  0.58002  0.41736  0.55414  1.0000
  H   H2035     1.0  0.74776  0.18792  0.68203  1.0000
  H   H2036     1.0  0.67654  0.39626  0.54029  1.0000
  H   H2037     1.0  0.61299  0.13679  0.66039  1.0000
  H   H2038     1.0  0.52520  0.27590  0.72277  1.0000
  C   C1159     1.0  0.81306  0.01339  0.69730  1.0000
  H   H2039     1.0  0.59943  0.09624  0.71244  1.0000
  C   C1160     1.0  0.57551  0.40061  0.56053  1.0000
  H   H2040     1.0  0.67526  0.46825  0.72194  1.0000
  S   S262      1.0  0.91004  0.10167  0.49768  1.0000
  H   H2041     1.0  0.70198  0.47123  0.73316  1.0000
  H   H2042     1.0  0.77980  0.19295  0.65874  1.0000
  H   H2043     1.0  0.84800  0.08235  0.67223  1.0000
  C   C1161     1.0  0.58732  0.10667  0.70338  1.0000
  N   N67       1.0  0.63386  0.37298  0.54904  1.0000
  H   H2044     1.0  0.78358  0.02251  0.66189  1.0000
  C   C1162     1.0  0.66849  0.39042  0.69282  1.0000
  H   H2045     1.0  0.98479  0.20326  0.65375  1.0000
  H   H2046     1.0  0.73335  0.20365  0.71244  1.0000
  C   C1163     1.0  0.68933  0.45867  0.72929  1.0000
  H   H2047     1.0  0.78206  0.16440  0.70991  1.0000
  H   H2048     1.0  0.58235  0.19911  0.72020  1.0000
  H   H2049     1.0  0.64754  0.40316  0.51825  1.0000
  H   H2050     1.0  0.77938  0.16425  0.66780  1.0000
  H   H2051     1.0  0.61704  0.16776  0.70052  1.0000
  H   H2052     1.0  0.73137  0.47336  0.70609  1.0000
  C   C1164     1.0  0.60205  0.17866  0.69870  1.0000
  H   H2053     1.0  0.71602  0.41706  0.73373  1.0000
  H   H2054     1.0  0.71237  0.48740  0.66333  1.0000
  H   H2055     1.0  0.63807  0.31776  0.59120  1.0000
  H   H2056     1.0  0.53642  0.31672  0.54994  1.0000
  H   H2057     1.0  0.62130  0.33973  0.55357  1.0000
  H   H2058     1.0  0.70663  0.48988  0.70169  1.0000
  H   H2059     1.0  0.80244  0.23100  0.74170  1.0000
  C   C1165     1.0  0.51324  0.26326  0.72709  1.0000
  H   H2060     1.0  0.62577  0.38911  0.50548  1.0000
  H   H2061     1.0  0.82901  0.04235  0.72625  1.0000
  H   H2062     1.0  0.68998  0.34333  0.70656  1.0000
  H   H2063     1.0  0.55440  0.18436  0.65039  1.0000
  H   H2064     1.0  0.53334  0.30743  0.61527  1.0000
  H   H2065     1.0  0.78521  0.14324  0.73785  1.0000
  H   H2066     1.0  0.66314  0.38267  0.70792  1.0000
  H   H2067     1.0  0.66481  0.33642  0.55376  1.0000
  H   H2068     1.0  0.59358  0.45650  0.52183  1.0000
  H   H2069     1.0  0.55683  0.18450  0.69802  1.0000
  H   H2070     1.0  0.69306  0.41269  0.68036  1.0000
  H   H2071     1.0  0.74253  0.01317  0.71706  1.0000
  C   C1166     1.0  0.56577  0.18474  0.68276  1.0000
  H   H2072     1.0  0.60614  0.39596  0.57704  1.0000
  Fe  Fe131     1.0  0.88401  0.07472  0.49563  1.0000
  H   H2073     1.0  0.52805  0.47368  0.50117  1.0000
  H   H2074     1.0  0.52996  0.28937  0.58117  1.0000
  H   H2075     1.0  0.79887  0.18328  0.67857  1.0000
  C   C1167     1.0  0.76453  0.18792  0.68921  1.0000
  H   H2076     1.0  0.53021  0.21168  0.66797  1.0000
  C   C1168     1.0  0.71715  0.47607  0.69548  1.0000
  C   C1169     1.0  0.78172  0.18166  0.67258  1.0000
  H   H2077     1.0  0.67349  0.37683  0.68226  1.0000
  C   C1170     1.0  0.64359  0.36761  0.52799  1.0000
  C   C1171     1.0  0.62801  0.15834  0.63757  1.0000
  C   C1172     1.0  0.69894  0.21201  0.73658  1.0000
  H   H2078     1.0  0.64173  0.30531  0.56605  1.0000
  H   H2079     1.0  0.72826  0.44342  0.73393  1.0000
  C   C1173     1.0  0.84528  0.16581  0.71388  1.0000
  H   H2080     1.0  0.70232  0.40580  0.56770  1.0000
  C   C1174     1.0  0.68413  0.40565  0.57115  1.0000
  C   C1175     1.0  0.64707  0.39009  0.56025  1.0000
  C   C1176     1.0  0.68818  0.40579  0.69585  1.0000
  H   H2081     1.0  0.82663  0.21286  0.73992  1.0000
  C   C1177     1.0  0.61062  0.18555  0.73662  1.0000
  H   H2082     1.0  0.83948  0.05130  0.70096  1.0000
  C   C1178     1.0  0.74985  0.01159  0.66420  1.0000
  H   H2083     1.0  0.64321  0.14763  0.63601  1.0000
  H   H2084     1.0  0.60868  0.19479  0.69246  1.0000
  H   H2085     1.0  0.77000  0.40577  0.70699  1.0000
  C   C1179     1.0  0.64940  0.31627  0.57750  1.0000
  H   H2086     1.0  0.53193  0.35585  0.55397  1.0000
  H   H2087     1.0  0.60079  0.37055  0.53611  1.0000
  H   H2088     1.0  0.62350  0.35452  0.57694  1.0000
  H   H2089     1.0  0.75347  0.35120  0.73355  1.0000
  H   H2090     1.0  0.00068  0.19964  0.70128  1.0000
  H   H2091     1.0  0.78018  0.34599  0.72154  1.0000
  H   H2092     1.0  0.77068  0.02620  0.68677  1.0000
  H   H2093     1.0  0.66309  0.34884  0.57906  1.0000
  H   H2094     1.0  0.68165  0.39979  0.58752  1.0000
  H   H2095     1.0  0.66528  0.30826  0.58271  1.0000
  H   H2096     1.0  0.79907  0.20164  0.71487  1.0000
  C   C1180     1.0  0.68613  0.34407  0.73987  1.0000
  H   H2097     1.0  0.64410  0.38824  0.57732  1.0000
  C   C1181     1.0  0.83716  0.01517  0.70541  1.0000
  C   C1182     1.0  0.68196  0.42438  0.71119  1.0000
  H   H2098     1.0  0.74938  0.39412  0.72447  1.0000
  H   H2099     1.0  0.81064  0.02738  0.68592  1.0000
  H   H2100     1.0  0.67743  0.42298  0.56923  1.0000
  H   H2101     1.0  0.61610  0.15404  0.62532  1.0000
  H   H2102     1.0  0.62201  0.19920  0.73183  1.0000
  C   C1183     1.0  0.59225  0.18324  0.72064  1.0000
  H   H2103     1.0  0.64107  0.40732  0.55603  1.0000
  C   C1184     1.0  0.76772  0.01578  0.74023  1.0000
  H   H2104     1.0  0.57096  0.20232  0.68013  1.0000
  H   H2105     1.0  0.52446  0.27902  0.61784  1.0000
  H   H2106     1.0  0.73782  0.47124  0.66781  1.0000
  C   C1185     1.0  0.59646  0.38675  0.56561  1.0000
  C   C1186     1.0  0.83002  0.13396  0.73257  1.0000
  C   C1187     1.0  0.98449  0.21536  0.72742  1.0000
  N   N68       1.0  0.75603  0.18048  0.72826  1.0000
  H   H2107     1.0  0.58098  0.16981  0.72614  1.0000
  H   H2108     1.0  0.97169  0.25291  0.65705  1.0000
  H   H2109     1.0  0.86613  0.18723  0.73167  1.0000
  C   C1188     1.0  0.52670  0.19356  0.66953  1.0000
  H   H2110     1.0  0.63061  0.15785  0.67068  1.0000
  H   H2111     1.0  0.57086  0.10600  0.71145  1.0000
  H   H2112     1.0  0.77917  0.48582  0.71952  1.0000
  H   H2113     1.0  0.51943  0.32200  0.52827  1.0000
  C   C1189     1.0  0.97398  0.23564  0.66347  1.0000
  C   C1190     1.0  0.65088  0.31409  0.73421  1.0000
  H   H2114     1.0  0.84715  0.17562  0.69964  1.0000
  C   C1191     1.0  0.57846  0.14604  0.68972  1.0000
  H   H2115     1.0  0.80162  0.01725  0.71042  1.0000
  H   H2116     1.0  0.51233  0.38358  0.53040  1.0000
  H   H2117     1.0  0.76153  0.31082  0.73143  1.0000
  H   H2118     1.0  0.84026  0.00314  0.71848  1.0000
  H   H2119     1.0  0.76415  0.41905  0.73125  1.0000
  H   H2120     1.0  0.85824  0.03921  0.71994  1.0000
  H   H2121     1.0  0.80292  0.18051  0.73453  1.0000
  C   C1192     1.0  0.55008  0.48222  0.53514  1.0000
  C   C1193     1.0  0.51133  0.38511  0.54754  1.0000
  S   S263      1.0  0.83496  0.03355  0.49536  1.0000
  C   C1194     1.0  0.70573  0.27673  0.73633  1.0000
  H   H2122     1.0  0.68729  0.20109  0.72856  1.0000
  C   C1195     1.0  0.51979  0.31290  0.54360  1.0000
  H   H2123     1.0  0.80036  0.01122  0.52799  1.0000
  C   C1196     1.0  0.84115  0.03844  0.71361  1.0000
  H   H2124     1.0  0.94618  0.13174  0.50137  1.0000
  C   C1197     1.0  0.54593  0.47525  0.49673  1.0000
  C   C1198     1.0  0.75158  0.00447  0.72933  1.0000
  H   H2125     1.0  0.76463  0.21544  0.73003  1.0000
  H   H2126     1.0  0.84957  0.01217  0.69284  1.0000
  C   C1199     1.0  0.77030  0.19883  0.73635  1.0000
  H   H2127     1.0  0.62038  0.16970  0.73840  1.0000
  H   H2128     1.0  0.69059  0.28555  0.73038  1.0000
  H   H2129     1.0  0.50689  0.28475  0.52649  1.0000
  H   H2130     1.0  0.98989  0.18089  0.57633  1.0000
  H   H2131     1.0  0.73553  0.49964  0.67610  1.0000
  H   H2132     1.0  0.51540  0.27682  0.55212  1.0000
  H   H2133     1.0  0.99447  0.18976  0.62158  1.0000
  H   H2134     1.0  0.99197  0.15927  0.59654  1.0000
  C   C1200     1.0  0.50865  0.31944  0.58033  1.0000
  H   H2135     1.0  0.84007  0.00710  0.62249  1.0000
  H   H2136     1.0  0.73798  0.00462  0.67594  1.0000
  C   C1201     1.0  0.51943  0.29604  0.61219  1.0000
  H   H2137     1.0  0.72260  0.30755  0.73982  1.0000
  S   S264      1.0  0.70820  0.36301  0.74259  1.0000
  C   C1202     1.0  0.00236  0.21185  0.71317  1.0000
  H   H2138     1.0  0.92239  0.22792  0.92206  1.0000
  C   C1203     1.0  0.91345  0.08636  0.92320  1.0000
  S   S265      1.0  0.94770  0.11167  0.96673  1.0000
  N   N69       1.0  0.90758  0.32296  0.79975  1.0000
  H   H2139     1.0  0.85743  0.04084  0.95511  1.0000
  Fe  Fe132     1.0  0.92831  0.14428  0.96583  1.0000
  S   S266      1.0  0.90618  0.15548  0.93815  1.0000
  C   C1204     1.0  0.92017  0.30589  0.78709  1.0000
  H   H2140     1.0  0.71865  0.50181  0.76998  1.0000
  Fe  Fe133     1.0  0.65543  0.42333  0.96547  1.0000
  H   H2141     1.0  0.90637  0.08125  0.90825  1.0000
  S   S267      1.0  0.68300  0.42023  0.94026  1.0000
  H   H2142     1.0  0.86435  0.12420  0.95389  1.0000
  C   C1205     1.0  0.86182  0.36626  0.78209  1.0000
  S   S268      1.0  0.61812  0.42458  0.96071  1.0000
  H   H2143     1.0  0.79149  0.01265  0.76501  1.0000
  H   H2144     1.0  0.75506  0.42844  0.86995  1.0000
  Fe  Fe134     1.0  0.90849  0.21674  0.81996  1.0000
  S   S269      1.0  0.91743  0.24817  0.80155  1.0000
  S   S270      1.0  0.92133  0.21398  0.85381  1.0000
  Fe  Fe135     1.0  0.88748  0.19746  0.78136  1.0000
  S   S271      1.0  0.89574  0.22715  0.76066  1.0000
  H   H2145     1.0  0.74596  0.16756  0.75868  1.0000
  Fe  Fe136     1.0  0.92966  0.22591  0.77581  1.0000
  H   H2146     1.0  0.93906  0.33029  0.81370  1.0000
  Fe  Fe137     1.0  0.88309  0.24754  0.78763  1.0000
  S   S272      1.0  0.86028  0.27759  0.77778  1.0000
  S   S273      1.0  0.92216  0.19461  0.79488  1.0000
  S   S274      1.0  0.87333  0.21777  0.80765  1.0000
  Fe  Fe138     1.0  0.76191  0.37407  0.80114  1.0000
  S   S275      1.0  0.72879  0.35690  0.80299  1.0000
  S   S276      1.0  0.79288  0.35334  0.81186  1.0000
  Fe  Fe139     1.0  0.73930  0.41990  0.78822  1.0000
  S   S277      1.0  0.70538  0.40448  0.78966  1.0000
  S   S278      1.0  0.73597  0.45794  0.78112  1.0000
  Fe  Fe140     1.0  0.71605  0.38739  0.81970  1.0000
  S   S279      1.0  0.69060  0.38484  0.84682  1.0000
  Fe  Fe141     1.0  0.72104  0.37567  0.77320  1.0000
  H   H2147     1.0  0.89935  0.24264  0.89407  1.0000
  S   S280      1.0  0.74932  0.40398  0.81928  1.0000
  S   S281      1.0  0.75478  0.39158  0.77035  1.0000
  C   C1206     1.0  0.74090  0.28095  0.75724  1.0000
  H   H2148     1.0  0.73053  0.48532  0.81721  1.0000
  H   H2149     1.0  0.67528  0.47529  0.82959  1.0000
  H   H2150     1.0  0.92677  0.09861  0.91979  1.0000
  H   H2151     1.0  0.67672  0.46467  0.90969  1.0000
  C   C1207     1.0  0.84026  0.29729  0.78768  1.0000
  C   C1208     1.0  0.83481  0.29861  0.80883  1.0000
  C   C1209     1.0  0.81992  0.31548  0.81585  1.0000
  C   C1210     1.0  0.80998  0.33114  0.80189  1.0000
  C   C1211     1.0  0.81523  0.32960  0.78074  1.0000
  C   C1212     1.0  0.83020  0.31284  0.77373  1.0000
  H   H2152     1.0  0.84235  0.28689  0.81985  1.0000
  H   H2153     1.0  0.81624  0.31656  0.83229  1.0000
  H   H2154     1.0  0.80843  0.34185  0.76985  1.0000
  H   H2155     1.0  0.83439  0.31223  0.75737  1.0000
  C   C1213     1.0  0.67405  0.46783  0.76496  1.0000
  H   H2156     1.0  0.55054  0.35826  0.90909  1.0000
  C   C1214     1.0  0.65657  0.32087  0.75418  1.0000
  H   H2157     1.0  0.83324  0.07192  0.94014  1.0000
  C   C1215     1.0  0.97264  0.21495  0.95514  1.0000
  H   H2158     1.0  0.77030  0.43883  0.84734  1.0000
  C   C1216     1.0  0.89682  0.22590  0.94650  1.0000
  C   C1217     1.0  0.53611  0.42228  0.97558  1.0000
  H   H2159     1.0  0.87590  0.24680  0.91144  1.0000
  C   C1218     1.0  0.68486  0.47691  0.89888  1.0000
  H   H2160     1.0  0.90337  0.10249  0.95115  1.0000
  H   H2161     1.0  0.85402  0.35714  0.76937  1.0000
  H   H2162     1.0  0.94828  0.32425  0.77356  1.0000
  C   C1219     1.0  0.72628  0.45561  0.84631  1.0000
  C   C1220     1.0  0.68456  0.41045  0.91420  1.0000
  C   C1221     1.0  0.70522  0.41077  0.90351  1.0000
  C   C1222     1.0  0.70739  0.40320  0.88294  1.0000
  C   C1223     1.0  0.68890  0.39509  0.87269  1.0000
  C   C1224     1.0  0.66824  0.39482  0.88336  1.0000
  C   C1225     1.0  0.66603  0.40250  0.90389  1.0000
  H   H2163     1.0  0.71973  0.41676  0.91128  1.0000
  H   H2164     1.0  0.72345  0.40319  0.87517  1.0000
  H   H2165     1.0  0.65380  0.38853  0.87570  1.0000
  H   H2166     1.0  0.65003  0.40207  0.91178  1.0000
  C   C1226     1.0  0.71899  0.29243  0.74954  1.0000
  C   C1227     1.0  0.98337  0.06258  0.95690  1.0000
  C   C1228     1.0  0.93395  0.31461  0.76820  1.0000
  H   H2167     1.0  0.64725  0.31461  0.76753  1.0000
  H   H2168     1.0  0.91896  0.31084  0.84294  1.0000
  H   H2169     1.0  0.68904  0.47678  0.76975  1.0000
  C   C1229     1.0  0.91183  0.17000  0.91391  1.0000
  C   C1230     1.0  0.89578  0.17012  0.89810  1.0000
  C   C1231     1.0  0.89881  0.18255  0.87925  1.0000
  C   C1232     1.0  0.91779  0.19554  0.87605  1.0000
  C   C1233     1.0  0.93394  0.19521  0.89180  1.0000
  C   C1234     1.0  0.93115  0.18236  0.91042  1.0000
  H   H2170     1.0  0.88078  0.16063  0.90042  1.0000
  H   H2171     1.0  0.88614  0.18261  0.86745  1.0000
  H   H2172     1.0  0.94871  0.20512  0.88962  1.0000
  H   H2173     1.0  0.94378  0.18239  0.92222  1.0000
  H   H2174     1.0  0.83719  0.11729  0.96256  1.0000
  H   H2175     1.0  0.80932  0.04116  0.97211  1.0000
  C   C1235     1.0  0.52644  0.35484  0.97592  1.0000
  C   C1236     1.0  0.82329  0.03443  0.96254  1.0000
  H   H2176     1.0  0.87940  0.23242  0.94832  1.0000
  H   H2177     1.0  0.86011  0.33978  0.80494  1.0000
  H   H2178     1.0  0.85154  0.15058  0.92643  1.0000
  N   N70       1.0  0.70864  0.47341  0.84209  1.0000
  H   H2179     1.0  0.88919  0.11223  0.92819  1.0000
  H   H2180     1.0  0.68085  0.43618  0.85019  1.0000
  H   H2181     1.0  0.75498  0.47682  0.85285  1.0000
  C   C1237     1.0  0.83920  0.07315  0.95636  1.0000
  C   C1238     1.0  0.90703  0.23710  0.92671  1.0000
  C   C1239     1.0  0.91012  0.29837  0.83382  1.0000
  H   H2182     1.0  0.82960  0.14315  0.90923  1.0000
  H   H2183     1.0  0.94859  0.23814  0.94238  1.0000
  S   S282      1.0  0.95577  0.16348  0.98000  1.0000
  C   C1240     1.0  0.69043  0.46431  0.82884  1.0000
  C   C1241     1.0  0.87616  0.08084  0.94163  1.0000
  C   C1242     1.0  0.69920  0.48301  0.86185  1.0000
  H   H2184     1.0  0.70102  0.48144  0.90570  1.0000
  C   C1243     1.0  0.84116  0.11594  0.92955  1.0000
  H   H2185     1.0  0.50691  0.29373  0.91091  1.0000
  H   H2186     1.0  0.87956  0.22778  0.98620  1.0000
  H   H2187     1.0  0.93637  0.20982  0.98159  1.0000
  H   H2188     1.0  0.69021  0.21869  0.75046  1.0000
  H   H2189     1.0  0.92327  0.06151  0.97004  1.0000
  Fe  Fe142     1.0  0.97433  0.13052  0.98272  1.0000
  C   C1244     1.0  0.74599  0.46248  0.85995  1.0000
  H   H2190     1.0  0.88722  0.27118  0.84055  1.0000
  H   H2191     1.0  0.96377  0.36204  0.80569  1.0000
  H   H2192     1.0  0.73996  0.46696  0.87568  1.0000
  H   H2193     1.0  0.74146  0.32694  0.76413  1.0000
  H   H2194     1.0  0.77666  0.44853  0.87276  1.0000
  H   H2195     1.0  0.87685  0.07204  0.98191  1.0000
  H   H2196     1.0  0.92215  0.26130  0.95968  1.0000
  H   H2197     1.0  0.80729  0.20899  0.76117  1.0000
  N   N71       1.0  0.85867  0.08868  0.95698  1.0000
  C   C1245     1.0  0.76298  0.44334  0.86262  1.0000
  C   C1246     1.0  0.74322  0.47734  0.76045  1.0000
  C   C1247     1.0  0.91507  0.04842  0.97895  1.0000
  H   H2198     1.0  0.93238  0.29635  0.79677  1.0000
  H   H2199     1.0  0.92103  0.07156  0.93134  1.0000
  H   H2200     1.0  0.91605  0.34532  0.82418  1.0000
  C   C1248     1.0  0.56380  0.37014  0.97123  1.0000
  H   H2201     1.0  0.51197  0.38726  0.93502  1.0000
  H   H2202     1.0  0.65682  0.41710  0.82729  1.0000
  H   H2203     1.0  0.50968  0.35080  0.91266  1.0000
  C   C1249     1.0  0.89099  0.23630  0.90850  1.0000
  S   S283      1.0  0.96455  0.23560  0.76226  1.0000
  C   C1250     1.0  0.50955  0.34075  0.89833  1.0000
  H   H2204     1.0  0.91090  0.25486  0.92883  1.0000
  H   H2205     1.0  0.90309  0.18262  0.97734  1.0000
  H   H2206     1.0  0.70812  0.29746  0.76271  1.0000
  C   C1251     1.0  0.68859  0.46637  0.87775  1.0000
  H   H2207     1.0  0.73326  0.44965  0.83127  1.0000
  H   H2208     1.0  0.88406  0.32139  0.82572  1.0000
  H   H2209     1.0  0.94174  0.28480  0.98388  1.0000
  H   H2210     1.0  0.64811  0.44599  0.82685  1.0000
  H   H2211     1.0  0.81806  0.03367  0.94610  1.0000
  H   H2212     1.0  0.78623  0.16159  0.75962  1.0000
  H   H2213     1.0  0.87625  0.19217  0.96797  1.0000
  C   C1252     1.0  0.89541  0.09714  0.93677  1.0000
  H   H2214     1.0  0.96963  0.20133  0.94424  1.0000
  C   C1253     1.0  0.55086  0.34873  0.89455  1.0000
  H   H2215     1.0  0.71410  0.18479  0.75354  1.0000
  H   H2216     1.0  0.88046  0.32176  0.77802  1.0000
  H   H2217     1.0  0.52013  0.45282  0.96555  1.0000
  H   H2218     1.0  0.69917  0.45131  0.88037  1.0000
  H   H2219     1.0  0.83915  0.13058  0.76481  1.0000
  H   H2220     1.0  0.85292  0.11024  0.91732  1.0000
  C   C1254     1.0  0.99606  0.17195  0.76288  1.0000
  H   H2221     1.0  0.78712  0.12183  0.77057  1.0000
  H   H2222     1.0  0.71919  0.44054  0.85404  1.0000
  C   C1255     1.0  0.90558  0.03042  0.96883  1.0000
  H   H2223     1.0  0.99321  0.17411  0.74596  1.0000
  C   C1256     1.0  0.77112  0.13030  0.76632  1.0000
  H   H2224     1.0  0.73115  0.50137  0.83992  1.0000
  H   H2225     1.0  0.54789  0.36040  0.88113  1.0000
  H   H2226     1.0  0.88323  0.29511  0.85685  1.0000
  H   H2227     1.0  0.76810  0.19985  0.75350  1.0000
  Fe  Fe143     1.0  0.61859  0.45460  0.98109  1.0000
  C   C1257     1.0  0.89543  0.31019  0.81692  1.0000
  H   H2228     1.0  0.95179  0.38824  0.79656  1.0000
  H   H2229     1.0  0.77871  0.35482  0.74801  1.0000
  H   H2230     1.0  0.73023  0.20992  0.75236  1.0000
  C   C1258     1.0  0.95184  0.22978  0.95756  1.0000
  N   N72       1.0  0.90923  0.22825  0.96658  1.0000
  H   H2231     1.0  0.86850  0.07670  0.92659  1.0000
  H   H2232     1.0  0.69666  0.42839  0.82788  1.0000
  H   H2233     1.0  0.88397  0.06495  0.94733  1.0000
  C   C1259     1.0  0.92906  0.36050  0.79628  1.0000
  H   H2234     1.0  0.90659  0.02969  0.95208  1.0000
  H   H2235     1.0  0.92373  0.32503  0.75735  1.0000
  C   C1260     1.0  0.89584  0.28443  0.84893  1.0000
  C   C1261     1.0  0.89423  0.01367  0.98016  1.0000
  H   H2236     1.0  0.92279  0.28690  0.82724  1.0000
  C   C1262     1.0  0.87332  0.34993  0.79732  1.0000
  H   H2237     1.0  0.82343  0.14705  0.93639  1.0000
  C   C1263     1.0  0.86881  0.08846  0.97832  1.0000
  H   H2238     1.0  0.66223  0.47985  0.75732  1.0000
  H   H2239     1.0  0.53477  0.32136  0.88076  1.0000
  C   C1264     1.0  0.99060  0.06516  0.97936  1.0000
  N   N73       1.0  0.75398  0.29375  0.77265  1.0000
  H   H2240     1.0  0.95495  0.28465  0.76577  1.0000
  C   C1265     1.0  0.77638  0.28234  0.77557  1.0000
  C   C1266     1.0  0.74088  0.29433  0.79284  1.0000
  C   C1267     1.0  0.75760  0.31747  0.76499  1.0000
  H   H2241     1.0  0.68597  0.49568  0.85828  1.0000
  H   H2242     1.0  0.50689  0.42833  0.93845  1.0000
  C   C1268     1.0  0.75375  0.30187  0.81212  1.0000
  C   C1269     1.0  0.77591  0.25801  0.78441  1.0000
  C   C1270     1.0  0.79935  0.24980  0.79026  1.0000
  H   H2243     1.0  0.73628  0.26440  0.76412  1.0000
  H   H2244     1.0  0.50585  0.31525  0.92920  1.0000
  C   C1271     1.0  0.73858  0.30241  0.83136  1.0000
  H   H2245     1.0  0.82729  0.01715  0.96824  1.0000
  H   H2246     1.0  0.76291  0.13629  0.78073  1.0000
  H   H2247     1.0  0.98505  0.08206  0.98405  1.0000
  H   H2248     1.0  0.78712  0.29239  0.78551  1.0000
  H   H2249     1.0  0.73370  0.27774  0.79680  1.0000
  H   H2250     1.0  0.72617  0.30582  0.79121  1.0000
  H   H2251     1.0  0.71223  0.49233  0.86995  1.0000
  H   H2252     1.0  0.76753  0.32660  0.77634  1.0000
  C   C1272     1.0  0.88829  0.19328  0.98082  1.0000
  H   H2253     1.0  0.60304  0.18963  0.75190  1.0000
  C   C1273     1.0  0.98626  0.23085  0.74320  1.0000
  S   S284      1.0  0.65581  0.45477  0.98449  1.0000
  H   H2254     1.0  0.76043  0.31878  0.80946  1.0000
  H   H2255     1.0  0.76791  0.29038  0.81589  1.0000
  H   H2256     1.0  0.76521  0.25640  0.79849  1.0000
  H   H2257     1.0  0.76950  0.24674  0.77256  1.0000
  H   H2258     1.0  0.81102  0.25140  0.77678  1.0000
  H   H2259     1.0  0.80580  0.25961  0.80319  1.0000
  H   H2260     1.0  0.79893  0.23198  0.79544  1.0000
  C   C1274     1.0  0.94842  0.37270  0.80579  1.0000
  C   C1275     1.0  0.91115  0.25269  0.97116  1.0000
  S   S285      1.0  0.50275  0.34305  0.96460  1.0000
  H   H2261     1.0  0.76959  0.45748  0.74701  1.0000
  C   C1276     1.0  0.84080  0.14056  0.75064  1.0000
  H   H2262     1.0  0.84876  0.04821  0.98089  1.0000
  H   H2263     1.0  0.74806  0.30849  0.84471  1.0000
  H   H2264     1.0  0.72408  0.31389  0.82874  1.0000
  H   H2265     1.0  0.73246  0.28545  0.83540  1.0000
  C   C1277     1.0  0.85391  0.15977  0.75049  1.0000
  C   C1278     1.0  0.53335  0.33051  0.89546  1.0000
  H   H2266     1.0  0.57739  0.37514  0.96103  1.0000
  C   C1279     1.0  0.83613  0.14071  0.92521  1.0000
  C   C1280     1.0  0.55917  0.43176  0.97894  1.0000
  C   C1281     1.0  0.89031  0.33440  0.78609  1.0000
  H   H2267     1.0  0.91457  0.37226  0.79580  1.0000
  C   C1282     1.0  0.84389  0.04880  0.96432  1.0000
  C   C1283     1.0  0.67408  0.33578  0.75702  1.0000
  C   C1284     1.0  0.93158  0.21618  0.96580  1.0000
  H   H2268     1.0  0.89548  0.20799  0.94264  1.0000
  H   H2269     1.0  0.67198  0.46143  0.87227  1.0000
  S   S286      1.0  0.86758  0.16668  0.77368  1.0000
  H   H2270     1.0  0.82466  0.07998  0.96517  1.0000
  H   H2271     1.0  0.93042  0.20097  0.95633  1.0000
  C   C1285     1.0  0.85071  0.11212  0.95167  1.0000
  H   H2272     1.0  0.90834  0.29338  0.78131  1.0000
  H   H2273     1.0  0.88586  0.21890  0.90595  1.0000
  C   C1286     1.0  0.71976  0.49216  0.82986  1.0000
  H   H2274     1.0  0.56772  0.34101  0.89271  1.0000
  H   H2275     1.0  0.93364  0.35696  0.78002  1.0000
  H   H2276     1.0  0.88252  0.10062  0.97890  1.0000
  H   H2277     1.0  0.69585  0.46440  0.81219  1.0000
  C   C1287     1.0  0.68336  0.43990  0.83350  1.0000
  H   H2278     1.0  0.67811  0.34096  0.77247  1.0000
  H   H2279     1.0  0.88458  0.29745  0.81016  1.0000
  C   C1288     1.0  0.66183  0.43427  0.82255  1.0000
  H   H2280     1.0  0.66442  0.43470  0.80549  1.0000
  H   H2281     1.0  0.84851  0.37576  0.79036  1.0000
  C   C1289     1.0  0.54409  0.36188  0.96290  1.0000
  C   C1290     1.0  0.92322  0.33913  0.80932  1.0000
  H   H2282     1.0  0.54269  0.36057  0.94628  1.0000
  H   H2283     1.0  0.96491  0.06320  0.95584  1.0000
  C   C1291     1.0  0.89518  0.21776  0.98380  1.0000
  H   H2284     1.0  0.53772  0.31884  0.90852  1.0000
  H   H2285     1.0  0.90662  0.27617  0.86087  1.0000
  H   H2286     1.0  0.97767  0.20759  0.97044  1.0000
  H   H2287     1.0  0.50719  0.35284  0.88510  1.0000
  H   H2288     1.0  0.82536  0.10683  0.92800  1.0000
  H   H2289     1.0  0.53592  0.41588  0.95959  1.0000
  H   H2290     1.0  0.78557  0.28139  0.76052  1.0000
  H   H2291     1.0  0.98321  0.18200  0.77123  1.0000
  H   H2292     1.0  0.89825  0.34427  0.77332  1.0000
  H   H2293     1.0  0.76031  0.11789  0.75914  1.0000
  H   H2294     1.0  0.69351  0.43833  0.75797  1.0000
  H   H2295     1.0  0.94431  0.37729  0.82201  1.0000
  Fe  Fe144     1.0  0.61620  0.40400  0.99056  1.0000
  H   H2296     1.0  0.87398  0.37826  0.77533  1.0000
  H   H2297     1.0  0.88131  0.35961  0.80951  1.0000
  H   H2298     1.0  0.66583  0.46081  0.77910  1.0000
  H   H2299     1.0  0.93022  0.28464  0.75003  1.0000
  C   C1292     1.0  0.77904  0.00412  0.75636  1.0000
  S   S287      1.0  0.59190  0.48210  0.97920  1.0000
  H   H2300     1.0  0.99397  0.15409  0.76741  1.0000
  C   C1293     1.0  0.94369  0.29520  0.75588  1.0000
  H   H2301     1.0  0.66539  0.43915  0.74819  1.0000
  H   H2302     1.0  0.98664  0.22505  0.94885  1.0000
  H   H2303     1.0  0.89461  0.26129  0.96943  1.0000
  H   H2304     1.0  0.56256  0.44544  0.96742  1.0000
  H   H2305     1.0  0.95605  0.24290  0.96858  1.0000
  H   H2306     1.0  0.99019  0.07650  0.94713  1.0000
  C   C1294     1.0  0.51757  0.44036  0.97850  1.0000
  H   H2307     1.0  0.57200  0.41843  0.97692  1.0000
  C   C1295     1.0  0.75384  0.16158  0.74413  1.0000
  C   C1296     1.0  0.56630  0.37087  0.99275  1.0000
  H   H2308     1.0  0.78736  0.31406  0.74481  1.0000
  H   H2309     1.0  0.67390  0.49199  0.89743  1.0000
  H   H2310     1.0  0.98170  0.03103  0.98584  1.0000
  H   H2311     1.0  0.53411  0.40784  0.98637  1.0000
  C   C1297     1.0  0.73170  0.49803  0.75887  1.0000
  C   C1298     1.0  0.68059  0.44906  0.75036  1.0000
  C   C1299     1.0  0.76027  0.47306  0.74597  1.0000
  C   C1300     1.0  0.77574  0.14986  0.75121  1.0000
  H   H2312     1.0  0.98981  0.04656  0.95075  1.0000
  H   H2313     1.0  0.50425  0.30236  0.87632  1.0000
  H   H2314     1.0  0.70026  0.26205  0.74583  1.0000
  H   H2315     1.0  0.91350  0.29368  0.99034  1.0000
  H   H2316     1.0  0.52134  0.44953  0.99281  1.0000
  H   H2317     1.0  0.69491  0.50253  0.80640  1.0000
  H   H2318     1.0  0.75133  0.27701  0.74336  1.0000
  C   C1301     1.0  0.80869  0.21363  0.74439  1.0000
  C   C1302     1.0  0.76984  0.32013  0.74367  1.0000
  C   C1303     1.0  0.71979  0.19878  0.74324  1.0000
  S   S288      1.0  0.87216  0.94707  0.01353  1.0000
  Fe  Fe145     1.0  0.83824  0.93197  0.01089  1.0000
  S   S289      1.0  0.80988  0.93148  0.03546  1.0000
  Fe  Fe146     1.0  0.56059  0.64980  0.01493  1.0000
  S   S290      1.0  0.55897  0.65778  0.04992  1.0000
  H   H2319     1.0  0.72379  0.71373  0.20192  1.0000
  Fe  Fe147     1.0  0.77718  0.87599  0.20207  1.0000
  S   S291      1.0  0.74331  0.89165  0.20786  1.0000
  H   H2320     1.0  0.52684  0.77350  0.11855  1.0000
  Fe  Fe148     1.0  0.78171  0.89784  0.15851  1.0000
  S   S292      1.0  0.74799  0.91444  0.16137  1.0000
  S   S293      1.0  0.80779  0.89966  0.13188  1.0000
  Fe  Fe149     1.0  0.75793  0.92320  0.19400  1.0000
  S   S294      1.0  0.74786  0.95861  0.20461  1.0000
  Fe  Fe150     1.0  0.73574  0.88158  0.17535  1.0000
  S   S295      1.0  0.70273  0.86614  0.16513  1.0000
  S   S296      1.0  0.79252  0.90812  0.19046  1.0000
  S   S297      1.0  0.76888  0.86450  0.17021  1.0000
  Fe  Fe151     1.0  0.61122  0.70645  0.19961  1.0000
  S   S298      1.0  0.59922  0.73987  0.21065  1.0000
  S   S299      1.0  0.61891  0.68083  0.22541  1.0000
  Fe  Fe152     1.0  0.60456  0.72009  0.15365  1.0000
  S   S300      1.0  0.59271  0.75479  0.16212  1.0000
  S   S301      1.0  0.61003  0.71223  0.11905  1.0000
  Fe  Fe153     1.0  0.62114  0.75455  0.18500  1.0000
  S   S302      1.0  0.64783  0.77940  0.19531  1.0000
  Fe  Fe154     1.0  0.57200  0.73728  0.18725  1.0000
  S   S303      1.0  0.53407  0.74392  0.19068  1.0000
  S   S304      1.0  0.63412  0.72084  0.17514  1.0000
  S   S305      1.0  0.58272  0.70280  0.17756  1.0000
  H   H2321     1.0  0.60664  0.57481  0.03278  1.0000
  H   H2322     1.0  0.52111  0.75320  0.04661  1.0000
  S   S306      1.0  0.91548  0.90077  0.01397  1.0000
  H   H2323     1.0  0.97524  0.80572  0.18780  1.0000
  H   H2324     1.0  0.64121  0.52030  0.07306  1.0000
  C   C1304     1.0  0.61951  0.53052  0.03631  1.0000
  C   C1305     1.0  0.51613  0.74228  0.21308  1.0000
  C   C1306     1.0  0.64531  0.66787  0.22955  1.0000
  C   C1307     1.0  0.66201  0.66822  0.21423  1.0000
  C   C1308     1.0  0.68269  0.65747  0.21800  1.0000
  H   H2325     1.0  0.65890  0.67659  0.19942  1.0000
  H   H2326     1.0  0.69550  0.65776  0.20605  1.0000
  C   C1309     1.0  0.75488  0.97616  0.22559  1.0000
  H   H2327     1.0  0.70259  0.91297  0.17459  1.0000
  C   C1310     1.0  0.78152  0.58417  0.20059  1.0000
  H   H2328     1.0  0.71889  0.57284  0.17450  1.0000
  S   S307      1.0  0.71386  0.63474  0.24143  1.0000
  H   H2329     1.0  0.71542  0.68626  0.23523  1.0000
  H   H2330     1.0  0.66643  0.73964  0.21530  1.0000
  H   H2331     1.0  0.68362  0.95205  0.20490  1.0000
  H   H2332     1.0  0.53478  0.69625  0.20693  1.0000
  H   H2333     1.0  0.78867  0.61145  0.22115  1.0000
  C   C1311     1.0  0.68833  0.84135  0.17324  1.0000
  C   C1312     1.0  0.69389  0.82907  0.19129  1.0000
  C   C1313     1.0  0.68110  0.81052  0.19785  1.0000
  C   C1314     1.0  0.66312  0.80321  0.18605  1.0000
  C   C1315     1.0  0.65783  0.81522  0.16774  1.0000
  C   C1316     1.0  0.67015  0.83428  0.16157  1.0000
  H   H2334     1.0  0.70791  0.83402  0.20034  1.0000
  H   H2335     1.0  0.68519  0.80174  0.21221  1.0000
  H   H2336     1.0  0.64405  0.81001  0.15848  1.0000
  H   H2337     1.0  0.66560  0.84356  0.14756  1.0000
  C   C1317     1.0  0.68593  0.92511  0.14721  1.0000
  H   H2338     1.0  0.70181  0.92825  0.13867  1.0000
  H   H2339     1.0  0.76865  0.57493  0.16176  1.0000
  H   H2340     1.0  0.76282  0.84714  0.00925  1.0000
  C   C1318     1.0  0.57434  0.67232  0.06881  1.0000
  C   C1319     1.0  0.56871  0.66924  0.09001  1.0000
  C   C1320     1.0  0.57987  0.68070  0.10559  1.0000
  C   C1321     1.0  0.59663  0.69579  0.10022  1.0000
  C   C1322     1.0  0.60238  0.69878  0.07904  1.0000
  C   C1323     1.0  0.59139  0.68712  0.06345  1.0000
  H   H2341     1.0  0.55569  0.65774  0.09442  1.0000
  H   H2342     1.0  0.57559  0.67779  0.12176  1.0000
  H   H2343     1.0  0.61533  0.71036  0.07461  1.0000
  H   H2344     1.0  0.59596  0.68976  0.04728  1.0000
  H   H2345     1.0  0.67347  0.93806  0.14230  1.0000
  C   C1324     1.0  0.79658  0.59567  0.21583  1.0000
  C   C1325     1.0  0.97272  0.86661  0.00143  1.0000
  C   C1326     1.0  0.80980  0.92287  0.06235  1.0000
  C   C1327     1.0  0.82902  0.91498  0.07249  1.0000
  C   C1328     1.0  0.82801  0.90803  0.09366  1.0000
  C   C1329     1.0  0.80784  0.90885  0.10512  1.0000
  C   C1330     1.0  0.78860  0.91662  0.09497  1.0000
  C   C1331     1.0  0.78960  0.92356  0.07378  1.0000
  H   H2346     1.0  0.84469  0.91427  0.06402  1.0000
  H   H2347     1.0  0.84306  0.90212  0.10123  1.0000
  H   H2348     1.0  0.77294  0.91736  0.10344  1.0000
  H   H2349     1.0  0.77459  0.92957  0.06619  1.0000
  C   C1332     1.0  0.81621  0.86936  0.04075  1.0000
  C   C1333     1.0  0.76903  0.96907  0.24169  1.0000
  C   C1334     1.0  0.64737  0.92118  0.21603  1.0000
  Fe  Fe155     1.0  0.88493  0.91590  0.99829  1.0000
  H   H2350     1.0  0.65684  0.93673  0.17956  1.0000
  H   H2351     1.0  0.52825  0.72552  0.03818  1.0000
  H   H2352     1.0  0.80382  0.89326  0.00663  1.0000
  H   H2353     1.0  0.82541  0.85473  0.04753  1.0000
  H   H2354     1.0  0.69202  0.71693  0.15100  1.0000
  N   N74       1.0  0.83563  0.83697  0.15595  1.0000
  C   C1335     1.0  0.82392  0.82880  0.17557  1.0000
  C   C1336     1.0  0.84304  0.86058  0.15911  1.0000
  C   C1337     1.0  0.81874  0.83804  0.13867  1.0000
  C   C1338     1.0  0.85491  0.82194  0.14968  1.0000
  C   C1339     1.0  0.86827  0.80994  0.16743  1.0000
  C   C1340     1.0  0.81173  0.80628  0.17401  1.0000
  C   C1341     1.0  0.82756  0.84497  0.11663  1.0000
  C   C1342     1.0  0.86182  0.86375  0.17487  1.0000
  C   C1343     1.0  0.86469  0.88844  0.17932  1.0000
  C   C1344     1.0  0.88917  0.79826  0.15892  1.0000
  C   C1345     1.0  0.80701  0.79562  0.19540  1.0000
  C   C1346     1.0  0.80875  0.84520  0.10083  1.0000
  H   H2355     1.0  0.81122  0.84134  0.18070  1.0000
  H   H2356     1.0  0.83560  0.82735  0.18875  1.0000
  H   H2357     1.0  0.84943  0.86837  0.14447  1.0000
  H   H2358     1.0  0.82845  0.87118  0.16381  1.0000
  H   H2359     1.0  0.80474  0.84964  0.14269  1.0000
  H   H2360     1.0  0.81119  0.82148  0.13667  1.0000
  H   H2361     1.0  0.84895  0.80831  0.13984  1.0000
  H   H2362     1.0  0.86683  0.83151  0.13963  1.0000
  H   H2363     1.0  0.85802  0.79697  0.17536  1.0000
  H   H2364     1.0  0.87359  0.82145  0.17943  1.0000
  H   H2365     1.0  0.79538  0.80915  0.16636  1.0000
  H   H2366     1.0  0.82154  0.79417  0.16474  1.0000
  H   H2367     1.0  0.84071  0.83315  0.11125  1.0000
  H   H2368     1.0  0.83452  0.86192  0.11607  1.0000
  H   H2369     1.0  0.85833  0.85504  0.18982  1.0000
  H   H2370     1.0  0.87789  0.85736  0.16844  1.0000
  H   H2371     1.0  0.86863  0.89805  0.16476  1.0000
  H   H2372     1.0  0.84922  0.89550  0.18641  1.0000
  H   H2373     1.0  0.87856  0.89030  0.19036  1.0000
  H   H2374     1.0  0.89811  0.78947  0.17185  1.0000
  H   H2375     1.0  0.88468  0.78577  0.14734  1.0000
  H   H2376     1.0  0.90059  0.81062  0.15156  1.0000
  H   H2377     1.0  0.79582  0.80665  0.20456  1.0000
  H   H2378     1.0  0.79863  0.77944  0.19364  1.0000
  H   H2379     1.0  0.82275  0.79249  0.20400  1.0000
  H   H2380     1.0  0.81538  0.85048  0.08534  1.0000
  H   H2381     1.0  0.80156  0.82835  0.09969  1.0000
  H   H2382     1.0  0.79540  0.85731  0.10530  1.0000
  H   H2383     1.0  0.68717  0.69512  0.17020  1.0000
  C   C1347     1.0  0.67997  0.89543  0.21031  1.0000
  C   C1348     1.0  0.83386  0.85437  0.22671  1.0000
  H   H2384     1.0  0.69656  0.89379  0.20279  1.0000
  C   C1349     1.0  0.63322  0.55117  0.04192  1.0000
  H   H2385     1.0  0.66419  0.51433  0.04505  1.0000
  H   H2386     1.0  0.99594  0.79859  0.20701  1.0000
  C   C1350     1.0  0.62484  0.57213  0.03022  1.0000
  C   C1351     1.0  0.68989  0.92585  0.17058  1.0000
  H   H2387     1.0  0.66994  0.88270  0.20257  1.0000
  S   S308      1.0  0.78805  0.84962  0.22611  1.0000
  H   H2388     1.0  0.70896  0.59519  0.20786  1.0000
  H   H2389     1.0  0.67724  0.85274  0.22853  1.0000
  C   C1352     1.0  0.99639  0.75103  0.21685  1.0000
  H   H2390     1.0  0.61727  0.53043  0.01918  1.0000
  H   H2391     1.0  0.60247  0.53366  0.04268  1.0000
  H   H2392     1.0  0.65114  0.54900  0.03803  1.0000
  H   H2393     1.0  0.63160  0.55424  0.05880  1.0000
  C   C1353     1.0  0.70560  0.71720  0.20375  1.0000
  H   H2394     1.0  0.99871  0.89855  0.02729  1.0000
  H   H2395     1.0  0.73730  0.74856  0.19930  1.0000
  H   H2396     1.0  0.78506  0.98638  0.17933  1.0000
  H   H2397     1.0  0.58035  0.50513  0.03757  1.0000
  H   H2398     1.0  0.63364  0.58697  0.03566  1.0000
  H   H2399     1.0  0.62824  0.57068  0.01333  1.0000
  H   H2400     1.0  0.68796  0.56316  0.24051  1.0000
  C   C1354     1.0  0.53109  0.68610  0.14612  1.0000
  H   H2401     1.0  0.63575  0.75147  0.23918  1.0000
  H   H2402     1.0  0.70631  0.86048  0.22710  1.0000
  H   H2403     1.0  0.69579  0.76277  0.20577  1.0000
  H   H2404     1.0  0.74814  0.55611  0.15329  1.0000
  N   N75       1.0  0.53491  0.73963  0.11009  1.0000
  C   C1355     1.0  0.53049  0.71598  0.11739  1.0000
  C   C1356     1.0  0.73464  0.78368  0.20430  1.0000
  C   C1357     1.0  0.55973  0.74261  0.10816  1.0000
  H   H2405     1.0  0.69204  0.51392  0.01509  1.0000
  H   H2406     1.0  0.70371  0.97252  0.23340  1.0000
  C   C1358     1.0  0.53900  0.70931  0.13937  1.0000
  C   C1359     1.0  0.56744  0.76552  0.09918  1.0000
  C   C1360     1.0  0.53381  0.73044  0.07091  1.0000
  C   C1361     1.0  0.99501  0.93083  0.01106  1.0000
  H   H2407     1.0  0.51238  0.71240  0.11673  1.0000
  H   H2408     1.0  0.53350  0.71217  0.07407  1.0000
  C   C1362     1.0  0.59280  0.76590  0.09675  1.0000
  H   H2409     1.0  0.53856  0.70395  0.10673  1.0000
  C   C1363     1.0  0.68242  0.94352  0.23704  1.0000
  C   C1364     1.0  0.71905  0.84475  0.99838  1.0000
  H   H2410     1.0  0.99472  0.82646  0.19595  1.0000
  H   H2411     1.0  0.56732  0.72934  0.09857  1.0000
  H   H2412     1.0  0.56769  0.74044  0.12360  1.0000
  H   H2413     1.0  0.53612  0.75633  0.13953  1.0000
  H   H2414     1.0  0.53669  0.67346  0.13480  1.0000
  H   H2415     1.0  0.75477  0.90682  0.99688  1.0000
  H   H2416     1.0  0.60891  0.90648  0.23692  1.0000
  H   H2417     1.0  0.55747  0.70895  0.13938  1.0000
  H   H2418     1.0  0.51263  0.68600  0.14750  1.0000
  H   H2419     1.0  0.56249  0.77910  0.10974  1.0000
  H   H2420     1.0  0.56028  0.76928  0.08368  1.0000
  H   H2421     1.0  0.55131  0.73514  0.06760  1.0000
  C   C1365     1.0  0.53810  0.67897  0.21290  1.0000
  C   C1366     1.0  0.74417  0.58963  0.14138  1.0000
  H   H2422     1.0  0.78923  0.85046  0.03035  1.0000
  C   C1367     1.0  0.81563  0.84114  0.23205  1.0000
  C   C1368     1.0  0.75064  0.57319  0.15894  1.0000
  C   C1369     1.0  0.68719  0.57663  0.22835  1.0000
  H   H2423     1.0  0.86952  0.85784  0.22864  1.0000
  C   C1370     1.0  0.71449  0.72225  0.24036  1.0000
  S   S309      1.0  0.54789  0.61539  0.00825  1.0000
  C   C1371     1.0  0.52374  0.74360  0.08941  1.0000
  H   H2424     1.0  0.59871  0.75276  0.08605  1.0000
  H   H2425     1.0  0.59799  0.78238  0.09026  1.0000
  H   H2426     1.0  0.60090  0.76307  0.11205  1.0000
  H   H2427     1.0  0.68004  0.90838  0.14299  1.0000
  H   H2428     1.0  0.71542  0.70322  0.16363  1.0000
  H   H2429     1.0  0.74728  0.60704  0.14588  1.0000
  N   N76       1.0  0.74315  0.56476  0.19848  1.0000
  H   H2430     1.0  0.76215  0.56991  0.22610  1.0000
  H   H2431     1.0  0.70346  0.93092  0.21187  1.0000
  H   H2432     1.0  0.72009  0.58834  0.23315  1.0000
  C   C1372     1.0  0.75406  0.54233  0.19460  1.0000
  C   C1373     1.0  0.69802  0.70939  0.16590  1.0000
  H   H2433     1.0  0.80001  0.58454  0.22956  1.0000
  C   C1374     1.0  0.62965  0.90457  0.20891  1.0000
  H   H2434     1.0  0.80963  0.99536  0.20787  1.0000
  H   H2435     1.0  0.98834  0.81078  0.14956  1.0000
  H   H2436     1.0  0.65990  0.90738  0.17633  1.0000
  H   H2437     1.0  0.00199  0.94762  0.01250  1.0000
  H   H2438     1.0  0.73255  0.72244  0.23626  1.0000
  H   H2439     1.0  0.94955  0.99194  0.04085  1.0000
  H   H2440     1.0  0.97853  0.98574  0.04666  1.0000
  C   C1375     1.0  0.66795  0.92205  0.18315  1.0000
  H   H2441     1.0  0.55641  0.67664  0.21457  1.0000
  C   C1376     1.0  0.69691  0.72689  0.18271  1.0000
  H   H2442     1.0  0.52361  0.76167  0.08490  1.0000
  H   H2443     1.0  0.79061  0.56906  0.19537  1.0000
  C   C1377     1.0  0.73621  0.57715  0.17875  1.0000
  C   C1378     1.0  0.96610  0.98744  0.03406  1.0000
  H   H2444     1.0  0.53817  0.68142  0.16152  1.0000
  C   C1379     1.0  0.75191  0.50512  0.17660  1.0000
  C   C1380     1.0  0.68700  0.64657  0.23719  1.0000
  H   H2445     1.0  0.72738  0.53170  0.17377  1.0000
  H   H2446     1.0  0.70708  0.74123  0.17728  1.0000
  H   H2447     1.0  0.64081  0.93843  0.21275  1.0000
  H   H2448     1.0  0.53307  0.72105  0.15125  1.0000
  C   C1381     1.0  0.67614  0.73024  0.22736  1.0000
  N   N77       1.0  0.67031  0.91859  0.20640  1.0000
  H   H2449     1.0  0.75102  0.59494  0.21457  1.0000
  H   H2450     1.0  0.72696  0.55005  0.22565  1.0000
  H   H2451     1.0  0.67942  0.73287  0.18405  1.0000
  H   H2452     1.0  0.98724  0.86094  0.00997  1.0000
  C   C1382     1.0  0.75880  0.57851  0.21086  1.0000
  C   C1383     1.0  0.74555  0.99791  0.22623  1.0000
  H   H2453     1.0  0.83124  0.87013  0.21844  1.0000
  H   H2454     1.0  0.72929  0.79548  0.21647  1.0000
  C   C1384     1.0  0.98104  0.75113  0.23375  1.0000
  C   C1385     1.0  0.85549  0.84738  0.23254  1.0000
  H   H2455     1.0  0.82860  0.88169  0.03506  1.0000
  C   C1386     1.0  0.95538  0.87824  0.01156  1.0000
  C   C1387     1.0  0.73143  0.75954  0.21186  1.0000
  H   H2456     1.0  0.53222  0.66696  0.20145  1.0000
  H   H2457     1.0  0.67005  0.71286  0.22666  1.0000
  H   H2458     1.0  0.76128  0.51087  0.16253  1.0000
  C   C1388     1.0  0.68569  0.93621  0.21421  1.0000
  H   H2459     1.0  0.71006  0.55137  0.20317  1.0000
  H   H2460     1.0  0.71066  0.85648  0.00915  1.0000
  H   H2461     1.0  0.99021  0.75218  0.20115  1.0000
  H   H2462     1.0  0.78045  0.89192  0.02366  1.0000
  C   C1389     1.0  0.52436  0.74136  0.23332  1.0000
  C   C1390     1.0  0.73857  0.52446  0.18588  1.0000
  C   C1391     1.0  0.72262  0.56073  0.21182  1.0000
  H   H2463     1.0  0.65305  0.52588  0.00825  1.0000
  H   H2464     1.0  0.76110  0.53514  0.20931  1.0000
  C   C1392     1.0  0.99268  0.80857  0.19253  1.0000
  H   H2465     1.0  0.75434  0.58608  0.12728  1.0000
  H   H2466     1.0  0.67969  0.59183  0.23532  1.0000
  H   H2467     1.0  0.72795  0.51742  0.19861  1.0000
  H   H2468     1.0  0.75252  0.78648  0.20063  1.0000
  H   H2469     1.0  0.69818  0.70045  0.20615  1.0000
  H   H2470     1.0  0.60093  0.92596  0.21617  1.0000
  C   C1393     1.0  0.71054  0.58185  0.22006  1.0000
  H   H2471     1.0  0.72489  0.78726  0.18999  1.0000
  H   H2472     1.0  0.74784  0.87208  0.01526  1.0000
  H   H2473     1.0  0.72629  0.58801  0.13752  1.0000
  H   H2474     1.0  0.99894  0.81802  0.11308  1.0000
  H   H2475     1.0  0.95668  0.88156  0.02792  1.0000
  H   H2476     1.0  0.54218  0.74141  0.23571  1.0000
  C   C1394     1.0  0.80152  0.86193  0.02312  1.0000
  C   C1395     1.0  0.70673  0.75528  0.21806  1.0000
  H   H2477     1.0  0.77898  0.59598  0.18722  1.0000
  H   H2478     1.0  0.76867  0.54390  0.18402  1.0000
  H   H2479     1.0  0.69700  0.94236  0.17373  1.0000
  H   H2480     1.0  0.73546  0.59546  0.18135  1.0000
  C   C1396     1.0  0.52573  0.75626  0.12529  1.0000
  C   C1397     1.0  0.65215  0.50414  0.03657  1.0000
  H   H2481     1.0  0.96333  0.75243  0.23091  1.0000
  N   N78       1.0  0.70081  0.73124  0.22242  1.0000
  H   H2482     1.0  0.70329  0.76547  0.23191  1.0000
  H   H2483     1.0  0.81224  0.85248  0.01214  1.0000
  H   H2484     1.0  0.74235  0.75657  0.22549  1.0000
  C   C1398     1.0  0.93639  0.88562  0.00067  1.0000
  H   H2485     1.0  0.63484  0.88708  0.21270  1.0000
  C   C1399     1.0  0.79003  0.88226  0.01184  1.0000
  H   H2486     1.0  0.81272  0.59972  0.20812  1.0000
  H   H2487     1.0  0.64789  0.91947  0.23319  1.0000
  H   H2488     1.0  0.98893  0.99942  0.01039  1.0000
  H   H2489     1.0  0.72502  0.82973  0.00733  1.0000
  H   H2490     1.0  0.96487  0.97099  0.02676  1.0000
  H   H2491     1.0  0.80579  0.87694  0.05314  1.0000
  H   H2492     1.0  0.67634  0.57146  0.21558  1.0000
  H   H2493     1.0  0.62680  0.90630  0.19196  1.0000
  H   H2494     1.0  0.97689  0.93212  0.01461  1.0000
  C   C1400     1.0  0.75641  0.86313  0.00237  1.0000
  C   C1401     1.0  0.52068  0.73518  0.05105  1.0000
  H   H2495     1.0  0.66695  0.95390  0.23836  1.0000
  H   H2496     1.0  0.59488  0.89674  0.21442  1.0000
  H   H2497     1.0  0.81068  0.99772  0.16906  1.0000
  S   S310      1.0  0.85132  0.90000  0.99743  1.0000
  H   H2498     1.0  0.93926  0.96565  0.00056  1.0000
  C   C1402     1.0  0.60726  0.90879  0.21982  1.0000
  H   H2499     1.0  0.77627  0.95242  0.24161  1.0000
  N   N79       1.0  0.77533  0.87703  0.99375  1.0000
  H   H2500     1.0  0.61255  0.51454  0.07396  1.0000
  H   H2501     1.0  0.50586  0.73911  0.09061  1.0000
  C   C1403     1.0  0.65635  0.50821  0.01299  1.0000
  H   H2502     1.0  0.69690  0.89762  0.24002  1.0000
  C   C1404     1.0  0.69012  0.86341  0.23521  1.0000
  C   C1405     1.0  0.68325  0.88803  0.23328  1.0000
  H   H2503     1.0  0.88461  0.00172  0.01071  1.0000
  N   N80       1.0  0.62859  0.50830  0.04423  1.0000
  C   C1406     1.0  0.62877  0.50827  0.06766  1.0000
  C   C1407     1.0  0.52662  0.67508  0.23397  1.0000
  H   H2504     1.0  0.53048  0.65770  0.23932  1.0000
  H   H2505     1.0  0.00178  0.92236  0.04341  1.0000
  H   H2506     1.0  0.50310  0.72999  0.05314  1.0000
  C   C1408     1.0  0.79522  0.00169  0.17797  1.0000
  H   H2507     1.0  0.50411  0.77076  0.16119  1.0000
  H   H2508     1.0  0.66779  0.89025  0.24261  1.0000
  H   H2509     1.0  0.67969  0.51335  0.37898  1.0000
  Fe  Fe156     1.0  0.92665  0.87513  0.47813  1.0000
  S   S311      1.0  0.95748  0.86157  0.46221  1.0000
  S   S312      1.0  0.91128  0.90733  0.46468  1.0000
  Fe  Fe157     1.0  0.94063  0.82820  0.46525  1.0000
  S   S313      1.0  0.94148  0.80180  0.43965  1.0000
  C   C1409     1.0  0.74355  0.50880  0.32697  1.0000
  C   C1410     1.0  0.55302  0.62102  0.47989  1.0000
  H   H2510     1.0  0.98916  0.82386  0.29374  1.0000
  C   C1411     1.0  0.84083  0.81376  0.24867  1.0000
  S   S314      1.0  0.63501  0.53926  0.45578  1.0000
  C   C1412     1.0  0.67028  0.64612  0.25249  1.0000
  C   C1413     1.0  0.64321  0.73963  0.25082  1.0000
  Fe  Fe158     1.0  0.66142  0.56482  0.46041  1.0000
  S   S315      1.0  0.68422  0.58319  0.43666  1.0000
  H   H2511     1.0  0.77338  0.61805  0.46402  1.0000
  Fe  Fe159     1.0  0.72557  0.58962  0.31218  1.0000
  S   S316      1.0  0.76060  0.57634  0.30732  1.0000
  S   S317      1.0  0.70281  0.57486  0.33823  1.0000
  Fe  Fe160     1.0  0.72635  0.61403  0.26938  1.0000
  S   S318      1.0  0.76119  0.60150  0.26247  1.0000
  C   C1414     1.0  0.00044  0.80941  0.29736  1.0000
  Fe  Fe161     1.0  0.74995  0.56798  0.27490  1.0000
  C   C1415     1.0  0.85904  0.82709  0.24355  1.0000
  Fe  Fe162     1.0  0.76895  0.61112  0.29499  1.0000
  S   S319      1.0  0.80291  0.62655  0.30273  1.0000
  S   S320      1.0  0.71479  0.58002  0.27999  1.0000
  S   S321      1.0  0.73436  0.62501  0.30173  1.0000
  Fe  Fe163     1.0  0.89450  0.78867  0.27132  1.0000
  S   S322      1.0  0.90275  0.75385  0.26102  1.0000
  H   H2512     1.0  0.87340  0.89412  0.36971  1.0000
  Fe  Fe164     1.0  0.90553  0.77790  0.31740  1.0000
  S   S323      1.0  0.91425  0.74208  0.31051  1.0000
  S   S324      1.0  0.90373  0.79917  0.34667  1.0000
  Fe  Fe165     1.0  0.93272  0.75585  0.28184  1.0000
  S   S325      1.0  0.97006  0.74764  0.27631  1.0000
  Fe  Fe166     1.0  0.88370  0.74228  0.28999  1.0000
  S   S326      1.0  0.85185  0.72100  0.28992  1.0000
  S   S327      1.0  0.92541  0.79135  0.29024  1.0000
  S   S328      1.0  0.87414  0.77740  0.29872  1.0000
  H   H2513     1.0  0.54806  0.58725  0.42388  1.0000
  Fe  Fe167     1.0  0.65098  0.52030  0.48246  1.0000
  H   H2514     1.0  0.96431  0.77962  0.35773  1.0000
  H   H2515     1.0  0.51381  0.54098  0.43303  1.0000
  C   C1416     1.0  0.81636  0.65272  0.29770  1.0000
  C   C1417     1.0  0.83938  0.65431  0.30146  1.0000
  C   C1418     1.0  0.85065  0.67475  0.29862  1.0000
  C   C1419     1.0  0.83898  0.69418  0.29228  1.0000
  C   C1420     1.0  0.81598  0.69259  0.28846  1.0000
  C   C1421     1.0  0.80479  0.67205  0.29095  1.0000
  H   H2516     1.0  0.84860  0.63954  0.30662  1.0000
  H   H2517     1.0  0.86833  0.67545  0.30149  1.0000
  H   H2518     1.0  0.80668  0.70739  0.28354  1.0000
  H   H2519     1.0  0.78712  0.67126  0.28802  1.0000
  Fe  Fe168     1.0  0.61521  0.55648  0.48088  1.0000
  H   H2520     1.0  0.71872  0.67371  0.27175  1.0000
  C   C1422     1.0  0.52100  0.53687  0.44850  1.0000
  C   C1423     1.0  0.97025  0.81780  0.33334  1.0000
  H   H2521     1.0  0.53577  0.54748  0.45058  1.0000
  H   H2522     1.0  0.67340  0.63782  0.26732  1.0000
  H   H2523     1.0  0.79623  0.52723  0.31094  1.0000
  H   H2524     1.0  0.63819  0.74512  0.26655  1.0000
  H   H2525     1.0  0.78432  0.97756  0.27058  1.0000
  H   H2526     1.0  0.53414  0.68675  0.24490  1.0000
  C   C1424     1.0  0.64948  0.65664  0.24861  1.0000
  H   H2527     1.0  0.93276  0.84242  0.34661  1.0000
  H   H2528     1.0  0.85095  0.97778  0.44541  1.0000
  H   H2529     1.0  0.54878  0.51886  0.47605  1.0000
  H   H2530     1.0  0.53083  0.56168  0.49145  1.0000
  C   C1425     1.0  0.78226  0.94547  0.48526  1.0000
  C   C1426     1.0  0.68927  0.58033  0.40930  1.0000
  C   C1427     1.0  0.67715  0.56588  0.39719  1.0000
  C   C1428     1.0  0.68150  0.56460  0.37559  1.0000
  C   C1429     1.0  0.69815  0.57751  0.36566  1.0000
  C   C1430     1.0  0.71036  0.59186  0.37778  1.0000
  C   C1431     1.0  0.70589  0.59329  0.39937  1.0000
  H   H2531     1.0  0.66426  0.55586  0.40444  1.0000
  H   H2532     1.0  0.67172  0.55363  0.36645  1.0000
  H   H2533     1.0  0.72318  0.60196  0.37051  1.0000
  H   H2534     1.0  0.71538  0.60458  0.40844  1.0000
  C   C1432     1.0  0.90617  0.93168  0.47904  1.0000
  C   C1433     1.0  0.89863  0.95125  0.46860  1.0000
  C   C1434     1.0  0.89279  0.97048  0.47967  1.0000
  H   H2535     1.0  0.94517  0.85304  0.36954  1.0000
  C   C1435     1.0  0.94878  0.84693  0.35369  1.0000
  H   H2536     1.0  0.69012  0.52356  0.34275  1.0000
  H   H2537     1.0  0.89705  0.95144  0.45189  1.0000
  H   H2538     1.0  0.88689  0.98539  0.47149  1.0000
  C   C1436     1.0  0.93013  0.80116  0.41407  1.0000
  C   C1437     1.0  0.93317  0.78177  0.40234  1.0000
  C   C1438     1.0  0.92482  0.78056  0.38195  1.0000
  C   C1439     1.0  0.91346  0.79887  0.37285  1.0000
  C   C1440     1.0  0.91011  0.81809  0.38467  1.0000
  C   C1441     1.0  0.91840  0.81929  0.40506  1.0000
  H   H2539     1.0  0.94211  0.76758  0.40912  1.0000
  H   H2540     1.0  0.92731  0.76554  0.37328  1.0000
  H   H2541     1.0  0.90136  0.83236  0.37790  1.0000
  H   H2542     1.0  0.91585  0.83431  0.41379  1.0000
  C   C1442     1.0  0.97258  0.92038  0.48328  1.0000
  H   H2543     1.0  0.53232  0.68448  0.36787  1.0000
  C   C1443     1.0  0.66858  0.73944  0.24866  1.0000
  H   H2544     1.0  0.63660  0.65621  0.26051  1.0000
  H   H2545     1.0  0.97186  0.78827  0.30156  1.0000
  H   H2546     1.0  0.50493  0.59438  0.49249  1.0000
  H   H2547     1.0  0.71264  0.73325  0.25394  1.0000
  H   H2548     1.0  0.97356  0.74861  0.32151  1.0000
  H   H2549     1.0  0.98001  0.83139  0.32578  1.0000
  H   H2550     1.0  0.57631  0.50994  0.44497  1.0000
  C   C1444     1.0  0.51483  0.68226  0.36298  1.0000
  H   H2551     1.0  0.71403  0.51787  0.35880  1.0000
  H   H2552     1.0  0.91995  0.86906  0.29844  1.0000
  C   C1445     1.0  0.81919  0.82089  0.24313  1.0000
  H   H2553     1.0  0.51119  0.68244  0.42580  1.0000
  S   S329      1.0  0.64006  0.58372  0.48354  1.0000
  S   S330      1.0  0.67869  0.54482  0.48587  1.0000
  H   H2554     1.0  0.83012  0.99935  0.44094  1.0000
  H   H2555     1.0  0.95618  0.81385  0.36514  1.0000
  H   H2556     1.0  0.52123  0.64204  0.43146  1.0000
  H   H2557     1.0  0.77876  0.92774  0.45641  1.0000
  C   C1446     1.0  0.80581  0.93594  0.49078  1.0000
  H   H2558     1.0  0.87349  0.85544  0.28239  1.0000
  H   H2559     1.0  0.51139  0.64156  0.38041  1.0000
  H   H2560     1.0  0.50828  0.54080  0.46061  1.0000
  H   H2561     1.0  0.84613  0.95138  0.47557  1.0000
  C   C1447     1.0  0.74934  0.51141  0.24670  1.0000
  C   C1448     1.0  0.96397  0.73671  0.35191  1.0000
  H   H2562     1.0  0.77278  0.59634  0.44526  1.0000
  H   H2563     1.0  0.73990  0.52424  0.33571  1.0000
  C   C1449     1.0  0.72230  0.69133  0.26725  1.0000
  H   H2564     1.0  0.72099  0.62467  0.48657  1.0000
  H   H2565     1.0  0.53080  0.59528  0.44548  1.0000
  H   H2566     1.0  0.70940  0.58395  0.48488  1.0000
  H   H2567     1.0  0.87914  0.87679  0.29981  1.0000
  H   H2568     1.0  0.79037  0.50734  0.33174  1.0000
  H   H2569     1.0  0.85433  0.89324  0.33613  1.0000
  H   H2570     1.0  0.80786  0.88657  0.25632  1.0000
  H   H2571     1.0  0.68092  0.92928  0.24818  1.0000
  C   C1450     1.0  0.91631  0.85124  0.29593  1.0000
  H   H2572     1.0  0.99505  0.79478  0.26725  1.0000
  H   H2573     1.0  0.51436  0.66906  0.35123  1.0000
  C   C1451     1.0  0.83954  0.98986  0.45313  1.0000
  H   H2574     1.0  0.67558  0.54777  0.29856  1.0000
  H   H2575     1.0  0.75354  0.57130  0.47022  1.0000
  C   C1452     1.0  0.71158  0.51867  0.30518  1.0000
  H   H2576     1.0  0.50391  0.64013  0.26036  1.0000
  C   C1453     1.0  0.86608  0.87831  0.36462  1.0000
  C   C1454     1.0  0.86472  0.87855  0.34094  1.0000
  S   S331      1.0  0.57727  0.55696  0.48219  1.0000
  C   C1455     1.0  0.77338  0.59968  0.46212  1.0000
  C   C1456     1.0  0.50954  0.74093  0.25056  1.0000
  H   H2577     1.0  0.95110  0.77904  0.33357  1.0000
  C   C1457     1.0  0.72636  0.50802  0.24539  1.0000
  H   H2578     1.0  0.98700  0.95177  0.49042  1.0000
  H   H2579     1.0  0.55922  0.63759  0.47658  1.0000
  C   C1458     1.0  0.97638  0.75336  0.33780  1.0000
  C   C1459     1.0  0.96445  0.82656  0.35515  1.0000
  H   H2580     1.0  0.68755  0.54125  0.27341  1.0000
  S   S332      1.0  0.76084  0.53552  0.25828  1.0000
  C   C1460     1.0  0.67749  0.53471  0.28670  1.0000
  C   C1461     1.0  0.50842  0.63111  0.42492  1.0000
  N   N81       1.0  0.85398  0.71693  0.35668  1.0000
  C   C1462     1.0  0.85818  0.74078  0.34975  1.0000
  C   C1463     1.0  0.87126  0.70193  0.34667  1.0000
  C   C1464     1.0  0.83147  0.71074  0.34846  1.0000
  C   C1465     1.0  0.85384  0.71364  0.38007  1.0000
  C   C1466     1.0  0.86912  0.72897  0.39255  1.0000
  C   C1467     1.0  0.83960  0.75789  0.35582  1.0000
  C   C1468     1.0  0.82465  0.68602  0.35190  1.0000
  C   C1469     1.0  0.89568  0.70458  0.35346  1.0000
  C   C1470     1.0  0.91145  0.68975  0.34080  1.0000
  C   C1471     1.0  0.87070  0.72103  0.41525  1.0000
  C   C1472     1.0  0.84829  0.78165  0.35638  1.0000
  C   C1473     1.0  0.79994  0.68296  0.34748  1.0000
  H   H2581     1.0  0.86000  0.74196  0.33249  1.0000
  H   H2582     1.0  0.87435  0.74665  0.35548  1.0000
  H   H2583     1.0  0.86764  0.68408  0.35003  1.0000
  H   H2584     1.0  0.87066  0.70421  0.32945  1.0000
  H   H2585     1.0  0.83058  0.71462  0.33145  1.0000
  H   H2586     1.0  0.81801  0.72103  0.35568  1.0000
  H   H2587     1.0  0.83672  0.71625  0.38658  1.0000
  H   H2588     1.0  0.85821  0.69595  0.38429  1.0000
  H   H2589     1.0  0.86232  0.74630  0.39245  1.0000
  H   H2590     1.0  0.88626  0.72973  0.38611  1.0000
  H   H2591     1.0  0.82605  0.75769  0.34420  1.0000
  H   H2592     1.0  0.83213  0.75371  0.37125  1.0000
  H   H2593     1.0  0.82781  0.68002  0.36806  1.0000
  H   H2594     1.0  0.83411  0.67514  0.34114  1.0000
  H   H2595     1.0  0.90123  0.72202  0.35139  1.0000
  H   H2596     1.0  0.89752  0.69919  0.36998  1.0000
  H   H2597     1.0  0.92894  0.69241  0.34548  1.0000
  H   H2598     1.0  0.90753  0.67186  0.34356  1.0000
  H   H2599     1.0  0.91006  0.69381  0.32393  1.0000
  H   H2600     1.0  0.85390  0.72074  0.42269  1.0000
  H   H2601     1.0  0.87846  0.70408  0.41638  1.0000
  H   H2602     1.0  0.88121  0.73262  0.42386  1.0000
  H   H2603     1.0  0.86094  0.78294  0.36872  1.0000
  H   H2604     1.0  0.85593  0.78656  0.34122  1.0000
  H   H2605     1.0  0.83433  0.79346  0.35974  1.0000
  H   H2606     1.0  0.79601  0.66491  0.34834  1.0000
  H   H2607     1.0  0.78938  0.69177  0.35903  1.0000
  H   H2608     1.0  0.79584  0.68946  0.33164  1.0000
  N   N82       1.0  0.85270  0.85474  0.31010  1.0000
  C   C1474     1.0  0.84557  0.83139  0.30560  1.0000
  C   C1475     1.0  0.87473  0.85887  0.29924  1.0000
  C   C1476     1.0  0.85457  0.85664  0.33333  1.0000
  C   C1477     1.0  0.83598  0.87199  0.30223  1.0000
  C   C1478     1.0  0.82984  0.87063  0.27897  1.0000
  C   C1479     1.0  0.82156  0.82525  0.31265  1.0000
  N   N83       1.0  0.98281  0.79576  0.33253  1.0000
  C   C1480     1.0  0.89481  0.84457  0.30725  1.0000
  H   H2609     1.0  0.78282  0.96194  0.47712  1.0000
  C   C1481     1.0  0.81169  0.88779  0.27308  1.0000
  C   C1482     1.0  0.81579  0.80174  0.30612  1.0000
  H   H2610     1.0  0.52973  0.61506  0.40105  1.0000
  H   H2611     1.0  0.85688  0.81902  0.31344  1.0000
  H   H2612     1.0  0.84746  0.82806  0.28877  1.0000
  H   H2613     1.0  0.99755  0.77533  0.30848  1.0000
  H   H2614     1.0  0.99098  0.79856  0.37612  1.0000
  S   S333      1.0  0.90902  0.84221  0.47953  1.0000
  H   H2615     1.0  0.83782  0.85537  0.34082  1.0000
  H   H2616     1.0  0.82035  0.87143  0.31170  1.0000
  H   H2617     1.0  0.84239  0.88909  0.30417  1.0000
  H   H2618     1.0  0.82352  0.85398  0.27529  1.0000
  H   H2619     1.0  0.84458  0.87407  0.26890  1.0000
  H   H2620     1.0  0.81985  0.82573  0.32980  1.0000
  H   H2621     1.0  0.80892  0.83678  0.30566  1.0000
  C   C1483     1.0  0.52124  0.61065  0.41595  1.0000
  H   H2622     1.0  0.95450  0.81681  0.32443  1.0000
  H   H2623     1.0  0.89750  0.84658  0.32407  1.0000
  H   H2624     1.0  0.89212  0.82665  0.30450  1.0000
  H   H2625     1.0  0.86439  0.84229  0.34011  1.0000
  H   H2626     1.0  0.84922  0.87676  0.37179  1.0000
  H   H2627     1.0  0.84340  0.79803  0.25704  1.0000
  H   H2628     1.0  0.52523  0.65778  0.39861  1.0000
  H   H2629     1.0  0.75284  0.93649  0.46834  1.0000
  S   S334      1.0  0.88638  0.81940  0.25109  1.0000
  H   H2630     1.0  0.81666  0.80055  0.28895  1.0000
  H   H2631     1.0  0.82737  0.78914  0.31319  1.0000
  H   H2632     1.0  0.79857  0.79778  0.31134  1.0000
  S   S335      1.0  0.51213  0.64174  0.48486  1.0000
  H   H2633     1.0  0.67688  0.50689  0.30799  1.0000
  H   H2634     1.0  0.81730  0.90499  0.27588  1.0000
  C   C1484     1.0  0.98860  0.74879  0.25420  1.0000
  H   H2635     1.0  0.71483  0.52004  0.25192  1.0000
  H   H2636     1.0  0.93044  0.84090  0.30197  1.0000
  H   H2637     1.0  0.88185  0.88090  0.33470  1.0000
  C   C1485     1.0  0.76982  0.92962  0.47150  1.0000
  H   H2638     1.0  0.87685  0.86422  0.37029  1.0000
  C   C1486     1.0  0.99222  0.93391  0.49056  1.0000
  H   H2639     1.0  0.76820  0.91297  0.47932  1.0000
  C   C1487     1.0  0.96780  0.77763  0.34097  1.0000
  C   C1488     1.0  0.53028  0.61821  0.48456  1.0000
  H   H2640     1.0  0.54002  0.50906  0.43722  1.0000
  H   H2641     1.0  0.79615  0.88454  0.28213  1.0000
  H   H2642     1.0  0.70998  0.53399  0.31450  1.0000
  C   C1489     1.0  0.77359  0.98344  0.25814  1.0000
  C   C1490     1.0  0.53888  0.60146  0.43091  1.0000
  H   H2643     1.0  0.99448  0.75158  0.34081  1.0000
  H   H2644     1.0  0.91495  0.84848  0.27900  1.0000
  H   H2645     1.0  0.55108  0.61448  0.43450  1.0000
  C   C1491     1.0  0.98762  0.79111  0.30992  1.0000
  H   H2646     1.0  0.68330  0.64096  0.48581  1.0000
  C   C1492     1.0  0.53711  0.57823  0.48820  1.0000
  H   H2647     1.0  0.96745  0.92590  0.46741  1.0000
  H   H2648     1.0  0.77982  0.53578  0.33303  1.0000
  H   H2649     1.0  0.51445  0.67526  0.27248  1.0000
  H   H2650     1.0  0.51623  0.74059  0.26610  1.0000
  H   H2651     1.0  0.71688  0.70206  0.28022  1.0000
  H   H2652     1.0  0.95652  0.86060  0.34428  1.0000
  C   C1493     1.0  0.76241  0.51510  0.31129  1.0000
  H   H2653     1.0  0.66070  0.53075  0.28093  1.0000
  H   H2654     1.0  0.96694  0.74012  0.36850  1.0000
  H   H2655     1.0  0.74057  0.69276  0.26471  1.0000
  H   H2656     1.0  0.97003  0.71950  0.34875  1.0000
  H   H2657     1.0  0.84958  0.00186  0.46172  1.0000
  C   C1494     1.0  0.78346  0.52174  0.32254  1.0000
  C   C1495     1.0  0.50838  0.65410  0.39262  1.0000
  C   C1496     1.0  0.68853  0.51366  0.29604  1.0000
  H   H2658     1.0  0.81230  0.99062  0.47493  1.0000
  C   C1497     1.0  0.55978  0.58096  0.48326  1.0000
  C   C1498     1.0  0.69986  0.51018  0.35096  1.0000
  C   C1499     1.0  0.52240  0.59674  0.48881  1.0000
  C   C1500     1.0  0.82324  0.97778  0.46779  1.0000
  H   H2659     1.0  0.72238  0.52368  0.29174  1.0000
  H   H2660     1.0  0.67530  0.72887  0.26163  1.0000
  H   H2661     1.0  0.58513  0.60473  0.47516  1.0000
  C   C1501     1.0  0.52779  0.51215  0.44981  1.0000
  H   H2662     1.0  0.51152  0.68709  0.31064  1.0000
  H   H2663     1.0  0.81322  0.96690  0.45803  1.0000
  H   H2664     1.0  0.94580  0.73769  0.34888  1.0000
  C   C1502     1.0  0.83583  0.96353  0.48440  1.0000
  H   H2665     1.0  0.75699  0.52953  0.30147  1.0000
  H   H2666     1.0  0.67415  0.75676  0.25057  1.0000
  H   H2667     1.0  0.69176  0.69512  0.25052  1.0000
  H   H2668     1.0  0.50872  0.69820  0.35568  1.0000
  H   H2669     1.0  0.84800  0.97439  0.49178  1.0000
  C   C1503     1.0  0.75312  0.58946  0.47310  1.0000
  H   H2670     1.0  0.69872  0.96341  0.25992  1.0000
  H   H2671     1.0  0.78906  0.59223  0.46842  1.0000
  H   H2672     1.0  0.97708  0.90233  0.48328  1.0000
  H   H2673     1.0  0.81352  0.92886  0.47650  1.0000
  H   H2674     1.0  0.80513  0.81060  0.24736  1.0000
  H   H2675     1.0  0.52261  0.50732  0.48255  1.0000
  C   C1504     1.0  0.53706  0.50567  0.47161  1.0000
  H   H2676     1.0  0.63657  0.72268  0.24859  1.0000
  H   H2677     1.0  0.68372  0.61470  0.47285  1.0000
  C   C1505     1.0  0.68547  0.62263  0.48812  1.0000
  H   H2678     1.0  0.97985  0.83186  0.36287  1.0000
  H   H2679     1.0  0.50967  0.59677  0.41343  1.0000
  H   H2680     1.0  0.69215  0.85850  0.25184  1.0000
  C   C1506     1.0  0.70973  0.69784  0.24743  1.0000
  H   H2681     1.0  0.73806  0.59688  0.46562  1.0000
  C   C1507     1.0  0.56773  0.60245  0.47914  1.0000
  H   H2682     1.0  0.71760  0.94766  0.24377  1.0000
  H   H2683     1.0  0.00202  0.77181  0.36962  1.0000
  C   C1508     1.0  0.70181  0.95764  0.24389  1.0000
  H   H2684     1.0  0.73109  0.55327  0.49293  1.0000
  H   H2685     1.0  0.86147  0.92320  0.49221  1.0000
  Fe  Fe169     1.0  0.92535  0.83617  0.51083  1.0000
  S   S336      1.0  0.90485  0.82629  0.54029  1.0000
  H   H2686     1.0  0.77115  0.59399  0.53725  1.0000
  Fe  Fe170     1.0  0.92584  0.76058  0.70309  1.0000
  S   S337      1.0  0.91333  0.78958  0.68274  1.0000
  S   S338      1.0  0.95749  0.76960  0.72151  1.0000
  Fe  Fe171     1.0  0.88658  0.73066  0.68897  1.0000
  S   S339      1.0  0.87282  0.75784  0.66795  1.0000
  S   S340      1.0  0.87144  0.69526  0.69125  1.0000
  Fe  Fe172     1.0  0.90811  0.76477  0.65775  1.0000
  S   S341      1.0  0.92179  0.76749  0.62403  1.0000
  Fe  Fe173     1.0  0.87905  0.78063  0.69453  1.0000
  S   S342      1.0  0.85031  0.80511  0.70089  1.0000
  S   S343      1.0  0.92209  0.73604  0.67746  1.0000
  S   S344      1.0  0.89133  0.75316  0.71628  1.0000
  Fe  Fe174     1.0  0.71130  0.59995  0.69776  1.0000
  S   S345      1.0  0.74576  0.59674  0.71114  1.0000
  S   S346      1.0  0.68125  0.60813  0.71854  1.0000
  Fe  Fe175     1.0  0.72633  0.58259  0.65489  1.0000
  S   S347      1.0  0.76197  0.57883  0.66585  1.0000
  S   S348      1.0  0.71730  0.56722  0.62347  1.0000
  Fe  Fe176     1.0  0.74756  0.56335  0.69563  1.0000
  S   S349      1.0  0.76203  0.52978  0.70876  1.0000
  Fe  Fe177     1.0  0.75744  0.61251  0.68063  1.0000
  S   S350      1.0  0.77845  0.64488  0.67790  1.0000
  S   S351      1.0  0.71253  0.56575  0.68397  1.0000
  S   S352      1.0  0.72238  0.61713  0.66794  1.0000
  Fe  Fe178     1.0  0.65594  0.56213  0.50883  1.0000
  S   S353      1.0  0.66313  0.58187  0.53832  1.0000
  H   H2687     1.0  0.78656  0.81155  0.73519  1.0000
  C   C1509     1.0  0.99986  0.87505  0.56985  1.0000
  H   H2688     1.0  0.62501  0.73202  0.72483  1.0000
  H   H2689     1.0  0.72224  0.67890  0.72717  1.0000
  H   H2690     1.0  0.87413  0.91413  0.52885  1.0000
  H   H2691     1.0  0.61016  0.62243  0.60033  1.0000
  H   H2692     1.0  0.83603  0.99179  0.51893  1.0000
  H   H2693     1.0  0.79625  0.99147  0.54947  1.0000
  C   C1510     1.0  0.70139  0.57165  0.60029  1.0000
  C   C1511     1.0  0.69923  0.55384  0.58665  1.0000
  C   C1512     1.0  0.68733  0.55647  0.56788  1.0000
  C   C1513     1.0  0.67770  0.57715  0.56221  1.0000
  C   C1514     1.0  0.67980  0.59497  0.57584  1.0000
  C   C1515     1.0  0.69145  0.59226  0.59475  1.0000
  H   H2694     1.0  0.70675  0.53779  0.59071  1.0000
  H   H2695     1.0  0.68559  0.54243  0.55790  1.0000
  H   H2696     1.0  0.67242  0.61106  0.57173  1.0000
  H   H2697     1.0  0.69297  0.60617  0.60495  1.0000
  C   C1516     1.0  0.98310  0.75950  0.73293  1.0000
  H   H2698     1.0  0.70314  0.87277  0.73193  1.0000
  C   C1517     1.0  0.89396  0.97011  0.50134  1.0000
  H   H2699     1.0  0.95428  0.82643  0.54709  1.0000
  C   C1518     1.0  0.84518  0.68186  0.68774  1.0000
  C   C1519     1.0  0.84350  0.65881  0.69247  1.0000
  C   C1520     1.0  0.82344  0.64725  0.68951  1.0000
  C   C1521     1.0  0.80455  0.65850  0.68168  1.0000
  C   C1522     1.0  0.80624  0.68154  0.67684  1.0000
  C   C1523     1.0  0.82628  0.69314  0.67990  1.0000
  H   H2700     1.0  0.85793  0.64975  0.69840  1.0000
  H   H2701     1.0  0.82268  0.62955  0.69313  1.0000
  H   H2702     1.0  0.79191  0.69052  0.67063  1.0000
  H   H2703     1.0  0.82713  0.71079  0.67608  1.0000
  C   C1524     1.0  0.84560  0.82048  0.72371  1.0000
  C   C1525     1.0  0.58885  0.53378  0.54599  1.0000
  H   H2704     1.0  0.50904  0.68832  0.70781  1.0000
  H   H2705     1.0  0.61103  0.56114  0.54090  1.0000
  H   H2706     1.0  0.75328  0.55299  0.51068  1.0000
  H   H2707     1.0  0.62801  0.65241  0.51199  1.0000
  H   H2708     1.0  0.73491  0.61061  0.53141  1.0000
  C   C1526     1.0  0.97097  0.83112  0.55243  1.0000
  C   C1527     1.0  0.51634  0.74438  0.72761  1.0000
  C   C1528     1.0  0.67342  0.63472  0.72783  1.0000
  H   H2709     1.0  0.98689  0.83533  0.58193  1.0000
  H   H2710     1.0  0.89275  0.89976  0.56415  1.0000
  H   H2711     1.0  0.76577  0.68422  0.70159  1.0000
  H   H2712     1.0  0.80121  0.97945  0.72015  1.0000
  C   C1529     1.0  0.98809  0.73675  0.73620  1.0000
  C   C1530     1.0  0.73577  0.55900  0.50857  1.0000
  H   H2713     1.0  0.70900  0.62571  0.51232  1.0000
  H   H2714     1.0  0.79517  0.61179  0.73848  1.0000
  H   H2715     1.0  0.85097  0.94837  0.52027  1.0000
  H   H2716     1.0  0.90307  0.95035  0.52849  1.0000
  H   H2717     1.0  0.73555  0.65629  0.71430  1.0000
  C   C1531     1.0  0.90956  0.80922  0.56320  1.0000
  C   C1532     1.0  0.92683  0.79324  0.56462  1.0000
  C   C1533     1.0  0.93021  0.78073  0.58330  1.0000
  C   C1534     1.0  0.91644  0.78390  0.60091  1.0000
  C   C1535     1.0  0.89900  0.79969  0.59945  1.0000
  C   C1536     1.0  0.89556  0.81213  0.58072  1.0000
  H   H2718     1.0  0.93747  0.79033  0.55126  1.0000
  H   H2719     1.0  0.94364  0.76846  0.58411  1.0000
  H   H2720     1.0  0.88816  0.80230  0.61274  1.0000
  H   H2721     1.0  0.88204  0.82430  0.57987  1.0000
  C   C1537     1.0  0.75069  0.83631  0.72328  1.0000
  H   H2722     1.0  0.76942  0.58686  0.50268  1.0000
  N   N84       1.0  0.57757  0.68209  0.71632  1.0000
  H   H2723     1.0  0.77217  0.94755  0.49970  1.0000
  C   C1538     1.0  0.59090  0.66949  0.70033  1.0000
  C   C1539     1.0  0.59012  0.70199  0.72358  1.0000
  C   C1540     1.0  0.55604  0.69029  0.70667  1.0000
  C   C1541     1.0  0.54036  0.67190  0.69920  1.0000
  H   H2724     1.0  0.57883  0.59469  0.57824  1.0000
  C   C1542     1.0  0.59872  0.71830  0.70623  1.0000
  H   H2725     1.0  0.60315  0.63886  0.53968  1.0000
  C   C1543     1.0  0.61698  0.60613  0.59515  1.0000
  H   H2726     1.0  0.76575  0.79317  0.72738  1.0000
  H   H2727     1.0  0.78309  0.66174  0.72329  1.0000
  C   C1544     1.0  0.61060  0.73797  0.71540  1.0000
  H   H2728     1.0  0.91408  0.91670  0.50883  1.0000
  H   H2729     1.0  0.96925  0.88265  0.55423  1.0000
  H   H2730     1.0  0.58205  0.65412  0.69617  1.0000
  H   H2731     1.0  0.59224  0.67948  0.68555  1.0000
  H   H2732     1.0  0.81502  0.63317  0.73143  1.0000
  N   N85       1.0  0.73417  0.58416  0.50921  1.0000
  H   H2733     1.0  0.54667  0.70136  0.71747  1.0000
  H   H2734     1.0  0.55938  0.70104  0.69271  1.0000
  H   H2735     1.0  0.78487  0.76049  0.74104  1.0000
  H   H2736     1.0  0.54745  0.66421  0.68503  1.0000
  H   H2737     1.0  0.72653  0.54874  0.54072  1.0000
  H   H2738     1.0  0.59886  0.74773  0.72525  1.0000
  H   H2739     1.0  0.58482  0.72538  0.69684  1.0000
  C   C1545     1.0  0.82186  0.98507  0.67054  1.0000
  H   H2740     1.0  0.71153  0.51216  0.53282  1.0000
  H   H2741     1.0  0.83214  0.97233  0.54033  1.0000
  H   H2742     1.0  0.71817  0.92154  0.72882  1.0000
  H   H2743     1.0  0.61688  0.74917  0.70271  1.0000
  C   C1546     1.0  0.93730  0.86167  0.57059  1.0000
  C   C1547     1.0  0.62551  0.63415  0.51378  1.0000
  H   H2744     1.0  0.56269  0.56995  0.55473  1.0000
  H   H2745     1.0  0.70337  0.55145  0.52352  1.0000
  N   N86       1.0  0.75293  0.66722  0.74149  1.0000
  C   C1548     1.0  0.80890  0.99981  0.53936  1.0000
  H   H2746     1.0  0.58477  0.53178  0.52936  1.0000
  H   H2747     1.0  0.79777  0.95841  0.52497  1.0000
  H   H2748     1.0  0.83923  0.98213  0.67593  1.0000
  C   C1549     1.0  0.82641  0.83422  0.72502  1.0000
  N   N87       1.0  0.87036  0.70497  0.61942  1.0000
  C   C1550     1.0  0.89228  0.71185  0.62825  1.0000
  C   C1551     1.0  0.85252  0.72185  0.62523  1.0000
  C   C1552     1.0  0.86441  0.68292  0.62987  1.0000
  C   C1553     1.0  0.87139  0.70222  0.59613  1.0000
  C   C1554     1.0  0.88791  0.71730  0.58354  1.0000
  C   C1555     1.0  0.91165  0.69442  0.62629  1.0000
  C   C1556     1.0  0.84097  0.67394  0.62512  1.0000
  C   C1557     1.0  0.85507  0.74583  0.61601  1.0000
  C   C1558     1.0  0.83599  0.76116  0.62317  1.0000
  C   C1559     1.0  0.88339  0.71691  0.56026  1.0000
  C   C1560     1.0  0.93448  0.70532  0.62596  1.0000
  C   C1561     1.0  0.83899  0.64941  0.63191  1.0000
  H   H2749     1.0  0.89029  0.71530  0.64510  1.0000
  H   H2750     1.0  0.89774  0.72790  0.62122  1.0000
  H   H2751     1.0  0.83593  0.71654  0.61998  1.0000
  H   H2752     1.0  0.85121  0.72282  0.64248  1.0000
  H   H2753     1.0  0.86553  0.68405  0.64708  1.0000
  H   H2754     1.0  0.87670  0.66967  0.62554  1.0000
  H   H2755     1.0  0.87614  0.68474  0.59228  1.0000
  H   H2756     1.0  0.85447  0.70480  0.58945  1.0000
  H   H2757     1.0  0.90530  0.71127  0.58588  1.0000
  H   H2758     1.0  0.88721  0.73492  0.58819  1.0000
  H   H2759     1.0  0.91098  0.68243  0.63978  1.0000
  H   H2760     1.0  0.91036  0.68465  0.61201  1.0000
  H   H2761     1.0  0.83728  0.67543  0.60831  1.0000
  H   H2762     1.0  0.82799  0.68339  0.63385  1.0000
  H   H2763     1.0  0.87095  0.75329  0.62068  1.0000
  H   H2764     1.0  0.85426  0.74577  0.59883  1.0000
  H   H2765     1.0  0.83496  0.76152  0.64037  1.0000
  H   H2766     1.0  0.83883  0.77842  0.61712  1.0000
  H   H2767     1.0  0.81983  0.75546  0.61719  1.0000
  H   H2768     1.0  0.88476  0.69960  0.55460  1.0000
  H   H2769     1.0  0.86651  0.72391  0.55687  1.0000
  H   H2770     1.0  0.89583  0.72731  0.55172  1.0000
  H   H2771     1.0  0.93689  0.71479  0.64026  1.0000
  H   H2772     1.0  0.94781  0.69228  0.62506  1.0000
  H   H2773     1.0  0.93617  0.71692  0.61229  1.0000
  H   H2774     1.0  0.84344  0.64700  0.64851  1.0000
  H   H2775     1.0  0.82154  0.64399  0.63003  1.0000
  H   H2776     1.0  0.85014  0.63874  0.62234  1.0000
  H   H2777     1.0  0.52563  0.64054  0.55128  1.0000
  H   H2778     1.0  0.93349  0.89848  0.56972  1.0000
  H   H2779     1.0  0.83762  0.90619  0.49700  1.0000
  S   S354      1.0  0.00184  0.86683  0.50984  1.0000
  C   C1562     1.0  0.78262  0.99187  0.68199  1.0000
  C   C1563     1.0  0.97836  0.86092  0.61656  1.0000
  H   H2780     1.0  0.59909  0.55867  0.56672  1.0000
  C   C1564     1.0  0.68236  0.65432  0.71927  1.0000
  H   H2781     1.0  0.94538  0.84952  0.60916  1.0000
  C   C1565     1.0  0.80923  0.96777  0.51429  1.0000
  H   H2782     1.0  0.96266  0.84459  0.64358  1.0000
  H   H2783     1.0  0.55671  0.60890  0.52223  1.0000
  N   N88       1.0  0.96026  0.86026  0.57995  1.0000
  H   H2784     1.0  0.80245  0.92133  0.50140  1.0000
  H   H2785     1.0  0.84729  0.76452  0.73767  1.0000
  C   C1566     1.0  0.95717  0.86245  0.60312  1.0000
  H   H2786     1.0  0.50540  0.61908  0.55599  1.0000
  H   H2787     1.0  0.73208  0.77869  0.74090  1.0000
  H   H2788     1.0  0.77974  0.97902  0.67019  1.0000
  H   H2789     1.0  0.76938  0.58526  0.57477  1.0000
  H   H2790     1.0  0.57414  0.52925  0.55574  1.0000
  C   C1567     1.0  0.60334  0.62979  0.52490  1.0000
  H   H2791     1.0  0.82268  0.93162  0.72228  1.0000
  S   S355      1.0  0.88393  0.99269  0.51619  1.0000
  S   S356      1.0  0.95599  0.81999  0.49685  1.0000
  H   H2792     1.0  0.53789  0.65846  0.71111  1.0000
  C   C1568     1.0  0.80453  0.93410  0.71970  1.0000
  H   H2793     1.0  0.64334  0.64371  0.69452  1.0000
  H   H2794     1.0  0.91818  0.88462  0.59052  1.0000
  H   H2795     1.0  0.54944  0.50802  0.51130  1.0000
  C   C1569     1.0  0.92364  0.88354  0.57405  1.0000
  H   H2796     1.0  0.73469  0.67242  0.67917  1.0000
  H   H2797     1.0  0.98153  0.79659  0.55855  1.0000
  H   H2798     1.0  0.98867  0.84586  0.61339  1.0000
  H   H2799     1.0  0.97631  0.72450  0.73146  1.0000
  H   H2800     1.0  0.96218  0.87480  0.64404  1.0000
  S   S357      1.0  0.62981  0.53584  0.50719  1.0000
  C   C1570     1.0  0.57657  0.57437  0.54392  1.0000
  C   C1571     1.0  0.97417  0.87890  0.57064  1.0000
  C   C1572     1.0  0.51741  0.68169  0.69374  1.0000
  H   H2801     1.0  0.72774  0.52977  0.74211  1.0000
  H   H2802     1.0  0.82817  0.93138  0.52844  1.0000
  C   C1573     1.0  0.74843  0.68866  0.70595  1.0000
  H   H2803     1.0  0.61556  0.59626  0.53266  1.0000
  H   H2804     1.0  0.77544  0.69504  0.74021  1.0000
  H   H2805     1.0  0.92701  0.84763  0.57666  1.0000
  H   H2806     1.0  0.72022  0.58695  0.54026  1.0000
  C   C1574     1.0  0.75382  0.58992  0.56643  1.0000
  H   H2807     1.0  0.98769  0.85935  0.64906  1.0000
  H   H2808     1.0  0.61077  0.70987  0.69573  1.0000
  H   H2809     1.0  0.97069  0.89461  0.57901  1.0000
  H   H2810     1.0  0.53283  0.58991  0.54761  1.0000
  H   H2811     1.0  0.71697  0.69418  0.68977  1.0000
  C   C1575     1.0  0.57329  0.66667  0.73485  1.0000
  H   H2812     1.0  0.75109  0.00041  0.65076  1.0000
  H   H2813     1.0  0.93837  0.85975  0.55353  1.0000
  H   H2814     1.0  0.74157  0.70126  0.67471  1.0000
  H   H2815     1.0  0.62832  0.66022  0.67541  1.0000
  C   C1576     1.0  0.75648  0.58478  0.54340  1.0000
  H   H2816     1.0  0.80856  0.94294  0.68744  1.0000
  H   H2817     1.0  0.63514  0.60539  0.59838  1.0000
  C   C1577     1.0  0.96986  0.83738  0.57566  1.0000
  C   C1578     1.0  0.82344  0.98258  0.52819  1.0000
  H   H2818     1.0  0.52474  0.75776  0.71926  1.0000
  H   H2819     1.0  0.61394  0.65033  0.72076  1.0000
  C   C1579     1.0  0.90251  0.88428  0.56101  1.0000
  H   H2820     1.0  0.68556  0.89682  0.72696  1.0000
  C   C1580     1.0  0.84045  0.99518  0.63601  1.0000
  C   C1581     1.0  0.77245  0.65271  0.73487  1.0000
  H   H2821     1.0  0.95988  0.82428  0.58396  1.0000
  H   H2822     1.0  0.75028  0.60797  0.56853  1.0000
  C   C1582     1.0  0.80955  0.97371  0.70559  1.0000
  C   C1583     1.0  0.84941  0.91752  0.50431  1.0000
  C   C1584     1.0  0.61467  0.66176  0.70693  1.0000
  H   H2823     1.0  0.62515  0.67611  0.71068  1.0000
  C   C1585     1.0  0.77096  0.80340  0.74058  1.0000
  C   C1586     1.0  0.98683  0.81130  0.54897  1.0000
  H   H2824     1.0  0.76676  0.84373  0.71817  1.0000
  C   C1587     1.0  0.70836  0.61725  0.49727  1.0000
  H   H2825     1.0  0.90678  0.88419  0.54418  1.0000
  H   H2826     1.0  0.62259  0.61705  0.56364  1.0000
  C   C1588     1.0  0.62646  0.64923  0.68947  1.0000
  H   H2827     1.0  0.82470  0.74617  0.73265  1.0000
  C   C1589     1.0  0.97226  0.85988  0.63970  1.0000
  H   H2828     1.0  0.81528  0.83559  0.71195  1.0000
  C   C1590     1.0  0.72105  0.54603  0.52462  1.0000
  H   H2829     1.0  0.73976  0.51455  0.52320  1.0000
  H   H2830     1.0  0.83769  0.97814  0.63032  1.0000
  H   H2831     1.0  0.82745  0.97106  0.70938  1.0000
  C   C1591     1.0  0.59939  0.60446  0.52877  1.0000
  C   C1592     1.0  0.83741  0.93781  0.51444  1.0000
  C   C1593     1.0  0.90203  0.95073  0.51173  1.0000
  H   H2832     1.0  0.68276  0.69025  0.72039  1.0000
  C   C1594     1.0  0.61332  0.60357  0.57191  1.0000
  S   S358      1.0  0.94033  0.87039  0.51005  1.0000
  C   C1595     1.0  0.73531  0.59210  0.53119  1.0000
  H   H2833     1.0  0.94938  0.87885  0.60675  1.0000
  H   H2834     1.0  0.77161  0.98725  0.69538  1.0000
  H   H2835     1.0  0.61705  0.63417  0.68554  1.0000
  H   H2836     1.0  0.69411  0.65339  0.70644  1.0000
  C   C1596     1.0  0.59558  0.55777  0.54989  1.0000
  H   H2837     1.0  0.97638  0.84528  0.54235  1.0000
  H   H2838     1.0  0.50681  0.66850  0.68754  1.0000
  H   H2839     1.0  0.76021  0.56669  0.54232  1.0000
  C   C1597     1.0  0.73448  0.68914  0.68623  1.0000
  H   H2840     1.0  0.60892  0.59237  0.60419  1.0000
  H   H2841     1.0  0.74438  0.82572  0.71085  1.0000
  H   H2842     1.0  0.98844  0.87608  0.61383  1.0000
  H   H2843     1.0  0.89196  0.86967  0.56493  1.0000
  H   H2844     1.0  0.99530  0.79268  0.73691  1.0000
  C   C1598     1.0  0.67585  0.67514  0.72716  1.0000
  H   H2845     1.0  0.74001  0.58014  0.57355  1.0000
  H   H2846     1.0  0.51885  0.69535  0.68180  1.0000
  H   H2847     1.0  0.72125  0.63280  0.73681  1.0000
  H   H2848     1.0  0.56318  0.63002  0.53986  1.0000
  H   H2849     1.0  0.59514  0.59739  0.51355  1.0000
  C   C1599     1.0  0.58809  0.60510  0.56654  1.0000
  C   C1600     1.0  0.75331  0.59382  0.49677  1.0000
  H   H2850     1.0  0.85718  0.99578  0.64315  1.0000
  H   H2851     1.0  0.69822  0.58552  0.51015  1.0000
  H   H2852     1.0  0.74832  0.70588  0.71185  1.0000
  H   H2853     1.0  0.78211  0.95089  0.69872  1.0000
  H   H2854     1.0  0.79660  0.94057  0.73406  1.0000
  H   H2855     1.0  0.54258  0.60648  0.56857  1.0000
  H   H2856     1.0  0.60286  0.52215  0.55001  1.0000
  H   H2857     1.0  0.57082  0.57043  0.52804  1.0000
  H   H2858     1.0  0.67218  0.61660  0.49890  1.0000
  H   H2859     1.0  0.98670  0.80681  0.53237  1.0000
  N   N89       1.0  0.80682  0.99132  0.68846  1.0000
  H   H2860     1.0  0.62122  0.58758  0.56744  1.0000
  H   H2861     1.0  0.73848  0.85011  0.72590  1.0000
  C   C1601     1.0  0.80036  0.95022  0.70126  1.0000
  H   H2862     1.0  0.87223  0.89027  0.51264  1.0000
  H   H2863     1.0  0.58279  0.62261  0.56970  1.0000
  C   C1602     1.0  0.74696  0.98189  0.73444  1.0000
  H   H2864     1.0  0.58991  0.63709  0.51493  1.0000
  C   C1603     1.0  0.56066  0.61175  0.53876  1.0000
  N   N90       1.0  0.58164  0.59889  0.54484  1.0000
  H   H2865     1.0  0.72299  0.90012  0.71015  1.0000
  H   H2866     1.0  0.63958  0.62677  0.52285  1.0000
  C   C1604     1.0  0.86240  0.90357  0.52048  1.0000
  H   H2867     1.0  0.79844  0.97924  0.50487  1.0000
  H   H2868     1.0  0.73438  0.97343  0.72591  1.0000
  H   H2869     1.0  0.79720  0.91766  0.71662  1.0000
  C   C1605     1.0  0.75406  0.50988  0.72870  1.0000
  N   N91       1.0  0.82184  0.95157  0.50069  1.0000
  C   C1606     1.0  0.73883  0.67198  0.72251  1.0000
  C   C1607     1.0  0.90830  0.93165  0.50063  1.0000
  H   H2870     1.0  0.81685  0.96887  0.66423  1.0000
  H   H2871     1.0  0.85084  0.89555  0.53190  1.0000
  H   H2872     1.0  0.81327  0.78612  0.73005  1.0000
  C   C1608     1.0  0.85993  0.81885  0.74067  1.0000
  C   C1609     1.0  0.52065  0.62354  0.54696  1.0000
  C   C1610     1.0  0.53928  0.60646  0.55166  1.0000
  H   H2873     1.0  0.63316  0.93741  0.73944  1.0000
  C   C1611     1.0  0.72239  0.52091  0.52124  1.0000
  H   H2874     1.0  0.71659  0.51695  0.50548  1.0000
  C   C1612     1.0  0.71210  0.59166  0.50017  1.0000
  H   H2875     1.0  0.57941  0.71201  0.73413  1.0000
  H   H2876     1.0  0.56872  0.64975  0.72983  1.0000
  C   C1613     1.0  0.72069  0.90330  0.72695  1.0000
  H   H2877     1.0  0.73605  0.89774  0.73518  1.0000
  H   H2878     1.0  0.76652  0.63805  0.72642  1.0000
  H   H2879     1.0  0.75424  0.61214  0.49891  1.0000
  H   H2880     1.0  0.95810  0.92272  0.49396  1.0000
  H   H2881     1.0  0.51653  0.62373  0.53019  1.0000
  C   C1614     1.0  0.82230  0.00168  0.65168  1.0000
  H   H2882     1.0  0.87472  0.80830  0.73987  1.0000
  H   H2883     1.0  0.60463  0.69661  0.73325  1.0000
  H   H2884     1.0  0.99568  0.92833  0.50682  1.0000
  Fe  Fe179     1.0  0.97025  0.85463  0.49452  1.0000
  C   C1615     1.0  0.99882  0.77504  0.73934  1.0000
  H   H2885     1.0  0.62549  0.62703  0.49807  1.0000
  C   C1616     1.0  0.70053  0.89068  0.73545  1.0000
  C   C1617     1.0  0.73684  0.51403  0.74303  1.0000
  H   H2886     1.0  0.80617  0.00144  0.64345  1.0000
  H   H2887     1.0  0.63496  0.83943  0.74211  1.0000
  H   H2888     1.0  0.67407  0.92950  0.74208  1.0000
  C   C1618     1.0  0.82145  0.84611  0.74310  1.0000
  H   H2889     1.0  0.74981  0.75433  0.74283  1.0000
  H   H2890     1.0  0.52246  0.70963  0.76976  1.0000
  H   H2891     1.0  0.78878  0.94385  0.89120  1.0000
  Fe  Fe180     1.0  0.84739  0.91695  0.96579  1.0000
  H   H2892     1.0  0.69740  0.89259  0.82868  1.0000
  S   S359      1.0  0.83431  0.89601  0.93919  1.0000
  C   C1619     1.0  0.51520  0.71727  0.75594  1.0000
  C   C1620     1.0  0.99884  0.92123  0.98914  1.0000
  C   C1621     1.0  0.70401  0.50989  0.81939  1.0000
  S   S360      1.0  0.88246  0.92982  0.96570  1.0000
  H   H2893     1.0  0.63920  0.65798  0.76472  1.0000
  H   H2894     1.0  0.70239  0.91030  0.76330  1.0000
  C   C1622     1.0  0.68319  0.90432  0.82562  1.0000
  S   S361      1.0  0.55387  0.62771  0.95813  1.0000
  C   C1623     1.0  0.66345  0.92817  0.75627  1.0000
  Fe  Fe181     1.0  0.56668  0.66087  0.96710  1.0000
  S   S362      1.0  0.58072  0.68615  0.94288  1.0000
  N   N92       1.0  0.67484  0.88739  0.76791  1.0000
  S   S363      1.0  0.88013  0.99308  0.96649  1.0000
  H   H2895     1.0  0.81728  0.83499  0.84467  1.0000
  Fe  Fe182     1.0  0.59850  0.71169  0.81724  1.0000
  S   S364      1.0  0.58389  0.74621  0.81095  1.0000
  S   S365      1.0  0.58583  0.68720  0.84294  1.0000
  Fe  Fe183     1.0  0.62753  0.71406  0.77729  1.0000
  S   S366      1.0  0.61445  0.74856  0.76916  1.0000
  H   H2896     1.0  0.92013  0.88674  0.97107  1.0000
  Fe  Fe184     1.0  0.61945  0.75597  0.80263  1.0000
  S   S367      1.0  0.63534  0.78806  0.81424  1.0000
  Fe  Fe185     1.0  0.58025  0.73568  0.77766  1.0000
  H   H2897     1.0  0.62255  0.66520  0.93072  1.0000
  S   S368      1.0  0.63410  0.72195  0.81071  1.0000
  S   S369      1.0  0.59337  0.70081  0.78410  1.0000
  Fe  Fe186     1.0  0.79735  0.87696  0.79001  1.0000
  S   S370      1.0  0.76785  0.87999  0.76923  1.0000
  H   H2898     1.0  0.76940  0.92556  0.94819  1.0000
  Fe  Fe187     1.0  0.77313  0.89986  0.82572  1.0000
  S   S371      1.0  0.74129  0.90392  0.80714  1.0000
  S   S372      1.0  0.77625  0.91632  0.85745  1.0000
  Fe  Fe188     1.0  0.74757  0.86847  0.79715  1.0000
  S   S373      1.0  0.72473  0.83980  0.78814  1.0000
  Fe  Fe189     1.0  0.76356  0.91516  0.78047  1.0000
  H   H2899     1.0  0.98327  0.77078  0.84670  1.0000
  S   S374      1.0  0.77770  0.86372  0.81754  1.0000
  S   S375      1.0  0.79491  0.91291  0.79936  1.0000
  H   H2900     1.0  0.82356  0.97337  0.83646  1.0000
  C   C1624     1.0  0.95201  0.86936  0.96946  1.0000
  H   H2901     1.0  0.78324  0.97298  0.77399  1.0000
  H   H2902     1.0  0.81580  0.95610  0.85865  1.0000
  C   C1625     1.0  0.79161  0.77045  0.75372  1.0000
  C   C1626     1.0  0.79257  0.84842  0.94183  1.0000
  H   H2903     1.0  0.76829  0.72655  0.77263  1.0000
  H   H2904     1.0  0.82562  0.84506  0.86940  1.0000
  H   H2905     1.0  0.81163  0.93690  0.92282  1.0000
  C   C1627     1.0  0.81480  0.77813  0.74573  1.0000
  C   C1628     1.0  0.71721  0.52953  0.81032  1.0000
  H   H2906     1.0  0.93751  0.77669  0.78888  1.0000
  C   C1629     1.0  0.66104  0.80124  0.80748  1.0000
  C   C1630     1.0  0.67338  0.79586  0.78966  1.0000
  C   C1631     1.0  0.69278  0.80780  0.78418  1.0000
  C   C1632     1.0  0.70053  0.82491  0.79662  1.0000
  C   C1633     1.0  0.68845  0.83006  0.81465  1.0000
  C   C1634     1.0  0.66876  0.81843  0.81990  1.0000
  H   H2907     1.0  0.66760  0.78288  0.77982  1.0000
  H   H2908     1.0  0.70164  0.80397  0.76998  1.0000
  H   H2909     1.0  0.69410  0.84310  0.82447  1.0000
  H   H2910     1.0  0.65939  0.82278  0.83372  1.0000
  C   C1635     1.0  0.96748  0.77065  0.80695  1.0000
  H   H2911     1.0  0.78336  0.77802  0.80212  1.0000
  S   S376      1.0  0.75163  0.94167  0.75621  1.0000
  H   H2912     1.0  0.81099  0.84992  0.94229  1.0000
  H   H2913     1.0  0.78581  0.88285  0.94804  1.0000
  H   H2914     1.0  0.66155  0.67392  0.85952  1.0000
  Fe  Fe190     1.0  0.57523  0.61351  0.98396  1.0000
  H   H2915     1.0  0.84020  0.86353  0.82643  1.0000
  S   S377      1.0  0.99289  0.84833  0.96695  1.0000
  C   C1636     1.0  0.58073  0.68686  0.91503  1.0000
  C   C1637     1.0  0.56931  0.67135  0.90347  1.0000
  C   C1638     1.0  0.57083  0.67196  0.88151  1.0000
  C   C1639     1.0  0.58345  0.68825  0.87067  1.0000
  C   C1640     1.0  0.59454  0.70398  0.88221  1.0000
  C   C1641     1.0  0.59323  0.70322  0.90418  1.0000
  H   H2916     1.0  0.55944  0.65879  0.91144  1.0000
  H   H2917     1.0  0.56215  0.65968  0.87283  1.0000
  H   H2918     1.0  0.60437  0.71659  0.87423  1.0000
  H   H2919     1.0  0.60207  0.71539  0.91285  1.0000
  C   C1642     1.0  0.76610  0.69037  0.77288  1.0000
  C   C1643     1.0  0.83076  0.84342  0.85288  1.0000
  C   C1644     1.0  0.95303  0.76636  0.78814  1.0000
  H   H2920     1.0  0.81007  0.79641  0.82488  1.0000
  C   C1645     1.0  0.77384  0.93371  0.96283  1.0000
  C   C1646     1.0  0.89086  0.88254  0.79585  1.0000
  H   H2921     1.0  0.78786  0.83150  0.94759  1.0000
  C   C1647     1.0  0.81788  0.90224  0.91674  1.0000
  C   C1648     1.0  0.81373  0.88503  0.90293  1.0000
  C   C1649     1.0  0.80070  0.88890  0.88502  1.0000
  C   C1650     1.0  0.79177  0.91016  0.88049  1.0000
  C   C1651     1.0  0.79569  0.92734  0.89443  1.0000
  C   C1652     1.0  0.80871  0.92346  0.91238  1.0000
  H   H2922     1.0  0.82069  0.86854  0.90609  1.0000
  H   H2923     1.0  0.79739  0.87540  0.87480  1.0000
  H   H2924     1.0  0.79401  0.75839  0.76696  1.0000
  H   H2925     1.0  0.88658  0.92976  0.90817  1.0000
  H   H2926     1.0  0.63365  0.55188  0.97006  1.0000
  H   H2927     1.0  0.86409  0.90315  0.88976  1.0000
  H   H2928     1.0  0.87233  0.91644  0.81726  1.0000
  H   H2929     1.0  0.79860  0.65811  0.75738  1.0000
  H   H2930     1.0  0.89879  0.93999  0.88410  1.0000
  H   H2931     1.0  0.81352  0.81864  0.80576  1.0000
  C   C1653     1.0  0.72992  0.63232  0.75186  1.0000
  S   S378      1.0  0.83237  0.94821  0.97904  1.0000
  H   H2932     1.0  0.95055  0.86575  0.95319  1.0000
  C   C1654     1.0  0.78831  0.64418  0.75219  1.0000
  H   H2933     1.0  0.50966  0.76503  0.78681  1.0000
  H   H2934     1.0  0.80662  0.94929  0.83299  1.0000
  H   H2935     1.0  0.81848  0.87545  0.84221  1.0000
  H   H2936     1.0  0.85145  0.89673  0.81301  1.0000
  H   H2937     1.0  0.90428  0.91152  0.89322  1.0000
  H   H2938     1.0  0.65518  0.67291  0.96389  1.0000
  H   H2939     1.0  0.62684  0.82522  0.76602  1.0000
  H   H2940     1.0  0.84614  0.83287  0.85201  1.0000
  H   H2941     1.0  0.62211  0.63459  0.96042  1.0000
  H   H2942     1.0  0.64260  0.90351  0.77205  1.0000
  H   H2943     1.0  0.82459  0.91090  0.83656  1.0000
  H   H2944     1.0  0.85858  0.93136  0.88087  1.0000
  C   C1655     1.0  0.75425  0.77847  0.76794  1.0000
  H   H2945     1.0  0.62524  0.67511  0.96740  1.0000
  H   H2946     1.0  0.68908  0.87395  0.79630  1.0000
  H   H2947     1.0  0.90405  0.86967  0.79314  1.0000
  H   H2948     1.0  0.88460  0.92565  0.84997  1.0000
  H   H2949     1.0  0.89968  0.88605  0.82773  1.0000
  C   C1656     1.0  0.67594  0.88625  0.79133  1.0000
  H   H2950     1.0  0.74413  0.62026  0.75097  1.0000
  C   C1657     1.0  0.69762  0.89317  0.75927  1.0000
  H   H2951     1.0  0.56449  0.55904  0.98685  1.0000
  H   H2952     1.0  0.00116  0.79678  0.82631  1.0000
  C   C1658     1.0  0.78130  0.86635  0.95493  1.0000
  H   H2953     1.0  0.71067  0.88226  0.76672  1.0000
  C   C1659     1.0  0.80176  0.80596  0.81204  1.0000
  C   C1660     1.0  0.77840  0.71171  0.77753  1.0000
  H   H2954     1.0  0.75032  0.69044  0.78214  1.0000
  H   H2955     1.0  0.74567  0.84372  0.97613  1.0000
  H   H2956     1.0  0.97358  0.96508  0.96118  1.0000
  C   C1661     1.0  0.78343  0.91650  0.97842  1.0000
  H   H2957     1.0  0.64161  0.65781  0.98496  1.0000
  H   H2958     1.0  0.66554  0.91986  0.80035  1.0000
  H   H2959     1.0  0.72517  0.53872  0.82291  1.0000
  C   C1662     1.0  0.89151  0.92514  0.89213  1.0000
  H   H2960     1.0  0.98229  0.93326  0.93911  1.0000
  H   H2961     1.0  0.79847  0.90870  0.97133  1.0000
  H   H2962     1.0  0.63166  0.67518  0.86185  1.0000
  S   S379      1.0  0.60248  0.58756  0.97733  1.0000
  C   C1663     1.0  0.64808  0.85364  0.77018  1.0000
  C   C1664     1.0  0.83584  0.84460  0.76001  1.0000
  H   H2963     1.0  0.95739  0.76696  0.82117  1.0000
  H   H2964     1.0  0.93232  0.97348  0.97402  1.0000
  H   H2965     1.0  0.98810  0.74174  0.84572  1.0000
  H   H2966     1.0  0.78718  0.85053  0.92545  1.0000
  C   C1665     1.0  0.55505  0.67460  0.75041  1.0000
  C   C1666     1.0  0.59927  0.55828  0.97838  1.0000
  H   H2967     1.0  0.79002  0.84639  0.98256  1.0000
  H   H2968     1.0  0.54081  0.66524  0.78045  1.0000
  H   H2969     1.0  0.87899  0.86543  0.82326  1.0000
  H   H2970     1.0  0.65471  0.82153  0.75592  1.0000
  H   H2971     1.0  0.56976  0.65749  0.77749  1.0000
  Fe  Fe191     1.0  0.52763  0.63253  0.98308  1.0000
  C   C1667     1.0  0.97490  0.95276  0.97442  1.0000
  C   C1668     1.0  0.75825  0.97025  0.75061  1.0000
  C   C1669     1.0  0.71353  0.62328  0.76824  1.0000
  H   H2972     1.0  0.81058  0.78088  0.79038  1.0000
  H   H2973     1.0  0.73717  0.81622  0.74832  1.0000
  H   H2974     1.0  0.65130  0.84731  0.78625  1.0000
  N   N93       1.0  0.77542  0.78885  0.75959  1.0000
  H   H2975     1.0  0.77641  0.67607  0.77854  1.0000
  H   H2976     1.0  0.66796  0.57350  0.91536  1.0000
  C   C1670     1.0  0.55355  0.65877  0.76938  1.0000
  H   H2977     1.0  0.98914  0.77145  0.88491  1.0000
  H   H2978     1.0  0.72171  0.62118  0.78356  1.0000
  C   C1671     1.0  0.57887  0.54855  0.98343  1.0000
  H   H2979     1.0  0.94535  0.93635  0.96238  1.0000
  H   H2980     1.0  0.85529  0.94957  0.84741  1.0000
  H   H2981     1.0  0.84598  0.94254  0.82197  1.0000
  H   H2982     1.0  0.63017  0.51059  0.97045  1.0000
  C   C1672     1.0  0.61594  0.52105  0.97436  1.0000
  H   H2983     1.0  0.94842  0.74851  0.78778  1.0000
  H   H2984     1.0  0.58888  0.66394  0.74387  1.0000
  H   H2985     1.0  0.75940  0.83417  0.75531  1.0000
  C   C1673     1.0  0.64295  0.94323  0.75272  1.0000
  N   N94       1.0  0.62897  0.63350  0.91651  1.0000
  C   C1674     1.0  0.60612  0.62479  0.92203  1.0000
  C   C1675     1.0  0.63493  0.65112  0.93168  1.0000
  C   C1676     1.0  0.62751  0.64485  0.89526  1.0000
  C   C1677     1.0  0.64666  0.61522  0.91586  1.0000
  C   C1678     1.0  0.64372  0.59488  0.93114  1.0000
  C   C1679     1.0  0.59572  0.60984  0.90551  1.0000
  C   C1680     1.0  0.64843  0.65764  0.88754  1.0000
  H   H2986     1.0  0.69885  0.63473  0.76968  1.0000
  C   C1681     1.0  0.66442  0.57966  0.93119  1.0000
  C   C1682     1.0  0.57620  0.59648  0.91438  1.0000
  C   C1683     1.0  0.64665  0.66437  0.86453  1.0000
  H   H2987     1.0  0.59422  0.63891  0.92467  1.0000
  H   H2988     1.0  0.60614  0.61539  0.93709  1.0000
  H   H2989     1.0  0.65133  0.65845  0.92762  1.0000
  H   H2990     1.0  0.68669  0.92034  0.83309  1.0000
  H   H2991     1.0  0.61330  0.65702  0.89485  1.0000
  H   H2992     1.0  0.62397  0.63249  0.88322  1.0000
  H   H2993     1.0  0.64784  0.60809  0.90009  1.0000
  H   H2994     1.0  0.66337  0.62233  0.91854  1.0000
  H   H2995     1.0  0.62944  0.58468  0.92655  1.0000
  H   H2996     1.0  0.64047  0.59993  0.94728  1.0000
  H   H2997     1.0  0.58926  0.62043  0.89239  1.0000
  H   H2998     1.0  0.60825  0.59795  0.89916  1.0000
  H   H2999     1.0  0.66381  0.64732  0.88965  1.0000
  H   H3000     1.0  0.65003  0.67333  0.89614  1.0000
  H   H3001     1.0  0.80665  0.85662  0.74386  1.0000
  C   C1684     1.0  0.68015  0.90839  0.80226  1.0000
  C   C1685     1.0  0.52638  0.73457  0.74542  1.0000
  H   H3002     1.0  0.67908  0.58871  0.93676  1.0000
  H   H3003     1.0  0.66157  0.56503  0.94181  1.0000
  H   H3004     1.0  0.56217  0.60790  0.91847  1.0000
  H   H3005     1.0  0.57027  0.58495  0.90253  1.0000
  H   H3006     1.0  0.58126  0.58643  0.92837  1.0000
  H   H3007     1.0  0.72343  0.66645  0.76106  1.0000
  H   H3008     1.0  0.64559  0.64941  0.85483  1.0000
  H   H3009     1.0  0.83384  0.74996  0.75907  1.0000
  H   H3010     1.0  0.89730  0.89906  0.79068  1.0000
  H   H3011     1.0  0.87623  0.87854  0.78631  1.0000
  H   H3012     1.0  0.82238  0.79018  0.75615  1.0000
  H   H3013     1.0  0.97133  0.78866  0.80663  1.0000
  H   H3014     1.0  0.68361  0.85247  0.76405  1.0000
  H   H3015     1.0  0.86635  0.82972  0.77168  1.0000
  H   H3016     1.0  0.79478  0.71201  0.76929  1.0000
  H   H3017     1.0  0.83102  0.91742  0.86225  1.0000
  C   C1686     1.0  0.73985  0.76641  0.75194  1.0000
  C   C1687     1.0  0.61781  0.54445  0.97397  1.0000
  H   H3018     1.0  0.97323  0.91182  0.95683  1.0000
  H   H3019     1.0  0.97786  0.96284  0.98821  1.0000
  H   H3020     1.0  0.78136  0.71247  0.79449  1.0000
  H   H3021     1.0  0.84511  0.88126  0.87059  1.0000
  H   H3022     1.0  0.74685  0.65307  0.77258  1.0000
  C   C1688     1.0  0.63997  0.66363  0.96851  1.0000
  Fe  Fe192     1.0  0.86774  0.96026  0.98082  1.0000
  C   C1689     1.0  0.00172  0.75778  0.88311  1.0000
  S   S380      1.0  0.83047  0.85955  0.78296  1.0000
  C   C1690     1.0  0.98771  0.92243  0.95254  1.0000
  H   H3023     1.0  0.66008  0.88014  0.79828  1.0000
  C   C1691     1.0  0.77441  0.98156  0.76150  1.0000
  H   H3024     1.0  0.54863  0.64189  0.76469  1.0000
  H   H3025     1.0  0.98254  0.88208  0.93294  1.0000
  H   H3026     1.0  0.65043  0.62111  0.75063  1.0000
  C   C1692     1.0  0.79523  0.79010  0.79512  1.0000
  H   H3027     1.0  0.78672  0.81448  0.81847  1.0000
  C   C1693     1.0  0.73828  0.65564  0.75755  1.0000
  H   H3028     1.0  0.75818  0.76611  0.78061  1.0000
  H   H3029     1.0  0.89092  0.89831  0.85923  1.0000
  C   C1694     1.0  0.85510  0.83097  0.75869  1.0000
  C   C1695     1.0  0.76066  0.68927  0.74942  1.0000
  H   H3030     1.0  0.65198  0.63263  0.95679  1.0000
  H   H3031     1.0  0.96206  0.77090  0.77350  1.0000
  N   N95       1.0  0.99398  0.93652  0.97063  1.0000
  H   H3032     1.0  0.70662  0.83943  0.98696  1.0000
  C   C1696     1.0  0.63702  0.64356  0.95473  1.0000
  C   C1697     1.0  0.98882  0.75564  0.80679  1.0000
  H   H3033     1.0  0.76313  0.86482  0.95324  1.0000
  C   C1698     1.0  0.93475  0.88120  0.97955  1.0000
  H   H3034     1.0  0.86722  0.86856  0.85681  1.0000
  H   H3035     1.0  0.98291  0.73833  0.80953  1.0000
  H   H3036     1.0  0.78649  0.94652  0.95901  1.0000
  C   C1699     1.0  0.82063  0.95593  0.84194  1.0000
  H   H3037     1.0  0.73036  0.52363  0.79937  1.0000
  N   N96       1.0  0.85830  0.90194  0.84551  1.0000
  C   C1700     1.0  0.85213  0.87943  0.85471  1.0000
  C   C1701     1.0  0.87710  0.91089  0.85803  1.0000
  C   C1702     1.0  0.83812  0.91724  0.84628  1.0000
  C   C1703     1.0  0.86584  0.90017  0.82317  1.0000
  C   C1704     1.0  0.88446  0.88252  0.81890  1.0000
  C   C1705     1.0  0.83469  0.86632  0.84261  1.0000
  C   C1706     1.0  0.84176  0.94175  0.83879  1.0000
  C   C1707     1.0  0.87102  0.91744  0.88065  1.0000
  C   C1708     1.0  0.78483  0.80305  0.77629  1.0000
  H   H3038     1.0  0.64829  0.96057  0.74913  1.0000
  H   H3039     1.0  0.66784  0.89725  0.83281  1.0000
  H   H3040     1.0  0.69524  0.91672  0.79607  1.0000
  H   H3041     1.0  0.81547  0.62021  0.75696  1.0000
  C   C1709     1.0  0.65756  0.63621  0.74404  1.0000
  H   H3042     1.0  0.74744  0.70238  0.74702  1.0000
  S   S381      1.0  0.55253  0.74494  0.75386  1.0000
  H   H3043     1.0  0.77913  0.63677  0.76564  1.0000
  C   C1710     1.0  0.65114  0.65706  0.75203  1.0000
  S   S382      1.0  0.53903  0.66699  0.99059  1.0000
  H   H3044     1.0  0.64927  0.89795  0.74591  1.0000
  H   H3045     1.0  0.99612  0.75567  0.79078  1.0000
  S   S383      1.0  0.58926  0.64664  0.99223  1.0000
  S   S384      1.0  0.65381  0.70329  0.75342  1.0000
  C   C1711     1.0  0.65670  0.90353  0.76062  1.0000
  H   H3046     1.0  0.72800  0.73973  0.77289  1.0000
  C   C1712     1.0  0.97116  0.86227  0.98030  1.0000
  C   C1713     1.0  0.66948  0.86429  0.76073  1.0000
  H   H3047     1.0  0.70752  0.60678  0.76349  1.0000
  H   H3048     1.0  0.70585  0.54123  0.80173  1.0000
  H   H3049     1.0  0.75885  0.94216  0.96945  1.0000
  C   C1714     1.0  0.73845  0.85609  0.98693  1.0000
  H   H3050     1.0  0.67297  0.93507  0.76912  1.0000
  H   H3051     1.0  0.71043  0.74583  0.75092  1.0000
  C   C1715     1.0  0.64077  0.83377  0.75772  1.0000
  H   H3052     1.0  0.74330  0.79122  0.77545  1.0000
  H   H3053     1.0  0.63399  0.86586  0.77067  1.0000
  H   H3054     1.0  0.68294  0.50509  0.99007  1.0000
  H   H3055     1.0  0.55853  0.69153  0.75582  1.0000
  H   H3056     1.0  0.73134  0.87049  0.97796  1.0000
  H   H3057     1.0  0.98835  0.90619  0.98882  1.0000
  C   C1716     1.0  0.66044  0.67662  0.74370  1.0000
  H   H3058     1.0  0.69160  0.51663  0.83055  1.0000
  C   C1717     1.0  0.59548  0.51132  0.97922  1.0000
  C   C1718     1.0  0.57699  0.52516  0.98377  1.0000
  H   H3059     1.0  0.95221  0.92786  0.98850  1.0000
  C   C1719     1.0  0.72110  0.75337  0.76272  1.0000
  H   H3060     1.0  0.75514  0.89622  0.97165  1.0000
  C   C1720     1.0  0.78898  0.86441  0.97790  1.0000
  H   H3061     1.0  0.99344  0.74141  0.88496  1.0000
  C   C1721     1.0  0.95157  0.94228  0.97740  1.0000
  C   C1722     1.0  0.76594  0.89887  0.98514  1.0000
  H   H3062     1.0  0.77161  0.81432  0.78267  1.0000
  H   H3063     1.0  0.79766  0.81453  0.76974  1.0000
  H   H3064     1.0  0.63219  0.94339  0.76689  1.0000
  H   H3065     1.0  0.91807  0.95116  0.98756  1.0000
  H   H3066     1.0  0.80660  0.87009  0.97763  1.0000
  C   C1723     1.0  0.93440  0.95928  0.98534  1.0000
  C   C1724     1.0  0.80442  0.62624  0.74421  1.0000
  H   H3067     1.0  0.56106  0.51776  0.98744  1.0000
  H   H3068     1.0  0.99244  0.90213  0.91361  1.0000
  C   C1725     1.0  0.75369  0.82262  0.74345  1.0000
  H   H3069     1.0  0.78877  0.92557  0.99228  1.0000
  C   C1726     1.0  0.99722  0.89163  0.92737  1.0000
  C   C1727     1.0  0.99663  0.75803  0.84397  1.0000
  H   H3070     1.0  0.71045  0.76448  0.77231  1.0000
  C   C1728     1.0  0.83104  0.75837  0.74372  1.0000
  H   H3071     1.0  0.66751  0.86445  0.74358  1.0000
  H   H3072     1.0  0.53837  0.67519  0.74319  1.0000
