data_image0
_chemical_formula_structural       H5CH4SHCH2SH5CSFeS2FeS2FeHFeS3HFeSNH2C6H4C6H6SH2CH2CHC5HCH4C6H4C6H9SCH2CH2CHCHCH8CSC2HC2H6CHCHSH6SC2HCH2CHC3H7SC3H3CH4C3H5CH5C3H4CH2CHFeH4FeH4C3NH2SC2H2CHSHNH4C2HC3H3CSH5C3H3NHCHC2H2C2HCH11CH5C2H2C2H2CH4CH2CHC2H5CHCHCFeCH2CHCHNCH2CH2CH3CH3CHSC2HC3HC2H2CHS2H3CHCHCHC2H3CHC2Fe2HSHS2CHC4H2FeH2FeS2CHFeS3FeS2FeS2FeHFeS3FeS2FeS2FeSFeS2FeHCHFeHSCFeSHSFeC4HCH3C4H7C3H3C6H4C6H9CHCHCH2C4HCH2C6H8C6H4FeHFeC2H5SHCH2CHFeH3C2HCH2CH2NC12H26SH6CH2CH3SH3SH2CSHCH3C2H2C2HCH3C5H2S2H2NCH3CSH3CHCH2C2HSHCFeC2HC2H7CHCHC2HC2NHCH3NCHCH3C2H6SCH2CHCHCHN2C10HCH30C2H8C2H2CH2NHCHCH3C2H5SCH2CHCNC12H30C2HS3HCH2FeHC2HCH4C2HC3HFeHSCH3FeS2H4CH5FeH2SHCHFeSFeSC2HFeS2HSHFeSFeS2NFeHCH3CH2C3H4SH6CFeH3C5HCHC7H4C2HC2H2C3SCH2CHC6H4CSNC4H2SH11CSCH4CHC2H6CH7C3NCH2NC2HC2HC2H3C5H3CH3C2SC2HC3HCHC3H4CH3CH3SH4CHCSH6CHCHC4SCHNSHCHCHCH4C2HFeCH4CHCHFeH2CH2CH11C2H4C2H11SCH4SHC2H2CHCHC2H2C2HNH2NCH3CH2CHCH5CH2C3HCH2FeC2H2C2HCH7CH7FeH9C2HSCHCHC2H5CH4CHCH4CHCHNSH5NSFeS2H2FeSFeS3H2CH2SHCHCFeS2FeS2FeHFeS2FeHS2FeS2HFeH2FeS2FeHCH6CHC6H3C7H7SHC3H5C6H4C3HC7H5CNC11H27CHCH2CH3CH2FeHC2H2CHSN2CHSH3CHCH8SH2CH2CH3C3H2CH5C3NC2H3CH2C3HNSHC2H2CFeCFeH11CH2CHCH4CH2C3H2CH5CHNHCH3C2HC2H3CSFeH8C3H9FeCH5CNHC2H4C2FeH2SCH5CHCHCH2C4H2C2H3SH3C3H5CHC2HNHC3SH9FeH2CH2C2H4CH7FeH5CH2SH2CSCHCH2FeSFeCSCS3FeS2FeS2FeSFeS3HC2H4SFeSFeS2FeSFeS3FeS2FeSHFeSFeS3HC2H2C6H8C6H4C2HCHCH2C2H4C6H5C2SCH2C6H5C2H2C4HCH8FeH3CH2CHCHCH8CHCH3C2H4CH3C2HFeH2CHSH6SHCHC3H2CH3CNHC5H12NC5SHC3H2CH11CH9NSH3CH6C2H3NC2HC2HNC2HCH5C2H12CH2CHCNC7HC2H19CH3CHNHCHCH2C2HC2SHCHC2H3CH7CHCH3C2HCH2CH4NC4HCH4CHCH5CH3NC8H2C2H8CH2C3HCH3SCHCHCH2CH3C3H2CH4SCH3CHC2H3C2FeCH2C2H2C2SHCH3CH6CFeH3CH2SH2C2H5C2HC2H3FeH3C2H3FeCH4FeS2HSHFeSFeSCSHSHFeS2FeS2FeSCS2CHFeSFeS2CSHFeHFeS2H2C7H4CH3C2H6C6H4CH2C4H2C6H5C6H5FeH3NC8HC2H17CH5SC2H5SH3C3HC2H2CH3CH5CH4C2H5CH2CH2N3C5H3C2FeH2CHC2FeH4CH3SH2CH3C6H8CH8CHCH8NC3HCHSHCFeHCHCH2CHCH4CS2NHCSC3HC4H6CH3SHSH6CH4CHC2H3C2H2CSHCH3CH2SCH7CH8CH3CHC3H2CH2CH2SCHSH5SHSHCHFeS2FeSHFeSFeS3FeS2FeSCFeSFeS3C6H7N2CH2CHC2H2C6H3CHCH3C5H5C4H4CH2C4H4C6H4CHCHC2HSH6CH3CHSH4NHCH4CH2C2HCHNC8HC3H13CH10CHC2H3C2HCSCH5CH6CHCH2C2H2CHCH2CH2C2H2CNHCHCHSH3C3H9CH9CHCH2FeCH2C2HCHSFeC4SH3CHCHC2HC2HCH3C3H3CFeCH2C2H2CHCHCH4CHCH2NC9HC2H25CH2CH2CHCH2CNHCH3CH5C2HCH2CHCH2C2H2CH4CNHC2H8CNH5CH7SCSH4FeS2FeS2FeSFeS3HCS2FeS2FeS2FeSFeS3C3H2CH5CH4C6H4C6H4C6H3C7H4CH3CNCHCH4CH6CHCHSHCH3SH4CHNC3HCHCH9SH8FeH6C4H3C2HNCH2SCH17NHCNH6C3H8CH3CH5FeHSHCHSH3C2H4CHCHCH3CH3CHC3H6CHNC9H21CHC2HNC7HFeC3H15NCHCH9CHC2HCSC2H6CSHC2HC6HCH4C2H3C3H4C2H2C2H2CHCS2H11SH4FeC2H4C2HCH4CHCHCNHC3H2C5H3CH2CFeH2CFeHC3HS2FeSFeS2FeS2Fe2S3HCSCHSHC2FeS2HCHCFeS2FeSFeSFeS3HFeS2FeSHFeSFeS2HC2H3SH2SH2C2NH2SC6H4C2H2C6H4C6H4C6H6NHCH4SH3C6H5SH8CHFeC3NC3H2C2HCNCHC9HCH4C2H8CH2C2H4NC2HC2H7CH11CH4CH4CSC2H3CH2SFeCH2CH2CHCH2SHC3NC11H26CH2FeHCHCHFeH6C2HC2HFeCHCH6CHCH9CH2C2H3NC12H22CSCH11C3HCH3C2HCHCH5CH2CH2SHFeCHCSH4CH9C2H6SCSCH10CHFeHCHC3HC3HC2H3CHSHFeS2FeHSFeSHSHC2H3SCFeSFeS2FeS2FeSFeS3CSHFeSHFe2SHSHSCSH2CH3CFeH3C5H2S2H5C2H3C6H2CHCHC2H3C6H8CNH5CH4C3HC4SH4CH2C6H9C2HCHC3HCH5C5HCH4C2HCH4CH2CHCH2C3H2CH2CH3NH3C2H4CH2FeHCH4CHCHCH2NH2CH4C2H4SH3CH2C2FeH2NC3H3C3H3C2H6CH4CHC2S2H2SH8CHC2NC5HCHCHCH4SH9NH5CH7CHCHCH3SH4CFeCSC2H3CNCHC5H4CHCHCH10CHC7HCH4NC12H29FeH2SH7C2H2FeCH3CH2CHNH2CHCH3C5HC2SH3C6HCH2NHCH2C2FeSCFeS2FeS2FeSFeS3FeS2FeHFeS2CSHSHFeSFeSH2FeS2FeS2FeSFeHS2CHC2HC2HCH4CHC2HCHCH2C7HCHC6H4C6H4C6H4C6H3CHC2SHC2H2NH4SFeHCH5NC12H28SH2CSHCHCHCHSC2SHC2HSC2H4C5HSCH3CHCH2FeH3CH6CHCH6C2H12CHC3HNFeH10CNCH3C3H2C2H4CHCH4CH2C2H2CH2NHC2HC2H2CH6C2H3NC9H21CH2CH9CH12CHCH3C2HFeH3CH2C2H2C2HCH3CH3C2H4C3H6CHSCHC2SH3C2H7CH3CH2C2SFeS2FeS2FeSCHS2H6SHSFeNH2SFeHSFeSHFeHCS2FeSCFeSHFeSFeS3C6H3C5SC4H2C4HC2H2CHCHC5HCH2CHC6H2CH2C5H4NHCHCH2CHCH2NH6FeSH10CH6C3H4CH3CH2CH4NH6CHCH3SH3C2H2SHCHC2HC3H2CH3CHCH3NCH2CSH5CHCHC3FeH2CH3CNH4N2H2C4HC3H6CH8C2HCHSH6C2HCHCH2CH3C3H4CH3CH2CHCH3C3HC2HCH6FeH7CH5CHCH3SCH3CH4CH4CH6C2H2C3H2C3SHCH9CH3SHFeCHCH2CFeSFeS2HSFeSFeS3HFeSC5FeSCFeHSHSC2H3S3HFeS2FeS2FeSFeS3CHCH2CH3CH3CHCH4CHC6H4CHNHCHC4H4CH3C3HC2H4C6H5C2H3C6HCHCHFeH2C2NH2CH2CHC2H3CH6C2H2CH6CHCHC2H2NH3NCHCHC4HC2SCH6CH7CH2CHC2HCH4NC10H22CHSH2C2H2NC2NH2CH6C3HCH3C2H6FeHC2H5C2HC2H7C2HCH4CFeH2CSC2H4CH2CHC2H2CH3CHCH3CH3CH4C2SH5SH4CH3C2HC2HCHCHCH2CH4SHCHC2HCH2CH2SHSH2CH3CH5CHCNH3CH4CHCH2CHC2H2CSNCH6CFeCFeC3H2CH2CH2CH3CH2CFeHC2HCHFeH2C2HC2HCHNH2SH4CH2C2H3SHNH4FeS2FeS2FeSFeS3FeHFeS2FeHCHSHCSHSCH3S2FeHCFeS2FeHFeHS2C2HSCNC2HCHCHCH2FeCH3CH2CH2C3H2SHC6H3C6H4C6H4C6H10FeCH5CHFeH2SHCH3CNC11H21C2H6SH8SH3CH2CN2H2SCFeH5FeCHC2SHCHCSC2SNHC3HC2SHCH3C2H16CH2CH3NH3C3H2FeHCH2CH3C2H5CHCH2CHC2H2FeCH3SCH3C2HC3H4CH4CH2NCH3CH3SHC2H8CH3SCH3C2NCHCH2CHCSC3HC2H4CH5CFeCH9CHC2HCHCHCNC2H12C5HFeCSC2SHFeHFeHSFeS2HCSH2SFeHS3CFeS2FeSHFeSFeS3FeSFeS2FeSFeS3C6H5CH4C2H2C6H4C3H2C6H4C6H4C6H8SCHNC12H32C3H4C2NH3SH8CSCNH4C2HSH3CH3CHC2HCH4CHCH5CH4C2HCHCH2SH2SCH5FeH10NC7SHC3H14C2H2C2H14CH2CH2CHC3HFeHNCH5NCH3SH4CSHCH3C2HCSFeHC2H9CHCHCHC2HFeHCH2CH2CHSH2CH2CNCHCH2FeH5CHCH2CHCNC5HC2HSH4CSC2H5CHCHC2HCH3FeHCH3C2SCH3CHSH6CH2SHCFeSH2FeCHCSFeSCSHCH2FeS2FeS2Fe2S3FeS2FeS2FeSFeS3C2SCHCHCH3C6H6NHC2HCHC6H7C2HCSC2HCSH2NC6H9CSH8C2HCH8CHCH3CH3NCH4CHCH5C2S2H2C2H2CH2CH7C2SCH2C2SH2FeCH5CHCH5CHCH2C2HCSH2CHCHSHCH3CH7C2H2SCH2C3HCHNC12H25CH3CNC5HCHC2HCFeH2C2H3CHFeH4FeH12CHC2H4CFeCNH2CH4CH2CH4SCH7C2HCH5CHC2HSCH9CHCH5C3H7CH2SH10CH3C2SHFeS2FeS2FeSFeS3H7CH4FeS2FeS2FeSFeS2CSH2CH8C2HC2H3CH2C6HCHSC3H2CH4CH2FeCH5C7H4C6H4C6H4C6H4CSHSH2C4HC3SHSC2HCH3CHC3H4C2H2CHCH3CH3NHCHC4H9CNH5CHNC9HC2H19C2H7SH3NC10H14CH9NCHCH2C2H2NC11H28C2HCH3CH2CH2CHNHFeHSH11NCH5C2H2CH3CNC9H2CH8CH7SH10C2H7C3H3C2H2CHCH3C5HC2H4SH3C3HCHCHCH3C3HCNCH2CFeS2FeS2FeSFeS5FeHFeSCFeHSFeS2FeSH2S2C3H3CSHC2H3SHC2H2C2H4CHCHC2HC2HC6H4C6H4C2HC3H5C2SHCHNHFeCH4C3H7CH4CH2CHC2H2C2HCH2CH3C3H9CSNSC2HC2FeH4CHNC8HC2H16CH9CHCH3SC2H8SHC2H4CH9C3HNCHC2HC2H2C3H18C2HCH7CHFeHC2NC11H26CHC2SH2SCHC3NCH2SHFeH5CHCH3C2NH4C2HCH7CHCH2NCH2CHCH3CHC2H6C2HFeC2FeCSFeS2FeSHS3HFeSHFeHSFeHSH2C2S2HFeS2FeS2FeSFeS3HC2H2CH2C4H6C2HSHCSHC5H6C2H2FeH3C6H4C6H5C2H4NCHCH3CFeH3CH3SH2CH5FeCH2CHCH5CHCSNC4HC2H8CH5CH5CH10CH2CH2CSH3CH4CH3C2H2CHCHCHFeH2CNH4CH4C2HC2HCH3NH2CH3CH2CH2C5HC2HCH3C2H5C2H6NC8HCH2SH3CH17C4H3CH2C3H2C2HC2H2CHSHCH4CHCH5CH4C2SHC3H5CH2CH9NHSCH2CHC3NH3C2H2CH4C3H2CH5C3HC2HC3FeHCH2SHCH2CH4CH2FeS2HCSHCS2HFeSHFeS2Fe2S4FeSHFeS2FeSFeS3FeS2FeS2FeSFeS3C3H2C6H5CHC3H2CH3C2H2C7H5CH3C3H3C2HCH3C2H3C6H7C2H3C2HCH2NCHC6HC2H2CH2SHNH3NFeH3CSHSH6CH2C3H8CH2NC9NCH15C5H5CH3CH2CH4CH4CH3SC2HNC12H28C2SCHCH3SC2H3CH2C3HNH2CHFeCHSHSHC2H6CH3CHCH2CH2CH3CH5C2H3C2HCH3CHCHCH2CH5CH4CH4C2H3CHNH3C2H4CFeH8C3HC2HC2H8C2H3NH2CH2CH2CH3CH2CH2CH2C3H3CFeHCHCHCH2CH6CH3C2SH2SC3H4CH2FeCH6SHC2HSHCSFeCSFeHSCFeSHSHC2HCHFeS2HFeS2FeS2FeHFeS3HSH2SHCHFeSHSH3CHC6H5C2HCH2C6H4C6HFeH2CHCH3SHC8H4SH4CH5CH4CSHC2H2FeC3HCHCHFeH3S2H4C2H2C2H2NHCHC3H3C3HSCNC7HSCSCHCH10CHFeH8CH4CHNHCHC2H2CHC3H4SH10CHCH3CH4NC7SHCHCHCH13SCH5CH7CHC2H3C2HC2H2CH2CHCH6FeCH6CH7C2H4CHSH4CH3SHNCHCHCFeCHCHS3FeSFeHSHCH2FeS3FeS2FeSHFeSHSH2SFeS2H2FeHFeS3HCSCH3C6H3C7H6CH2C6H4C6H4C6H4CH2C4H4SNC5HC4HCH22SH5CNHCHSHCH4C2HFeC3H4S2H3C3H5C3H2NC12H27C2H3CHCHCHCH2CH3SH2CHCH2C2H4CH4NC7H2CHCH17SCHCFeHCH4NH3SFeHSH4SCSHC3S3CHCHFeHC3HCSH2CH4SCH2CFeH2CHNCH2CH5CFeC2H5CH6CHCFeHCNH2CH2FeSHNC2H2CH3SH14C2H3CH2SHC2H3FeS2H2SFe2S2FeS2FeCFeS3HFeSHFeSHFeSFeS3FeS2FeS2FeSFeS3HNFeS2FeSCSHCH4CHSCH2CHCHCH4C6H6C5H3C6H9C2HCHC2FeH2C5H4CH2C4HSCH3C6H4C2H6CHCH3SH6C2H6FeHSH4CHNCNC12H16CH2CH16C2HCH4CHC3H11C2H2CHC4H6CH2CHC2H2SCH3CSC2H4NC6HC5H2NH7FeH5C2H4CSCH3NC4H2CH2CHCHCH9SH8CHSHCH5C2HCHC4HC2H2C3FeH2C2H5NC5HC2HNCHCH3C2NHCH2CH5CHCH2CSCHCHCH2CH4CH2C2SCHCH3C2HCH2CHSH2CH8C3H3C2FeH4C4HCHCH3C4HCH5CH2NH7C2HCHCH2CHCHC2H2CH5C3SH2CHCHCH2NCSHC2HCSCSFeS2FeSHFeSFeS3H3C2HCH4CH2C8H4FeH2CHCH4C3HCHCH5CH3NH2CHSHCH2CH4C2H2FeCH2NH8FeCSC4HCH2C5H2CH3CH3CH2CH3C3H2CHCHNCHC2H4CHCHCH8CSH5C2H2CNHCHNH2CH2C5HCHCHCHCH4C3HC2HCH4CSH3CH3CFeCH2CHCH13C2H8C2HCHC2H2CH3CHCHCH5CNHCH8CH8C2H9CH3CH6C
_chemical_formula_sum              "H6144 C3456 S768 Fe384 N192"
_cell_length_a       69.4161
_cell_length_b       69.2407
_cell_length_c       69.1012
_cell_angle_alpha    78.3276
_cell_angle_beta     78.2947
_cell_angle_gamma    78.2919

_space_group_name_H-M_alt    "P 1"
_space_group_IT_number       1

loop_
  _space_group_symop_operation_xyz
  'x, y, z'

loop_
  _atom_site_type_symbol
  _atom_site_label
  _atom_site_symmetry_multiplicity
  _atom_site_fract_x
  _atom_site_fract_y
  _atom_site_fract_z
  _atom_site_occupancy
  H   H1        1.0  0.03822  0.42962  0.09288  1.0000
  H   H2        1.0  0.21650  0.99209  0.15715  1.0000
  H   H3        1.0  0.22181  0.00412  0.00328  1.0000
  H   H4        1.0  0.07711  0.45421  0.02292  1.0000
  H   H5        1.0  0.15225  0.40466  0.07747  1.0000
  C   C1        1.0  0.06046  0.21705  0.10712  1.0000
  H   H6        1.0  0.11106  0.46714  0.02132  1.0000
  H   H7        1.0  0.12595  0.46680  0.04007  1.0000
  H   H8        1.0  0.00161  0.44130  0.23992  1.0000
  H   H9        1.0  0.14588  0.07017  0.22419  1.0000
  S   S1        1.0  0.00931  0.24893  0.05846  1.0000
  H   H10       1.0  0.99496  0.14968  0.09765  1.0000
  C   C2        1.0  0.11582  0.02470  0.29220  1.0000
  H   H11       1.0  0.13036  0.39841  0.04534  1.0000
  H   H12       1.0  0.21730  0.44605  0.30509  1.0000
  S   S2        1.0  0.00412  0.23497  0.11884  1.0000
  H   H13       1.0  0.08153  0.46300  0.05004  1.0000
  H   H14       1.0  0.05987  0.41556  0.10284  1.0000
  H   H15       1.0  0.99422  0.41145  0.29034  1.0000
  H   H16       1.0  0.05153  0.19291  0.00942  1.0000
  H   H17       1.0  0.04116  0.37475  0.29200  1.0000
  C   C3        1.0  0.20185  0.98740  0.16379  1.0000
  S   S3        1.0  0.15065  0.41445  0.99860  1.0000
  Fe  Fe1       1.0  0.07427  0.38613  0.14078  1.0000
  S   S4        1.0  0.04897  0.40753  0.15415  1.0000
  S   S5        1.0  0.10406  0.39569  0.12665  1.0000
  Fe  Fe2       1.0  0.05027  0.35180  0.15188  1.0000
  S   S6        1.0  0.02309  0.37066  0.16643  1.0000
  S   S7        1.0  0.05218  0.31938  0.14866  1.0000
  Fe  Fe3       1.0  0.02983  0.39425  0.13987  1.0000
  H   H18       1.0  0.04179  0.46445  0.19058  1.0000
  Fe  Fe4       1.0  0.04434  0.38248  0.17984  1.0000
  S   S8        1.0  0.03437  0.39280  0.20994  1.0000
  S   S9        1.0  0.05549  0.37469  0.12408  1.0000
  S   S10       1.0  0.07131  0.36161  0.16763  1.0000
  H   H19       1.0  0.16102  0.00043  0.17237  1.0000
  Fe  Fe5       1.0  0.99296  0.23950  0.08965  1.0000
  S   S11       1.0  0.09705  0.42321  0.29627  1.0000
  N   N1        1.0  0.15589  0.00738  0.20251  1.0000
  H   H20       1.0  0.02112  0.45535  0.22686  1.0000
  H   H21       1.0  0.17561  0.46527  0.02212  1.0000
  C   C4        1.0  0.10519  0.42139  0.11891  1.0000
  C   C5        1.0  0.12377  0.42746  0.11134  1.0000
  C   C6        1.0  0.12501  0.44779  0.10419  1.0000
  C   C7        1.0  0.10764  0.46215  0.10479  1.0000
  C   C8        1.0  0.08910  0.45610  0.11256  1.0000
  C   C9        1.0  0.08786  0.43581  0.11952  1.0000
  H   H22       1.0  0.13724  0.41638  0.11089  1.0000
  H   H23       1.0  0.13938  0.45234  0.09833  1.0000
  H   H24       1.0  0.07560  0.46715  0.11306  1.0000
  H   H25       1.0  0.07347  0.43137  0.12510  1.0000
  C   C10       1.0  0.07737  0.38132  0.25481  1.0000
  C   C11       1.0  0.06030  0.39599  0.25640  1.0000
  C   C12       1.0  0.04717  0.39933  0.24257  1.0000
  C   C13       1.0  0.05126  0.38829  0.22684  1.0000
  C   C14       1.0  0.06845  0.37377  0.22509  1.0000
  C   C15       1.0  0.08142  0.37025  0.23911  1.0000
  H   H26       1.0  0.05717  0.40465  0.26838  1.0000
  H   H27       1.0  0.03384  0.41052  0.24403  1.0000
  H   H28       1.0  0.07165  0.36511  0.21308  1.0000
  H   H29       1.0  0.09462  0.35886  0.23782  1.0000
  H   H30       1.0  0.19831  0.00098  0.18978  1.0000
  H   H31       1.0  0.08508  0.46943  0.18338  1.0000
  S   S12       1.0  0.22328  0.10744  0.98838  1.0000
  H   H32       1.0  0.99091  0.14739  0.31394  1.0000
  H   H33       1.0  0.14136  0.98507  0.30791  1.0000
  C   C16       1.0  0.05891  0.19322  0.99357  1.0000
  H   H34       1.0  0.00667  0.41562  0.16622  1.0000
  H   H35       1.0  0.05681  0.32204  0.30701  1.0000
  C   C17       1.0  0.17997  0.99276  0.22816  1.0000
  H   H36       1.0  0.11710  0.43816  0.16356  1.0000
  C   C18       1.0  0.18978  0.00176  0.17768  1.0000
  C   C19       1.0  0.02543  0.02862  0.23712  1.0000
  C   C20       1.0  0.03349  0.04292  0.24319  1.0000
  C   C21       1.0  0.05314  0.03838  0.24719  1.0000
  C   C22       1.0  0.06447  0.01930  0.24594  1.0000
  H   H37       1.0  0.99120  0.21254  0.00056  1.0000
  C   C23       1.0  0.03686  0.00961  0.23570  1.0000
  H   H38       1.0  0.02483  0.05766  0.24414  1.0000
  H   H39       1.0  0.05958  0.04971  0.25113  1.0000
  H   H40       1.0  0.00949  0.40809  0.30944  1.0000
  H   H41       1.0  0.12423  0.01522  0.21389  1.0000
  C   C24       1.0  0.03257  0.23544  0.04943  1.0000
  C   C25       1.0  0.03979  0.21631  0.05901  1.0000
  C   C26       1.0  0.05830  0.20588  0.05088  1.0000
  C   C27       1.0  0.06973  0.21465  0.03337  1.0000
  C   C28       1.0  0.06262  0.23397  0.02420  1.0000
  C   C29       1.0  0.04399  0.24420  0.03200  1.0000
  H   H42       1.0  0.03101  0.20944  0.07246  1.0000
  H   H43       1.0  0.06374  0.19095  0.05812  1.0000
  H   H44       1.0  0.07143  0.24104  0.01107  1.0000
  H   H45       1.0  0.03852  0.25906  0.02460  1.0000
  C   C30       1.0  0.00687  0.45106  0.22576  1.0000
  C   C31       1.0  0.02928  0.34087  0.25208  1.0000
  C   C32       1.0  0.01200  0.32204  0.14778  1.0000
  C   C33       1.0  0.03096  0.31021  0.14613  1.0000
  C   C34       1.0  0.03311  0.29051  0.14261  1.0000
  C   C35       1.0  0.01649  0.28275  0.14058  1.0000
  H   H46       1.0  0.12654  0.39111  0.18334  1.0000
  H   H47       1.0  0.01015  0.33715  0.15062  1.0000
  H   H48       1.0  0.04767  0.28116  0.14164  1.0000
  H   H49       1.0  0.01827  0.26754  0.13805  1.0000
  H   H50       1.0  0.99010  0.36703  0.20297  1.0000
  H   H51       1.0  0.16634  0.16239  0.98605  1.0000
  H   H52       1.0  0.04586  0.25588  0.10672  1.0000
  H   H53       1.0  0.07256  0.00811  0.30464  1.0000
  H   H54       1.0  0.18553  0.00714  0.22531  1.0000
  S   S13       1.0  0.99438  0.18189  0.14679  1.0000
  C   C36       1.0  0.15891  0.99531  0.22279  1.0000
  H   H55       1.0  0.99204  0.37260  0.13556  1.0000
  H   H56       1.0  0.21662  0.45835  0.04600  1.0000
  C   C37       1.0  0.16459  0.44285  0.01182  1.0000
  H   H57       1.0  0.17317  0.43039  0.02027  1.0000
  H   H58       1.0  0.08653  0.25789  0.06419  1.0000
  C   C38       1.0  0.12731  0.03321  0.27203  1.0000
  H   H59       1.0  0.06664  0.25863  0.05167  1.0000
  C   C39       1.0  0.16586  0.46256  0.01299  1.0000
  H   H60       1.0  0.09496  0.44921  0.22547  1.0000
  C   C40       1.0  0.02912  0.36915  0.30376  1.0000
  H   H61       1.0  0.99838  0.29176  0.06870  1.0000
  H   H62       1.0  0.09557  0.00033  0.21038  1.0000
  H   H63       1.0  0.01680  0.11011  0.22834  1.0000
  H   H64       1.0  0.08460  0.40874  0.21045  1.0000
  H   H65       1.0  0.02073  0.06116  0.29449  1.0000
  H   H66       1.0  0.09792  0.45967  0.06736  1.0000
  H   H67       1.0  0.04301  0.45405  0.14918  1.0000
  H   H68       1.0  0.01401  0.14644  0.22079  1.0000
  C   C41       1.0  0.15253  0.43919  0.99945  1.0000
  S   S14       1.0  0.00156  0.03422  0.23030  1.0000
  C   C42       1.0  0.01073  0.48253  0.31073  1.0000
  C   C43       1.0  0.05346  0.33830  0.30779  1.0000
  H   H69       1.0  0.99725  0.17054  0.29900  1.0000
  C   C44       1.0  0.09708  0.45679  0.05228  1.0000
  C   C45       1.0  0.99534  0.42766  0.16115  1.0000
  H   H70       1.0  0.21585  0.12549  0.02599  1.0000
  H   H71       1.0  0.05666  0.44072  0.25475  1.0000
  H   H72       1.0  0.05996  0.16116  0.99560  1.0000
  H   H73       1.0  0.02089  0.40779  0.28350  1.0000
  H   H74       1.0  0.10763  0.37737  0.19865  1.0000
  H   H75       1.0  0.06696  0.29492  0.03756  1.0000
  C   C46       1.0  0.02978  0.06069  0.30619  1.0000
  H   H76       1.0  0.06227  0.46021  0.21172  1.0000
  C   C47       1.0  0.14856  0.04083  0.21634  1.0000
  H   H77       1.0  0.99640  0.47801  0.20672  1.0000
  S   S15       1.0  0.00546  0.41458  0.12511  1.0000
  H   H78       1.0  0.98822  0.22525  0.03257  1.0000
  H   H79       1.0  0.05222  0.40822  0.08221  1.0000
  H   H80       1.0  0.09540  0.05274  0.29364  1.0000
  H   H81       1.0  0.12476  0.43278  0.06965  1.0000
  H   H82       1.0  0.13383  0.43392  0.04359  1.0000
  H   H83       1.0  0.22675  0.01738  0.03446  1.0000
  S   S16       1.0  0.04815  0.46134  0.30189  1.0000
  C   C48       1.0  0.15484  0.47869  0.00197  1.0000
  C   C49       1.0  0.08409  0.43408  0.00182  1.0000
  H   H84       1.0  0.01725  0.14756  0.24564  1.0000
  C   C50       1.0  0.13520  0.47295  0.31288  1.0000
  H   H85       1.0  0.12447  0.02533  0.30379  1.0000
  H   H86       1.0  0.19385  0.98733  0.15141  1.0000
  C   C51       1.0  0.14164  0.45532  0.98832  1.0000
  H   H87       1.0  0.11357  0.37750  0.17199  1.0000
  C   C52       1.0  0.00266  0.30101  0.07800  1.0000
  C   C53       1.0  0.10118  0.42970  0.03184  1.0000
  C   C54       1.0  0.11192  0.38667  0.18389  1.0000
  H   H88       1.0  0.09561  0.45104  0.15235  1.0000
  H   H89       1.0  0.08693  0.03455  0.28399  1.0000
  H   H90       1.0  0.08715  0.40891  0.06491  1.0000
  H   H91       1.0  0.11954  0.03278  0.25962  1.0000
  H   H92       1.0  0.08199  0.39991  0.17989  1.0000
  H   H93       1.0  0.99072  0.99640  0.22195  1.0000
  H   H94       1.0  0.05451  0.26944  0.98555  1.0000
  S   S17       1.0  0.09251  0.20104  0.02298  1.0000
  C   C55       1.0  0.12296  0.42742  0.05609  1.0000
  C   C56       1.0  0.08162  0.43786  0.02331  1.0000
  C   C57       1.0  0.02084  0.28980  0.08726  1.0000
  H   H95       1.0  0.01069  0.19237  0.00825  1.0000
  H   H96       1.0  0.07015  0.20328  0.99007  1.0000
  H   H97       1.0  0.21476  0.16617  0.00824  1.0000
  C   C58       1.0  0.09367  0.45397  0.18394  1.0000
  H   H98       1.0  0.13068  0.02029  0.18725  1.0000
  H   H99       1.0  0.17062  0.06032  0.21258  1.0000
  H   H100      1.0  0.12422  0.47263  0.28551  1.0000
  H   H101      1.0  0.04570  0.03141  0.30264  1.0000
  C   C59       1.0  0.07276  0.26760  0.05986  1.0000
  C   C60       1.0  0.99536  0.31414  0.14615  1.0000
  C   C61       1.0  0.02627  0.33965  0.28957  1.0000
  H   H102      1.0  0.05901  0.44080  0.06090  1.0000
  H   H103      1.0  0.09409  0.42005  0.08275  1.0000
  H   H104      1.0  0.06661  0.44757  0.08159  1.0000
  H   H105      1.0  0.12543  0.46715  0.13898  1.0000
  H   H106      1.0  0.15625  0.38274  0.06593  1.0000
  C   C62       1.0  0.06639  0.43483  0.07414  1.0000
  H   H107      1.0  0.09220  0.34031  0.31195  1.0000
  H   H108      1.0  0.15719  0.03690  0.18517  1.0000
  H   H109      1.0  0.00277  0.14284  0.27898  1.0000
  H   H110      1.0  0.99030  0.17187  0.10868  1.0000
  H   H111      1.0  0.03139  0.32429  0.25411  1.0000
  C   C63       1.0  0.99164  0.43061  0.14153  1.0000
  C   C64       1.0  0.06940  0.44420  0.21348  1.0000
  C   C65       1.0  0.19304  0.43143  0.06237  1.0000
  H   H112      1.0  0.08815  0.42491  0.23472  1.0000
  H   H113      1.0  0.14243  0.02409  0.26955  1.0000
  H   H114      1.0  0.14768  0.00161  0.23486  1.0000
  H   H115      1.0  0.07219  0.20350  0.10708  1.0000
  C   C66       1.0  0.13415  0.00931  0.20082  1.0000
  H   H116      1.0  0.00582  0.31542  0.06862  1.0000
  H   H117      1.0  0.00969  0.44232  0.21334  1.0000
  C   C67       1.0  0.09431  0.03654  0.29614  1.0000
  H   H118      1.0  0.23200  0.15111  0.03392  1.0000
  Fe  Fe6       1.0  0.06634  0.43207  0.31319  1.0000
  H   H119      1.0  0.19054  0.44357  0.07140  1.0000
  H   H120      1.0  0.18354  0.43599  0.05055  1.0000
  H   H121      1.0  0.18843  0.41788  0.07244  1.0000
  H   H122      1.0  0.10691  0.41859  0.20103  1.0000
  Fe  Fe7       1.0  0.08693  0.39410  0.29771  1.0000
  H   H123      1.0  0.02616  0.44636  0.17188  1.0000
  H   H124      1.0  0.99791  0.36722  0.10081  1.0000
  H   H125      1.0  0.02933  0.22059  0.01139  1.0000
  H   H126      1.0  0.21098  0.06551  0.99028  1.0000
  C   C68       1.0  0.11056  0.46986  0.03666  1.0000
  C   C69       1.0  0.00391  0.20820  0.00892  1.0000
  C   C70       1.0  0.03718  0.34747  0.26836  1.0000
  N   N2        1.0  0.10188  0.43457  0.05198  1.0000
  H   H127      1.0  0.05354  0.23400  0.98755  1.0000
  H   H128      1.0  0.00987  0.34351  0.28973  1.0000
  S   S18       1.0  0.09373  0.37628  0.27233  1.0000
  C   C71       1.0  0.23253  0.99576  0.99233  1.0000
  C   C72       1.0  0.03531  0.45794  0.16398  1.0000
  H   H129      1.0  0.21709  0.41380  0.04547  1.0000
  H   H130      1.0  0.06421  0.46492  0.24578  1.0000
  C   C73       1.0  0.03923  0.28511  0.07077  1.0000
  H   H131      1.0  0.10893  0.26949  0.03315  1.0000
  S   S19       1.0  0.08926  0.01407  0.25034  1.0000
  H   H132      1.0  0.08217  0.26161  0.10989  1.0000
  N   N3        1.0  0.03177  0.34664  0.30672  1.0000
  H   H133      1.0  0.03510  0.36399  0.26527  1.0000
  H   H134      1.0  0.21317  0.44838  0.02568  1.0000
  H   H135      1.0  0.14349  0.45745  0.31300  1.0000
  H   H136      1.0  0.12060  0.39650  0.07177  1.0000
  C   C74       1.0  0.06966  0.44856  0.24902  1.0000
  C   C75       1.0  0.15149  0.39923  0.06363  1.0000
  H   H137      1.0  0.03251  0.07608  0.30559  1.0000
  C   C76       1.0  0.10550  0.45179  0.16276  1.0000
  C   C77       1.0  0.01920  0.22246  0.00034  1.0000
  C   C78       1.0  0.05047  0.45954  0.17658  1.0000
  H   H138      1.0  0.00326  0.14171  0.16758  1.0000
  H   H139      1.0  0.18878  0.01713  0.16881  1.0000
  H   H140      1.0  0.08948  0.26905  0.01941  1.0000
  C   C79       1.0  0.06783  0.23419  0.09153  1.0000
  S   S20       1.0  0.21006  0.48351  0.07735  1.0000
  H   H141      1.0  0.18369  0.46482  0.29950  1.0000
  H   H142      1.0  0.03754  0.34644  0.23711  1.0000
  H   H143      1.0  0.10578  0.28200  0.11386  1.0000
  H   H144      1.0  0.08194  0.23657  0.09501  1.0000
  H   H145      1.0  0.08044  0.29420  0.12041  1.0000
  C   C80       1.0  0.08481  0.27473  0.09810  1.0000
  C   C81       1.0  0.07960  0.28559  0.04447  1.0000
  C   C82       1.0  0.98851  0.14809  0.17441  1.0000
  H   H146      1.0  0.02970  0.32304  0.29137  1.0000
  H   H147      1.0  0.07124  0.43484  0.16628  1.0000
  H   H148      1.0  0.09702  0.27010  0.08604  1.0000
  N   N4        1.0  0.05768  0.27248  0.07806  1.0000
  H   H149      1.0  0.05402  0.28750  0.10343  1.0000
  C   C83       1.0  0.06526  0.28443  0.09002  1.0000
  H   H150      1.0  0.20297  0.44024  0.98419  1.0000
  C   C84       1.0  0.09599  0.40516  0.18026  1.0000
  C   C85       1.0  0.22185  0.44518  0.03820  1.0000
  H   H151      1.0  0.03921  0.24928  0.08572  1.0000
  H   H152      1.0  0.12629  0.47134  0.16363  1.0000
  C   C86       1.0  0.09544  0.27839  0.02736  1.0000
  C   C87       1.0  0.05616  0.00480  0.24052  1.0000
  H   H153      1.0  0.06713  0.29948  0.08122  1.0000
  C   C88       1.0  0.12705  0.98974  0.19981  1.0000
  H   H154      1.0  0.09528  0.30278  0.09666  1.0000
  H   H155      1.0  0.22558  0.42174  0.01013  1.0000
  H   H156      1.0  0.16195  0.40599  0.05089  1.0000
  H   H157      1.0  0.15191  0.03338  0.23135  1.0000
  H   H158      1.0  0.02514  0.47247  0.16138  1.0000
  H   H159      1.0  0.05344  0.34160  0.26678  1.0000
  H   H160      1.0  0.07888  0.44573  0.26099  1.0000
  H   H161      1.0  0.07124  0.22914  0.07674  1.0000
  H   H162      1.0  0.04244  0.29990  0.06235  1.0000
  H   H163      1.0  0.06951  0.43001  0.03237  1.0000
  H   H164      1.0  0.12891  0.04889  0.27183  1.0000
  C   C89       1.0  0.16023  0.02834  0.20005  1.0000
  H   H165      1.0  0.99556  0.21291  0.21048  1.0000
  H   H166      1.0  0.98986  0.30420  0.09016  1.0000
  H   H167      1.0  0.04687  0.21339  0.10352  1.0000
  H   H168      1.0  0.18612  0.13132  0.00195  1.0000
  H   H169      1.0  0.99857  0.17765  0.22627  1.0000
  C   C90       1.0  0.99751  0.29456  0.14246  1.0000
  C   C91       1.0  0.20900  0.19523  0.99058  1.0000
  H   H170      1.0  0.09580  0.44198  0.99185  1.0000
  H   H171      1.0  0.20623  0.20353  0.00332  1.0000
  C   C92       1.0  0.05345  0.42114  0.08889  1.0000
  C   C93       1.0  0.19187  0.13855  0.98709  1.0000
  H   H172      1.0  0.99635  0.37721  0.31085  1.0000
  H   H173      1.0  0.19441  0.19265  0.98821  1.0000
  C   C94       1.0  0.21508  0.42686  0.05315  1.0000
  H   H174      1.0  0.03445  0.27774  0.06002  1.0000
  H   H175      1.0  0.11366  0.43488  0.02046  1.0000
  H   H176      1.0  0.05706  0.43540  0.21952  1.0000
  H   H177      1.0  0.06320  0.34532  0.29444  1.0000
  C   C95       1.0  0.10507  0.99372  0.19756  1.0000
  H   H178      1.0  0.10379  0.41323  0.03238  1.0000
  H   H179      1.0  0.03771  0.11746  0.23485  1.0000
  C   C96       1.0  0.09196  0.28937  0.10781  1.0000
  H   H180      1.0  0.10511  0.45325  0.19333  1.0000
  C   C97       1.0  0.16847  0.99680  0.18584  1.0000
  C   C98       1.0  0.11821  0.47498  0.30118  1.0000
  H   H181      1.0  0.03079  0.99857  0.23080  1.0000
  H   H182      1.0  0.10273  0.00408  0.18339  1.0000
  H   H183      1.0  0.13222  0.04309  0.21670  1.0000
  H   H184      1.0  0.10080  0.41357  0.16525  1.0000
  H   H185      1.0  0.09999  0.29144  0.01635  1.0000
  C   C99       1.0  0.05175  0.25344  0.09099  1.0000
  H   H186      1.0  0.01053  0.23777  0.00062  1.0000
  C   C100      1.0  0.13022  0.40443  0.05908  1.0000
  H   H187      1.0  0.05703  0.22109  0.12236  1.0000
  C   C101      1.0  0.08801  0.42367  0.06848  1.0000
  Fe  Fe8       1.0  0.10946  0.21446  0.99327  1.0000
  C   C102      1.0  0.08220  0.44100  0.23027  1.0000
  H   H188      1.0  0.01651  0.27601  0.09698  1.0000
  H   H189      1.0  0.02396  0.29944  0.09689  1.0000
  C   C103      1.0  0.09226  0.41797  0.19715  1.0000
  H   H190      1.0  0.05493  0.42779  0.18864  1.0000
  C   C104      1.0  0.22267  0.17516  0.99500  1.0000
  H   H191      1.0  0.08620  0.29505  0.05165  1.0000
  N   N5        1.0  0.08020  0.43881  0.19346  1.0000
  C   C105      1.0  0.06448  0.43923  0.18105  1.0000
  H   H192      1.0  0.19684  0.04572  0.99296  1.0000
  H   H193      1.0  0.22271  0.11799  0.05053  1.0000
  C   C106      1.0  0.14277  0.47502  0.98963  1.0000
  H   H194      1.0  0.06482  0.99008  0.23946  1.0000
  H   H195      1.0  0.05914  0.47129  0.16808  1.0000
  C   C107      1.0  0.22867  0.12081  0.03423  1.0000
  H   H196      1.0  0.06982  0.43971  0.99603  1.0000
  H   H197      1.0  0.05688  0.05176  0.28692  1.0000
  H   H198      1.0  0.01319  0.34719  0.25238  1.0000
  C   C108      1.0  0.00837  0.40339  0.29530  1.0000
  H   H199      1.0  0.08146  0.16789  0.00182  1.0000
  H   H200      1.0  0.17005  0.99422  0.26001  1.0000
  H   H201      1.0  0.22366  0.42252  0.06568  1.0000
  C   C109      1.0  0.07031  0.17219  0.99155  1.0000
  H   H202      1.0  0.11541  0.00886  0.29193  1.0000
  S   S21       1.0  0.14196  0.21646  0.99007  1.0000
  C   C110      1.0  0.04945  0.04632  0.30226  1.0000
  C   C111      1.0  0.11624  0.46959  0.15371  1.0000
  H   H203      1.0  0.00732  0.20476  0.04024  1.0000
  C   C112      1.0  0.15445  0.06156  0.21235  1.0000
  C   C113      1.0  0.02132  0.11790  0.23882  1.0000
  C   C114      1.0  0.01068  0.13962  0.23685  1.0000
  H   H204      1.0  0.01790  0.10989  0.25444  1.0000
  C   C115      1.0  0.00874  0.38082  0.29853  1.0000
  C   C116      1.0  0.98771  0.14132  0.24371  1.0000
  H   H205      1.0  0.08829  0.41780  0.00128  1.0000
  H   H206      1.0  0.17624  0.02831  0.19982  1.0000
  C   C117      1.0  0.99109  0.46965  0.22169  1.0000
  H   H207      1.0  0.15105  0.06994  0.19759  1.0000
  S   S22       1.0  0.16118  0.48159  0.05871  1.0000
  S   S23       1.0  0.05564  0.40393  0.31234  1.0000
  H   H208      1.0  0.99584  0.17569  0.26008  1.0000
  H   H209      1.0  0.99831  0.99689  0.26053  1.0000
  H   H210      1.0  0.00576  0.37735  0.28456  1.0000
  C   C118      1.0  0.99535  0.20964  0.03091  1.0000
  H   H211      1.0  0.10874  0.46346  0.30841  1.0000
  C   C119      1.0  0.98750  0.15128  0.28279  1.0000
  H   H212      1.0  0.03389  0.18835  0.98239  1.0000
  C   C120      1.0  0.98777  0.48298  0.23813  1.0000
  H   H213      1.0  0.98778  0.39316  0.10183  1.0000
  C   C121      1.0  0.17899  0.46866  0.31488  1.0000
  C   C122      1.0  0.20758  0.05441  0.98242  1.0000
  H   H214      1.0  0.02801  0.98459  0.27676  1.0000
  H   H215      1.0  0.10527  0.48359  0.15121  1.0000
  H   H216      1.0  0.22430  0.16732  0.98221  1.0000
  C   C123      1.0  0.01833  0.33957  0.32584  1.0000
  H   H217      1.0  0.06177  0.01704  0.51541  1.0000
  C   C124      1.0  0.13670  0.98845  0.56288  1.0000
  C   C125      1.0  0.09710  0.00785  0.54727  1.0000
  Fe  Fe9       1.0  0.21524  0.34885  0.50358  1.0000
  Fe  Fe10      1.0  0.19746  0.32033  0.53911  1.0000
  H   H218      1.0  0.09612  0.43629  0.62788  1.0000
  S   S24       1.0  0.17572  0.29846  0.54534  1.0000
  H   H219      1.0  0.01142  0.05110  0.41792  1.0000
  S   S25       1.0  0.19961  0.38625  0.56002  1.0000
  S   S26       1.0  0.18843  0.35277  0.52749  1.0000
  C   C126      1.0  0.99429  0.38303  0.35815  1.0000
  H   H220      1.0  0.06626  0.06089  0.31653  1.0000
  C   C127      1.0  0.01837  0.36752  0.45838  1.0000
  C   C128      1.0  0.09581  0.03342  0.36834  1.0000
  C   C129      1.0  0.17069  0.41194  0.61970  1.0000
  C   C130      1.0  0.02016  0.31657  0.33237  1.0000
  H   H221      1.0  0.01665  0.42952  0.38503  1.0000
  H   H222      1.0  0.13500  0.98879  0.38002  1.0000
  Fe  Fe11      1.0  0.19148  0.01360  0.41742  1.0000
  H   H223      1.0  0.08826  0.33532  0.33896  1.0000
  H   H224      1.0  0.99099  0.10169  0.63000  1.0000
  Fe  Fe12      1.0  0.14907  0.03593  0.42725  1.0000
  S   S27       1.0  0.13531  0.01547  0.41460  1.0000
  S   S28       1.0  0.12992  0.06377  0.43785  1.0000
  C   C131      1.0  0.16379  0.46367  0.58609  1.0000
  H   H225      1.0  0.05071  0.01168  0.34044  1.0000
  Fe  Fe13      1.0  0.16098  0.01729  0.38910  1.0000
  S   S29       1.0  0.15773  0.01939  0.35659  1.0000
  S   S30       1.0  0.16800  0.01116  0.44511  1.0000
  S   S31       1.0  0.17347  0.03984  0.40033  1.0000
  Fe  Fe14      1.0  0.05932  0.31507  0.55264  1.0000
  S   S32       1.0  0.03792  0.30350  0.57953  1.0000
  S   S33       1.0  0.08280  0.33238  0.55547  1.0000
  Fe  Fe15      1.0  0.03608  0.30599  0.52339  1.0000
  S   S34       1.0  0.01299  0.29369  0.54784  1.0000
  S   S35       1.0  0.03510  0.30809  0.49060  1.0000
  Fe  Fe16      1.0  0.01370  0.31991  0.56221  1.0000
  H   H226      1.0  0.03366  0.39825  0.43121  1.0000
  Fe  Fe17      1.0  0.03918  0.27822  0.56281  1.0000
  S   S36       1.0  0.04133  0.24621  0.57948  1.0000
  S   S37       1.0  0.03495  0.33324  0.53649  1.0000
  S   S38       1.0  0.06251  0.28867  0.53721  1.0000
  Fe  Fe18      1.0  0.04584  0.10914  0.57622  1.0000
  S   S39       1.0  0.03048  0.13756  0.55974  1.0000
  S   S40       1.0  0.03403  0.09413  0.60754  1.0000
  Fe  Fe19      1.0  0.07336  0.09786  0.53781  1.0000
  S   S41       1.0  0.06007  0.12542  0.51824  1.0000
  S   S42       1.0  0.09565  0.07063  0.52924  1.0000
  Fe  Fe20      1.0  0.06109  0.14162  0.54324  1.0000
  S   S43       1.0  0.06974  0.17245  0.53331  1.0000
  Fe  Fe21      1.0  0.03048  0.11961  0.53619  1.0000
  S   S44       1.0  0.07687  0.11435  0.56159  1.0000
  S   S45       1.0  0.04346  0.09089  0.55376  1.0000
  Fe  Fe22      1.0  0.15642  0.99112  0.42999  1.0000
  H   H227      1.0  0.10845  0.04182  0.36265  1.0000
  C   C132      1.0  0.08323  0.33279  0.32554  1.0000
  H   H228      1.0  0.05926  0.35759  0.32694  1.0000
  Fe  Fe23      1.0  0.10520  0.41085  0.32685  1.0000
  H   H229      1.0  0.03084  0.37393  0.31763  1.0000
  S   S46       1.0  0.13620  0.41186  0.33253  1.0000
  C   C133      1.0  0.22890  0.04206  0.42976  1.0000
  Fe  Fe24      1.0  0.06697  0.39271  0.34137  1.0000
  S   S47       1.0  0.05214  0.37136  0.36646  1.0000
  H   H230      1.0  0.00584  0.17524  0.61259  1.0000
  S   S48       1.0  0.07500  0.42199  0.34383  1.0000
  Fe  Fe25      1.0  0.19242  0.46929  0.38434  1.0000
  C   C134      1.0  0.13831  0.43384  0.62334  1.0000
  C   C135      1.0  0.14880  0.99982  0.32950  1.0000
  C   C136      1.0  0.98774  0.31455  0.46239  1.0000
  C   C137      1.0  0.99524  0.17919  0.45788  1.0000
  H   H231      1.0  0.13791  0.99060  0.54636  1.0000
  C   C138      1.0  0.10176  0.44994  0.62876  1.0000
  H   H232      1.0  0.12230  0.46038  0.37909  1.0000
  H   H233      1.0  0.22446  0.48200  0.53003  1.0000
  H   H234      1.0  0.06421  0.01671  0.55053  1.0000
  C   C139      1.0  0.21330  0.03497  0.48867  1.0000
  C   C140      1.0  0.01447  0.38460  0.35656  1.0000
  C   C141      1.0  0.02704  0.36965  0.36718  1.0000
  C   C142      1.0  0.01938  0.35314  0.37920  1.0000
  H   H235      1.0  0.99320  0.15482  0.58256  1.0000
  H   H236      1.0  0.05343  0.04286  0.33288  1.0000
  H   H237      1.0  0.02019  0.39751  0.34741  1.0000
  H   H238      1.0  0.02906  0.34145  0.38735  1.0000
  H   H239      1.0  0.99833  0.11832  0.58957  1.0000
  H   H240      1.0  0.07867  0.03315  0.51673  1.0000
  H   H241      1.0  0.03322  0.18873  0.50989  1.0000
  C   C143      1.0  0.12212  0.45077  0.61534  1.0000
  C   C144      1.0  0.99851  0.11719  0.46175  1.0000
  C   C145      1.0  0.15479  0.42395  0.59013  1.0000
  H   H242      1.0  0.15922  0.00701  0.56076  1.0000
  H   H243      1.0  0.99717  0.32438  0.51277  1.0000
  H   H244      1.0  0.99461  0.44387  0.35726  1.0000
  C   C146      1.0  0.04581  0.22600  0.56613  1.0000
  C   C147      1.0  0.05078  0.22892  0.54522  1.0000
  C   C148      1.0  0.05754  0.21234  0.53526  1.0000
  C   C149      1.0  0.05852  0.19274  0.54601  1.0000
  C   C150      1.0  0.05228  0.18982  0.56679  1.0000
  C   C151      1.0  0.04612  0.20641  0.57682  1.0000
  H   H245      1.0  0.05038  0.24394  0.53681  1.0000
  H   H246      1.0  0.06232  0.21472  0.51918  1.0000
  H   H247      1.0  0.05315  0.17479  0.57521  1.0000
  H   H248      1.0  0.04216  0.20404  0.59299  1.0000
  C   C152      1.0  0.12111  0.06537  0.46342  1.0000
  C   C153      1.0  0.12365  0.04874  0.47854  1.0000
  C   C154      1.0  0.11593  0.05058  0.49869  1.0000
  C   C155      1.0  0.10534  0.06893  0.50381  1.0000
  C   C156      1.0  0.10276  0.08552  0.48867  1.0000
  C   C157      1.0  0.11079  0.08376  0.46859  1.0000
  H   H249      1.0  0.13160  0.03452  0.47472  1.0000
  H   H250      1.0  0.11821  0.03773  0.51028  1.0000
  H   H251      1.0  0.09486  0.09977  0.49244  1.0000
  H   H252      1.0  0.10915  0.09677  0.45701  1.0000
  H   H253      1.0  0.03123  0.42866  0.40404  1.0000
  H   H254      1.0  0.13034  0.40663  0.60280  1.0000
  H   H255      1.0  0.00125  0.43880  0.64553  1.0000
  H   H256      1.0  0.05245  0.04628  0.59220  1.0000
  H   H257      1.0  0.98780  0.08672  0.60315  1.0000
  C   C158      1.0  0.23507  0.40224  0.60183  1.0000
  H   H258      1.0  0.16649  0.20401  0.57282  1.0000
  C   C159      1.0  0.06486  0.00126  0.33722  1.0000
  H   H259      1.0  0.03821  0.46027  0.56221  1.0000
  C   C160      1.0  0.14707  0.00103  0.34985  1.0000
  H   H260      1.0  0.03937  0.36319  0.40933  1.0000
  H   H261      1.0  0.14103  0.43823  0.63704  1.0000
  C   C161      1.0  0.00714  0.31003  0.46703  1.0000
  C   C162      1.0  0.04292  0.33769  0.43244  1.0000
  C   C163      1.0  0.03413  0.10271  0.62985  1.0000
  C   C164      1.0  0.04295  0.11911  0.63002  1.0000
  H   H262      1.0  0.10365  0.04336  0.32684  1.0000
  C   C165      1.0  0.01842  0.40182  0.40637  1.0000
  H   H263      1.0  0.05043  0.12674  0.61615  1.0000
  H   H264      1.0  0.07541  0.33418  0.42598  1.0000
  C   C166      1.0  0.15370  0.44841  0.37289  1.0000
  C   C167      1.0  0.13351  0.44991  0.37143  1.0000
  C   C168      1.0  0.12778  0.43847  0.35952  1.0000
  C   C169      1.0  0.14221  0.42528  0.34913  1.0000
  C   C170      1.0  0.16230  0.42329  0.35118  1.0000
  C   C171      1.0  0.16805  0.43483  0.36295  1.0000
  H   H265      1.0  0.01338  0.43771  0.57067  1.0000
  H   H266      1.0  0.11227  0.44012  0.35808  1.0000
  H   H267      1.0  0.17352  0.41301  0.34329  1.0000
  H   H268      1.0  0.18359  0.43339  0.36412  1.0000
  H   H269      1.0  0.99567  0.41386  0.57791  1.0000
  H   H270      1.0  0.03578  0.30932  0.33340  1.0000
  H   H271      1.0  0.00916  0.18238  0.58569  1.0000
  H   H272      1.0  0.99348  0.33901  0.39041  1.0000
  C   C172      1.0  0.14992  0.30807  0.54790  1.0000
  C   C173      1.0  0.14247  0.32730  0.55232  1.0000
  C   C174      1.0  0.12183  0.33449  0.55472  1.0000
  C   C175      1.0  0.10852  0.32263  0.55252  1.0000
  C   C176      1.0  0.11595  0.30357  0.54769  1.0000
  C   C177      1.0  0.13660  0.29621  0.54560  1.0000
  H   H273      1.0  0.15257  0.33648  0.55430  1.0000
  H   H274      1.0  0.11615  0.34929  0.55839  1.0000
  H   H275      1.0  0.10574  0.29468  0.54546  1.0000
  H   H276      1.0  0.14231  0.28139  0.54200  1.0000
  Fe  Fe26      1.0  0.23035  0.45791  0.40232  1.0000
  H   H277      1.0  0.05010  0.35982  0.46180  1.0000
  Fe  Fe27      1.0  0.23266  0.47683  0.35857  1.0000
  C   C178      1.0  0.21488  0.39218  0.57472  1.0000
  C   C179      1.0  0.21319  0.41218  0.57694  1.0000
  H   H278      1.0  0.99877  0.16091  0.49539  1.0000
  H   H279      1.0  0.07292  0.99818  0.35015  1.0000
  H   H280      1.0  0.04947  0.13791  0.64849  1.0000
  H   H281      1.0  0.03970  0.38587  0.46173  1.0000
  H   H282      1.0  0.02744  0.12616  0.45412  1.0000
  S   S49       1.0  0.16047  0.46500  0.38580  1.0000
  H   H283      1.0  0.02100  0.05563  0.32103  1.0000
  C   C180      1.0  0.99193  0.41005  0.59444  1.0000
  H   H284      1.0  0.09286  0.99888  0.31744  1.0000
  H   H285      1.0  0.13093  0.40453  0.51058  1.0000
  C   C181      1.0  0.07640  0.01733  0.51939  1.0000
  H   H286      1.0  0.02836  0.43741  0.33682  1.0000
  Fe  Fe28      1.0  0.20951  0.35835  0.54573  1.0000
  H   H287      1.0  0.02067  0.34607  0.33847  1.0000
  H   H288      1.0  0.07601  0.04225  0.56066  1.0000
  H   H289      1.0  0.14813  0.38828  0.52585  1.0000
  C   C182      1.0  0.07851  0.00957  0.31798  1.0000
  C   C183      1.0  0.16861  0.44735  0.60431  1.0000
  H   H290      1.0  0.21628  0.41857  0.41795  1.0000
  C   C184      1.0  0.02442  0.09299  0.64789  1.0000
  H   H291      1.0  0.04295  0.36769  0.55269  1.0000
  H   H292      1.0  0.01395  0.18387  0.41801  1.0000
  C   C185      1.0  0.08306  0.01453  0.58192  1.0000
  H   H293      1.0  0.00396  0.32953  0.60742  1.0000
  H   H294      1.0  0.09675  0.04194  0.57271  1.0000
  N   N6        1.0  0.10827  0.23252  0.56562  1.0000
  C   C186      1.0  0.09811  0.21720  0.58088  1.0000
  C   C187      1.0  0.10097  0.25322  0.57108  1.0000
  C   C188      1.0  0.10242  0.23273  0.54568  1.0000
  C   C189      1.0  0.13071  0.22741  0.56323  1.0000
  C   C190      1.0  0.13980  0.22492  0.58242  1.0000
  C   C191      1.0  0.10270  0.19551  0.57635  1.0000
  C   C192      1.0  0.11009  0.24857  0.52796  1.0000
  C   C193      1.0  0.09466  0.25486  0.59364  1.0000
  C   C194      1.0  0.09159  0.27663  0.59669  1.0000
  C   C195      1.0  0.16247  0.21866  0.57813  1.0000
  C   C196      1.0  0.09439  0.18091  0.59435  1.0000
  C   C197      1.0  0.10070  0.24916  0.50960  1.0000
  H   H295      1.0  0.08162  0.22195  0.58254  1.0000
  H   H296      1.0  0.10163  0.21640  0.59599  1.0000
  H   H297      1.0  0.11241  0.26292  0.56453  1.0000
  H   H298      1.0  0.08742  0.26065  0.56443  1.0000
  H   H299      1.0  0.08590  0.23526  0.54737  1.0000
  H   H300      1.0  0.10783  0.21803  0.54059  1.0000
  H   H301      1.0  0.13629  0.21366  0.55639  1.0000
  H   H302      1.0  0.13762  0.23936  0.55242  1.0000
  H   H303      1.0  0.13381  0.21332  0.59437  1.0000
  H   H304      1.0  0.13684  0.23938  0.58793  1.0000
  H   H305      1.0  0.09558  0.19463  0.56360  1.0000
  H   H306      1.0  0.11897  0.19020  0.57269  1.0000
  H   H307      1.0  0.12652  0.24482  0.52350  1.0000
  H   H308      1.0  0.10646  0.26382  0.53180  1.0000
  H   H309      1.0  0.08025  0.24936  0.59957  1.0000
  H   H310      1.0  0.10580  0.24602  0.60279  1.0000
  H   H311      1.0  0.08049  0.28617  0.58773  1.0000
  H   H312      1.0  0.08598  0.27763  0.61275  1.0000
  H   H313      1.0  0.10589  0.28250  0.59210  1.0000
  H   H314      1.0  0.16938  0.23011  0.56661  1.0000
  H   H315      1.0  0.16869  0.21718  0.59206  1.0000
  H   H316      1.0  0.07812  0.18575  0.59897  1.0000
  H   H317      1.0  0.10435  0.23430  0.50472  1.0000
  H   H318      1.0  0.08420  0.25345  0.51303  1.0000
  H   H319      1.0  0.10650  0.26040  0.49704  1.0000
  H   H320      1.0  0.01374  0.31569  0.36470  1.0000
  S   S50       1.0  0.21639  0.32592  0.55975  1.0000
  H   H321      1.0  0.02958  0.35110  0.49524  1.0000
  H   H322      1.0  0.08596  0.01125  0.59761  1.0000
  H   H323      1.0  0.10450  0.01734  0.33541  1.0000
  H   H324      1.0  0.22477  0.44441  0.32893  1.0000
  H   H325      1.0  0.20469  0.39179  0.63547  1.0000
  H   H326      1.0  0.23318  0.06899  0.43838  1.0000
  C   C198      1.0  0.00814  0.16954  0.59823  1.0000
  H   H327      1.0  0.00692  0.18884  0.45411  1.0000
  H   H328      1.0  0.23625  0.01894  0.46938  1.0000
  C   C199      1.0  0.11895  0.00334  0.57208  1.0000
  H   H329      1.0  0.04076  0.35442  0.57807  1.0000
  H   H330      1.0  0.00422  0.43233  0.41012  1.0000
  H   H331      1.0  0.99346  0.41220  0.63281  1.0000
  S   S51       1.0  0.21237  0.46300  0.61688  1.0000
  H   H332      1.0  0.15079  0.47989  0.34410  1.0000
  H   H333      1.0  0.19392  0.46588  0.34079  1.0000
  H   H334      1.0  0.03239  0.38143  0.63372  1.0000
  S   S52       1.0  0.22463  0.00656  0.41943  1.0000
  H   H335      1.0  0.99421  0.17865  0.40751  1.0000
  H   H336      1.0  0.21088  0.04813  0.47665  1.0000
  C   C200      1.0  0.99463  0.32154  0.49874  1.0000
  S   S53       1.0  0.09778  0.38071  0.32674  1.0000
  H   H337      1.0  0.10130  0.02295  0.54173  1.0000
  C   C201      1.0  0.06322  0.32837  0.42195  1.0000
  H   H338      1.0  0.01555  0.35198  0.46438  1.0000
  H   H339      1.0  0.02219  0.18513  0.47954  1.0000
  H   H340      1.0  0.02251  0.15896  0.59669  1.0000
  C   C202      1.0  0.00120  0.17563  0.42116  1.0000
  C   C203      1.0  0.19803  0.46606  0.32438  1.0000
  H   H341      1.0  0.16242  0.39919  0.62546  1.0000
  H   H342      1.0  0.14758  0.46879  0.58662  1.0000
  C   C204      1.0  0.00391  0.39984  0.62635  1.0000
  C   C205      1.0  0.99082  0.15928  0.59749  1.0000
  H   H343      1.0  0.15683  0.40733  0.50599  1.0000
  C   C206      1.0  0.13632  0.98814  0.36428  1.0000
  H   H344      1.0  0.98848  0.09234  0.34057  1.0000
  H   H345      1.0  0.00776  0.29486  0.35660  1.0000
  H   H346      1.0  0.04677  0.45059  0.58582  1.0000
  C   C207      1.0  0.01550  0.12231  0.46613  1.0000
  C   C208      1.0  0.22316  0.41716  0.59053  1.0000
  C   C209      1.0  0.04265  0.36909  0.56847  1.0000
  C   C210      1.0  0.99274  0.17720  0.49393  1.0000
  C   C211      1.0  0.02544  0.38540  0.57473  1.0000
  H   H347      1.0  0.20224  0.02525  0.48914  1.0000
  H   H348      1.0  0.00542  0.20455  0.49147  1.0000
  S   S54       1.0  0.22320  0.31580  0.51387  1.0000
  S   S55       1.0  0.99696  0.11628  0.43687  1.0000
  H   H349      1.0  0.23644  0.01063  0.51514  1.0000
  H   H350      1.0  0.04274  0.33351  0.44882  1.0000
  N   N7        1.0  0.08212  0.03064  0.31651  1.0000
  C   C212      1.0  0.22031  0.38247  0.45937  1.0000
  H   H351      1.0  0.01157  0.04118  0.44413  1.0000
  H   H352      1.0  0.04573  0.36843  0.49537  1.0000
  H   H353      1.0  0.09087  0.46326  0.62376  1.0000
  C   C213      1.0  0.00099  0.11906  0.50145  1.0000
  S   S56       1.0  0.21032  0.36092  0.47174  1.0000
  H   H354      1.0  0.10191  0.01726  0.37205  1.0000
  H   H355      1.0  0.18383  0.40631  0.60890  1.0000
  H   H356      1.0  0.06547  0.31187  0.42674  1.0000
  C   C214      1.0  0.01681  0.12314  0.48598  1.0000
  H   H357      1.0  0.20392  0.42382  0.56835  1.0000
  C   C215      1.0  0.03653  0.37041  0.46670  1.0000
  H   H358      1.0  0.03853  0.42395  0.57093  1.0000
  H   H359      1.0  0.00511  0.37725  0.46543  1.0000
  C   C216      1.0  0.17332  0.48203  0.58499  1.0000
  C   C217      1.0  0.22158  0.41030  0.43143  1.0000
  H   H360      1.0  0.21080  0.04039  0.50319  1.0000
  S   S57       1.0  0.20056  0.47637  0.41177  1.0000
  H   H361      1.0  0.06790  0.06539  0.58515  1.0000
  C   C218      1.0  0.01814  0.45096  0.33268  1.0000
  Fe  Fe29      1.0  0.23149  0.48287  0.62313  1.0000
  C   C219      1.0  0.02619  0.43391  0.57883  1.0000
  C   C220      1.0  0.03367  0.45343  0.57805  1.0000
  H   H362      1.0  0.22161  0.43252  0.59232  1.0000
  C   C221      1.0  0.09398  0.03166  0.33236  1.0000
  C   C222      1.0  0.99127  0.34127  0.60992  1.0000
  H   H363      1.0  0.07310  0.04504  0.60511  1.0000
  H   H364      1.0  0.03439  0.41995  0.60716  1.0000
  H   H365      1.0  0.05221  0.36676  0.42752  1.0000
  H   H366      1.0  0.01942  0.30358  0.45662  1.0000
  H   H367      1.0  0.09675  0.16580  0.59025  1.0000
  H   H368      1.0  0.10555  0.02586  0.45446  1.0000
  H   H369      1.0  0.18812  0.42748  0.63335  1.0000
  C   C223      1.0  0.21172  0.44625  0.32130  1.0000
  H   H370      1.0  0.18500  0.44220  0.60080  1.0000
  C   C224      1.0  0.04231  0.12547  0.64831  1.0000
  H   H371      1.0  0.22655  0.99644  0.50228  1.0000
  C   C225      1.0  0.01062  0.31340  0.48526  1.0000
  C   C226      1.0  0.14493  0.40520  0.59262  1.0000
  H   H372      1.0  0.22884  0.36183  0.58376  1.0000
  C   C227      1.0  0.99905  0.45463  0.34424  1.0000
  C   C228      1.0  0.14123  0.40213  0.57245  1.0000
  N   N8        1.0  0.01038  0.40574  0.60406  1.0000
  H   H373      1.0  0.03177  0.39502  0.39671  1.0000
  C   C229      1.0  0.13965  0.98607  0.32358  1.0000
  H   H374      1.0  0.02598  0.16460  0.51298  1.0000
  H   H375      1.0  0.01141  0.38069  0.57343  1.0000
  H   H376      1.0  0.01944  0.37726  0.49543  1.0000
  N   N9        1.0  0.09845  0.00144  0.56922  1.0000
  C   C230      1.0  0.03909  0.36072  0.42576  1.0000
  H   H377      1.0  0.00747  0.40295  0.43805  1.0000
  C   C231      1.0  0.17877  0.41557  0.63783  1.0000
  H   H378      1.0  0.15482  0.39150  0.59859  1.0000
  H   H379      1.0  0.18984  0.47797  0.58266  1.0000
  H   H380      1.0  0.23638  0.47683  0.49603  1.0000
  C   C232      1.0  0.01756  0.42447  0.40119  1.0000
  C   C233      1.0  0.00261  0.36527  0.43055  1.0000
  H   H381      1.0  0.03149  0.33081  0.42843  1.0000
  H   H382      1.0  0.00964  0.18428  0.52496  1.0000
  H   H383      1.0  0.00086  0.06707  0.43636  1.0000
  H   H384      1.0  0.15547  0.40045  0.56167  1.0000
  H   H385      1.0  0.13475  0.38829  0.57453  1.0000
  H   H386      1.0  0.13065  0.41497  0.56606  1.0000
  S   S58       1.0  0.00112  0.12173  0.52617  1.0000
  C   C234      1.0  0.08190  0.03744  0.57496  1.0000
  H   H387      1.0  0.09155  0.00657  0.46775  1.0000
  H   H388      1.0  0.10210  0.17992  0.60721  1.0000
  C   C235      1.0  0.01978  0.39404  0.42886  1.0000
  H   H389      1.0  0.08592  0.31645  0.32541  1.0000
  C   C236      1.0  0.06796  0.04911  0.59038  1.0000
  H   H390      1.0  0.16627  0.45481  0.61766  1.0000
  C   C237      1.0  0.02481  0.38815  0.59662  1.0000
  H   H391      1.0  0.02977  0.12749  0.48922  1.0000
  N   N10       1.0  0.01997  0.37189  0.43589  1.0000
  N   N11       1.0  0.05566  0.07213  0.45080  1.0000
  C   C238      1.0  0.03602  0.06607  0.45044  1.0000
  C   C239      1.0  0.05519  0.07857  0.47063  1.0000
  C   C240      1.0  0.05832  0.08981  0.43419  1.0000
  C   C241      1.0  0.07311  0.05563  0.44688  1.0000
  C   C242      1.0  0.07354  0.03613  0.46247  1.0000
  C   C243      1.0  0.03341  0.06081  0.43045  1.0000
  C   C244      1.0  0.07592  0.10073  0.43375  1.0000
  C   C245      1.0  0.04204  0.06854  0.48945  1.0000
  C   C246      1.0  0.04557  0.07407  0.50858  1.0000
  C   C247      1.0  0.09127  0.02028  0.45614  1.0000
  H   H392      1.0  0.14581  0.43638  0.58130  1.0000
  C   C248      1.0  0.07571  0.11931  0.41747  1.0000
  H   H393      1.0  0.02355  0.07843  0.45415  1.0000
  H   H394      1.0  0.03317  0.05297  0.46217  1.0000
  H   H395      1.0  0.07061  0.07659  0.47386  1.0000
  H   H396      1.0  0.04936  0.09483  0.46987  1.0000
  H   H397      1.0  0.04435  0.10113  0.43481  1.0000
  H   H398      1.0  0.06093  0.08513  0.41926  1.0000
  H   H399      1.0  0.07441  0.05185  0.43173  1.0000
  H   H400      1.0  0.08730  0.06082  0.44654  1.0000
  H   H401      1.0  0.05977  0.02971  0.46436  1.0000
  H   H402      1.0  0.07543  0.03914  0.47709  1.0000
  H   H403      1.0  0.03399  0.07393  0.41822  1.0000
  H   H404      1.0  0.04508  0.04823  0.42600  1.0000
  H   H405      1.0  0.09045  0.09084  0.43037  1.0000
  H   H406      1.0  0.07524  0.10573  0.44816  1.0000
  H   H407      1.0  0.02598  0.07383  0.48847  1.0000
  H   H408      1.0  0.04497  0.05203  0.49108  1.0000
  H   H409      1.0  0.06126  0.06850  0.51076  1.0000
  H   H410      1.0  0.04233  0.09054  0.50788  1.0000
  H   H411      1.0  0.03557  0.06722  0.52170  1.0000
  H   H412      1.0  0.09015  0.01621  0.44171  1.0000
  H   H413      1.0  0.10811  0.99770  0.53822  1.0000
  H   H414      1.0  0.17068  0.45679  0.32376  1.0000
  H   H415      1.0  0.16987  0.45766  0.57192  1.0000
  H   H416      1.0  0.06787  0.01103  0.58303  1.0000
  H   H417      1.0  0.07503  0.05281  0.35089  1.0000
  H   H418      1.0  0.06169  0.13013  0.42044  1.0000
  H   H419      1.0  0.08854  0.12671  0.41731  1.0000
  H   H420      1.0  0.07706  0.11515  0.40248  1.0000
  H   H421      1.0  0.12826  0.47488  0.32845  1.0000
  H   H422      1.0  0.21989  0.48065  0.46696  1.0000
  C   C249      1.0  0.06288  0.04554  0.31796  1.0000
  C   C250      1.0  0.03253  0.36659  0.48959  1.0000
  H   H423      1.0  0.08730  0.03857  0.38233  1.0000
  H   H424      1.0  0.06400  0.33172  0.40540  1.0000
  H   H425      1.0  0.00434  0.13220  0.61528  1.0000
  H   H426      1.0  0.12018  0.44990  0.60006  1.0000
  H   H427      1.0  0.16949  0.42114  0.58016  1.0000
  H   H428      1.0  0.22589  0.46090  0.56412  1.0000
  H   H429      1.0  0.02119  0.37373  0.60590  1.0000
  H   H430      1.0  0.02715  0.39931  0.56389  1.0000
  C   C251      1.0  0.02036  0.18096  0.51127  1.0000
  C   C252      1.0  0.07664  0.00802  0.54140  1.0000
  H   H431      1.0  0.11960  0.00190  0.58829  1.0000
  H   H432      1.0  0.12220  0.01860  0.56531  1.0000
  C   C253      1.0  0.02035  0.42384  0.60077  1.0000
  H   H433      1.0  0.09107  0.32710  0.48606  1.0000
  H   H434      1.0  0.20226  0.38841  0.43618  1.0000
  N   N12       1.0  0.15773  0.42963  0.60920  1.0000
  H   H435      1.0  0.01475  0.30995  0.32156  1.0000
  C   C254      1.0  0.22742  0.37728  0.58542  1.0000
  H   H436      1.0  0.05721  0.37280  0.56952  1.0000
  C   C255      1.0  0.00755  0.31127  0.35296  1.0000
  H   H437      1.0  0.12616  0.46551  0.61528  1.0000
  H   H438      1.0  0.01083  0.43543  0.60914  1.0000
  H   H439      1.0  0.05294  0.33401  0.34052  1.0000
  C   C256      1.0  0.08209  0.03678  0.35279  1.0000
  C   C257      1.0  0.99919  0.35172  0.38097  1.0000
  H   H440      1.0  0.00675  0.15930  0.42456  1.0000
  H   H441      1.0  0.02170  0.46426  0.58534  1.0000
  H   H442      1.0  0.04028  0.38863  0.59846  1.0000
  H   H443      1.0  0.07017  0.02770  0.35903  1.0000
  H   H444      1.0  0.99828  0.09399  0.56623  1.0000
  S   S59       1.0  0.22145  0.44895  0.37625  1.0000
  C   C258      1.0  0.01049  0.18816  0.49261  1.0000
  H   H445      1.0  0.21336  0.04745  0.42853  1.0000
  H   H446      1.0  0.13172  0.41998  0.62895  1.0000
  C   C259      1.0  0.21366  0.39322  0.44178  1.0000
  H   H447      1.0  0.00240  0.34526  0.32448  1.0000
  C   C260      1.0  0.19176  0.39664  0.64683  1.0000
  N   N13       1.0  0.14094  0.35009  0.48831  1.0000
  C   C261      1.0  0.12536  0.33677  0.49621  1.0000
  C   C262      1.0  0.16120  0.33765  0.49047  1.0000
  C   C263      1.0  0.13738  0.36577  0.50163  1.0000
  C   C264      1.0  0.14032  0.36044  0.46692  1.0000
  C   C265      1.0  0.13398  0.34898  0.45274  1.0000
  C   C266      1.0  0.10331  0.34753  0.49872  1.0000
  C   C267      1.0  0.15153  0.38158  0.49569  1.0000
  C   C268      1.0  0.16830  0.32022  0.47839  1.0000
  C   C269      1.0  0.18736  0.30722  0.48454  1.0000
  C   C270      1.0  0.13752  0.35963  0.43100  1.0000
  C   C271      1.0  0.08896  0.33296  0.50030  1.0000
  C   C272      1.0  0.14644  0.39631  0.51048  1.0000
  H   H448      1.0  0.12780  0.32803  0.51115  1.0000
  H   H449      1.0  0.12685  0.32529  0.48669  1.0000
  H   H450      1.0  0.17305  0.34699  0.48555  1.0000
  H   H451      1.0  0.16177  0.33138  0.50660  1.0000
  H   H452      1.0  0.13817  0.35845  0.51745  1.0000
  H   H453      1.0  0.12212  0.37465  0.50180  1.0000
  H   H454      1.0  0.12964  0.37485  0.46656  1.0000
  H   H455      1.0  0.15515  0.36470  0.45987  1.0000
  H   H456      1.0  0.11782  0.34818  0.45695  1.0000
  H   H457      1.0  0.14214  0.33348  0.45329  1.0000
  H   H458      1.0  0.09949  0.35398  0.51278  1.0000
  H   H459      1.0  0.10067  0.35987  0.48604  1.0000
  H   H460      1.0  0.15023  0.39031  0.48052  1.0000
  H   H461      1.0  0.16736  0.37472  0.49566  1.0000
  H   H462      1.0  0.15712  0.31026  0.48077  1.0000
  H   H463      1.0  0.17190  0.32633  0.46219  1.0000
  H   H464      1.0  0.18442  0.29968  0.50039  1.0000
  H   H465      1.0  0.19300  0.29559  0.47487  1.0000
  H   H466      1.0  0.19901  0.31655  0.48288  1.0000
  H   H467      1.0  0.15368  0.36008  0.42567  1.0000
  H   H468      1.0  0.13240  0.35148  0.42123  1.0000
  H   H469      1.0  0.12909  0.37518  0.42952  1.0000
  H   H470      1.0  0.09138  0.32023  0.51273  1.0000
  H   H471      1.0  0.07332  0.34073  0.50348  1.0000
  H   H472      1.0  0.00500  0.39839  0.40229  1.0000
  H   H473      1.0  0.13641  0.98843  0.47163  1.0000
  H   H474      1.0  0.00241  0.34916  0.43667  1.0000
  H   H475      1.0  0.00326  0.16347  0.46017  1.0000
  H   H476      1.0  0.00430  0.36633  0.41410  1.0000
  H   H477      1.0  0.99179  0.31888  0.35323  1.0000
  C   C273      1.0  0.99876  0.47036  0.63448  1.0000
  C   C274      1.0  0.01307  0.05464  0.43242  1.0000
  H   H478      1.0  0.15627  0.98900  0.58374  1.0000
  S   S60       1.0  0.18116  0.99154  0.40368  1.0000
  S   S61       1.0  0.23576  0.35681  0.52077  1.0000
  S   S62       1.0  0.02432  0.47027  0.63241  1.0000
  H   H479      1.0  0.07371  0.99250  0.54336  1.0000
  C   C275      1.0  0.02408  0.46508  0.31606  1.0000
  H   H480      1.0  0.10272  0.44991  0.64461  1.0000
  H   H481      1.0  0.22526  0.31894  0.45439  1.0000
  Fe  Fe30      1.0  0.23400  0.43781  0.63045  1.0000
  H   H482      1.0  0.15733  0.00955  0.31827  1.0000
  C   C276      1.0  0.15645  0.99158  0.56731  1.0000
  C   C277      1.0  0.23456  0.02364  0.48410  1.0000
  H   H483      1.0  0.08832  0.00886  0.50946  1.0000
  C   C278      1.0  0.06106  0.34144  0.32635  1.0000
  H   H484      1.0  0.20370  0.43345  0.32774  1.0000
  H   H485      1.0  0.99448  0.34127  0.64035  1.0000
  H   H486      1.0  0.20685  0.47820  0.31785  1.0000
  H   H487      1.0  0.99548  0.38726  0.62921  1.0000
  C   C279      1.0  0.23510  0.38876  0.46648  1.0000
  C   C280      1.0  0.23654  0.41644  0.43839  1.0000
  H   H488      1.0  0.02795  0.40652  0.63914  1.0000
  C   C281      1.0  0.98913  0.14112  0.61474  1.0000
  C   C282      1.0  0.02077  0.39356  0.63923  1.0000
  C   C283      1.0  0.99122  0.45249  0.64137  1.0000
  H   H489      1.0  0.01755  0.08030  0.64785  1.0000
  Fe  Fe31      1.0  0.19671  0.46443  0.64850  1.0000
  H   H490      1.0  0.23698  0.30023  0.47266  1.0000
  S   S63       1.0  0.01575  0.07307  0.72136  1.0000
  C   C284      1.0  0.01654  0.43747  0.73903  1.0000
  H   H491      1.0  0.01565  0.19823  0.69697  1.0000
  H   H492      1.0  0.07808  0.02841  0.67916  1.0000
  H   H493      1.0  0.06579  0.08302  0.68000  1.0000
  Fe  Fe32      1.0  0.01852  0.07312  0.75306  1.0000
  S   S64       1.0  0.02171  0.10554  0.74782  1.0000
  S   S65       1.0  0.03772  0.04761  0.76981  1.0000
  H   H494      1.0  0.04435  0.02423  0.71484  1.0000
  H   H495      1.0  0.20950  0.45544  0.88858  1.0000
  H   H496      1.0  0.06680  0.00821  0.70809  1.0000
  H   H497      1.0  0.01070  0.45135  0.89927  1.0000
  C   C285      1.0  0.04543  0.23546  0.97491  1.0000
  H   H498      1.0  0.02128  0.19817  0.95154  1.0000
  H   H499      1.0  0.03596  0.47426  0.91563  1.0000
  H   H500      1.0  0.05519  0.00764  0.65621  1.0000
  H   H501      1.0  0.09042  0.99285  0.75104  1.0000
  H   H502      1.0  0.06426  0.03759  0.65908  1.0000
  Fe  Fe33      1.0  0.01584  0.10601  0.71681  1.0000
  H   H503      1.0  0.99892  0.10400  0.80235  1.0000
  H   H504      1.0  0.05984  0.45544  0.79592  1.0000
  S   S66       1.0  0.13935  0.23681  0.94331  1.0000
  H   H505      1.0  0.11804  0.98860  0.83703  1.0000
  C   C286      1.0  0.19118  0.48060  0.91640  1.0000
  H   H506      1.0  0.00131  0.38749  0.89969  1.0000
  Fe  Fe34      1.0  0.14564  0.20568  0.96079  1.0000
  S   S67       1.0  0.17343  0.18655  0.94621  1.0000
  Fe  Fe35      1.0  0.10721  0.23292  0.94995  1.0000
  S   S68       1.0  0.08694  0.24647  0.92693  1.0000
  C   C287      1.0  0.01361  0.01499  0.67968  1.0000
  C   C288      1.0  0.07818  0.99088  0.67304  1.0000
  H   H507      1.0  0.19556  0.05321  0.95658  1.0000
  Fe  Fe36      1.0  0.13442  0.38728  0.94095  1.0000
  S   S69       1.0  0.14158  0.41007  0.91327  1.0000
  S   S70       1.0  0.11912  0.36213  0.93825  1.0000
  H   H508      1.0  0.16001  0.29940  0.92652  1.0000
  S   S71       1.0  0.15328  0.43520  0.94295  1.0000
  H   H509      1.0  0.00600  0.47739  0.85714  1.0000
  Fe  Fe37      1.0  0.12557  0.43268  0.93271  1.0000
  S   S72       1.0  0.10403  0.46137  0.92603  1.0000
  Fe  Fe38      1.0  0.16883  0.41059  0.92614  1.0000
  S   S73       1.0  0.11660  0.41011  0.95957  1.0000
  S   S74       1.0  0.16304  0.38600  0.95224  1.0000
  N   N14       1.0  0.00321  0.12348  0.85587  1.0000
  Fe  Fe39      1.0  0.00654  0.20917  0.88498  1.0000
  H   H510      1.0  0.02171  0.14261  0.83492  1.0000
  C   C289      1.0  0.00989  0.15913  0.79536  1.0000
  H   H511      1.0  0.05176  0.19918  0.96373  1.0000
  H   H512      1.0  0.08064  0.98541  0.68871  1.0000
  H   H513      1.0  0.11669  0.27642  0.83152  1.0000
  C   C290      1.0  0.09634  0.46814  0.90249  1.0000
  H   H514      1.0  0.08787  0.32379  0.91429  1.0000
  H   H515      1.0  0.02820  0.04002  0.66787  1.0000
  C   C291      1.0  0.02323  0.09973  0.66597  1.0000
  C   C292      1.0  0.09615  0.46152  0.86935  1.0000
  C   C293      1.0  0.10353  0.45630  0.88754  1.0000
  H   H516      1.0  0.01136  0.17798  0.74503  1.0000
  H   H517      1.0  0.04303  0.46789  0.81496  1.0000
  H   H518      1.0  0.11461  0.44304  0.89006  1.0000
  H   H519      1.0  0.15593  0.01998  0.81289  1.0000
  S   S75       1.0  0.22662  0.98980  0.79407  1.0000
  H   H520      1.0  0.04103  0.06176  0.68026  1.0000
  H   H521      1.0  0.04671  0.99027  0.67704  1.0000
  H   H522      1.0  0.03211  0.26129  0.95466  1.0000
  H   H523      1.0  0.01921  0.37109  0.83230  1.0000
  H   H524      1.0  0.03492  0.11873  0.84380  1.0000
  H   H525      1.0  0.00689  0.44072  0.86076  1.0000
  C   C294      1.0  0.20607  0.45185  0.95213  1.0000
  Fe  Fe40      1.0  0.14575  0.41098  0.96830  1.0000
  H   H526      1.0  0.18788  0.01125  0.82688  1.0000
  H   H527      1.0  0.00208  0.19956  0.97305  1.0000
  H   H528      1.0  0.14068  0.27632  0.83782  1.0000
  C   C295      1.0  0.15582  0.98935  0.80803  1.0000
  C   C296      1.0  0.14390  0.33215  0.95892  1.0000
  C   C297      1.0  0.12634  0.33760  0.95076  1.0000
  C   C298      1.0  0.11448  0.32308  0.95192  1.0000
  C   C299      1.0  0.12042  0.30309  0.96065  1.0000
  H   H529      1.0  0.10016  0.47180  0.70250  1.0000
  C   C300      1.0  0.01016  0.43023  0.77728  1.0000
  H   H530      1.0  0.99410  0.12973  0.82677  1.0000
  C   C301      1.0  0.17890  0.99963  0.82701  1.0000
  C   C302      1.0  0.04590  0.21032  0.91032  1.0000
  C   C303      1.0  0.04377  0.23104  0.90407  1.0000
  C   C304      1.0  0.05654  0.24196  0.90914  1.0000
  C   C305      1.0  0.07146  0.23225  0.92050  1.0000
  C   C306      1.0  0.07357  0.21155  0.92672  1.0000
  C   C307      1.0  0.06083  0.20065  0.92165  1.0000
  H   H531      1.0  0.03229  0.23863  0.89534  1.0000
  H   H532      1.0  0.05481  0.25798  0.90427  1.0000
  H   H533      1.0  0.08507  0.20390  0.93538  1.0000
  H   H534      1.0  0.06257  0.18462  0.92651  1.0000
  C   C308      1.0  0.20626  0.15705  0.94863  1.0000
  C   C309      1.0  0.18767  0.16534  0.95875  1.0000
  H   H535      1.0  0.21178  0.16411  0.93362  1.0000
  C   C310      1.0  0.02216  0.44358  0.80293  1.0000
  C   C311      1.0  0.05087  0.01186  0.70615  1.0000
  H   H536      1.0  0.11394  0.36008  0.87816  1.0000
  H   H537      1.0  0.09393  0.28216  0.90245  1.0000
  C   C312      1.0  0.99286  0.45054  0.86387  1.0000
  C   C313      1.0  0.07278  0.41885  0.91931  1.0000
  C   C314      1.0  0.07012  0.46936  0.71719  1.0000
  S   S76       1.0  0.03231  0.12331  0.68924  1.0000
  C   C315      1.0  0.08155  0.47854  0.86606  1.0000
  H   H538      1.0  0.99103  0.04018  0.67010  1.0000
  H   H539      1.0  0.15314  0.02323  0.73569  1.0000
  C   C316      1.0  0.12850  0.35313  0.88289  1.0000
  H   H540      1.0  0.03559  0.43185  0.80106  1.0000
  C   C317      1.0  0.09200  0.01954  0.72896  1.0000
  C   C318      1.0  0.08429  0.00842  0.74710  1.0000
  C   C319      1.0  0.06809  0.01735  0.75998  1.0000
  C   C320      1.0  0.05918  0.03726  0.75450  1.0000
  C   C321      1.0  0.06723  0.04853  0.73664  1.0000
  C   C322      1.0  0.08380  0.03975  0.72406  1.0000
  H   H541      1.0  0.22317  0.46659  0.91491  1.0000
  H   H542      1.0  0.06194  0.00860  0.77384  1.0000
  H   H543      1.0  0.06066  0.06403  0.73248  1.0000
  H   H544      1.0  0.08999  0.04853  0.71028  1.0000
  C   C323      1.0  0.21757  0.13954  0.95766  1.0000
  S   S77       1.0  0.00831  0.18543  0.82065  1.0000
  N   N15       1.0  0.20617  0.08806  0.92954  1.0000
  C   C324      1.0  0.20787  0.07211  0.91700  1.0000
  C   C325      1.0  0.21275  0.07811  0.94923  1.0000
  C   C326      1.0  0.18481  0.09864  0.93266  1.0000
  C   C327      1.0  0.18013  0.11484  0.94633  1.0000
  H   H545      1.0  0.22436  0.99217  0.98162  1.0000
  H   H546      1.0  0.02720  0.41336  0.92736  1.0000
  S   S78       1.0  0.21710  0.43775  0.66160  1.0000
  H   H547      1.0  0.19709  0.06180  0.92404  1.0000
  H   H548      1.0  0.02616  0.10864  0.81871  1.0000
  H   H549      1.0  0.18410  0.07416  0.96906  1.0000
  H   H550      1.0  0.21528  0.08940  0.95744  1.0000
  H   H551      1.0  0.17446  0.08766  0.93863  1.0000
  H   H552      1.0  0.21935  0.11374  0.92961  1.0000
  H   H553      1.0  0.14042  0.35270  0.86948  1.0000
  H   H554      1.0  0.18774  0.12769  0.93893  1.0000
  H   H555      1.0  0.99033  0.46717  0.78533  1.0000
  H   H556      1.0  0.00131  0.99330  0.75475  1.0000
  H   H557      1.0  0.18485  0.46690  0.91676  1.0000
  C   C328      1.0  0.99466  0.23429  0.68954  1.0000
  S   S79       1.0  0.02996  0.19596  0.90486  1.0000
  C   C329      1.0  0.98907  0.15766  0.67372  1.0000
  H   H558      1.0  0.05691  0.31426  0.90985  1.0000
  H   H559      1.0  0.00921  0.20577  0.72073  1.0000
  H   H560      1.0  0.98846  0.15423  0.84974  1.0000
  H   H561      1.0  0.98850  0.20391  0.94164  1.0000
  C   C330      1.0  0.00680  0.44592  0.75815  1.0000
  H   H562      1.0  0.02905  0.40273  0.81409  1.0000
  C   C331      1.0  0.00200  0.14706  0.78586  1.0000
  C   C332      1.0  0.12752  0.33208  0.89476  1.0000
  H   H563      1.0  0.01457  0.44724  0.92456  1.0000
  H   H564      1.0  0.05546  0.05239  0.69978  1.0000
  H   H565      1.0  0.02599  0.42253  0.77514  1.0000
  H   H566      1.0  0.11593  0.33346  0.90815  1.0000
  H   H567      1.0  0.01530  0.09239  0.67969  1.0000
  H   H568      1.0  0.99848  0.15087  0.71045  1.0000
  C   C333      1.0  0.02204  0.45095  0.90871  1.0000
  H   H569      1.0  0.00577  0.37234  0.66215  1.0000
  H   H570      1.0  0.00836  0.12231  0.89615  1.0000
  H   H571      1.0  0.11453  0.30286  0.85167  1.0000
  H   H572      1.0  0.17478  0.45989  0.95263  1.0000
  H   H573      1.0  0.10068  0.32734  0.94601  1.0000
  H   H574      1.0  0.18048  0.10645  0.91805  1.0000
  H   H575      1.0  0.08694  0.42466  0.91765  1.0000
  C   C334      1.0  0.09734  0.01590  0.83947  1.0000
  C   C335      1.0  0.18693  0.46777  0.95319  1.0000
  C   C336      1.0  0.21899  0.39049  0.93656  1.0000
  N   N16       1.0  0.13851  0.99596  0.79667  1.0000
  C   C337      1.0  0.21937  0.10328  0.91933  1.0000
  H   H576      1.0  0.04608  0.40257  0.90967  1.0000
  H   H577      1.0  0.07573  0.40859  0.90836  1.0000
  N   N17       1.0  0.00457  0.43748  0.79731  1.0000
  C   C338      1.0  0.06686  0.42670  0.85009  1.0000
  C   C339      1.0  0.04345  0.20001  0.97917  1.0000
  H   H578      1.0  0.15802  0.27329  0.93507  1.0000
  C   C340      1.0  0.01236  0.38597  0.66106  1.0000
  C   C341      1.0  0.16664  0.00621  0.81004  1.0000
  H   H579      1.0  0.02238  0.26207  0.98065  1.0000
  C   C342      1.0  0.03416  0.16355  0.72413  1.0000
  C   C343      1.0  0.01793  0.22575  0.96386  1.0000
  H   H580      1.0  0.00066  0.39763  0.66737  1.0000
  H   H581      1.0  0.15004  0.02202  0.77887  1.0000
  H   H582      1.0  0.15898  0.29569  0.89170  1.0000
  C   C344      1.0  0.20873  0.06221  0.88340  1.0000
  C   C345      1.0  0.12501  0.47486  0.65767  1.0000
  C   C346      1.0  0.99231  0.47127  0.86153  1.0000
  C   C347      1.0  0.07032  0.06913  0.67334  1.0000
  C   C348      1.0  0.04754  0.43913  0.88177  1.0000
  H   H583      1.0  0.00692  0.38777  0.92396  1.0000
  H   H584      1.0  0.12923  0.00984  0.83625  1.0000
  H   H585      1.0  0.00700  0.15445  0.74176  1.0000
  C   C349      1.0  0.99735  0.17128  0.80848  1.0000
  H   H586      1.0  0.20574  0.99758  0.76055  1.0000
  H   H587      1.0  0.01984  0.15073  0.87090  1.0000
  H   H588      1.0  0.23106  0.46733  0.87864  1.0000
  C   C350      1.0  0.00829  0.38522  0.83256  1.0000
  C   C351      1.0  0.22879  0.40692  0.85556  1.0000
  S   S80       1.0  0.07142  0.48381  0.84382  1.0000
  C   C352      1.0  0.04727  0.15654  0.74037  1.0000
  C   C353      1.0  0.05603  0.05450  0.68343  1.0000
  H   H589      1.0  0.02450  0.38210  0.67016  1.0000
  C   C354      1.0  0.01382  0.40036  0.81384  1.0000
  C   C355      1.0  0.04078  0.99371  0.71710  1.0000
  C   C356      1.0  0.14586  0.00802  0.77668  1.0000
  H   H590      1.0  0.20805  0.44519  0.93843  1.0000
  C   C357      1.0  0.04595  0.98648  0.73812  1.0000
  H   H591      1.0  0.11107  0.32614  0.87364  1.0000
  C   C358      1.0  0.01183  0.16873  0.73346  1.0000
  C   C359      1.0  0.99488  0.02509  0.74639  1.0000
  C   C360      1.0  0.20962  0.42147  0.85194  1.0000
  H   H592      1.0  0.06862  0.41625  0.95185  1.0000
  H   H593      1.0  0.03952  0.17668  0.71399  1.0000
  H   H594      1.0  0.18497  0.10894  0.96103  1.0000
  H   H595      1.0  0.01444  0.39340  0.80056  1.0000
  C   C361      1.0  0.12349  0.31798  0.88167  1.0000
  H   H596      1.0  0.03296  0.43335  0.73836  1.0000
  H   H597      1.0  0.03271  0.47781  0.88989  1.0000
  H   H598      1.0  0.23172  0.13318  0.94963  1.0000
  C   C362      1.0  0.12626  0.28295  0.87746  1.0000
  H   H599      1.0  0.15762  0.26959  0.89980  1.0000
  H   H600      1.0  0.17707  0.01004  0.79588  1.0000
  H   H601      1.0  0.16347  0.30804  0.97392  1.0000
  S   S81       1.0  0.01202  0.22357  0.85277  1.0000
  H   H602      1.0  0.98857  0.41751  0.70264  1.0000
  H   H603      1.0  0.04610  0.16850  0.74932  1.0000
  H   H604      1.0  0.04278  0.14298  0.75053  1.0000
  H   H605      1.0  0.06310  0.15270  0.73328  1.0000
  C   C363      1.0  0.12999  0.28935  0.90975  1.0000
  H   H606      1.0  0.10161  0.45224  0.85788  1.0000
  C   C364      1.0  0.06272  0.03420  0.67576  1.0000
  S   S82       1.0  0.10083  0.24608  0.97824  1.0000
  H   H607      1.0  0.12945  0.00129  0.75536  1.0000
  H   H608      1.0  0.09955  0.28408  0.86439  1.0000
  H   H609      1.0  0.06397  0.47133  0.70316  1.0000
  H   H610      1.0  0.02640  0.37855  0.90458  1.0000
  H   H611      1.0  0.08226  0.39428  0.94220  1.0000
  H   H612      1.0  0.17966  0.28017  0.91787  1.0000
  C   C365      1.0  0.00025  0.16644  0.70317  1.0000
  H   H613      1.0  0.04855  0.44106  0.93065  1.0000
  C   C366      1.0  0.01283  0.38989  0.90762  1.0000
  H   H614      1.0  0.12478  0.27533  0.91825  1.0000
  C   C367      1.0  0.20414  0.07958  0.89512  1.0000
  C   C368      1.0  0.15312  0.28460  0.90435  1.0000
  C   C369      1.0  0.02883  0.46321  0.79113  1.0000
  C   C370      1.0  0.06945  0.40669  0.94048  1.0000
  S   S83       1.0  0.11104  0.00847  0.71154  1.0000
  C   C371      1.0  0.12526  0.27348  0.84406  1.0000
  H   H615      1.0  0.08498  0.01063  0.83512  1.0000
  N   N18       1.0  0.04929  0.01872  0.68424  1.0000
  S   S84       1.0  0.11366  0.20098  0.96523  1.0000
  H   H616      1.0  0.03643  0.15113  0.71552  1.0000
  C   C372      1.0  0.21882  0.40798  0.92231  1.0000
  H   H617      1.0  0.99327  0.38178  0.83319  1.0000
  C   C373      1.0  0.05572  0.43702  0.91571  1.0000
  H   H618      1.0  0.02584  0.15887  0.79273  1.0000
  C   C374      1.0  0.02287  0.13093  0.84854  1.0000
  H   H619      1.0  0.00211  0.09573  0.92503  1.0000
  H   H620      1.0  0.11602  0.02114  0.76872  1.0000
  H   H621      1.0  0.01562  0.16534  0.69435  1.0000
  H   H622      1.0  0.05566  0.40012  0.94341  1.0000
  C   C375      1.0  0.04666  0.46728  0.79865  1.0000
  C   C376      1.0  0.03606  0.25792  0.96993  1.0000
  H   H623      1.0  0.02653  0.23159  0.94907  1.0000
  Fe  Fe41      1.0  0.23584  0.45940  0.66482  1.0000
  C   C377      1.0  0.15779  0.12299  0.95034  1.0000
  H   H624      1.0  0.05299  0.42546  0.84510  1.0000
  H   H625      1.0  0.09360  0.30015  0.93077  1.0000
  H   H626      1.0  0.02436  0.99801  0.71893  1.0000
  H   H627      1.0  0.09432  0.47686  0.72771  1.0000
  C   C378      1.0  0.08691  0.30769  0.91734  1.0000
  H   H628      1.0  0.13997  0.04345  0.74893  1.0000
  C   C379      1.0  0.03254  0.11569  0.66634  1.0000
  H   H629      1.0  0.06319  0.44994  0.90804  1.0000
  Fe  Fe42      1.0  0.98835  0.11113  0.75651  1.0000
  H   H630      1.0  0.12580  0.25750  0.85114  1.0000
  H   H631      1.0  0.02003  0.08883  0.83914  1.0000
  C   C380      1.0  0.04887  0.14981  0.85327  1.0000
  H   H632      1.0  0.13687  0.31666  0.86967  1.0000
  H   H633      1.0  0.15973  0.99960  0.76904  1.0000
  C   C381      1.0  0.23533  0.41789  0.91784  1.0000
  H   H634      1.0  0.12219  0.02490  0.80307  1.0000
  H   H635      1.0  0.05466  0.15552  0.86450  1.0000
  H   H636      1.0  0.08873  0.30543  0.88655  1.0000
  H   H637      1.0  0.02287  0.41243  0.88374  1.0000
  H   H638      1.0  0.21333  0.11298  0.90624  1.0000
  H   H639      1.0  0.02103  0.03690  0.69433  1.0000
  H   H640      1.0  0.02019  0.09679  0.87059  1.0000
  H   H641      1.0  0.15224  0.12968  0.93605  1.0000
  H   H642      1.0  0.06265  0.29030  0.92561  1.0000
  H   H643      1.0  0.14236  0.28271  0.87112  1.0000
  H   H644      1.0  0.01029  0.42412  0.73834  1.0000
  C   C382      1.0  0.13820  0.29757  0.96844  1.0000
  C   C383      1.0  0.20453  0.43470  0.96987  1.0000
  H   H645      1.0  0.99933  0.43857  0.68784  1.0000
  H   H646      1.0  0.05781  0.31306  0.93597  1.0000
  H   H647      1.0  0.23532  0.43141  0.90688  1.0000
  H   H648      1.0  0.11130  0.29194  0.96136  1.0000
  C   C384      1.0  0.03110  0.13949  0.86365  1.0000
  C   C385      1.0  0.01381  0.10121  0.82801  1.0000
  H   H649      1.0  0.09636  0.03226  0.83407  1.0000
  H   H650      1.0  0.21944  0.45827  0.95214  1.0000
  H   H651      1.0  0.07859  0.42406  0.87701  1.0000
  H   H652      1.0  0.01184  0.13758  0.77605  1.0000
  H   H653      1.0  0.05723  0.23212  0.96192  1.0000
  H   H654      1.0  0.12499  0.26736  0.88534  1.0000
  H   H655      1.0  0.01365  0.44903  0.72574  1.0000
  H   H656      1.0  0.06106  0.13920  0.84599  1.0000
  H   H657      1.0  0.07074  0.44176  0.84375  1.0000
  H   H658      1.0  0.03493  0.44171  0.87340  1.0000
  H   H659      1.0  0.14202  0.32640  0.90006  1.0000
  S   S85       1.0  0.14663  0.27252  0.97869  1.0000
  C   C386      1.0  0.16325  0.28437  0.92206  1.0000
  H   H660      1.0  0.01280  0.45964  0.75755  1.0000
  H   H661      1.0  0.21821  0.42320  0.96830  1.0000
  H   H662      1.0  0.04421  0.16277  0.84180  1.0000
  H   H663      1.0  0.01921  0.44481  0.81915  1.0000
  S   S86       1.0  0.19892  0.41680  0.90881  1.0000
  H   H664      1.0  0.20648  0.38259  0.93995  1.0000
  C   C387      1.0  0.02590  0.47280  0.90560  1.0000
  C   C388      1.0  0.06471  0.30620  0.92244  1.0000
  H   H665      1.0  0.07422  0.45310  0.72262  1.0000
  H   H666      1.0  0.20651  0.48093  0.87543  1.0000
  C   C389      1.0  0.03342  0.41509  0.91104  1.0000
  H   H667      1.0  0.99647  0.36933  0.78745  1.0000
  C   C390      1.0  0.11506  0.28710  0.85936  1.0000
  H   H668      1.0  0.00033  0.22544  0.93138  1.0000
  C   C391      1.0  0.00516  0.09213  0.81393  1.0000
  C   C392      1.0  0.98783  0.00506  0.75493  1.0000
  H   H669      1.0  0.05357  0.45335  0.87746  1.0000
  H   H670      1.0  0.99582  0.42439  0.82838  1.0000
  C   C393      1.0  0.19855  0.06494  0.96383  1.0000
  C   C394      1.0  0.13100  0.01439  0.76156  1.0000
  H   H671      1.0  0.09552  0.01314  0.85610  1.0000
  N   N19       1.0  0.04010  0.43517  0.90406  1.0000
  H   H672      1.0  0.15312  0.34322  0.95818  1.0000
  H   H673      1.0  0.20511  0.06766  0.86808  1.0000
  N   N20       1.0  0.11924  0.29746  0.89214  1.0000
  C   C395      1.0  0.11753  0.00466  0.83075  1.0000
  H   H674      1.0  0.23606  0.36876  0.95640  1.0000
  H   H675      1.0  0.18828  0.08654  0.89494  1.0000
  H   H676      1.0  0.13196  0.36262  0.89250  1.0000
  C   C396      1.0  0.09707  0.29774  0.89890  1.0000
  H   H677      1.0  0.15505  0.13487  0.95973  1.0000
  H   H678      1.0  0.02236  0.08644  0.90663  1.0000
  C   C397      1.0  0.05641  0.00186  0.67227  1.0000
  H   H679      1.0  0.21229  0.43201  0.83762  1.0000
  C   C398      1.0  0.00496  0.10590  0.87281  1.0000
  H   H680      1.0  0.03643  0.12716  0.87534  1.0000
  H   H681      1.0  0.12612  0.29976  0.92071  1.0000
  H   H682      1.0  0.06083  0.40780  0.87835  1.0000
  H   H683      1.0  0.14584  0.47735  0.94680  1.0000
  H   H684      1.0  0.07920  0.41537  0.84414  1.0000
  C   C399      1.0  0.06416  0.42314  0.87299  1.0000
  H   H685      1.0  0.01387  0.00127  0.69107  1.0000
  H   H686      1.0  0.10687  0.00760  0.80261  1.0000
  C   C400      1.0  0.21327  0.47739  0.90559  1.0000
  C   C401      1.0  0.02812  0.02853  0.68177  1.0000
  C   C402      1.0  0.14975  0.31221  0.96781  1.0000
  H   H687      1.0  0.14935  0.11093  0.95849  1.0000
  C   C403      1.0  0.12091  0.00875  0.80746  1.0000
  H   H688      1.0  0.08904  0.00096  0.66555  1.0000
  H   H689      1.0  0.22277  0.06242  0.91651  1.0000
  Fe  Fe43      1.0  0.13346  0.24729  0.97292  1.0000
  C   C404      1.0  0.99212  0.02627  0.68142  1.0000
  C   C405      1.0  0.00919  0.20849  0.95935  1.0000
  H   H690      1.0  0.00849  0.39111  0.84631  1.0000
  H   H691      1.0  0.22484  0.05563  0.88194  1.0000
  C   C406      1.0  0.13849  0.02970  0.74381  1.0000
  C   C407      1.0  0.99852  0.42026  0.81320  1.0000
  H   H692      1.0  0.06451  0.26849  0.95940  1.0000
  C   C408      1.0  0.99777  0.11667  0.83850  1.0000
  H   H693      1.0  0.00457  0.15556  0.66530  1.0000
  H   H694      1.0  0.01710  0.08164  0.80616  1.0000
  H   H695      1.0  0.08586  0.06255  0.67553  1.0000
  H   H696      1.0  0.12770  0.03397  0.73319  1.0000
  H   H697      1.0  0.16897  0.99746  0.84177  1.0000
  H   H698      1.0  0.00328  0.42154  0.90284  1.0000
  H   H699      1.0  0.01779  0.01036  0.66468  1.0000
  C   C409      1.0  0.99369  0.21657  0.94554  1.0000
  H   H700      1.0  0.18295  0.38434  0.65250  1.0000
  H   H701      1.0  0.19793  0.41299  0.85107  1.0000
  H   H702      1.0  0.19982  0.05032  0.89097  1.0000
  H   H703      1.0  0.00090  0.02626  0.73013  1.0000
  H   H704      1.0  0.18933  0.98542  0.82508  1.0000
  H   H705      1.0  0.22752  0.06834  0.94650  1.0000
  H   H706      1.0  0.19151  0.42745  0.97026  1.0000
  Fe  Fe44      1.0  0.99403  0.20263  0.84642  1.0000
  H   H707      1.0  0.06980  0.07320  0.65702  1.0000
  H   H708      1.0  0.12267  0.46033  0.66613  1.0000
  H   H709      1.0  0.00677  0.02672  0.75426  1.0000
  H   H710      1.0  0.20398  0.43012  0.86443  1.0000
  H   H711      1.0  0.21369  0.09066  0.88691  1.0000
  H   H712      1.0  0.05067  0.48189  0.79056  1.0000
  H   H713      1.0  0.04096  0.99864  0.74724  1.0000
  H   H714      1.0  0.01664  0.47616  0.79292  1.0000
  H   H715      1.0  0.18327  0.47190  0.96835  1.0000
  C   C410      1.0  0.05064  0.27161  0.97034  1.0000
  C   C411      1.0  0.21514  0.46982  0.88586  1.0000
  H   H716      1.0  0.03386  0.46211  0.77510  1.0000
  S   S87       1.0  0.16435  0.46079  0.65899  1.0000
  C   C412      1.0  0.14444  0.47917  0.65179  1.0000
  H   H717      1.0  0.00108  0.41872  0.77700  1.0000
  C   C413      1.0  0.01753  0.41103  0.90013  1.0000
  H   H718      1.0  0.22148  0.04389  0.97820  1.0000
  C   C414      1.0  0.18063  0.15615  0.97813  1.0000
  C   C415      1.0  0.23582  0.38261  0.94578  1.0000
  H   H719      1.0  0.04371  0.28747  0.96631  1.0000
  H   H720      1.0  0.22491  0.39591  0.86920  1.0000
  H   H721      1.0  0.99015  0.18719  0.67737  1.0000
  H   H722      1.0  0.99031  0.46711  0.82229  1.0000
  H   H723      1.0  0.00540  0.23805  0.96747  1.0000
  C   C416      1.0  0.00034  0.11064  0.89449  1.0000
  H   H724      1.0  0.19759  0.39973  0.65952  1.0000
  H   H725      1.0  0.07839  0.17178  0.97597  1.0000
  H   H726      1.0  0.23637  0.02030  0.92400  1.0000
  H   H727      1.0  0.23369  0.39867  0.84282  1.0000
  C   C417      1.0  0.00604  0.09199  0.90966  1.0000
  H   H728      1.0  0.99848  0.48248  0.92567  1.0000
  C   C418      1.0  0.21029  0.13011  0.97685  1.0000
  H   H729      1.0  0.05839  0.47587  0.72873  1.0000
  H   H730      1.0  0.99055  0.45034  0.75776  1.0000
  H   H731      1.0  0.99467  0.09551  0.87265  1.0000
  H   H732      1.0  0.99783  0.07998  0.90905  1.0000
  C   C419      1.0  0.00318  0.19965  0.70989  1.0000
  H   H733      1.0  0.99320  0.08371  0.82242  1.0000
  C   C420      1.0  0.08853  0.47939  0.71341  1.0000
  H   H734      1.0  0.21568  0.20448  0.97672  1.0000
  N   N21       1.0  0.99776  0.17929  0.71906  1.0000
  S   S88       1.0  0.99075  0.18674  0.87822  1.0000
  H   H735      1.0  0.00428  0.22989  0.67565  1.0000
  H   H736      1.0  0.13193  0.45262  0.97909  1.0000
  H   H737      1.0  0.98954  0.14552  0.87517  1.0000
  H   H738      1.0  0.00353  0.24045  0.69781  1.0000
  H   H739      1.0  0.16638  0.41986  0.64989  1.0000
  N   N22       1.0  0.03116  0.22062  0.97975  1.0000
  S   S89       1.0  0.02758  0.66442  0.13414  1.0000
  Fe  Fe45      1.0  0.09244  0.70622  0.03115  1.0000
  S   S90       1.0  0.12338  0.69541  0.03847  1.0000
  S   S91       1.0  0.06142  0.71172  0.04949  1.0000
  H   H740      1.0  0.13240  0.84061  0.01346  1.0000
  H   H741      1.0  0.00853  0.57426  0.13268  1.0000
  Fe  Fe46      1.0  0.12922  0.68012  0.01156  1.0000
  S   S92       1.0  0.15015  0.65088  0.00746  1.0000
  Fe  Fe47      1.0  0.13245  0.72212  0.01617  1.0000
  S   S93       1.0  0.15417  0.73798  0.02558  1.0000
  S   S94       1.0  0.09742  0.68849  0.00614  1.0000
  S   S95       1.0  0.10091  0.73425  0.01125  1.0000
  H   H742      1.0  0.00949  0.69720  0.10690  1.0000
  H   H743      1.0  0.04815  0.87086  0.31153  1.0000
  C   C421      1.0  0.20816  0.56441  0.01244  1.0000
  H   H744      1.0  0.10760  0.79558  0.02006  1.0000
  H   H745      1.0  0.02350  0.71608  0.07440  1.0000
  S   S96       1.0  0.18838  0.93737  0.14868  1.0000
  H   H746      1.0  0.19059  0.49789  0.29151  1.0000
  C   C422      1.0  0.13405  0.80832  0.01857  1.0000
  H   H747      1.0  0.21724  0.65280  0.03257  1.0000
  C   C423      1.0  0.03864  0.67834  0.99943  1.0000
  Fe  Fe48      1.0  0.13361  0.94600  0.25789  1.0000
  S   S97       1.0  0.11965  0.92761  0.28609  1.0000
  S   S98       1.0  0.16480  0.93500  0.24252  1.0000
  Fe  Fe49      1.0  0.09102  0.93914  0.27390  1.0000
  S   S99       1.0  0.06452  0.92371  0.27618  1.0000
  S   S100      1.0  0.10536  0.95552  0.24471  1.0000
  Fe  Fe50      1.0  0.00991  0.80126  0.24766  1.0000
  H   H748      1.0  0.01487  0.68749  0.03803  1.0000
  Fe  Fe51      1.0  0.03637  0.82781  0.25870  1.0000
  S   S101      1.0  0.01214  0.83928  0.28226  1.0000
  S   S102      1.0  0.06617  0.83851  0.25393  1.0000
  Fe  Fe52      1.0  0.00751  0.80750  0.29112  1.0000
  H   H749      1.0  0.99905  0.64520  0.09604  1.0000
  S   S103      1.0  0.03287  0.79538  0.26837  1.0000
  S   S104      1.0  0.01614  0.83274  0.23607  1.0000
  Fe  Fe53      1.0  0.15147  0.53859  0.06182  1.0000
  S   S105      1.0  0.17818  0.52471  0.04164  1.0000
  S   S106      1.0  0.14332  0.57012  0.06912  1.0000
  H   H750      1.0  0.99609  0.72518  0.98942  1.0000
  Fe  Fe54      1.0  0.18080  0.49936  0.06755  1.0000
  H   H751      1.0  0.00271  0.77427  0.18542  1.0000
  H   H752      1.0  0.18025  0.67593  0.06543  1.0000
  Fe  Fe55      1.0  0.99144  0.84192  0.26056  1.0000
  S   S107      1.0  0.15572  0.51434  0.08848  1.0000
  S   S108      1.0  0.12988  0.52414  0.05191  1.0000
  Fe  Fe56      1.0  0.21996  0.93726  0.13151  1.0000
  H   H753      1.0  0.06656  0.76296  0.17824  1.0000
  C   C424      1.0  0.22908  0.96300  0.01634  1.0000
  H   H754      1.0  0.02253  0.59598  0.14176  1.0000
  H   H755      1.0  0.08320  0.71438  0.16827  1.0000
  H   H756      1.0  0.20529  0.60544  0.05382  1.0000
  H   H757      1.0  0.05439  0.70298  0.98816  1.0000
  H   H758      1.0  0.21904  0.51623  0.04562  1.0000
  H   H759      1.0  0.11295  0.50109  0.02596  1.0000
  C   C425      1.0  0.03172  0.73574  0.99141  1.0000
  H   H760      1.0  0.01867  0.71364  0.18764  1.0000
  C   C426      1.0  0.06554  0.89999  0.26988  1.0000
  C   C427      1.0  0.08348  0.88670  0.26666  1.0000
  C   C428      1.0  0.08352  0.86776  0.26207  1.0000
  C   C429      1.0  0.06566  0.86209  0.26045  1.0000
  C   C430      1.0  0.04774  0.87542  0.26375  1.0000
  C   C431      1.0  0.04768  0.89420  0.26860  1.0000
  H   H761      1.0  0.09721  0.89099  0.26796  1.0000
  H   H762      1.0  0.09737  0.85736  0.25994  1.0000
  H   H763      1.0  0.03392  0.87143  0.26223  1.0000
  C   C432      1.0  0.01312  0.71798  0.02117  1.0000
  C   C433      1.0  0.18227  0.93747  0.17466  1.0000
  C   C434      1.0  0.19691  0.93269  0.18686  1.0000
  C   C435      1.0  0.19137  0.93217  0.20767  1.0000
  C   C436      1.0  0.17122  0.93656  0.21634  1.0000
  C   C437      1.0  0.15661  0.94154  0.20412  1.0000
  C   C438      1.0  0.16211  0.94185  0.18335  1.0000
  H   H764      1.0  0.21247  0.92918  0.18029  1.0000
  H   H765      1.0  0.20274  0.92825  0.21710  1.0000
  H   H766      1.0  0.14107  0.94476  0.21075  1.0000
  H   H767      1.0  0.15072  0.94547  0.17396  1.0000
  H   H768      1.0  0.03808  0.74976  0.12939  1.0000
  H   H769      1.0  0.08025  0.67767  0.07616  1.0000
  H   H770      1.0  0.15603  0.97985  0.22404  1.0000
  S   S109      1.0  0.22078  0.85354  0.03923  1.0000
  H   H771      1.0  0.20986  0.77473  0.01638  1.0000
  C   C439      1.0  0.17187  0.75259  0.01068  1.0000
  C   C440      1.0  0.18520  0.75873  0.02012  1.0000
  C   C441      1.0  0.19947  0.77042  0.00900  1.0000
  H   H772      1.0  0.15393  0.53055  0.29949  1.0000
  H   H773      1.0  0.10391  0.82250  0.01383  1.0000
  H   H774      1.0  0.19055  0.98213  0.21933  1.0000
  H   H775      1.0  0.18455  0.75435  0.03615  1.0000
  H   H776      1.0  0.01421  0.57030  0.10716  1.0000
  C   C442      1.0  0.14684  0.62851  0.02433  1.0000
  C   C443      1.0  0.15517  0.61005  0.01811  1.0000
  C   C444      1.0  0.15341  0.59196  0.03144  1.0000
  C   C445      1.0  0.14391  0.59226  0.05127  1.0000
  C   C446      1.0  0.13572  0.61073  0.05752  1.0000
  C   C447      1.0  0.13693  0.62880  0.04404  1.0000
  H   H777      1.0  0.16281  0.60974  0.00287  1.0000
  H   H778      1.0  0.15954  0.57781  0.02647  1.0000
  H   H779      1.0  0.12840  0.61106  0.07288  1.0000
  H   H780      1.0  0.13056  0.64294  0.04900  1.0000
  C   C448      1.0  0.17224  0.82280  0.99925  1.0000
  C   C449      1.0  0.99645  0.76593  0.21755  1.0000
  C   C450      1.0  0.22181  0.71956  0.00172  1.0000
  H   H781      1.0  0.21805  0.53663  0.08948  1.0000
  C   C451      1.0  0.00201  0.57526  0.11917  1.0000
  C   C452      1.0  0.03709  0.67721  0.11048  1.0000
  C   C453      1.0  0.05707  0.67170  0.10171  1.0000
  C   C454      1.0  0.06488  0.68201  0.08290  1.0000
  C   C455      1.0  0.05273  0.69801  0.07297  1.0000
  C   C456      1.0  0.03283  0.70351  0.08186  1.0000
  C   C457      1.0  0.02495  0.69299  0.10039  1.0000
  H   H782      1.0  0.06653  0.65945  0.10946  1.0000
  H   H783      1.0  0.10028  0.97943  0.19728  1.0000
  H   H784      1.0  0.02999  0.74972  0.16498  1.0000
  H   H785      1.0  0.22569  0.48548  0.02479  1.0000
  H   H786      1.0  0.09267  0.67549  0.15060  1.0000
  C   C458      1.0  0.05687  0.66247  0.00332  1.0000
  N   N23       1.0  0.13655  0.88388  0.20616  1.0000
  C   C459      1.0  0.13765  0.87797  0.22825  1.0000
  C   C460      1.0  0.12879  0.86813  0.19887  1.0000
  C   C461      1.0  0.15757  0.88487  0.19503  1.0000
  C   C462      1.0  0.12405  0.90420  0.20145  1.0000
  C   C463      1.0  0.10240  0.90719  0.21297  1.0000
  C   C464      1.0  0.14563  0.89252  0.23785  1.0000
  C   C465      1.0  0.16010  0.88949  0.17177  1.0000
  C   C466      1.0  0.11380  0.85621  0.21403  1.0000
  C   C467      1.0  0.10513  0.84320  0.20370  1.0000
  C   C468      1.0  0.09176  0.92862  0.20733  1.0000
  C   C469      1.0  0.14649  0.88444  0.26002  1.0000
  H   H787      1.0  0.14719  0.86298  0.23098  1.0000
  H   H788      1.0  0.12277  0.87621  0.23725  1.0000
  H   H789      1.0  0.12176  0.87488  0.18537  1.0000
  H   H790      1.0  0.14136  0.85640  0.19384  1.0000
  H   H791      1.0  0.16765  0.87057  0.19941  1.0000
  H   H792      1.0  0.16376  0.89683  0.19909  1.0000
  H   H793      1.0  0.13147  0.91595  0.20407  1.0000
  H   H794      1.0  0.12295  0.90782  0.18522  1.0000
  H   H795      1.0  0.10211  0.90441  0.22937  1.0000
  H   H796      1.0  0.09365  0.89724  0.20912  1.0000
  H   H797      1.0  0.16103  0.89452  0.23064  1.0000
  H   H798      1.0  0.13584  0.90739  0.23681  1.0000
  H   H799      1.0  0.15232  0.88016  0.16569  1.0000
  H   H800      1.0  0.12147  0.84608  0.22586  1.0000
  H   H801      1.0  0.10116  0.86610  0.22148  1.0000
  H   H802      1.0  0.09635  0.85268  0.19241  1.0000
  H   H803      1.0  0.11720  0.83257  0.19630  1.0000
  H   H804      1.0  0.09498  0.83443  0.21502  1.0000
  H   H805      1.0  0.07667  0.93070  0.21667  1.0000
  H   H806      1.0  0.10021  0.93955  0.20999  1.0000
  H   H807      1.0  0.09005  0.93172  0.19130  1.0000
  H   H808      1.0  0.13144  0.88264  0.26859  1.0000
  H   H809      1.0  0.15663  0.86980  0.26179  1.0000
  H   H810      1.0  0.15234  0.89508  0.26647  1.0000
  H   H811      1.0  0.21108  0.72853  0.99213  1.0000
  H   H812      1.0  0.16850  0.63187  0.06636  1.0000
  H   H813      1.0  0.19611  0.60328  0.09337  1.0000
  C   C470      1.0  0.17307  0.75815  0.98991  1.0000
  H   H814      1.0  0.15720  0.85972  0.01042  1.0000
  C   C471      1.0  0.17841  0.50446  0.30276  1.0000
  H   H815      1.0  0.01935  0.68565  0.16989  1.0000
  H   H816      1.0  0.15760  0.87973  0.05656  1.0000
  C   C472      1.0  0.05754  0.75449  0.31138  1.0000
  H   H817      1.0  0.02565  0.67385  0.01033  1.0000
  H   H818      1.0  0.05943  0.69532  0.14605  1.0000
  H   H819      1.0  0.04101  0.77363  0.98930  1.0000
  C   C473      1.0  0.18141  0.53930  0.28319  1.0000
  H   H820      1.0  0.06559  0.60367  0.09995  1.0000
  H   H821      1.0  0.20806  0.87908  0.06892  1.0000
  Fe  Fe57      1.0  0.99529  0.67536  0.14656  1.0000
  H   H822      1.0  0.99889  0.62840  0.07979  1.0000
  C   C474      1.0  0.02659  0.96914  0.27577  1.0000
  C   C475      1.0  0.00466  0.96720  0.27804  1.0000
  H   H823      1.0  0.03371  0.90438  0.27109  1.0000
  H   H824      1.0  0.16279  0.69728  0.05600  1.0000
  C   C476      1.0  0.01504  0.74347  0.11649  1.0000
  H   H825      1.0  0.05967  0.61419  0.07519  1.0000
  S   S110      1.0  0.13936  0.70636  0.98963  1.0000
  N   N24       1.0  0.20617  0.68793  0.00474  1.0000
  N   N25       1.0  0.00242  0.61389  0.11021  1.0000
  C   C477      1.0  0.04824  0.73943  0.18754  1.0000
  H   H826      1.0  0.05396  0.64753  0.00237  1.0000
  S   S111      1.0  0.00767  0.78559  0.22169  1.0000
  H   H827      1.0  0.19712  0.51447  0.11366  1.0000
  H   H828      1.0  0.00430  0.63565  0.12787  1.0000
  H   H829      1.0  0.18892  0.94439  0.07269  1.0000
  C   C478      1.0  0.22495  0.69691  0.00067  1.0000
  H   H830      1.0  0.02327  0.71995  0.03091  1.0000
  C   C479      1.0  0.19205  0.69874  0.99054  1.0000
  H   H831      1.0  0.00209  0.48855  0.23645  1.0000
  H   H832      1.0  0.17199  0.59974  0.09053  1.0000
  H   H833      1.0  0.20084  0.59123  0.02530  1.0000
  H   H834      1.0  0.16622  0.68393  0.02451  1.0000
  H   H835      1.0  0.22648  0.89241  0.08910  1.0000
  H   H836      1.0  0.99549  0.54502  0.12864  1.0000
  H   H837      1.0  0.19143  0.79924  0.06828  1.0000
  H   H838      1.0  0.17983  0.69012  0.99186  1.0000
  S   S112      1.0  0.15660  0.50346  0.00283  1.0000
  H   H839      1.0  0.04006  0.77193  0.18475  1.0000
  H   H840      1.0  0.23481  0.68925  0.01175  1.0000
  C   C480      1.0  0.17800  0.67833  0.03393  1.0000
  H   H841      1.0  0.01685  0.61683  0.15389  1.0000
  H   H842      1.0  0.18513  0.54430  0.29608  1.0000
  C   C481      1.0  0.15821  0.85463  0.04188  1.0000
  H   H843      1.0  0.15541  0.48583  0.28763  1.0000
  H   H844      1.0  0.00948  0.68035  0.20695  1.0000
  H   H845      1.0  0.21616  0.79599  0.05374  1.0000
  C   C482      1.0  0.00996  0.60727  0.14701  1.0000
  C   C483      1.0  0.07833  0.70126  0.16500  1.0000
  C   C484      1.0  0.18214  0.88578  0.16229  1.0000
  H   H846      1.0  0.00141  0.73165  0.02063  1.0000
  H   H847      1.0  0.10576  0.81022  0.03935  1.0000
  C   C485      1.0  0.00319  0.69997  0.03297  1.0000
  H   H848      1.0  0.17036  0.79667  0.03298  1.0000
  H   H849      1.0  0.05583  0.74531  0.15511  1.0000
  H   H850      1.0  0.01227  0.72883  0.15516  1.0000
  H   H851      1.0  0.04858  0.69826  0.01455  1.0000
  H   H852      1.0  0.23389  0.69431  0.98584  1.0000
  C   C486      1.0  0.20161  0.54017  0.09048  1.0000
  C   C487      1.0  0.20018  0.79593  0.05364  1.0000
  C   C488      1.0  0.17942  0.62854  0.07684  1.0000
  N   N26       1.0  0.16217  0.82758  0.01961  1.0000
  C   C489      1.0  0.06165  0.70834  0.15208  1.0000
  C   C490      1.0  0.19585  0.68971  0.02589  1.0000
  H   H853      1.0  0.03732  0.74576  0.01790  1.0000
  H   H854      1.0  0.23435  0.55691  0.06587  1.0000
  H   H855      1.0  0.03143  0.59456  0.11064  1.0000
  C   C491      1.0  0.16530  0.84817  0.02099  1.0000
  H   H856      1.0  0.16207  0.81310  0.05056  1.0000
  H   H857      1.0  0.22049  0.97188  0.02807  1.0000
  C   C492      1.0  0.19472  0.59611  0.06382  1.0000
  C   C493      1.0  0.14005  0.82735  0.02276  1.0000
  C   C494      1.0  0.21166  0.66635  0.00181  1.0000
  H   H858      1.0  0.10252  0.69829  0.13951  1.0000
  N   N27       1.0  0.16577  0.48896  0.31409  1.0000
  S   S113      1.0  0.22336  0.93217  0.09977  1.0000
  H   H859      1.0  0.17892  0.87567  0.03722  1.0000
  C   C495      1.0  0.20046  0.77628  0.98829  1.0000
  C   C496      1.0  0.99936  0.62092  0.13011  1.0000
  H   H860      1.0  0.07869  0.85483  0.30584  1.0000
  H   H861      1.0  0.05449  0.76028  0.20413  1.0000
  C   C497      1.0  0.22429  0.93645  0.04537  1.0000
  Fe  Fe58      1.0  0.23743  0.83889  0.01276  1.0000
  C   C498      1.0  0.03734  0.62443  0.09980  1.0000
  Fe  Fe59      1.0  0.13582  0.49889  0.07721  1.0000
  H   H862      1.0  0.03527  0.67085  0.20968  1.0000
  H   H863      1.0  0.22388  0.94663  0.05605  1.0000
  H   H864      1.0  0.03503  0.96531  0.26118  1.0000
  H   H865      1.0  0.17530  0.96920  0.25406  1.0000
  H   H866      1.0  0.13912  0.50333  0.30144  1.0000
  H   H867      1.0  0.00465  0.69919  0.99248  1.0000
  H   H868      1.0  0.19533  0.82634  0.03919  1.0000
  H   H869      1.0  0.98927  0.52155  0.23789  1.0000
  H   H870      1.0  0.19478  0.56924  0.09947  1.0000
  H   H871      1.0  0.14789  0.83680  0.98200  1.0000
  H   H872      1.0  0.17225  0.63514  0.09045  1.0000
  C   C499      1.0  0.17105  0.81186  0.03542  1.0000
  H   H873      1.0  0.21801  0.96194  0.00714  1.0000
  H   H874      1.0  0.06325  0.76532  0.00043  1.0000
  C   C500      1.0  0.10754  0.84657  0.31426  1.0000
  H   H875      1.0  0.01453  0.87302  0.30278  1.0000
  C   C501      1.0  0.22658  0.63036  0.01387  1.0000
  H   H876      1.0  0.13569  0.98269  0.18694  1.0000
  H   H877      1.0  0.21667  0.54296  0.31184  1.0000
  H   H878      1.0  0.17415  0.93160  0.06247  1.0000
  H   H879      1.0  0.21604  0.72212  0.01736  1.0000
  C   C502      1.0  0.98878  0.70550  0.05169  1.0000
  H   H880      1.0  0.04500  0.67601  0.17241  1.0000
  H   H881      1.0  0.21351  0.57252  0.99733  1.0000
  C   C503      1.0  0.04402  0.73873  0.16646  1.0000
  C   C504      1.0  0.16891  0.68123  0.05544  1.0000
  C   C505      1.0  0.04551  0.74216  0.00318  1.0000
  H   H882      1.0  0.19085  0.89428  0.16834  1.0000
  H   H883      1.0  0.06109  0.72804  0.19163  1.0000
  C   C506      1.0  0.16263  0.87548  0.04145  1.0000
  H   H884      1.0  0.06793  0.62924  0.08928  1.0000
  H   H885      1.0  0.02226  0.65759  0.19802  1.0000
  H   H886      1.0  0.03494  0.73671  0.19910  1.0000
  H   H887      1.0  0.04497  0.72793  0.11754  1.0000
  H   H888      1.0  0.18132  0.84968  0.01603  1.0000
  C   C507      1.0  0.23449  0.86351  0.05265  1.0000
  H   H889      1.0  0.18845  0.86960  0.16524  1.0000
  N   N28       1.0  0.02430  0.71619  0.00025  1.0000
  H   H890      1.0  0.08113  0.92425  0.31331  1.0000
  C   C508      1.0  0.09659  0.68916  0.15384  1.0000
  H   H891      1.0  0.18437  0.71344  0.99476  1.0000
  H   H892      1.0  0.18988  0.70570  0.02712  1.0000
  H   H893      1.0  0.19862  0.78081  0.05175  1.0000
  C   C509      1.0  0.22419  0.87573  0.06667  1.0000
  C   C510      1.0  0.00989  0.71376  0.98753  1.0000
  H   H894      1.0  0.15468  0.88676  0.03058  1.0000
  C   C511      1.0  0.99542  0.59718  0.16391  1.0000
  C   C512      1.0  0.19317  0.81180  0.03651  1.0000
  H   H895      1.0  0.18374  0.89083  0.14581  1.0000
  H   H896      1.0  0.22559  0.57020  0.09985  1.0000
  H   H897      1.0  0.98765  0.75380  0.24858  1.0000
  C   C513      1.0  0.23061  0.49621  0.07018  1.0000
  S   S114      1.0  0.10831  0.48779  0.09622  1.0000
  Fe  Fe60      1.0  0.10022  0.98153  0.26108  1.0000
  H   H898      1.0  0.02570  0.60418  0.08658  1.0000
  H   H899      1.0  0.17786  0.56512  0.08561  1.0000
  H   H900      1.0  0.20664  0.68485  0.03654  1.0000
  H   H901      1.0  0.19264  0.63566  0.06960  1.0000
  H   H902      1.0  0.10850  0.68452  0.16324  1.0000
  H   H903      1.0  0.03182  0.63853  0.09020  1.0000
  H   H904      1.0  0.16290  0.75358  0.98243  1.0000
  H   H905      1.0  0.11505  0.84693  0.29841  1.0000
  C   C514      1.0  0.20219  0.56524  0.04982  1.0000
  C   C515      1.0  0.18562  0.60594  0.08265  1.0000
  C   C516      1.0  0.19408  0.56306  0.08609  1.0000
  H   H906      1.0  0.00245  0.97668  0.24701  1.0000
  H   H907      1.0  0.00279  0.75264  0.12543  1.0000
  H   H908      1.0  0.21020  0.54965  0.05089  1.0000
  H   H909      1.0  0.18620  0.56433  0.05057  1.0000
  H   H910      1.0  0.14188  0.85514  0.04657  1.0000
  H   H911      1.0  0.19748  0.53686  0.12305  1.0000
  H   H912      1.0  0.20304  0.80859  0.02239  1.0000
  H   H913      1.0  0.03757  0.62777  0.11479  1.0000
  H   H914      1.0  0.17584  0.53434  0.11344  1.0000
  Fe  Fe61      1.0  0.11362  0.95611  0.29897  1.0000
  C   C517      1.0  0.19240  0.53099  0.11148  1.0000
  H   H915      1.0  0.18253  0.66202  0.03403  1.0000
  H   H916      1.0  0.12862  0.97892  0.21376  1.0000
  H   H917      1.0  0.18190  0.59806  0.05575  1.0000
  H   H918      1.0  0.20190  0.92407  0.03534  1.0000
  H   H919      1.0  0.23372  0.58190  0.05383  1.0000
  C   C518      1.0  0.16777  0.52360  0.29061  1.0000
  N   N29       1.0  0.20454  0.57435  0.06714  1.0000
  H   H920      1.0  0.00388  0.58635  0.17465  1.0000
  C   C519      1.0  0.20978  0.57607  0.02846  1.0000
  C   C520      1.0  0.99460  0.98177  0.26126  1.0000
  H   H921      1.0  0.00606  0.83996  0.19151  1.0000
  H   H922      1.0  0.00940  0.73059  0.11368  1.0000
  H   H923      1.0  0.22997  0.92118  0.05291  1.0000
  H   H924      1.0  0.15653  0.67251  0.06109  1.0000
  C   C521      1.0  0.23109  0.51209  0.05412  1.0000
  C   C522      1.0  0.98792  0.75237  0.23322  1.0000
  Fe  Fe62      1.0  0.15684  0.50792  0.03420  1.0000
  H   H925      1.0  0.07011  0.66572  0.99193  1.0000
  H   H926      1.0  0.19722  0.53261  0.07973  1.0000
  S   S115      1.0  0.23250  0.96580  0.12243  1.0000
  C   C523      1.0  0.99368  0.63124  0.09548  1.0000
  H   H927      1.0  0.13319  0.82881  0.03853  1.0000
  H   H928      1.0  0.08768  0.49632  0.03237  1.0000
  H   H929      1.0  0.17169  0.80711  0.99832  1.0000
  H   H930      1.0  0.15407  0.90547  0.16676  1.0000
  H   H931      1.0  0.14077  0.79459  0.02790  1.0000
  C   C524      1.0  0.23255  0.57822  0.08541  1.0000
  H   H932      1.0  0.19243  0.56282  0.01314  1.0000
  C   C525      1.0  0.20244  0.93617  0.04349  1.0000
  H   H933      1.0  0.05847  0.73016  0.00566  1.0000
  C   C526      1.0  0.02422  0.60824  0.10169  1.0000
  H   H934      1.0  0.07337  0.69158  0.17926  1.0000
  H   H935      1.0  0.03597  0.67796  0.98422  1.0000
  C   C527      1.0  0.05892  0.61736  0.09048  1.0000
  C   C528      1.0  0.23462  0.88337  0.07807  1.0000
  C   C529      1.0  0.18958  0.93221  0.06416  1.0000
  C   C530      1.0  0.22660  0.57241  0.06723  1.0000
  H   H936      1.0  0.99158  0.53060  0.17133  1.0000
  H   H937      1.0  0.22491  0.92838  0.00768  1.0000
  C   C531      1.0  0.99651  0.76370  0.19769  1.0000
  C   C532      1.0  0.02737  0.72243  0.14777  1.0000
  H   H938      1.0  0.02569  0.70820  0.14366  1.0000
  H   H939      1.0  0.18622  0.50917  0.31319  1.0000
  H   H940      1.0  0.00316  0.52758  0.26550  1.0000
  S   S116      1.0  0.08376  0.96613  0.28915  1.0000
  H   H941      1.0  0.04790  0.76946  0.31024  1.0000
  H   H942      1.0  0.01962  0.75276  0.10180  1.0000
  H   H943      1.0  0.21743  0.54928  0.01451  1.0000
  C   C533      1.0  0.14906  0.48862  0.30318  1.0000
  C   C534      1.0  0.99096  0.84891  0.19496  1.0000
  C   C535      1.0  0.03086  0.68465  0.17918  1.0000
  H   H944      1.0  0.06786  0.71847  0.13863  1.0000
  H   H945      1.0  0.19552  0.95064  0.03545  1.0000
  H   H946      1.0  0.00418  0.95146  0.27725  1.0000
  H   H947      1.0  0.16585  0.84425  0.05352  1.0000
  H   H948      1.0  0.04291  0.70352  0.19286  1.0000
  C   C536      1.0  0.11143  0.80932  0.02327  1.0000
  H   H949      1.0  0.98872  0.52442  0.29031  1.0000
  C   C537      1.0  0.04210  0.69947  0.00075  1.0000
  C   C538      1.0  0.05263  0.75991  0.18861  1.0000
  H   H950      1.0  0.19573  0.91771  0.07280  1.0000
  N   N30       1.0  0.04201  0.71864  0.16214  1.0000
  H   H951      1.0  0.06955  0.75452  0.29804  1.0000
  C   C539      1.0  0.02406  0.67269  0.19976  1.0000
  C   C540      1.0  0.03352  0.70581  0.18113  1.0000
  C   C541      1.0  0.03289  0.73627  0.12746  1.0000
  S   S117      1.0  0.12965  0.97348  0.27181  1.0000
  H   H952      1.0  0.20469  0.97198  0.17229  1.0000
  H   H953      1.0  0.10171  0.49567  0.05198  1.0000
  H   H954      1.0  0.23564  0.62040  0.02466  1.0000
  H   H955      1.0  0.03342  0.95870  0.28797  1.0000
  H   H956      1.0  0.19546  0.98206  0.25361  1.0000
  H   H957      1.0  0.99443  0.69462  0.02406  1.0000
  H   H958      1.0  0.04843  0.74305  0.31129  1.0000
  H   H959      1.0  0.13887  0.80664  0.00259  1.0000
  H   H960      1.0  0.99733  0.97020  0.29320  1.0000
  Fe  Fe63      1.0  0.10706  0.71596  0.98658  1.0000
  H   H961      1.0  0.08992  0.87556  0.30797  1.0000
  H   H962      1.0  0.10868  0.48996  0.30113  1.0000
  C   C542      1.0  0.05349  0.76102  0.99170  1.0000
  H   H963      1.0  0.98806  0.49688  0.27206  1.0000
  H   H964      1.0  0.17371  0.55251  0.27395  1.0000
  C   C543      1.0  0.99141  0.59672  0.11186  1.0000
  C   C544      1.0  0.22424  0.65208  0.01677  1.0000
  H   H965      1.0  0.01888  0.74820  0.98959  1.0000
  H   H966      1.0  0.18839  0.82352  0.99683  1.0000
  H   H967      1.0  0.04232  0.80870  0.31331  1.0000
  H   H968      1.0  0.23422  0.62855  0.99842  1.0000
  C   C545      1.0  0.10267  0.49209  0.03681  1.0000
  H   H969      1.0  0.06018  0.66197  0.01851  1.0000
  H   H970      1.0  0.99628  0.58638  0.22291  1.0000
  H   H971      1.0  0.99654  0.71089  0.06157  1.0000
  H   H972      1.0  0.22568  0.57753  0.02660  1.0000
  H   H973      1.0  0.16371  0.51980  0.27723  1.0000
  H   H974      1.0  0.01531  0.49341  0.29788  1.0000
  H   H975      1.0  0.22042  0.66524  0.98659  1.0000
  Fe  Fe64      1.0  0.23527  0.81179  0.98333  1.0000
  H   H976      1.0  0.19543  0.53313  0.27383  1.0000
  H   H977      1.0  0.21172  0.62569  0.01654  1.0000
  H   H978      1.0  0.99159  0.85909  0.20528  1.0000
  H   H979      1.0  0.98855  0.74672  0.17820  1.0000
  H   H980      1.0  0.22834  0.59459  0.08507  1.0000
  C   C546      1.0  0.98858  0.74798  0.19352  1.0000
  H   H981      1.0  0.99736  0.51127  0.20407  1.0000
  H   H982      1.0  0.19800  0.66003  0.00220  1.0000
  S   S118      1.0  0.22241  0.84397  0.98586  1.0000
  H   H983      1.0  0.16984  0.98027  0.19052  1.0000
  H   H984      1.0  0.98806  0.59605  0.09692  1.0000
  C   C547      1.0  0.98781  0.52753  0.27412  1.0000
  S   S119      1.0  0.22904  0.98281  0.06526  1.0000
  C   C548      1.0  0.18010  0.98405  0.25031  1.0000
  H   H985      1.0  0.06240  0.89732  0.31499  1.0000
  C   C549      1.0  0.08724  0.86024  0.31500  1.0000
  H   H986      1.0  0.14790  0.75338  0.43958  1.0000
  H   H987      1.0  0.12113  0.98319  0.50764  1.0000
  Fe  Fe65      1.0  0.20514  0.59333  0.51908  1.0000
  S   S120      1.0  0.19341  0.57656  0.54948  1.0000
  Fe  Fe66      1.0  0.18476  0.61712  0.48435  1.0000
  C   C550      1.0  0.17865  0.53095  0.53592  1.0000
  S   S121      1.0  0.15250  0.62834  0.47971  1.0000
  C   C551      1.0  0.99243  0.81259  0.48402  1.0000
  S   S122      1.0  0.20640  0.53408  0.39643  1.0000
  S   S123      1.0  0.19494  0.58442  0.49392  1.0000
  S   S124      1.0  0.19316  0.62605  0.51072  1.0000
  Fe  Fe67      1.0  0.11970  0.91580  0.54798  1.0000
  S   S125      1.0  0.13740  0.89104  0.53185  1.0000
  S   S126      1.0  0.11036  0.94796  0.53454  1.0000
  Fe  Fe68      1.0  0.11938  0.89029  0.58910  1.0000
  S   S127      1.0  0.13661  0.86297  0.57647  1.0000
  S   S128      1.0  0.10727  0.89300  0.62178  1.0000
  Fe  Fe69      1.0  0.15564  0.88450  0.55665  1.0000
  S   S129      1.0  0.18944  0.87855  0.54888  1.0000
  Fe  Fe70      1.0  0.11695  0.87152  0.55245  1.0000
  S   S130      1.0  0.10195  0.84843  0.54362  1.0000
  S   S131      1.0  0.13966  0.91096  0.57079  1.0000
  S   S132      1.0  0.09797  0.89701  0.56714  1.0000
  H   H988      1.0  0.17003  0.86584  0.50445  1.0000
  C   C552      1.0  0.15151  0.91221  0.63999  1.0000
  C   C553      1.0  0.00423  0.75298  0.40171  1.0000
  H   H989      1.0  0.11718  0.85167  0.32255  1.0000
  H   H990      1.0  0.21182  0.92521  0.62535  1.0000
  H   H991      1.0  0.09098  0.89462  0.51369  1.0000
  H   H992      1.0  0.11413  0.74666  0.37738  1.0000
  S   S133      1.0  0.03949  0.52458  0.62466  1.0000
  Fe  Fe71      1.0  0.03023  0.61082  0.45029  1.0000
  S   S134      1.0  0.01211  0.62826  0.42714  1.0000
  Fe  Fe72      1.0  0.06996  0.61535  0.42344  1.0000
  S   S135      1.0  0.05490  0.63321  0.39780  1.0000
  S   S136      1.0  0.10386  0.60739  0.42007  1.0000
  Fe  Fe73      1.0  0.03450  0.64907  0.42166  1.0000
  S   S137      1.0  0.02344  0.68223  0.42115  1.0000
  Fe  Fe74      1.0  0.03371  0.61069  0.40564  1.0000
  S   S138      1.0  0.02573  0.59410  0.38343  1.0000
  S   S139      1.0  0.05088  0.63274  0.44654  1.0000
  S   S140      1.0  0.05058  0.59167  0.42942  1.0000
  Fe  Fe75      1.0  0.05937  0.80304  0.41021  1.0000
  S   S141      1.0  0.08589  0.78933  0.42550  1.0000
  S   S142      1.0  0.06338  0.81181  0.37617  1.0000
  Fe  Fe76      1.0  0.03102  0.79830  0.44979  1.0000
  S   S143      1.0  0.05494  0.78357  0.46818  1.0000
  H   H993      1.0  0.02226  0.85110  0.49273  1.0000
  Fe  Fe77      1.0  0.07177  0.80777  0.44998  1.0000
  S   S144      1.0  0.08896  0.82783  0.46077  1.0000
  Fe  Fe78      1.0  0.06681  0.76662  0.44245  1.0000
  S   S145      1.0  0.07861  0.73336  0.44499  1.0000
  S   S146      1.0  0.04680  0.82339  0.43294  1.0000
  S   S147      1.0  0.04139  0.77936  0.42579  1.0000
  H   H994      1.0  0.16913  0.49363  0.57220  1.0000
  C   C554      1.0  0.22583  0.49350  0.46953  1.0000
  C   C555      1.0  0.00253  0.58879  0.38011  1.0000
  H   H995      1.0  0.99940  0.73597  0.46782  1.0000
  H   H996      1.0  0.01691  0.56492  0.36368  1.0000
  C   C556      1.0  0.03868  0.69550  0.42918  1.0000
  C   C557      1.0  0.03031  0.71384  0.43551  1.0000
  C   C558      1.0  0.04231  0.72535  0.44085  1.0000
  C   C559      1.0  0.06289  0.71870  0.43959  1.0000
  C   C560      1.0  0.07115  0.70012  0.43367  1.0000
  C   C561      1.0  0.05911  0.68848  0.42861  1.0000
  H   H997      1.0  0.01447  0.71914  0.43621  1.0000
  H   H998      1.0  0.03566  0.73940  0.44583  1.0000
  H   H999      1.0  0.08697  0.69490  0.43251  1.0000
  H   H1000     1.0  0.06573  0.67435  0.42372  1.0000
  H   H1001     1.0  0.05522  0.68088  0.38538  1.0000
  H   H1002     1.0  0.04547  0.85092  0.61181  1.0000
  H   H1003     1.0  0.08461  0.57832  0.45911  1.0000
  H   H1004     1.0  0.07107  0.76819  0.36640  1.0000
  C   C562      1.0  0.09976  0.84207  0.52034  1.0000
  C   C563      1.0  0.10752  0.85236  0.50168  1.0000
  C   C564      1.0  0.10410  0.84771  0.48376  1.0000
  C   C565      1.0  0.09292  0.83273  0.48408  1.0000
  C   C566      1.0  0.08520  0.82240  0.50273  1.0000
  C   C567      1.0  0.08863  0.82703  0.52067  1.0000
  H   H1005     1.0  0.11601  0.86402  0.50103  1.0000
  H   H1006     1.0  0.11018  0.85583  0.46947  1.0000
  H   H1007     1.0  0.07659  0.81084  0.50335  1.0000
  H   H1008     1.0  0.08244  0.81899  0.53494  1.0000
  C   C568      1.0  0.11962  0.95217  0.50882  1.0000
  C   C569      1.0  0.12401  0.97102  0.49927  1.0000
  H   H1009     1.0  0.06573  0.85520  0.57765  1.0000
  C   C570      1.0  0.12331  0.93651  0.49791  1.0000
  H   H1010     1.0  0.00936  0.55309  0.56360  1.0000
  C   C571      1.0  0.00868  0.86919  0.31904  1.0000
  H   H1011     1.0  0.11933  0.92217  0.50500  1.0000
  H   H1012     1.0  0.11839  0.96489  0.36962  1.0000
  C   C572      1.0  0.19492  0.89853  0.57784  1.0000
  C   C573      1.0  0.13274  0.97397  0.47895  1.0000
  H   H1013     1.0  0.08257  0.92038  0.50357  1.0000
  H   H1014     1.0  0.17923  0.89891  0.58382  1.0000
  H   H1015     1.0  0.20001  0.91358  0.60030  1.0000
  H   H1016     1.0  0.03350  0.82921  0.57532  1.0000
  C   C574      1.0  0.01932  0.80241  0.33861  1.0000
  C   C575      1.0  0.03794  0.80750  0.32940  1.0000
  C   C576      1.0  0.05127  0.81026  0.34111  1.0000
  C   C577      1.0  0.04596  0.80850  0.36205  1.0000
  C   C578      1.0  0.02709  0.80407  0.37119  1.0000
  C   C579      1.0  0.01394  0.80082  0.35953  1.0000
  H   H1017     1.0  0.10446  0.97046  0.56521  1.0000
  H   H1018     1.0  0.06584  0.81362  0.33386  1.0000
  H   H1019     1.0  0.02272  0.80286  0.38728  1.0000
  H   H1020     1.0  0.00063  0.69746  0.46823  1.0000
  H   H1021     1.0  0.08659  0.89526  0.34033  1.0000
  C   C580      1.0  0.14088  0.90488  0.62849  1.0000
  C   C581      1.0  0.12089  0.90289  0.63553  1.0000
  S   S148      1.0  0.23612  0.59613  0.50228  1.0000
  C   C582      1.0  0.99053  0.63562  0.47644  1.0000
  H   H1022     1.0  0.14828  0.90044  0.61433  1.0000
  H   H1023     1.0  0.23141  0.58482  0.34216  1.0000
  C   C583      1.0  0.13969  0.61984  0.46416  1.0000
  C   C584      1.0  0.11877  0.62187  0.46882  1.0000
  C   C585      1.0  0.10765  0.61807  0.45551  1.0000
  C   C586      1.0  0.11735  0.61206  0.43738  1.0000
  C   C587      1.0  0.13834  0.60928  0.43302  1.0000
  C   C588      1.0  0.14949  0.61304  0.44640  1.0000
  H   H1024     1.0  0.11109  0.62673  0.48270  1.0000
  H   H1025     1.0  0.09157  0.61995  0.45923  1.0000
  H   H1026     1.0  0.14600  0.60468  0.41900  1.0000
  H   H1027     1.0  0.16558  0.61149  0.44258  1.0000
  H   H1028     1.0  0.15351  0.95737  0.52814  1.0000
  C   C589      1.0  0.20930  0.56186  0.41836  1.0000
  C   C590      1.0  0.21709  0.56909  0.43224  1.0000
  H   H1029     1.0  0.19777  0.57146  0.41080  1.0000
  H   H1030     1.0  0.21159  0.58415  0.43528  1.0000
  C   C591      1.0  0.12689  0.97462  0.35835  1.0000
  C   C592      1.0  0.22845  0.53502  0.32072  1.0000
  C   C593      1.0  0.19888  0.54420  0.57907  1.0000
  C   C594      1.0  0.20827  0.55710  0.56322  1.0000
  H   H1031     1.0  0.99926  0.54885  0.52350  1.0000
  C   C595      1.0  0.22383  0.88921  0.55348  1.0000
  H   H1032     1.0  0.20286  0.51829  0.60224  1.0000
  H   H1033     1.0  0.18276  0.54655  0.58277  1.0000
  H   H1034     1.0  0.07665  0.83588  0.62956  1.0000
  H   H1035     1.0  0.17987  0.53037  0.55181  1.0000
  H   H1036     1.0  0.99127  0.76779  0.44275  1.0000
  H   H1037     1.0  0.04015  0.81856  0.55260  1.0000
  H   H1038     1.0  0.07236  0.91023  0.52881  1.0000
  H   H1039     1.0  0.99020  0.74683  0.40407  1.0000
  Fe  Fe79      1.0  0.21345  0.50186  0.39136  1.0000
  H   H1040     1.0  0.01257  0.71479  0.49320  1.0000
  H   H1041     1.0  0.13042  0.51381  0.33044  1.0000
  H   H1042     1.0  0.03499  0.68844  0.47693  1.0000
  C   C596      1.0  0.21021  0.52821  0.59011  1.0000
  H   H1043     1.0  0.99181  0.68054  0.49015  1.0000
  H   H1044     1.0  0.11278  0.97058  0.60007  1.0000
  C   C597      1.0  0.13690  0.95807  0.46824  1.0000
  H   H1045     1.0  0.19128  0.92543  0.52998  1.0000
  C   C598      1.0  0.11140  0.50839  0.64272  1.0000
  H   H1046     1.0  0.22214  0.93841  0.49808  1.0000
  C   C599      1.0  0.07402  0.92521  0.32905  1.0000
  H   H1047     1.0  0.00738  0.57639  0.42383  1.0000
  H   H1048     1.0  0.10728  0.75040  0.40314  1.0000
  H   H1049     1.0  0.16703  0.91342  0.63447  1.0000
  H   H1050     1.0  0.01493  0.74537  0.37266  1.0000
  H   H1051     1.0  0.13488  0.92725  0.46926  1.0000
  H   H1052     1.0  0.02584  0.67145  0.49898  1.0000
  H   H1053     1.0  0.12698  0.50007  0.36699  1.0000
  H   H1054     1.0  0.02126  0.72573  0.39311  1.0000
  C   C600      1.0  0.09762  0.97038  0.59738  1.0000
  H   H1055     1.0  0.16806  0.48854  0.59896  1.0000
  C   C601      1.0  0.02039  0.87703  0.33137  1.0000
  H   H1056     1.0  0.17832  0.54666  0.52798  1.0000
  H   H1057     1.0  0.10568  0.83090  0.32089  1.0000
  H   H1058     1.0  0.19511  0.95017  0.42862  1.0000
  C   C602      1.0  0.05845  0.68520  0.36883  1.0000
  C   C603      1.0  0.22736  0.90587  0.58006  1.0000
  H   H1059     1.0  0.01214  0.82491  0.64535  1.0000
  H   H1060     1.0  0.07930  0.97919  0.57444  1.0000
  H   H1061     1.0  0.13319  0.52737  0.62867  1.0000
  H   H1062     1.0  0.04650  0.85208  0.46095  1.0000
  C   C604      1.0  0.05213  0.70773  0.36265  1.0000
  H   H1063     1.0  0.11641  0.52302  0.42299  1.0000
  H   H1064     1.0  0.19940  0.87918  0.48328  1.0000
  H   H1065     1.0  0.08095  0.97734  0.64645  1.0000
  C   C605      1.0  0.18104  0.54757  0.46621  1.0000
  C   C606      1.0  0.17873  0.90489  0.49452  1.0000
  H   H1066     1.0  0.99391  0.54405  0.61148  1.0000
  Fe  Fe80      1.0  0.22352  0.62855  0.49201  1.0000
  H   H1067     1.0  0.01394  0.81883  0.52189  1.0000
  H   H1068     1.0  0.99652  0.70929  0.56825  1.0000
  C   C607      1.0  0.16964  0.87305  0.48860  1.0000
  H   H1069     1.0  0.16733  0.94427  0.49545  1.0000
  S   S149      1.0  0.00327  0.79627  0.32467  1.0000
  H   H1070     1.0  0.14765  0.51155  0.36868  1.0000
  H   H1071     1.0  0.16306  0.91204  0.49320  1.0000
  H   H1072     1.0  0.17843  0.89742  0.51037  1.0000
  H   H1073     1.0  0.98798  0.89704  0.51410  1.0000
  H   H1074     1.0  0.20068  0.95562  0.60132  1.0000
  H   H1075     1.0  0.16680  0.92125  0.52859  1.0000
  S   S150      1.0  0.14913  0.96064  0.44340  1.0000
  H   H1076     1.0  0.10017  0.77044  0.38344  1.0000
  C   C608      1.0  0.09481  0.98015  0.57562  1.0000
  H   H1077     1.0  0.07283  0.97010  0.33309  1.0000
  C   C609      1.0  0.06672  0.74982  0.33048  1.0000
  C   C610      1.0  0.01113  0.55704  0.54704  1.0000
  C   C611      1.0  0.22796  0.92441  0.49186  1.0000
  H   H1078     1.0  0.03811  0.74382  0.34727  1.0000
  H   H1079     1.0  0.15420  0.88081  0.48711  1.0000
  C   C612      1.0  0.19767  0.96449  0.61367  1.0000
  H   H1080     1.0  0.00914  0.75118  0.41635  1.0000
  H   H1081     1.0  0.98886  0.64723  0.51855  1.0000
  H   H1082     1.0  0.21816  0.80074  0.56351  1.0000
  C   C613      1.0  0.10231  0.75394  0.38832  1.0000
  N   N31       1.0  0.13577  0.69463  0.45943  1.0000
  H   H1083     1.0  0.02753  0.85536  0.64217  1.0000
  C   C614      1.0  0.14359  0.68025  0.44473  1.0000
  C   C615      1.0  0.11456  0.69306  0.46935  1.0000
  C   C616      1.0  0.11095  0.67215  0.48091  1.0000
  C   C617      1.0  0.03227  0.86289  0.46219  1.0000
  C   C618      1.0  0.08863  0.67143  0.48703  1.0000
  H   H1084     1.0  0.12542  0.71943  0.43734  1.0000
  H   H1085     1.0  0.15790  0.68379  0.43538  1.0000
  H   H1086     1.0  0.14752  0.66472  0.45267  1.0000
  H   H1087     1.0  0.10440  0.69806  0.45815  1.0000
  H   H1088     1.0  0.10918  0.70335  0.48046  1.0000
  H   H1089     1.0  0.11772  0.66840  0.49475  1.0000
  H   H1090     1.0  0.11756  0.66048  0.47165  1.0000
  H   H1091     1.0  0.02834  0.86350  0.55545  1.0000
  H   H1092     1.0  0.14596  0.65148  0.42136  1.0000
  H   H1093     1.0  0.08125  0.68298  0.49645  1.0000
  H   H1094     1.0  0.08146  0.67398  0.47353  1.0000
  H   H1095     1.0  0.08647  0.65648  0.49578  1.0000
  N   N32       1.0  0.02030  0.59224  0.54425  1.0000
  C   C619      1.0  0.01349  0.61380  0.53546  1.0000
  C   C620      1.0  0.04102  0.58461  0.53363  1.0000
  C   C621      1.0  0.00238  0.81929  0.51336  1.0000
  C   C622      1.0  0.01958  0.58936  0.56659  1.0000
  C   C623      1.0  0.03186  0.60191  0.57389  1.0000
  S   S151      1.0  0.20285  0.49645  0.36463  1.0000
  H   H1096     1.0  0.15123  0.52511  0.33231  1.0000
  C   C624      1.0  0.05551  0.59992  0.52535  1.0000
  C   C625      1.0  0.07641  0.58958  0.51730  1.0000
  C   C626      1.0  0.02821  0.59911  0.59678  1.0000
  H   H1097     1.0  0.22369  0.49738  0.56040  1.0000
  H   H1098     1.0  0.21517  0.53895  0.51588  1.0000
  C   C627      1.0  0.15803  0.49248  0.33531  1.0000
  H   H1099     1.0  0.02389  0.62348  0.53679  1.0000
  H   H1100     1.0  0.04863  0.57184  0.54354  1.0000
  H   H1101     1.0  0.04004  0.57847  0.52017  1.0000
  H   H1102     1.0  0.22138  0.55692  0.34012  1.0000
  H   H1103     1.0  0.15018  0.48654  0.42510  1.0000
  H   H1104     1.0  0.00386  0.59216  0.57446  1.0000
  H   H1105     1.0  0.02526  0.57350  0.57253  1.0000
  H   H1106     1.0  0.02787  0.61811  0.56825  1.0000
  H   H1107     1.0  0.04803  0.59689  0.56899  1.0000
  H   H1108     1.0  0.06391  0.88713  0.63783  1.0000
  H   H1109     1.0  0.08275  0.86014  0.62375  1.0000
  C   C628      1.0  0.99749  0.88452  0.52243  1.0000
  H   H1110     1.0  0.02661  0.55091  0.54062  1.0000
  H   H1111     1.0  0.05008  0.61087  0.51263  1.0000
  H   H1112     1.0  0.05686  0.60831  0.53691  1.0000
  H   H1113     1.0  0.08629  0.60094  0.51111  1.0000
  H   H1114     1.0  0.08296  0.57882  0.52948  1.0000
  H   H1115     1.0  0.07587  0.58155  0.50508  1.0000
  H   H1116     1.0  0.03209  0.58307  0.60336  1.0000
  H   H1117     1.0  0.03761  0.60772  0.60177  1.0000
  H   H1118     1.0  0.01231  0.60457  0.60260  1.0000
  N   N33       1.0  0.23493  0.51028  0.51767  1.0000
  S   S152      1.0  0.99659  0.57068  0.63794  1.0000
  H   H1119     1.0  0.04965  0.97589  0.34956  1.0000
  H   H1120     1.0  0.17803  0.96169  0.52958  1.0000
  H   H1121     1.0  0.99716  0.87123  0.51607  1.0000
  C   C629      1.0  0.98811  0.77285  0.64226  1.0000
  H   H1122     1.0  0.00255  0.64080  0.46531  1.0000
  H   H1123     1.0  0.07612  0.83326  0.59362  1.0000
  H   H1124     1.0  0.12488  0.52693  0.36204  1.0000
  H   H1125     1.0  0.17055  0.49256  0.34306  1.0000
  H   H1126     1.0  0.10581  0.93971  0.59151  1.0000
  H   H1127     1.0  0.20898  0.96848  0.43150  1.0000
  C   C630      1.0  0.99167  0.48614  0.32226  1.0000
  C   C631      1.0  0.13088  0.51264  0.63662  1.0000
  H   H1128     1.0  0.99098  0.74160  0.62152  1.0000
  H   H1129     1.0  0.16479  0.94607  0.54992  1.0000
  H   H1130     1.0  0.18331  0.83357  0.57649  1.0000
  N   N34       1.0  0.05608  0.87345  0.33966  1.0000
  C   C632      1.0  0.07606  0.85986  0.33687  1.0000
  C   C633      1.0  0.04656  0.87067  0.36155  1.0000
  H   H1131     1.0  0.12718  0.48855  0.41609  1.0000
  C   C634      1.0  0.22439  0.82430  0.57838  1.0000
  C   C635      1.0  0.07148  0.90441  0.34065  1.0000
  H   H1132     1.0  0.19342  0.53870  0.45717  1.0000
  N   N35       1.0  0.05709  0.85702  0.64715  1.0000
  C   C636      1.0  0.06055  0.86688  0.37739  1.0000
  C   C637      1.0  0.04860  0.86948  0.39812  1.0000
  H   H1133     1.0  0.20066  0.97984  0.60720  1.0000
  C   C638      1.0  0.00530  0.56822  0.43948  1.0000
  H   H1134     1.0  0.07412  0.84410  0.34320  1.0000
  H   H1135     1.0  0.08647  0.86317  0.34549  1.0000
  H   H1136     1.0  0.03472  0.88375  0.36451  1.0000
  H   H1137     1.0  0.03886  0.85737  0.36537  1.0000
  H   H1138     1.0  0.01506  0.83161  0.55961  1.0000
  C   C639      1.0  0.23684  0.48973  0.53043  1.0000
  C   C640      1.0  0.19897  0.94960  0.45927  1.0000
  H   H1139     1.0  0.04281  0.90472  0.33393  1.0000
  H   H1140     1.0  0.22884  0.52318  0.48769  1.0000
  H   H1141     1.0  0.06470  0.90631  0.35627  1.0000
  H   H1142     1.0  0.01198  0.55226  0.43929  1.0000
  H   H1143     1.0  0.03578  0.71131  0.36714  1.0000
  H   H1144     1.0  0.01327  0.57441  0.44858  1.0000
  H   H1145     1.0  0.22069  0.94268  0.43292  1.0000
  H   H1146     1.0  0.06887  0.85131  0.37848  1.0000
  H   H1147     1.0  0.07180  0.87684  0.37371  1.0000
  H   H1148     1.0  0.05874  0.86521  0.40940  1.0000
  H   H1149     1.0  0.04136  0.88531  0.39823  1.0000
  H   H1150     1.0  0.03697  0.85977  0.40245  1.0000
  C   C641      1.0  0.04279  0.86729  0.32795  1.0000
  H   H1151     1.0  0.20506  0.80163  0.58815  1.0000
  H   H1152     1.0  0.13952  0.52032  0.40613  1.0000
  C   C642      1.0  0.13241  0.51652  0.42199  1.0000
  H   H1153     1.0  0.22701  0.81830  0.59392  1.0000
  C   C643      1.0  0.22681  0.49143  0.49175  1.0000
  N   N36       1.0  0.13989  0.54676  0.43508  1.0000
  C   C644      1.0  0.13775  0.55823  0.41439  1.0000
  C   C645      1.0  0.12193  0.55400  0.44986  1.0000
  C   C646      1.0  0.15798  0.55186  0.44078  1.0000
  C   C647      1.0  0.14278  0.52432  0.43612  1.0000
  C   C648      1.0  0.15656  0.55534  0.39810  1.0000
  C   C649      1.0  0.16093  0.54433  0.46291  1.0000
  C   C650      1.0  0.10113  0.55223  0.44624  1.0000
  H   H1154     1.0  0.08768  0.74700  0.35841  1.0000
  C   C651      1.0  0.15160  0.56283  0.37703  1.0000
  C   C652      1.0  0.13526  0.51266  0.36031  1.0000
  H   H1155     1.0  0.13389  0.57453  0.41480  1.0000
  H   H1156     1.0  0.12509  0.55468  0.40900  1.0000
  H   H1157     1.0  0.12294  0.54555  0.46521  1.0000
  H   H1158     1.0  0.12167  0.57000  0.45061  1.0000
  H   H1159     1.0  0.15748  0.56837  0.43782  1.0000
  H   H1160     1.0  0.17188  0.54562  0.43125  1.0000
  H   H1161     1.0  0.15895  0.51798  0.43248  1.0000
  H   H1162     1.0  0.13795  0.51695  0.45176  1.0000
  H   H1163     1.0  0.16765  0.56402  0.40004  1.0000
  H   H1164     1.0  0.16365  0.53940  0.39913  1.0000
  H   H1165     1.0  0.16014  0.52814  0.46734  1.0000
  H   H1166     1.0  0.14937  0.55282  0.47311  1.0000
  H   H1167     1.0  0.00421  0.77002  0.52181  1.0000
  H   H1168     1.0  0.06743  0.89838  0.48974  1.0000
  H   H1169     1.0  0.01853  0.89350  0.32673  1.0000
  H   H1170     1.0  0.21659  0.52643  0.54050  1.0000
  H   H1171     1.0  0.14472  0.57891  0.37537  1.0000
  H   H1172     1.0  0.14116  0.55403  0.37398  1.0000
  H   H1173     1.0  0.07637  0.76116  0.32924  1.0000
  C   C653      1.0  0.05034  0.75087  0.34936  1.0000
  H   H1174     1.0  0.18025  0.92821  0.46153  1.0000
  H   H1175     1.0  0.16236  0.50147  0.63649  1.0000
  H   H1176     1.0  0.20983  0.90376  0.51162  1.0000
  C   C654      1.0  0.21616  0.52383  0.52526  1.0000
  H   H1177     1.0  0.06990  0.55957  0.45934  1.0000
  N   N37       1.0  0.19207  0.92061  0.48938  1.0000
  H   H1178     1.0  0.20453  0.89499  0.63460  1.0000
  C   C655      1.0  0.18433  0.88781  0.48179  1.0000
  H   H1179     1.0  0.21579  0.50749  0.46455  1.0000
  C   C656      1.0  0.21622  0.54230  0.41439  1.0000
  H   H1180     1.0  0.22240  0.52299  0.33207  1.0000
  H   H1181     1.0  0.05528  0.87397  0.60519  1.0000
  C   C657      1.0  0.18181  0.93751  0.50061  1.0000
  C   C658      1.0  0.13192  0.93946  0.47764  1.0000
  H   H1182     1.0  0.18270  0.67056  0.49198  1.0000
  C   C659      1.0  0.05926  0.85748  0.60921  1.0000
  C   C660      1.0  0.99650  0.74584  0.51072  1.0000
  S   S153      1.0  0.99820  0.80366  0.46125  1.0000
  H   H1183     1.0  0.09662  0.94189  0.61740  1.0000
  C   C661      1.0  0.00276  0.57348  0.36932  1.0000
  H   H1184     1.0  0.05555  0.71108  0.34604  1.0000
  C   C662      1.0  0.23104  0.52532  0.58561  1.0000
  C   C663      1.0  0.21051  0.81120  0.57390  1.0000
  H   H1185     1.0  0.18243  0.54277  0.48226  1.0000
  H   H1186     1.0  0.19051  0.94990  0.49717  1.0000
  H   H1187     1.0  0.99829  0.70016  0.51290  1.0000
  C   C664      1.0  0.20681  0.90671  0.58730  1.0000
  H   H1188     1.0  0.04012  0.88462  0.63415  1.0000
  H   H1189     1.0  0.19572  0.50171  0.53445  1.0000
  H   H1190     1.0  0.05938  0.93533  0.32916  1.0000
  H   H1191     1.0  0.04999  0.67696  0.36216  1.0000
  H   H1192     1.0  0.17830  0.68343  0.45659  1.0000
  H   H1193     1.0  0.04372  0.76691  0.34912  1.0000
  H   H1194     1.0  0.17608  0.69582  0.49741  1.0000
  C   C665      1.0  0.19207  0.82371  0.56580  1.0000
  H   H1195     1.0  0.03465  0.87731  0.45234  1.0000
  C   C666      1.0  0.18260  0.68663  0.48549  1.0000
  H   H1196     1.0  0.19832  0.68882  0.47995  1.0000
  H   H1197     1.0  0.07950  0.71557  0.36579  1.0000
  H   H1198     1.0  0.04860  0.91332  0.50529  1.0000
  C   C667      1.0  0.00742  0.81295  0.49468  1.0000
  C   C668      1.0  0.07298  0.84987  0.59110  1.0000
  H   H1199     1.0  0.01061  0.87647  0.48423  1.0000
  C   C669      1.0  0.21192  0.91090  0.49556  1.0000
  H   H1200     1.0  0.16552  0.56108  0.36584  1.0000
  H   H1201     1.0  0.11526  0.73347  0.46903  1.0000
  C   C670      1.0  0.02026  0.74198  0.38721  1.0000
  H   H1202     1.0  0.21887  0.89834  0.48731  1.0000
  H   H1203     1.0  0.17373  0.86116  0.47914  1.0000
  H   H1204     1.0  0.08379  0.93169  0.33599  1.0000
  H   H1205     1.0  0.02545  0.66702  0.47422  1.0000
  N   N38       1.0  0.05716  0.74215  0.36919  1.0000
  C   C671      1.0  0.04072  0.74829  0.38587  1.0000
  C   C672      1.0  0.07479  0.75154  0.37000  1.0000
  C   C673      1.0  0.06341  0.71967  0.37209  1.0000
  C   C674      1.0  0.08273  0.74632  0.39021  1.0000
  H   H1206     1.0  0.18232  0.56368  0.46202  1.0000
  C   C675      1.0  0.02351  0.67880  0.48359  1.0000
  H   H1207     1.0  0.01387  0.61512  0.51903  1.0000
  H   H1208     1.0  0.00014  0.53016  0.54584  1.0000
  H   H1209     1.0  0.04519  0.74196  0.40069  1.0000
  H   H1210     1.0  0.03824  0.76482  0.38491  1.0000
  C   C676      1.0  0.23108  0.53002  0.42432  1.0000
  H   H1211     1.0  0.06215  0.71339  0.38839  1.0000
  C   C677      1.0  0.00253  0.69108  0.48393  1.0000
  H   H1212     1.0  0.08536  0.72992  0.39552  1.0000
  H   H1213     1.0  0.07195  0.75357  0.40186  1.0000
  H   H1214     1.0  0.02100  0.85678  0.45692  1.0000
  H   H1215     1.0  0.99954  0.79699  0.36673  1.0000
  H   H1216     1.0  0.18394  0.89374  0.46568  1.0000
  C   C678      1.0  0.20346  0.88962  0.56095  1.0000
  H   H1217     1.0  0.18169  0.96546  0.62071  1.0000
  H   H1218     1.0  0.01338  0.87361  0.34732  1.0000
  H   H1219     1.0  0.00741  0.73461  0.51865  1.0000
  N   N39       1.0  0.03670  0.87500  0.51399  1.0000
  C   C679      1.0  0.03530  0.85424  0.52569  1.0000
  C   C680      1.0  0.04025  0.87433  0.49181  1.0000
  C   C681      1.0  0.05487  0.88124  0.51834  1.0000
  C   C682      1.0  0.01863  0.89024  0.51992  1.0000
  C   C683      1.0  0.99067  0.76395  0.52150  1.0000
  C   C684      1.0  0.03742  0.85103  0.54807  1.0000
  C   C685      1.0  0.06131  0.90070  0.50540  1.0000
  C   C686      1.0  0.02491  0.86583  0.48395  1.0000
  H   H1220     1.0  0.07624  0.73483  0.33119  1.0000
  H   H1221     1.0  0.08677  0.55523  0.47700  1.0000
  C   C687      1.0  0.03113  0.83138  0.55955  1.0000
  C   C688      1.0  0.07780  0.90679  0.51341  1.0000
  H   H1222     1.0  0.04712  0.84306  0.51865  1.0000
  H   H1223     1.0  0.02118  0.84956  0.52513  1.0000
  H   H1224     1.0  0.04061  0.88958  0.48288  1.0000
  H   H1225     1.0  0.05526  0.86530  0.48748  1.0000
  H   H1226     1.0  0.06794  0.86917  0.51637  1.0000
  H   H1227     1.0  0.05270  0.88326  0.53426  1.0000
  H   H1228     1.0  0.01973  0.89519  0.53397  1.0000
  H   H1229     1.0  0.01868  0.90416  0.50857  1.0000
  C   C689      1.0  0.00612  0.58005  0.54046  1.0000
  H   H1230     1.0  0.20598  0.91747  0.45891  1.0000
  H   H1231     1.0  0.05330  0.85021  0.54926  1.0000
  C   C690      1.0  0.14018  0.66684  0.41419  1.0000
  C   C691      1.0  0.12838  0.97361  0.33798  1.0000
  C   C692      1.0  0.09466  0.94854  0.60174  1.0000
  H   H1232     1.0  0.07944  0.94736  0.59988  1.0000
  C   C693      1.0  0.20640  0.95283  0.43669  1.0000
  H   H1233     1.0  0.02286  0.80811  0.48871  1.0000
  H   H1234     1.0  0.19363  0.51769  0.51043  1.0000
  H   H1235     1.0  0.09832  0.55979  0.43108  1.0000
  S   S154      1.0  0.01462  0.59879  0.48074  1.0000
  C   C694      1.0  0.13083  0.73259  0.46087  1.0000
  H   H1236     1.0  0.18232  0.81366  0.56373  1.0000
  C   C695      1.0  0.16786  0.95049  0.53336  1.0000
  H   H1237     1.0  0.19631  0.83310  0.55111  1.0000
  C   C696      1.0  0.14337  0.51213  0.33809  1.0000
  H   H1238     1.0  0.21576  0.83967  0.57928  1.0000
  H   H1239     1.0  0.21539  0.85886  0.64089  1.0000
  C   C697      1.0  0.13617  0.71564  0.44805  1.0000
  H   H1240     1.0  0.07464  0.68061  0.36356  1.0000
  H   H1241     1.0  0.15278  0.67362  0.40454  1.0000
  H   H1242     1.0  0.23165  0.97096  0.52781  1.0000
  C   C698      1.0  0.13422  0.49376  0.42674  1.0000
  C   C699      1.0  0.17077  0.69273  0.46817  1.0000
  C   C700      1.0  0.22909  0.55410  0.55858  1.0000
  H   H1243     1.0  0.00386  0.76674  0.63661  1.0000
  H   H1244     1.0  0.16436  0.52628  0.53556  1.0000
  C   C701      1.0  0.12956  0.67960  0.43011  1.0000
  H   H1245     1.0  0.09962  0.53627  0.44847  1.0000
  H   H1246     1.0  0.23648  0.51491  0.42140  1.0000
  H   H1247     1.0  0.21030  0.95321  0.46648  1.0000
  H   H1248     1.0  0.00422  0.75073  0.49531  1.0000
  S   S155      1.0  0.11561  0.95693  0.33119  1.0000
  C   C702      1.0  0.19614  0.51702  0.52590  1.0000
  H   H1249     1.0  0.16892  0.98083  0.56061  1.0000
  H   H1250     1.0  0.11645  0.67279  0.43833  1.0000
  H   H1251     1.0  0.12950  0.66576  0.40461  1.0000
  C   C703      1.0  0.05925  0.98154  0.33548  1.0000
  H   H1252     1.0  0.99271  0.87614  0.32180  1.0000
  C   C704      1.0  0.06983  0.85200  0.62780  1.0000
  C   C705      1.0  0.05768  0.89510  0.33155  1.0000
  H   H1253     1.0  0.08733  0.85558  0.58807  1.0000
  H   H1254     1.0  0.15102  0.71682  0.43854  1.0000
  H   H1255     1.0  0.99102  0.62314  0.56095  1.0000
  C   C706      1.0  0.19437  0.92804  0.46701  1.0000
  C   C707      1.0  0.17740  0.93200  0.52380  1.0000
  Fe  Fe81      1.0  0.22470  0.58976  0.47622  1.0000
  C   C708      1.0  0.13238  0.75295  0.44761  1.0000
  H   H1256     1.0  0.14099  0.73033  0.47191  1.0000
  H   H1257     1.0  0.12210  0.75611  0.43652  1.0000
  C   C709      1.0  0.21574  0.88910  0.64467  1.0000
  C   C710      1.0  0.08466  0.56194  0.46139  1.0000
  H   H1258     1.0  0.12660  0.48893  0.44222  1.0000
  H   H1259     1.0  0.04915  0.82149  0.63640  1.0000
  C   C711      1.0  0.99890  0.70775  0.49698  1.0000
  C   C712      1.0  0.99705  0.54647  0.54014  1.0000
  S   S156      1.0  0.21403  0.62219  0.46458  1.0000
  H   H1260     1.0  0.20929  0.58612  0.37494  1.0000
  C   C713      1.0  0.14876  0.68963  0.47541  1.0000
  H   H1261     1.0  0.14214  0.69821  0.48785  1.0000
  H   H1262     1.0  0.14938  0.67360  0.48252  1.0000
  H   H1263     1.0  0.12419  0.69477  0.42227  1.0000
  C   C714      1.0  0.99285  0.61589  0.48673  1.0000
  H   H1264     1.0  0.18512  0.96065  0.46233  1.0000
  H   H1265     1.0  0.12808  0.76489  0.45703  1.0000
  H   H1266     1.0  0.99442  0.73066  0.59323  1.0000
  H   H1267     1.0  0.17170  0.70862  0.46183  1.0000
  H   H1268     1.0  0.23136  0.82374  0.53829  1.0000
  H   H1269     1.0  0.05092  0.98365  0.32286  1.0000
  C   C715      1.0  0.23492  0.54976  0.33085  1.0000
  Fe  Fe82      1.0  0.05948  0.52093  0.64753  1.0000
  H   H1270     1.0  0.23337  0.92803  0.47551  1.0000
  H   H1271     1.0  0.23089  0.88908  0.63557  1.0000
  H   H1272     1.0  0.99156  0.50206  0.62425  1.0000
  C   C716      1.0  0.14741  0.49801  0.64102  1.0000
  H   H1273     1.0  0.22739  0.84818  0.54420  1.0000
  H   H1274     1.0  0.00972  0.85268  0.32329  1.0000
  S   S157      1.0  0.09097  0.52747  0.63829  1.0000
  H   H1275     1.0  0.99916  0.65417  0.53773  1.0000
  H   H1276     1.0  0.99465  0.86803  0.55308  1.0000
  C   C717      1.0  0.21113  0.95485  0.62924  1.0000
  C   C718      1.0  0.23217  0.55692  0.44194  1.0000
  H   H1277     1.0  0.13512  0.97268  0.56910  1.0000
  H   H1278     1.0  0.00549  0.58280  0.52417  1.0000
  H   H1279     1.0  0.04339  0.85079  0.33145  1.0000
  H   H1280     1.0  0.08654  0.97833  0.60835  1.0000
  H   H1281     1.0  0.00117  0.76919  0.39555  1.0000
  C   C719      1.0  0.20748  0.93332  0.63825  1.0000
  C   C720      1.0  0.05092  0.87945  0.64479  1.0000
  H   H1282     1.0  0.21161  0.49068  0.50029  1.0000
  C   C721      1.0  0.23582  0.50871  0.49593  1.0000
  C   C722      1.0  0.23572  0.89721  0.56300  1.0000
  H   H1283     1.0  0.22676  0.95452  0.62132  1.0000
  H   H1284     1.0  0.20798  0.96453  0.64086  1.0000
  H   H1285     1.0  0.23052  0.88262  0.54028  1.0000
  Fe  Fe83      1.0  0.02892  0.49706  0.64360  1.0000
  H   H1286     1.0  0.99069  0.58463  0.54826  1.0000
  H   H1287     1.0  0.23639  0.56409  0.54650  1.0000
  H   H1288     1.0  0.19109  0.93375  0.64304  1.0000
  C   C723      1.0  0.22135  0.59532  0.37018  1.0000
  C   C724      1.0  0.99238  0.62379  0.54456  1.0000
  H   H1289     1.0  0.22720  0.59663  0.38362  1.0000
  H   H1290     1.0  0.21488  0.61052  0.36318  1.0000
  H   H1291     1.0  0.23672  0.84943  0.59712  1.0000
  Fe  Fe84      1.0  0.01643  0.54111  0.64609  1.0000
  C   C725      1.0  0.98818  0.64583  0.53497  1.0000
  H   H1292     1.0  0.23682  0.55715  0.37479  1.0000
  H   H1293     1.0  0.20043  0.49366  0.97198  1.0000
  H   H1294     1.0  0.10830  0.50364  0.73629  1.0000
  H   H1295     1.0  0.01620  0.60697  0.89124  1.0000
  Fe  Fe85      1.0  0.01468  0.68767  0.85951  1.0000
  S   S158      1.0  0.04065  0.70165  0.86109  1.0000
  S   S159      1.0  0.01830  0.66603  0.83812  1.0000
  H   H1296     1.0  0.02848  0.88025  0.67250  1.0000
  S   S160      1.0  0.00953  0.72930  0.89146  1.0000
  H   H1297     1.0  0.15844  0.49044  0.70614  1.0000
  Fe  Fe86      1.0  0.01923  0.73079  0.85804  1.0000
  S   S161      1.0  0.02889  0.75847  0.83746  1.0000
  Fe  Fe87      1.0  0.02875  0.69888  0.89410  1.0000
  S   S162      1.0  0.04766  0.68368  0.91785  1.0000
  C   C726      1.0  0.11904  0.50499  0.69924  1.0000
  S   S163      1.0  0.00426  0.68255  0.89265  1.0000
  H   H1298     1.0  0.15237  0.48602  0.92051  1.0000
  S   S164      1.0  0.04763  0.86741  0.71443  1.0000
  H   H1299     1.0  0.11637  0.63146  0.94726  1.0000
  Fe  Fe88      1.0  0.15256  0.94488  0.74161  1.0000
  S   S165      1.0  0.15502  0.96289  0.71045  1.0000
  S   S166      1.0  0.17482  0.93801  0.76372  1.0000
  Fe  Fe89      1.0  0.11152  0.93522  0.73886  1.0000
  S   S167      1.0  0.11089  0.95298  0.70803  1.0000
  S   S168      1.0  0.08514  0.92083  0.75594  1.0000
  Fe  Fe90      1.0  0.14294  0.93857  0.70161  1.0000
  S   S169      1.0  0.15646  0.92648  0.67268  1.0000
  C   C727      1.0  0.12184  0.94363  0.80444  1.0000
  S   S170      1.0  0.14309  0.91928  0.73201  1.0000
  S   S171      1.0  0.12076  0.95900  0.75113  1.0000
  C   C728      1.0  0.06907  0.84908  0.66388  1.0000
  H   H1300     1.0  0.13713  0.95697  0.82070  1.0000
  Fe  Fe91      1.0  0.02676  0.51116  0.68296  1.0000
  S   S172      1.0  0.01870  0.50008  0.71619  1.0000
  Fe  Fe92      1.0  0.02620  0.55141  0.85072  1.0000
  S   S173      1.0  0.05105  0.54160  0.82641  1.0000
  S   S174      1.0  0.02580  0.57308  0.87141  1.0000
  C   C729      1.0  0.21765  0.92212  0.69291  1.0000
  S   S175      1.0  0.02389  0.50880  0.82268  1.0000
  H   H1301     1.0  0.07331  0.49962  0.74613  1.0000
  Fe  Fe93      1.0  0.04661  0.51037  0.84098  1.0000
  H   H1302     1.0  0.01788  0.64697  0.94767  1.0000
  Fe  Fe94      1.0  0.02641  0.54081  0.80988  1.0000
  S   S176      1.0  0.02824  0.55383  0.77681  1.0000
  S   S177      1.0  0.02383  0.52007  0.86663  1.0000
  H   H1303     1.0  0.09648  0.53378  0.67897  1.0000
  H   H1304     1.0  0.12188  0.89347  0.76954  1.0000
  C   C730      1.0  0.00724  0.75413  0.72984  1.0000
  C   C731      1.0  0.02063  0.51564  0.73275  1.0000
  C   C732      1.0  0.02377  0.53537  0.72598  1.0000
  C   C733      1.0  0.02579  0.54710  0.73965  1.0000
  C   C734      1.0  0.02460  0.53917  0.76015  1.0000
  C   C735      1.0  0.02101  0.51958  0.76689  1.0000
  C   C736      1.0  0.01902  0.50791  0.75324  1.0000
  H   H1305     1.0  0.02453  0.54167  0.71028  1.0000
  H   H1306     1.0  0.02840  0.56231  0.73432  1.0000
  H   H1307     1.0  0.01980  0.51342  0.78260  1.0000
  H   H1308     1.0  0.21727  0.94900  0.80850  1.0000
  C   C737      1.0  0.18967  0.95250  0.77145  1.0000
  H   H1309     1.0  0.06345  0.50373  0.87844  1.0000
  H   H1310     1.0  0.14832  0.85373  0.72285  1.0000
  H   H1311     1.0  0.01427  0.81901  0.67165  1.0000
  C   C738      1.0  0.21044  0.95544  0.79537  1.0000
  C   C739      1.0  0.19890  0.94445  0.78840  1.0000
  H   H1312     1.0  0.10249  0.83359  0.68236  1.0000
  H   H1313     1.0  0.10558  0.65382  0.93213  1.0000
  H   H1314     1.0  0.19705  0.92959  0.79630  1.0000
  H   H1315     1.0  0.06142  0.56424  0.89401  1.0000
  H   H1316     1.0  0.14003  0.86968  0.68995  1.0000
  H   H1317     1.0  0.11481  0.92048  0.67968  1.0000
  C   C740      1.0  0.05539  0.88513  0.72494  1.0000
  C   C741      1.0  0.07153  0.89436  0.71426  1.0000
  C   C742      1.0  0.08001  0.90636  0.72323  1.0000
  C   C743      1.0  0.07276  0.90873  0.74317  1.0000
  C   C744      1.0  0.05615  0.90012  0.75361  1.0000
  C   C745      1.0  0.04734  0.88850  0.74447  1.0000
  H   H1318     1.0  0.07781  0.89183  0.69913  1.0000
  H   H1319     1.0  0.09274  0.91300  0.71504  1.0000
  H   H1320     1.0  0.05042  0.90196  0.76902  1.0000
  H   H1321     1.0  0.03499  0.88135  0.75285  1.0000
  C   C746      1.0  0.01719  0.76960  0.81651  1.0000
  H   H1322     1.0  0.07173  0.56346  0.66992  1.0000
  H   H1323     1.0  0.10471  0.54457  0.69649  1.0000
  C   C747      1.0  0.07315  0.54755  0.70043  1.0000
  C   C748      1.0  0.01389  0.79583  0.78722  1.0000
  C   C749      1.0  0.02332  0.78662  0.80381  1.0000
  C   C750      1.0  0.17475  0.82967  0.96139  1.0000
  H   H1324     1.0  0.01868  0.80893  0.77748  1.0000
  H   H1325     1.0  0.03536  0.79273  0.80683  1.0000
  C   C751      1.0  0.01902  0.64033  0.84759  1.0000
  C   C752      1.0  0.02289  0.62673  0.83416  1.0000
  C   C753      1.0  0.02456  0.60604  0.84127  1.0000
  C   C754      1.0  0.02244  0.59889  0.86188  1.0000
  C   C755      1.0  0.01816  0.61250  0.87531  1.0000
  C   C756      1.0  0.01642  0.63318  0.86821  1.0000
  H   H1326     1.0  0.02487  0.63217  0.81819  1.0000
  H   H1327     1.0  0.02782  0.59562  0.83083  1.0000
  H   H1328     1.0  0.07637  0.49453  0.91058  1.0000
  H   H1329     1.0  0.01325  0.64353  0.87866  1.0000
  H   H1330     1.0  0.11496  0.82930  0.74842  1.0000
  C   C757      1.0  0.06077  0.69689  0.92865  1.0000
  C   C758      1.0  0.06057  0.71745  0.92263  1.0000
  C   C759      1.0  0.07111  0.72746  0.93175  1.0000
  C   C760      1.0  0.08184  0.71703  0.94696  1.0000
  C   C761      1.0  0.08195  0.69648  0.95302  1.0000
  C   C762      1.0  0.07141  0.68647  0.94394  1.0000
  H   H1331     1.0  0.05238  0.72562  0.91090  1.0000
  H   H1332     1.0  0.07102  0.74335  0.92694  1.0000
  H   H1333     1.0  0.21284  0.52388  0.97346  1.0000
  H   H1334     1.0  0.07149  0.67060  0.94878  1.0000
  H   H1335     1.0  0.14040  0.81199  0.76728  1.0000
  Fe  Fe95      1.0  0.01654  0.85966  0.72317  1.0000
  H   H1336     1.0  0.21901  0.49179  0.90183  1.0000
  H   H1337     1.0  0.14933  0.82488  0.74291  1.0000
  H   H1338     1.0  0.11967  0.50265  0.68367  1.0000
  N   N40       1.0  0.06951  0.62653  0.90763  1.0000
  C   C763      1.0  0.06310  0.63796  0.88828  1.0000
  C   C764      1.0  0.05276  0.62933  0.92529  1.0000
  C   C765      1.0  0.08674  0.63521  0.91074  1.0000
  C   C766      1.0  0.07664  0.60455  0.90675  1.0000
  C   C767      1.0  0.06254  0.59359  0.89984  1.0000
  C   C768      1.0  0.07931  0.63744  0.86917  1.0000
  C   C769      1.0  0.09461  0.62676  0.93082  1.0000
  C   C770      1.0  0.03099  0.63304  0.92132  1.0000
  H   H1339     1.0  0.02657  0.65577  0.76682  1.0000
  C   C771      1.0  0.07017  0.64538  0.85017  1.0000
  C   C772      1.0  0.11116  0.63753  0.93269  1.0000
  H   H1340     1.0  0.05768  0.65403  0.88960  1.0000
  H   H1341     1.0  0.05015  0.63263  0.88530  1.0000
  H   H1342     1.0  0.05435  0.61642  0.93775  1.0000
  H   H1343     1.0  0.05362  0.64253  0.93179  1.0000
  H   H1344     1.0  0.08248  0.65178  0.90974  1.0000
  H   H1345     1.0  0.09981  0.63272  0.89866  1.0000
  H   H1346     1.0  0.09142  0.60221  0.89688  1.0000
  H   H1347     1.0  0.07935  0.59619  0.92176  1.0000
  H   H1348     1.0  0.05929  0.60059  0.88468  1.0000
  H   H1349     1.0  0.04840  0.59343  0.91064  1.0000
  H   H1350     1.0  0.09030  0.64705  0.86926  1.0000
  H   H1351     1.0  0.08734  0.62206  0.86805  1.0000
  H   H1352     1.0  0.10093  0.61061  0.93169  1.0000
  H   H1353     1.0  0.08263  0.62864  0.94397  1.0000
  H   H1354     1.0  0.02797  0.64744  0.91110  1.0000
  H   H1355     1.0  0.02810  0.62107  0.91445  1.0000
  H   H1356     1.0  0.00960  0.50246  0.90931  1.0000
  C   C773      1.0  0.08302  0.97274  0.66235  1.0000
  H   H1357     1.0  0.08332  0.50332  0.68860  1.0000
  H   H1358     1.0  0.06120  0.66054  0.85071  1.0000
  H   H1359     1.0  0.08218  0.64626  0.83685  1.0000
  H   H1360     1.0  0.06047  0.63514  0.84838  1.0000
  H   H1361     1.0  0.09367  0.48588  0.65767  1.0000
  S   S178      1.0  0.03725  0.53981  0.66752  1.0000
  C   C774      1.0  0.00613  0.73009  0.76298  1.0000
  C   C775      1.0  0.20210  0.49837  0.93910  1.0000
  H   H1362     1.0  0.06337  0.51765  0.77432  1.0000
  H   H1363     1.0  0.17281  0.81412  0.96143  1.0000
  H   H1364     1.0  0.21747  0.48973  0.93704  1.0000
  H   H1365     1.0  0.05955  0.85089  0.67863  1.0000
  H   H1366     1.0  0.01376  0.69220  0.76151  1.0000
  S   S179      1.0  0.00415  0.51384  0.66319  1.0000
  H   H1367     1.0  0.19451  0.93686  0.67574  1.0000
  H   H1368     1.0  0.02282  0.67318  0.79559  1.0000
  H   H1369     1.0  0.07973  0.53534  0.76276  1.0000
  C   C776      1.0  0.00158  0.76192  0.81254  1.0000
  C   C777      1.0  0.12214  0.91618  0.66546  1.0000
  C   C778      1.0  0.13204  0.87615  0.70343  1.0000
  H   H1370     1.0  0.12406  0.63531  0.92042  1.0000
  C   C779      1.0  0.17045  0.81732  0.76311  1.0000
  C   C780      1.0  0.01962  0.73857  0.74355  1.0000
  H   H1371     1.0  0.13549  0.93650  0.79526  1.0000
  H   H1372     1.0  0.06033  0.83715  0.74911  1.0000
  C   C781      1.0  0.18545  0.71220  0.95500  1.0000
  H   H1373     1.0  0.17675  0.80269  0.75817  1.0000
  H   H1374     1.0  0.01717  0.76008  0.71615  1.0000
  H   H1375     1.0  0.99650  0.48786  0.89926  1.0000
  C   C782      1.0  0.07195  0.57178  0.89876  1.0000
  H   H1376     1.0  0.19861  0.94321  0.71122  1.0000
  H   H1377     1.0  0.99170  0.96636  0.73508  1.0000
  H   H1378     1.0  0.21588  0.94825  0.66952  1.0000
  H   H1379     1.0  0.05216  0.88601  0.67421  1.0000
  H   H1380     1.0  0.18340  0.49263  0.90589  1.0000
  C   C783      1.0  0.13941  0.84401  0.76657  1.0000
  H   H1381     1.0  0.12467  0.84825  0.72002  1.0000
  H   H1382     1.0  0.09036  0.68827  0.96453  1.0000
  H   H1383     1.0  0.06245  0.75832  0.97695  1.0000
  H   H1384     1.0  0.03346  0.70766  0.96183  1.0000
  C   C784      1.0  0.14902  0.82395  0.75912  1.0000
  C   C785      1.0  0.20388  0.98272  0.76841  1.0000
  H   H1385     1.0  0.07136  0.55189  0.71537  1.0000
  H   H1386     1.0  0.14495  0.96971  0.78255  1.0000
  H   H1387     1.0  0.11143  0.96869  0.81953  1.0000
  H   H1388     1.0  0.11643  0.88234  0.70123  1.0000
  H   H1389     1.0  0.17995  0.82843  0.75465  1.0000
  C   C786      1.0  0.02202  0.81695  0.65630  1.0000
  H   H1390     1.0  0.08995  0.50937  0.77102  1.0000
  H   H1391     1.0  0.16850  0.83961  0.94859  1.0000
  C   C787      1.0  0.19243  0.97168  0.76138  1.0000
  H   H1392     1.0  0.07336  0.96151  0.66999  1.0000
  H   H1393     1.0  0.23357  0.91496  0.69063  1.0000
  N   N41       1.0  0.18708  0.48613  0.93718  1.0000
  N   N42       1.0  0.21829  0.92241  0.65524  1.0000
  N   N43       1.0  0.09821  0.51455  0.70761  1.0000
  C   C788      1.0  0.07458  0.49051  0.88090  1.0000
  C   C789      1.0  0.11158  0.90858  0.65408  1.0000
  C   C790      1.0  0.01793  0.71565  0.96470  1.0000
  C   C791      1.0  0.09743  0.51592  0.72937  1.0000
  C   C792      1.0  0.07710  0.51484  0.74362  1.0000
  H   H1394     1.0  0.01449  0.77279  0.87554  1.0000
  H   H1395     1.0  0.00591  0.69087  0.95911  1.0000
  H   H1396     1.0  0.08463  0.87474  0.66087  1.0000
  C   C793      1.0  0.07769  0.51958  0.76414  1.0000
  C   C794      1.0  0.15661  0.50377  0.69421  1.0000
  Fe  Fe96      1.0  0.98989  0.82882  0.74358  1.0000
  H   H1397     1.0  0.06824  0.50778  0.71143  1.0000
  H   H1398     1.0  0.16205  0.50169  0.95576  1.0000
  C   C795      1.0  0.08811  0.85825  0.66220  1.0000
  H   H1399     1.0  0.00844  0.70002  0.80860  1.0000
  C   C796      1.0  0.99500  0.92761  0.74968  1.0000
  C   C797      1.0  0.00457  0.78569  0.88157  1.0000
  Fe  Fe97      1.0  0.00149  0.52116  0.84716  1.0000
  H   H1400     1.0  0.06476  0.52539  0.73746  1.0000
  H   H1401     1.0  0.04561  0.98077  0.70907  1.0000
  H   H1402     1.0  0.17472  0.70195  0.95607  1.0000
  H   H1403     1.0  0.03047  0.84945  0.66749  1.0000
  C   C798      1.0  0.00509  0.70724  0.95395  1.0000
  H   H1404     1.0  0.22394  0.94795  0.70271  1.0000
  H   H1405     1.0  0.03835  0.97364  0.74571  1.0000
  H   H1406     1.0  0.10235  0.52997  0.73043  1.0000
  S   S180      1.0  0.01068  0.83227  0.71398  1.0000
  H   H1407     1.0  0.00054  0.63767  0.93725  1.0000
  H   H1408     1.0  0.13202  0.51928  0.92427  1.0000
  C   C799      1.0  0.10855  0.48934  0.65297  1.0000
  H   H1409     1.0  0.21381  0.53216  0.94688  1.0000
  H   H1410     1.0  0.15862  0.49872  0.67956  1.0000
  H   H1411     1.0  0.05123  0.66228  0.75768  1.0000
  C   C800      1.0  0.10717  0.83912  0.75945  1.0000
  C   C801      1.0  0.10824  0.86617  0.77679  1.0000
  C   C802      1.0  0.08626  0.84757  0.75366  1.0000
  C   C803      1.0  0.11942  0.88111  0.78228  1.0000
  C   C804      1.0  0.07551  0.83071  0.75256  1.0000
  C   C805      1.0  0.10728  0.89054  0.80011  1.0000
  H   H1412     1.0  0.10503  0.82893  0.77416  1.0000
  H   H1413     1.0  0.13793  0.84022  0.78323  1.0000
  H   H1414     1.0  0.10365  0.85578  0.79082  1.0000
  H   H1415     1.0  0.09419  0.87535  0.77237  1.0000
  H   H1416     1.0  0.07659  0.85628  0.76487  1.0000
  H   H1417     1.0  0.08760  0.85723  0.73873  1.0000
  H   H1418     1.0  0.13412  0.87377  0.78641  1.0000
  H   H1419     1.0  0.07391  0.82033  0.76711  1.0000
  C   C806      1.0  0.13242  0.85999  0.72212  1.0000
  H   H1420     1.0  0.08375  0.82225  0.74049  1.0000
  H   H1421     1.0  0.10510  0.87893  0.81366  1.0000
  H   H1422     1.0  0.11534  0.90150  0.80336  1.0000
  H   H1423     1.0  0.09247  0.89857  0.79669  1.0000
  H   H1424     1.0  0.19819  0.86680  0.66226  1.0000
  H   H1425     1.0  0.12575  0.51101  0.95104  1.0000
  H   H1426     1.0  0.07420  0.83270  0.66479  1.0000
  H   H1427     1.0  0.01623  0.49286  0.75852  1.0000
  C   C807      1.0  0.14224  0.91786  0.65853  1.0000
  H   H1428     1.0  0.16735  0.97819  0.80064  1.0000
  C   C808      1.0  0.09825  0.85013  0.68056  1.0000
  H   H1429     1.0  0.99105  0.91238  0.75311  1.0000
  H   H1430     1.0  0.18449  0.51597  0.96220  1.0000
  H   H1431     1.0  0.22475  0.86031  0.66297  1.0000
  H   H1432     1.0  0.13499  0.52185  0.71305  1.0000
  H   H1433     1.0  0.21244  0.71267  0.96507  1.0000
  H   H1434     1.0  0.16705  0.51400  0.93045  1.0000
  H   H1435     1.0  0.00067  0.80265  0.85266  1.0000
  H   H1436     1.0  0.17086  0.81558  0.77938  1.0000
  N   N44       1.0  0.11953  0.85436  0.76059  1.0000
  C   C809      1.0  0.00637  0.48720  0.91028  1.0000
  C   C810      1.0  0.01594  0.63453  0.94068  1.0000
  C   C811      1.0  0.07027  0.56687  0.68526  1.0000
  H   H1437     1.0  0.01065  0.70982  0.93756  1.0000
  C   C812      1.0  0.20137  0.70246  0.96797  1.0000
  H   H1438     1.0  0.00575  0.92805  0.75945  1.0000
  S   S181      1.0  0.99407  0.71696  0.85413  1.0000
  H   H1439     1.0  0.20208  0.51162  0.92685  1.0000
  C   C813      1.0  0.13609  0.51670  0.69861  1.0000
  Fe  Fe98      1.0  0.12264  0.97554  0.71961  1.0000
  H   H1440     1.0  0.08594  0.57091  0.88758  1.0000
  C   C814      1.0  0.00148  0.71052  0.79660  1.0000
  H   H1441     1.0  0.13949  0.88852  0.70465  1.0000
  C   C815      1.0  0.99093  0.79713  0.86673  1.0000
  H   H1442     1.0  0.01781  0.73164  0.95788  1.0000
  H   H1443     1.0  0.09612  0.90716  0.65967  1.0000
  C   C816      1.0  0.09407  0.53508  0.69517  1.0000
  H   H1444     1.0  0.00232  0.93022  0.73373  1.0000
  C   C817      1.0  0.13002  0.50609  0.93619  1.0000
  H   H1445     1.0  0.11967  0.98206  0.78411  1.0000
  H   H1446     1.0  0.13550  0.52992  0.68644  1.0000
  H   H1447     1.0  0.15053  0.85436  0.76179  1.0000
  H   H1448     1.0  0.22050  0.89287  0.67343  1.0000
  C   C818      1.0  0.21505  0.51876  0.95880  1.0000
  S   S182      1.0  0.09503  0.73013  0.95790  1.0000
  S   S183      1.0  0.99806  0.85444  0.75379  1.0000
  N   N45       1.0  0.01669  0.71468  0.77795  1.0000
  H   H1449     1.0  0.10813  0.87847  0.73853  1.0000
  C   C819      1.0  0.03311  0.72358  0.78264  1.0000
  S   S184      1.0  0.21748  0.79183  0.97370  1.0000
  C   C820      1.0  0.02521  0.69627  0.76843  1.0000
  C   C821      1.0  0.03387  0.67731  0.78216  1.0000
  C   C822      1.0  0.14915  0.49056  0.93548  1.0000
  H   H1450     1.0  0.18573  0.97803  0.74817  1.0000
  C   C823      1.0  0.03934  0.71624  0.80363  1.0000
  C   C824      1.0  0.05831  0.72377  0.80459  1.0000
  C   C825      1.0  0.03982  0.65932  0.77123  1.0000
  C   C826      1.0  0.03299  0.91024  0.65974  1.0000
  H   H1451     1.0  0.99776  0.74307  0.77012  1.0000
  H   H1452     1.0  0.20890  0.68826  0.96276  1.0000
  H   H1453     1.0  0.04676  0.72150  0.77108  1.0000
  H   H1454     1.0  0.02859  0.74011  0.78180  1.0000
  H   H1455     1.0  0.99651  0.74912  0.82238  1.0000
  H   H1456     1.0  0.06229  0.98136  0.73730  1.0000
  C   C827      1.0  0.99831  0.78798  0.78327  1.0000
  H   H1457     1.0  0.03753  0.69940  0.75579  1.0000
  H   H1458     1.0  0.03095  0.74602  0.74699  1.0000
  H   H1459     1.0  0.04753  0.67957  0.78673  1.0000
  S   S185      1.0  0.05071  0.49206  0.66473  1.0000
  H   H1460     1.0  0.11766  0.49938  0.93369  1.0000
  S   S186      1.0  0.21409  0.48646  0.65401  1.0000
  H   H1461     1.0  0.19261  0.71552  0.93907  1.0000
  H   H1462     1.0  0.02738  0.72219  0.81529  1.0000
  H   H1463     1.0  0.04202  0.69978  0.80776  1.0000
  H   H1464     1.0  0.05613  0.74038  0.80099  1.0000
  H   H1465     1.0  0.06194  0.71917  0.81996  1.0000
  H   H1466     1.0  0.07110  0.71737  0.79395  1.0000
  C   C828      1.0  0.21298  0.97473  0.78547  1.0000
  H   H1467     1.0  0.01410  0.79570  0.88414  1.0000
  H   H1468     1.0  0.04623  0.64603  0.78137  1.0000
  H   H1469     1.0  0.07520  0.56366  0.91364  1.0000
  H   H1470     1.0  0.17722  0.72646  0.95975  1.0000
  C   C829      1.0  0.12254  0.86893  0.74125  1.0000
  H   H1471     1.0  0.99479  0.72383  0.75798  1.0000
  C   C830      1.0  0.21115  0.93341  0.67284  1.0000
  C   C831      1.0  0.19917  0.50621  0.95922  1.0000
  H   H1472     1.0  0.13207  0.87956  0.74243  1.0000
  H   H1473     1.0  0.01777  0.62027  0.95144  1.0000
  H   H1474     1.0  0.16849  0.51260  0.69351  1.0000
  C   C832      1.0  0.04105  0.88788  0.66426  1.0000
  C   C833      1.0  0.21225  0.90194  0.66150  1.0000
  H   H1475     1.0  0.11761  0.93257  0.81793  1.0000
  H   H1476     1.0  0.99086  0.96411  0.76115  1.0000
  C   C834      1.0  0.12568  0.96218  0.81087  1.0000
  S   S187      1.0  0.00187  0.55328  0.83307  1.0000
  H   H1477     1.0  0.19095  0.83025  0.95914  1.0000
  C   C835      1.0  0.08380  0.50204  0.70485  1.0000
  H   H1478     1.0  0.08822  0.85423  0.69433  1.0000
  H   H1479     1.0  0.21870  0.92746  0.72258  1.0000
  H   H1480     1.0  0.06116  0.53929  0.70025  1.0000
  C   C836      1.0  0.16663  0.49900  0.94001  1.0000
  H   H1481     1.0  0.20850  0.91021  0.69959  1.0000
  H   H1482     1.0  0.18802  0.77422  0.96275  1.0000
  S   S188      1.0  0.99200  0.88010  0.70898  1.0000
  C   C837      1.0  0.18734  0.76986  0.97879  1.0000
  H   H1483     1.0  0.12314  0.48986  0.70802  1.0000
  H   H1484     1.0  0.10942  0.94760  0.79567  1.0000
  H   H1485     1.0  0.04520  0.91858  0.65179  1.0000
  H   H1486     1.0  0.05510  0.57547  0.68928  1.0000
  H   H1487     1.0  0.11197  0.85671  0.67861  1.0000
  H   H1488     1.0  0.99565  0.78018  0.89618  1.0000
  H   H1489     1.0  0.08145  0.57630  0.68526  1.0000
  C   C838      1.0  0.13242  0.97767  0.79246  1.0000
  H   H1490     1.0  0.19612  0.90330  0.66826  1.0000
  H   H1491     1.0  0.23024  0.50979  0.95608  1.0000
  H   H1492     1.0  0.04055  0.73502  0.97611  1.0000
  H   H1493     1.0  0.09882  0.96552  0.66268  1.0000
  H   H1494     1.0  0.02743  0.72653  0.73494  1.0000
  H   H1495     1.0  0.13394  0.48742  0.98140  1.0000
  H   H1496     1.0  0.02650  0.91585  0.67404  1.0000
  H   H1497     1.0  0.05114  0.81611  0.66259  1.0000
  C   C839      1.0  0.21453  0.93611  0.70821  1.0000
  H   H1498     1.0  0.99602  0.74737  0.72526  1.0000
  H   H1499     1.0  0.98927  0.71475  0.95668  1.0000
  H   H1500     1.0  0.02109  0.91304  0.65042  1.0000
  C   C840      1.0  0.03849  0.84754  0.65214  1.0000
  H   H1501     1.0  0.02478  0.80074  0.65553  1.0000
  C   C841      1.0  0.99219  0.77105  0.79604  1.0000
  C   C842      1.0  0.04181  0.82478  0.65146  1.0000
  C   C843      1.0  0.21336  0.86743  0.65333  1.0000
  H   H1502     1.0  0.99943  0.76685  0.73757  1.0000
  H   H1503     1.0  0.99545  0.72451  0.80293  1.0000
  C   C844      1.0  0.08197  0.48532  0.89906  1.0000
  H   H1504     1.0  0.16650  0.85219  0.97999  1.0000
  H   H1505     1.0  0.09918  0.85442  0.64894  1.0000
  C   C845      1.0  0.16406  0.83664  0.98102  1.0000
  H   H1506     1.0  0.15122  0.98121  0.82329  1.0000
  H   H1507     1.0  0.98840  0.68795  0.78742  1.0000
  S   S189      1.0  0.38015  0.44080  0.24733  1.0000
  C   C846      1.0  0.43948  0.28732  0.00650  1.0000
  H   H1508     1.0  0.46435  0.10060  0.14553  1.0000
  S   S190      1.0  0.47119  0.41498  0.21252  1.0000
  H   H1509     1.0  0.44072  0.28957  0.98995  1.0000
  H   H1510     1.0  0.36429  0.37034  0.28750  1.0000
  H   H1511     1.0  0.36994  0.10038  0.01830  1.0000
  H   H1512     1.0  0.25262  0.03593  0.01297  1.0000
  H   H1513     1.0  0.41011  0.07221  0.01134  1.0000
  S   S191      1.0  0.47254  0.35578  0.21944  1.0000
  H   H1514     1.0  0.34887  0.07575  0.06693  1.0000
  S   S192      1.0  0.47944  0.32389  0.27268  1.0000
  H   H1515     1.0  0.44838  0.14107  0.15998  1.0000
  C   C847      1.0  0.34493  0.46049  0.01763  1.0000
  H   H1516     1.0  0.44715  0.45304  0.21523  1.0000
  Fe  Fe99      1.0  0.42566  0.32507  0.10393  1.0000
  S   S193      1.0  0.40490  0.30814  0.09532  1.0000
  S   S194      1.0  0.42323  0.33041  0.13576  1.0000
  Fe  Fe100     1.0  0.44593  0.33558  0.06115  1.0000
  S   S195      1.0  0.42695  0.31999  0.04894  1.0000
  H   H1517     1.0  0.44054  0.30146  0.01110  1.0000
  Fe  Fe101     1.0  0.40155  0.33399  0.06987  1.0000
  S   S196      1.0  0.37162  0.34857  0.06083  1.0000
  Fe  Fe102     1.0  0.43202  0.29535  0.07489  1.0000
  S   S197      1.0  0.44278  0.26484  0.06552  1.0000
  S   S198      1.0  0.42011  0.35185  0.08001  1.0000
  S   S199      1.0  0.45308  0.31007  0.08569  1.0000
  Fe  Fe103     1.0  0.37932  0.15018  0.03542  1.0000
  S   S200      1.0  0.38565  0.14478  0.06689  1.0000
  S   S201      1.0  0.34887  0.14353  0.03381  1.0000
  Fe  Fe104     1.0  0.42012  0.16200  0.01893  1.0000
  S   S202      1.0  0.42971  0.15678  0.04895  1.0000
  C   C848      1.0  0.29486  0.18118  0.02481  1.0000
  Fe  Fe105     1.0  0.41587  0.12906  0.05469  1.0000
  S   S203      1.0  0.42684  0.09784  0.07034  1.0000
  Fe  Fe106     1.0  0.39882  0.17295  0.05841  1.0000
  S   S204      1.0  0.39164  0.19537  0.07974  1.0000
  S   S205      1.0  0.40889  0.13285  0.02364  1.0000
  S   S206      1.0  0.38991  0.17993  0.02796  1.0000
  C   C849      1.0  0.42760  0.24643  0.06892  1.0000
  C   C850      1.0  0.40995  0.24661  0.08293  1.0000
  C   C851      1.0  0.39891  0.23097  0.08601  1.0000
  C   C852      1.0  0.40523  0.21530  0.07483  1.0000
  C   C853      1.0  0.42250  0.21550  0.06036  1.0000
  C   C854      1.0  0.43378  0.23087  0.05761  1.0000
  H   H1518     1.0  0.40516  0.25847  0.09180  1.0000
  H   H1519     1.0  0.38553  0.23090  0.09721  1.0000
  H   H1520     1.0  0.42729  0.20366  0.05147  1.0000
  H   H1521     1.0  0.44737  0.23069  0.04671  1.0000
  H   H1522     1.0  0.28906  0.44622  0.31198  1.0000
  H   H1523     1.0  0.48373  0.17203  0.06071  1.0000
  H   H1524     1.0  0.45224  0.18134  0.10911  1.0000
  N   N46       1.0  0.42976  0.39441  0.99250  1.0000
  N   N47       1.0  0.25951  0.15985  0.99991  1.0000
  C   C855      1.0  0.47788  0.31359  0.02948  1.0000
  H   H1525     1.0  0.39893  0.42850  0.98824  1.0000
  H   H1526     1.0  0.32442  0.40493  0.10569  1.0000
  C   C856      1.0  0.30653  0.44099  0.11363  1.0000
  H   H1527     1.0  0.27673  0.45780  0.06857  1.0000
  C   C857      1.0  0.46270  0.13633  0.99598  1.0000
  C   C858      1.0  0.35143  0.10742  0.08278  1.0000
  H   H1528     1.0  0.45191  0.13275  0.00924  1.0000
  H   H1529     1.0  0.35968  0.46819  0.15898  1.0000
  C   C859      1.0  0.38615  0.35616  0.00011  1.0000
  C   C860      1.0  0.38734  0.35106  0.02060  1.0000
  C   C861      1.0  0.37052  0.35536  0.03498  1.0000
  C   C862      1.0  0.35246  0.36489  0.02865  1.0000
  C   C863      1.0  0.35147  0.37080  0.00808  1.0000
  C   C864      1.0  0.47606  0.10503  0.08956  1.0000
  H   H1530     1.0  0.40120  0.34352  0.02522  1.0000
  H   H1531     1.0  0.33918  0.36771  0.03964  1.0000
  H   H1532     1.0  0.33757  0.37840  0.00336  1.0000
  C   C865      1.0  0.45497  0.99350  0.28504  1.0000
  H   H1533     1.0  0.34367  0.09619  0.09372  1.0000
  C   C866      1.0  0.34969  0.44614  0.00502  1.0000
  H   H1534     1.0  0.26824  0.42348  0.01572  1.0000
  H   H1535     1.0  0.36905  0.27425  0.08395  1.0000
  H   H1536     1.0  0.28589  0.43121  0.07030  1.0000
  C   C867      1.0  0.46773  0.07299  0.10681  1.0000
  C   C868      1.0  0.45142  0.07629  0.09660  1.0000
  C   C869      1.0  0.44738  0.09399  0.08291  1.0000
  C   C870      1.0  0.45986  0.10826  0.07931  1.0000
  C   C871      1.0  0.25004  0.39992  0.99983  1.0000
  H   H1537     1.0  0.32201  0.06892  0.00570  1.0000
  H   H1538     1.0  0.44186  0.06513  0.09939  1.0000
  H   H1539     1.0  0.45711  0.12168  0.06846  1.0000
  H   H1540     1.0  0.48376  0.25507  0.99953  1.0000
  H   H1541     1.0  0.36647  0.32228  0.01815  1.0000
  C   C872      1.0  0.31895  0.12028  0.00175  1.0000
  C   C873      1.0  0.32483  0.12699  0.01723  1.0000
  C   C874      1.0  0.34228  0.13538  0.01374  1.0000
  C   C875      1.0  0.35383  0.13707  0.99458  1.0000
  H   H1542     1.0  0.31341  0.45918  0.28977  1.0000
  H   H1543     1.0  0.30556  0.11373  0.00468  1.0000
  H   H1544     1.0  0.31586  0.12555  0.03205  1.0000
  H   H1545     1.0  0.36729  0.14355  0.99171  1.0000
  C   C876      1.0  0.36740  0.09724  0.06758  1.0000
  H   H1546     1.0  0.32615  0.05001  0.02721  1.0000
  H   H1547     1.0  0.35333  0.05162  0.04658  1.0000
  C   C877      1.0  0.46305  0.33354  0.13111  1.0000
  C   C878      1.0  0.44510  0.33200  0.14437  1.0000
  C   C879      1.0  0.44433  0.33249  0.16475  1.0000
  C   C880      1.0  0.46137  0.33454  0.17180  1.0000
  H   H1548     1.0  0.40384  0.40146  0.01513  1.0000
  H   H1549     1.0  0.46373  0.33332  0.11539  1.0000
  H   H1550     1.0  0.43053  0.33119  0.17514  1.0000
  H   H1551     1.0  0.46071  0.33461  0.18756  1.0000
  C   C881      1.0  0.44641  0.42156  0.22418  1.0000
  C   C882      1.0  0.43470  0.40711  0.23411  1.0000
  C   C883      1.0  0.41437  0.41303  0.24162  1.0000
  C   C884      1.0  0.40590  0.43339  0.23952  1.0000
  C   C885      1.0  0.41793  0.44776  0.23042  1.0000
  C   C886      1.0  0.43804  0.44185  0.22258  1.0000
  H   H1552     1.0  0.44119  0.39141  0.23566  1.0000
  H   H1553     1.0  0.40519  0.40184  0.24884  1.0000
  H   H1554     1.0  0.41174  0.46346  0.22924  1.0000
  H   H1555     1.0  0.32018  0.40379  0.03921  1.0000
  C   C887      1.0  0.47930  0.33613  0.15849  1.0000
  H   H1556     1.0  0.37487  0.10900  0.05726  1.0000
  C   C888      1.0  0.35926  0.29319  0.05722  1.0000
  H   H1557     1.0  0.36750  0.23372  0.02557  1.0000
  C   C889      1.0  0.33600  0.44455  0.99326  1.0000
  C   C890      1.0  0.26748  0.99043  0.05337  1.0000
  H   H1558     1.0  0.38763  0.02999  0.04805  1.0000
  S   S207      1.0  0.44084  0.17419  0.99189  1.0000
  H   H1559     1.0  0.29522  0.46122  0.26258  1.0000
  H   H1560     1.0  0.38151  0.05558  0.06819  1.0000
  H   H1561     1.0  0.38328  0.34832  0.10989  1.0000
  H   H1562     1.0  0.35749  0.34696  0.12054  1.0000
  H   H1563     1.0  0.40367  0.04297  0.02821  1.0000
  H   H1564     1.0  0.45222  0.27592  0.01099  1.0000
  C   C891      1.0  0.33609  0.41410  0.10491  1.0000
  H   H1565     1.0  0.36592  0.40590  0.05958  1.0000
  H   H1566     1.0  0.35153  0.28185  0.05420  1.0000
  H   H1567     1.0  0.42208  0.36512  0.00335  1.0000
  C   C892      1.0  0.48007  0.33557  0.13815  1.0000
  H   H1568     1.0  0.30044  0.45721  0.11026  1.0000
  S   S208      1.0  0.36233  0.46297  0.03172  1.0000
  H   H1569     1.0  0.23953  0.18382  0.01359  1.0000
  H   H1570     1.0  0.42018  0.26567  0.01244  1.0000
  H   H1571     1.0  0.33238  0.08295  0.03108  1.0000
  H   H1572     1.0  0.31882  0.45689  0.24581  1.0000
  N   N48       1.0  0.35480  0.40704  0.09097  1.0000
  H   H1573     1.0  0.39483  0.45842  0.07610  1.0000
  C   C893      1.0  0.47742  0.99172  0.13823  1.0000
  H   H1574     1.0  0.38659  0.22054  0.03976  1.0000
  H   H1575     1.0  0.26383  0.16340  0.02914  1.0000
  H   H1576     1.0  0.24271  0.39786  0.98769  1.0000
  H   H1577     1.0  0.28357  0.14719  0.01680  1.0000
  C   C894      1.0  0.48010  0.08739  0.10329  1.0000
  H   H1578     1.0  0.34972  0.47003  0.29275  1.0000
  H   H1579     1.0  0.42305  0.01636  0.04951  1.0000
  C   C895      1.0  0.32677  0.43645  0.10027  1.0000
  C   C896      1.0  0.24195  0.42065  0.00544  1.0000
  H   H1580     1.0  0.35934  0.42467  0.28561  1.0000
  C   C897      1.0  0.28561  0.44592  0.06022  1.0000
  H   H1581     1.0  0.33654  0.44588  0.10342  1.0000
  N   N49       1.0  0.43639  0.15619  0.11938  1.0000
  C   C898      1.0  0.42434  0.16778  0.13542  1.0000
  C   C899      1.0  0.45294  0.14090  0.12765  1.0000
  C   C900      1.0  0.44578  0.17103  0.10271  1.0000
  C   C901      1.0  0.42347  0.14635  0.11054  1.0000
  C   C902      1.0  0.41213  0.13074  0.12522  1.0000
  C   C903      1.0  0.40723  0.18456  0.12887  1.0000
  C   C904      1.0  0.46259  0.16209  0.08678  1.0000
  C   C905      1.0  0.40038  0.09626  0.98882  1.0000
  H   H1582     1.0  0.45319  0.99856  0.12132  1.0000
  C   C906      1.0  0.39659  0.12491  0.11573  1.0000
  C   C907      1.0  0.39624  0.19522  0.14630  1.0000
  C   C908      1.0  0.24221  0.01272  0.03631  1.0000
  H   H1583     1.0  0.46612  0.14802  0.12708  1.0000
  H   H1584     1.0  0.41741  0.15784  0.14848  1.0000
  H   H1585     1.0  0.43353  0.33439  0.98642  1.0000
  H   H1586     1.0  0.27581  0.19300  0.00263  1.0000
  H   H1587     1.0  0.44677  0.00898  0.28553  1.0000
  H   H1588     1.0  0.43428  0.18070  0.09425  1.0000
  H   H1589     1.0  0.41255  0.15780  0.10280  1.0000
  H   H1590     1.0  0.43260  0.13833  0.09849  1.0000
  H   H1591     1.0  0.40409  0.13644  0.13903  1.0000
  H   H1592     1.0  0.42283  0.11687  0.12918  1.0000
  H   H1593     1.0  0.41306  0.19611  0.11674  1.0000
  H   H1594     1.0  0.39608  0.17831  0.12363  1.0000
  H   H1595     1.0  0.45700  0.15238  0.07906  1.0000
  C   C909      1.0  0.45608  0.98815  0.26439  1.0000
  H   H1596     1.0  0.45825  0.12909  0.11808  1.0000
  H   H1597     1.0  0.43396  0.12526  0.15373  1.0000
  H   H1598     1.0  0.46173  0.40859  0.00593  1.0000
  H   H1599     1.0  0.40188  0.39091  0.98529  1.0000
  H   H1600     1.0  0.38501  0.13810  0.11207  1.0000
  H   H1601     1.0  0.40378  0.11874  0.10191  1.0000
  H   H1602     1.0  0.38918  0.11323  0.12636  1.0000
  H   H1603     1.0  0.38416  0.20715  0.14111  1.0000
  H   H1604     1.0  0.38939  0.18455  0.15878  1.0000
  H   H1605     1.0  0.40661  0.20228  0.15183  1.0000
  C   C910      1.0  0.39836  0.04066  0.04457  1.0000
  H   H1606     1.0  0.37844  0.38403  0.29746  1.0000
  C   C911      1.0  0.43552  0.37190  0.99645  1.0000
  C   C912      1.0  0.48125  0.33331  0.02391  1.0000
  H   H1607     1.0  0.26402  0.12756  0.00549  1.0000
  H   H1608     1.0  0.29756  0.99624  0.04306  1.0000
  H   H1609     1.0  0.34438  0.05048  0.00435  1.0000
  C   C913      1.0  0.38030  0.29290  0.04416  1.0000
  C   C914      1.0  0.41996  0.28021  0.01699  1.0000
  H   H1610     1.0  0.36385  0.43612  0.00451  1.0000
  C   C915      1.0  0.46459  0.11227  0.15438  1.0000
  S   S209      1.0  0.27792  0.08769  0.99630  1.0000
  C   C916      1.0  0.27684  0.44577  0.04167  1.0000
  H   H1611     1.0  0.32429  0.44096  0.08454  1.0000
  H   H1612     1.0  0.36743  0.30087  0.08316  1.0000
  H   H1613     1.0  0.42505  0.39459  0.06239  1.0000
  H   H1614     1.0  0.36231  0.44746  0.07982  1.0000
  H   H1615     1.0  0.47021  0.99274  0.28817  1.0000
  C   C917      1.0  0.36054  0.06171  0.03365  1.0000
  H   H1616     1.0  0.47268  0.20784  0.99102  1.0000
  H   H1617     1.0  0.26637  0.39821  0.99429  1.0000
  H   H1618     1.0  0.45545  0.33337  0.99705  1.0000
  H   H1619     1.0  0.36783  0.44852  0.29976  1.0000
  H   H1620     1.0  0.48489  0.12213  0.03154  1.0000
  H   H1621     1.0  0.24100  0.13865  0.99808  1.0000
  C   C918      1.0  0.47891  0.12169  0.99032  1.0000
  H   H1622     1.0  0.24656  0.45551  0.05616  1.0000
  C   C919      1.0  0.37059  0.35358  0.12124  1.0000
  H   H1623     1.0  0.38910  0.06913  0.00109  1.0000
  H   H1624     1.0  0.24492  0.43178  0.99164  1.0000
  C   C920      1.0  0.32464  0.44595  0.28610  1.0000
  C   C921      1.0  0.35989  0.38453  0.09648  1.0000
  H   H1625     1.0  0.38175  0.43360  0.06428  1.0000
  H   H1626     1.0  0.41997  0.27789  0.03328  1.0000
  C   C922      1.0  0.36642  0.31121  0.99112  1.0000
  H   H1627     1.0  0.37889  0.38213  0.11934  1.0000
  C   C923      1.0  0.36036  0.28931  0.07956  1.0000
  H   H1628     1.0  0.29576  0.43242  0.11084  1.0000
  H   H1629     1.0  0.34715  0.37728  0.09592  1.0000
  C   C924      1.0  0.36562  0.37642  0.11761  1.0000
  H   H1630     1.0  0.32728  0.42713  0.04002  1.0000
  H   H1631     1.0  0.39076  0.09691  0.03018  1.0000
  C   C925      1.0  0.33195  0.41067  0.04264  1.0000
  C   C926      1.0  0.24203  0.48169  0.01971  1.0000
  H   H1632     1.0  0.39361  0.23161  0.01405  1.0000
  H   H1633     1.0  0.48066  0.06192  0.29076  1.0000
  C   C927      1.0  0.38284  0.23357  0.02807  1.0000
  N   N50       1.0  0.38143  0.29139  0.02243  1.0000
  H   H1634     1.0  0.35311  0.38071  0.12957  1.0000
  C   C928      1.0  0.37220  0.41589  0.09354  1.0000
  H   H1635     1.0  0.37082  0.41777  0.10944  1.0000
  C   C929      1.0  0.24751  0.99629  0.05093  1.0000
  H   H1636     1.0  0.40714  0.10756  0.99331  1.0000
  S   S210      1.0  0.29558  0.02979  0.01121  1.0000
  H   H1637     1.0  0.30457  0.16705  0.03017  1.0000
  H   H1638     1.0  0.38538  0.30687  0.04527  1.0000
  H   H1639     1.0  0.33811  0.38661  0.06651  1.0000
  C   C930      1.0  0.39158  0.44469  0.08675  1.0000
  C   C931      1.0  0.35192  0.41169  0.06930  1.0000
  C   C932      1.0  0.46039  0.98788  0.13251  1.0000
  H   H1640     1.0  0.37229  0.47860  0.31141  1.0000
  H   H1641     1.0  0.24829  0.19054  0.98777  1.0000
  H   H1642     1.0  0.44553  0.36685  0.00774  1.0000
  H   H1643     1.0  0.46916  0.30878  0.04379  1.0000
  H   H1644     1.0  0.32036  0.40778  0.07402  1.0000
  H   H1645     1.0  0.33901  0.41168  0.12053  1.0000
  H   H1646     1.0  0.25151  0.41101  0.03454  1.0000
  H   H1647     1.0  0.40229  0.40276  0.05214  1.0000
  H   H1648     1.0  0.48556  0.10621  0.28146  1.0000
  C   C933      1.0  0.25684  0.02321  0.02411  1.0000
  H   H1649     1.0  0.35974  0.41567  0.31138  1.0000
  H   H1650     1.0  0.45905  0.18664  0.06177  1.0000
  H   H1651     1.0  0.46413  0.99892  0.25317  1.0000
  H   H1652     1.0  0.25395  0.42936  0.05842  1.0000
  H   H1653     1.0  0.36135  0.27187  0.02010  1.0000
  H   H1654     1.0  0.34719  0.09732  0.04789  1.0000
  H   H1655     1.0  0.47543  0.15312  0.09360  1.0000
  H   H1656     1.0  0.40265  0.29556  0.99474  1.0000
  H   H1657     1.0  0.34605  0.40670  0.03225  1.0000
  C   C934      1.0  0.41626  0.03069  0.05488  1.0000
  H   H1658     1.0  0.38478  0.26841  0.00436  1.0000
  C   C935      1.0  0.24152  0.13718  0.02967  1.0000
  H   H1659     1.0  0.33574  0.39808  0.28829  1.0000
  H   H1660     1.0  0.38584  0.44880  0.10187  1.0000
  Fe  Fe107     1.0  0.48596  0.38282  0.21859  1.0000
  C   C936      1.0  0.36839  0.36643  0.99375  1.0000
  H   H1661     1.0  0.27872  0.46001  0.03144  1.0000
  H   H1662     1.0  0.42118  0.41830  0.01019  1.0000
  C   C937      1.0  0.31297  0.47190  0.00645  1.0000
  C   C938      1.0  0.25164  0.14042  0.00731  1.0000
  H   H1663     1.0  0.43445  0.17478  0.14150  1.0000
  C   C939      1.0  0.36570  0.30774  0.01415  1.0000
  H   H1664     1.0  0.35046  0.08370  0.00823  1.0000
  S   S211      1.0  0.46940  0.35070  0.03955  1.0000
  Fe  Fe108     1.0  0.28516  0.05661  0.98908  1.0000
  C   C940      1.0  0.42015  0.40218  0.01182  1.0000
  C   C941      1.0  0.27283  0.16140  0.01417  1.0000
  C   C942      1.0  0.40161  0.29544  0.01102  1.0000
  C   C943      1.0  0.47492  0.07826  0.28925  1.0000
  S   S212      1.0  0.34904  0.48058  0.11978  1.0000
  H   H1665     1.0  0.46433  0.08245  0.27841  1.0000
  H   H1666     1.0  0.37252  0.37855  0.08529  1.0000
  H   H1667     1.0  0.34996  0.30817  0.05386  1.0000
  C   C944      1.0  0.28212  0.00083  0.04111  1.0000
  H   H1668     1.0  0.30811  0.43725  0.12971  1.0000
  C   C945      1.0  0.34405  0.07376  0.02165  1.0000
  H   H1669     1.0  0.34917  0.42805  0.06382  1.0000
  C   C946      1.0  0.34698  0.32364  0.98519  1.0000
  C   C947      1.0  0.33360  0.05987  0.01433  1.0000
  H   H1670     1.0  0.28325  0.18560  0.03750  1.0000
  C   C948      1.0  0.36661  0.38554  0.28830  1.0000
  C   C949      1.0  0.37597  0.43603  0.07997  1.0000
  H   H1671     1.0  0.28584  0.43334  0.03417  1.0000
  C   C950      1.0  0.48574  0.29282  0.30370  1.0000
  H   H1672     1.0  0.47071  0.05935  0.11739  1.0000
  H   H1673     1.0  0.42776  0.04053  0.05137  1.0000
  H   H1674     1.0  0.26326  0.45853  0.00585  1.0000
  C   C951      1.0  0.32641  0.47313  0.01860  1.0000
  C   C952      1.0  0.46538  0.40017  0.99322  1.0000
  C   C953      1.0  0.41867  0.40237  0.04883  1.0000
  H   H1675     1.0  0.40568  0.43375  0.08712  1.0000
  H   H1676     1.0  0.34032  0.11854  0.07503  1.0000
  H   H1677     1.0  0.42382  0.37596  0.03558  1.0000
  C   C954      1.0  0.25450  0.44347  0.04744  1.0000
  Fe  Fe109     1.0  0.37177  0.47440  0.24335  1.0000
  C   C955      1.0  0.42794  0.39116  0.03136  1.0000
  H   H1678     1.0  0.37031  0.05156  0.02384  1.0000
  H   H1679     1.0  0.35851  0.11536  0.09115  1.0000
  C   C956      1.0  0.44852  0.13044  0.14983  1.0000
  C   C957      1.0  0.31775  0.45765  0.99374  1.0000
  H   H1680     1.0  0.39951  0.25174  0.03754  1.0000
  H   H1681     1.0  0.25316  0.13248  0.03940  1.0000
  C   C958      1.0  0.38811  0.06045  0.05224  1.0000
  H   H1682     1.0  0.30426  0.19304  0.01950  1.0000
  C   C959      1.0  0.35798  0.08579  0.05573  1.0000
  H   H1683     1.0  0.39909  0.35232  0.98905  1.0000
  C   C960      1.0  0.38410  0.25279  0.03504  1.0000
  H   H1684     1.0  0.42186  0.41791  0.04531  1.0000
  H   H1685     1.0  0.39074  0.28067  0.05156  1.0000
  H   H1686     1.0  0.46962  0.38407  0.99901  1.0000
  H   H1687     1.0  0.30413  0.42687  0.28228  1.0000
  C   C961      1.0  0.39571  0.07981  0.00662  1.0000
  H   H1688     1.0  0.47545  0.18956  0.07789  1.0000
  C   C962      1.0  0.38169  0.08862  0.02434  1.0000
  H   H1689     1.0  0.39669  0.45487  0.17164  1.0000
  H   H1690     1.0  0.37490  0.34811  0.13629  1.0000
  N   N51       1.0  0.43267  0.39832  0.16787  1.0000
  C   C963      1.0  0.43108  0.38683  0.15203  1.0000
  C   C964      1.0  0.43283  0.38418  0.18758  1.0000
  C   C965      1.0  0.41515  0.41525  0.16907  1.0000
  C   C966      1.0  0.45171  0.40699  0.16281  1.0000
  C   C967      1.0  0.47132  0.39200  0.15820  1.0000
  C   C968      1.0  0.43264  0.39853  0.13025  1.0000
  C   C969      1.0  0.41257  0.42704  0.18654  1.0000
  C   C970      1.0  0.41346  0.37536  0.19657  1.0000
  C   C971      1.0  0.41539  0.36185  0.21676  1.0000
  H   H1691     1.0  0.44432  0.38952  0.02971  1.0000
  C   C972      1.0  0.43160  0.38511  0.11555  1.0000
  C   C973      1.0  0.39468  0.44406  0.18585  1.0000
  H   H1692     1.0  0.41656  0.38137  0.15546  1.0000
  H   H1693     1.0  0.44253  0.37305  0.15214  1.0000
  H   H1694     1.0  0.44498  0.37114  0.18597  1.0000
  H   H1695     1.0  0.43651  0.39146  0.19902  1.0000
  H   H1696     1.0  0.40094  0.40973  0.17000  1.0000
  H   H1697     1.0  0.41638  0.42648  0.15508  1.0000
  H   H1698     1.0  0.45106  0.41956  0.14995  1.0000
  H   H1699     1.0  0.45352  0.41375  0.17552  1.0000
  H   H1700     1.0  0.47125  0.38457  0.14543  1.0000
  H   H1701     1.0  0.47363  0.38029  0.17147  1.0000
  H   H1702     1.0  0.42013  0.41128  0.12899  1.0000
  H   H1703     1.0  0.44692  0.40433  0.12533  1.0000
  H   H1704     1.0  0.42596  0.43376  0.18580  1.0000
  H   H1705     1.0  0.40996  0.41718  0.20124  1.0000
  H   H1706     1.0  0.40035  0.38728  0.19907  1.0000
  H   H1707     1.0  0.41043  0.36609  0.18654  1.0000
  H   H1708     1.0  0.41793  0.37045  0.22769  1.0000
  H   H1709     1.0  0.40144  0.35562  0.22290  1.0000
  H   H1710     1.0  0.42797  0.34919  0.21500  1.0000
  H   H1711     1.0  0.37857  0.08718  0.07607  1.0000
  H   H1712     1.0  0.33438  0.31527  0.99116  1.0000
  H   H1713     1.0  0.38659  0.10379  0.98280  1.0000
  H   H1714     1.0  0.43183  0.39397  0.10022  1.0000
  H   H1715     1.0  0.44461  0.37277  0.11518  1.0000
  H   H1716     1.0  0.41768  0.37854  0.11992  1.0000
  C   C974      1.0  0.34709  0.39743  0.29766  1.0000
  H   H1717     1.0  0.38068  0.43807  0.18731  1.0000
  H   H1718     1.0  0.39314  0.45219  0.19854  1.0000
  C   C975      1.0  0.27685  0.01722  0.02646  1.0000
  H   H1719     1.0  0.38651  0.40539  0.09038  1.0000
  H   H1720     1.0  0.48095  0.25020  0.03644  1.0000
  C   C976      1.0  0.37758  0.27147  0.01962  1.0000
  H   H1721     1.0  0.37420  0.25317  0.04979  1.0000
  C   C977      1.0  0.33476  0.40318  0.06442  1.0000
  H   H1722     1.0  0.37170  0.39313  0.27285  1.0000
  H   H1723     1.0  0.34507  0.29000  0.08844  1.0000
  C   C978      1.0  0.31609  0.43493  0.27327  1.0000
  N   N52       1.0  0.37239  0.07394  0.04108  1.0000
  H   H1724     1.0  0.41153  0.02747  0.07140  1.0000
  C   C979      1.0  0.30708  0.44959  0.25642  1.0000
  H   H1725     1.0  0.33726  0.45232  0.27594  1.0000
  H   H1726     1.0  0.32823  0.42427  0.26604  1.0000
  H   H1727     1.0  0.47659  0.15776  0.03240  1.0000
  C   C980      1.0  0.47064  0.17865  0.07085  1.0000
  H   H1728     1.0  0.35049  0.30463  0.02122  1.0000
  H   H1729     1.0  0.30107  0.44914  0.05562  1.0000
  H   H1730     1.0  0.46176  0.10570  0.17054  1.0000
  H   H1731     1.0  0.30037  0.44140  0.24795  1.0000
  H   H1732     1.0  0.40002  0.06889  0.05287  1.0000
  C   C981      1.0  0.28526  0.17859  0.00763  1.0000
  C   C982      1.0  0.44840  0.33902  0.98352  1.0000
  H   H1733     1.0  0.40370  0.31062  0.01240  1.0000
  C   C983      1.0  0.24308  0.17798  0.99915  1.0000
  H   H1734     1.0  0.47078  0.23467  0.01238  1.0000
  H   H1735     1.0  0.47966  0.11656  0.15074  1.0000
  C   C984      1.0  0.33034  0.12221  0.98252  1.0000
  H   H1736     1.0  0.48042  0.10681  0.99908  1.0000
  C   C985      1.0  0.46066  0.15558  0.98462  1.0000
  H   H1737     1.0  0.24697  0.38803  0.01293  1.0000
  H   H1738     1.0  0.44058  0.99031  0.26145  1.0000
  C   C986      1.0  0.25212  0.42413  0.02222  1.0000
  C   C987      1.0  0.35002  0.41852  0.29973  1.0000
  H   H1739     1.0  0.46676  0.08151  0.30412  1.0000
  H   H1740     1.0  0.47212  0.30016  0.31181  1.0000
  C   C988      1.0  0.48551  0.23966  0.00806  1.0000
  H   H1741     1.0  0.34219  0.38893  0.31273  1.0000
  H   H1742     1.0  0.48556  0.11622  0.08682  1.0000
  H   H1743     1.0  0.43677  0.22049  0.99759  1.0000
  H   H1744     1.0  0.24335  0.00555  0.98383  1.0000
  C   C989      1.0  0.35440  0.45878  0.30556  1.0000
  N   N53       1.0  0.33147  0.43363  0.30490  1.0000
  H   H1745     1.0  0.34349  0.33801  0.99098  1.0000
  C   C990      1.0  0.24745  0.46065  0.01360  1.0000
  C   C991      1.0  0.44736  0.40436  0.98205  1.0000
  H   H1746     1.0  0.29764  0.17513  0.99518  1.0000
  H   H1747     1.0  0.45803  0.24714  0.98471  1.0000
  H   H1748     1.0  0.48337  0.00525  0.13136  1.0000
  H   H1749     1.0  0.47491  0.98799  0.22341  1.0000
  H   H1750     1.0  0.33960  0.43324  0.98381  1.0000
  H   H1751     1.0  0.48257  0.28475  0.02079  1.0000
  H   H1752     1.0  0.31126  0.41200  0.31155  1.0000
  H   H1753     1.0  0.24665  0.47781  0.09286  1.0000
  C   C992      1.0  0.48562  0.29986  0.01647  1.0000
  N   N54       1.0  0.24398  0.44336  0.03034  1.0000
  H   H1754     1.0  0.24977  0.48254  0.03193  1.0000
  H   H1755     1.0  0.29889  0.48206  0.00686  1.0000
  H   H1756     1.0  0.37866  0.31961  0.98339  1.0000
  H   H1757     1.0  0.36895  0.29684  0.98548  1.0000
  H   H1758     1.0  0.39321  0.48003  0.99679  1.0000
  C   C993      1.0  0.35236  0.48363  0.15785  1.0000
  H   H1759     1.0  0.23848  0.46117  0.00182  1.0000
  H   H1760     1.0  0.48701  0.37245  0.30983  1.0000
  H   H1761     1.0  0.23762  0.10664  0.02985  1.0000
  H   H1762     1.0  0.32251  0.48409  0.02849  1.0000
  H   H1763     1.0  0.31332  0.20498  0.56479  1.0000
  H   H1764     1.0  0.29344  0.03970  0.50885  1.0000
  H   H1765     1.0  0.40834  0.14112  0.43605  1.0000
  S   S213      1.0  0.27327  0.30902  0.53719  1.0000
  C   C994      1.0  0.48321  0.13183  0.40924  1.0000
  S   S214      1.0  0.24729  0.43733  0.42528  1.0000
  H   H1766     1.0  0.37863  0.02040  0.53272  1.0000
  H   H1767     1.0  0.27596  0.28564  0.60933  1.0000
  H   H1768     1.0  0.29910  0.45495  0.61542  1.0000
  H   H1769     1.0  0.28392  0.01235  0.39110  1.0000
  Fe  Fe110     1.0  0.34846  0.21679  0.50279  1.0000
  S   S215      1.0  0.34763  0.18927  0.52638  1.0000
  S   S216      1.0  0.31921  0.23533  0.49494  1.0000
  Fe  Fe111     1.0  0.39358  0.20879  0.49351  1.0000
  S   S217      1.0  0.39627  0.18077  0.51642  1.0000
  S   S218      1.0  0.42189  0.22017  0.47743  1.0000
  Fe  Fe112     1.0  0.37108  0.17358  0.50471  1.0000
  S   S219      1.0  0.37068  0.14071  0.50545  1.0000
  Fe  Fe113     1.0  0.37280  0.19836  0.53640  1.0000
  S   S220      1.0  0.37234  0.19398  0.56997  1.0000
  S   S221      1.0  0.37016  0.20035  0.48003  1.0000
  S   S222      1.0  0.37182  0.22721  0.51450  1.0000
  H   H1770     1.0  0.26095  0.98557  0.52835  1.0000
  C   C995      1.0  0.31193  0.02242  0.38414  1.0000
  S   S223      1.0  0.44238  0.21506  0.60443  1.0000
  S   S224      1.0  0.47585  0.16778  0.62718  1.0000
  Fe  Fe114     1.0  0.34390  0.07462  0.43907  1.0000
  S   S225      1.0  0.32798  0.06840  0.41631  1.0000
  S   S226      1.0  0.35320  0.10510  0.43401  1.0000
  Fe  Fe115     1.0  0.34179  0.03335  0.46383  1.0000
  S   S227      1.0  0.32574  0.02362  0.44314  1.0000
  S   S228      1.0  0.34834  0.01580  0.49366  1.0000
  Fe  Fe116     1.0  0.34764  0.03820  0.41874  1.0000
  S   S229      1.0  0.36137  0.02784  0.38910  1.0000
  Fe  Fe117     1.0  0.30747  0.05437  0.44234  1.0000
  S   S230      1.0  0.27387  0.06261  0.44468  1.0000
  S   S231      1.0  0.36525  0.04552  0.43951  1.0000
  S   S232      1.0  0.32181  0.06303  0.46495  1.0000
  C   C996      1.0  0.26038  0.04736  0.43690  1.0000
  C   C997      1.0  0.26925  0.02822  0.43301  1.0000
  C   C998      1.0  0.38192  0.13769  0.59576  1.0000
  H   H1771     1.0  0.28471  0.02270  0.43438  1.0000
  H   H1772     1.0  0.35173  0.23748  0.58676  1.0000
  C   C999      1.0  0.34601  0.37417  0.63884  1.0000
  H   H1773     1.0  0.30566  0.02434  0.49027  1.0000
  H   H1774     1.0  0.44225  0.25022  0.49910  1.0000
  H   H1775     1.0  0.48465  0.14987  0.45244  1.0000
  H   H1776     1.0  0.32907  0.03664  0.58659  1.0000
  H   H1777     1.0  0.30939  0.20667  0.63443  1.0000
  C   C1000     1.0  0.37206  0.00280  0.38712  1.0000
  H   H1778     1.0  0.31307  0.05375  0.38267  1.0000
  H   H1779     1.0  0.37934  0.00915  0.35490  1.0000
  H   H1780     1.0  0.32470  0.42827  0.62904  1.0000
  H   H1781     1.0  0.45193  0.14677  0.35188  1.0000
  C   C1001     1.0  0.39301  0.19832  0.57886  1.0000
  C   C1002     1.0  0.40608  0.21060  0.56687  1.0000
  C   C1003     1.0  0.42129  0.21532  0.57488  1.0000
  C   C1004     1.0  0.42412  0.20719  0.59466  1.0000
  C   C1005     1.0  0.41163  0.19416  0.60637  1.0000
  C   C1006     1.0  0.39591  0.19002  0.59859  1.0000
  H   H1782     1.0  0.40405  0.21701  0.55164  1.0000
  H   H1783     1.0  0.43065  0.22563  0.56582  1.0000
  H   H1784     1.0  0.41359  0.18793  0.62166  1.0000
  H   H1785     1.0  0.38586  0.18054  0.60798  1.0000
  C   C1007     1.0  0.35713  0.11510  0.45422  1.0000
  C   C1008     1.0  0.35730  0.10359  0.47332  1.0000
  C   C1009     1.0  0.36129  0.11174  0.48890  1.0000
  C   C1010     1.0  0.36485  0.13151  0.48561  1.0000
  C   C1011     1.0  0.36428  0.14316  0.46659  1.0000
  C   C1012     1.0  0.36055  0.13493  0.45093  1.0000
  H   H1786     1.0  0.35470  0.08832  0.47601  1.0000
  H   H1787     1.0  0.36172  0.10263  0.50355  1.0000
  H   H1788     1.0  0.36706  0.15838  0.46387  1.0000
  H   H1789     1.0  0.36047  0.14391  0.43619  1.0000
  C   C1013     1.0  0.44454  0.21233  0.41212  1.0000
  C   C1014     1.0  0.42759  0.20448  0.42271  1.0000
  C   C1015     1.0  0.42032  0.20696  0.44273  1.0000
  C   C1016     1.0  0.42961  0.21789  0.45197  1.0000
  C   C1017     1.0  0.44592  0.22658  0.44098  1.0000
  C   C1018     1.0  0.45367  0.22345  0.42127  1.0000
  H   H1790     1.0  0.42024  0.19628  0.41547  1.0000
  H   H1791     1.0  0.40764  0.20033  0.45099  1.0000
  H   H1792     1.0  0.45249  0.23593  0.44764  1.0000
  C   C1019     1.0  0.38002  0.99771  0.36809  1.0000
  C   C1020     1.0  0.28597  0.28907  0.52464  1.0000
  C   C1021     1.0  0.27591  0.27897  0.51533  1.0000
  C   C1022     1.0  0.28638  0.26276  0.50595  1.0000
  C   C1023     1.0  0.30690  0.25636  0.50602  1.0000
  C   C1024     1.0  0.31708  0.26680  0.51483  1.0000
  C   C1025     1.0  0.30663  0.28308  0.52417  1.0000
  H   H1793     1.0  0.26002  0.28344  0.51560  1.0000
  H   H1794     1.0  0.27844  0.25485  0.49899  1.0000
  H   H1795     1.0  0.33300  0.26231  0.51442  1.0000
  H   H1796     1.0  0.31456  0.29103  0.53109  1.0000
  C   C1026     1.0  0.33308  0.98529  0.52006  1.0000
  H   H1797     1.0  0.24119  0.46682  0.57964  1.0000
  H   H1798     1.0  0.28497  0.41586  0.35120  1.0000
  H   H1799     1.0  0.44661  0.18083  0.36123  1.0000
  C   C1027     1.0  0.46113  0.01777  0.40446  1.0000
  N   N55       1.0  0.28925  0.13160  0.42188  1.0000
  C   C1028     1.0  0.40243  0.00048  0.43694  1.0000
  H   H1800     1.0  0.36171  0.26757  0.54835  1.0000
  C   C1029     1.0  0.39041  0.98796  0.45416  1.0000
  H   H1801     1.0  0.37848  0.99802  0.46241  1.0000
  H   H1802     1.0  0.46226  0.21818  0.54268  1.0000
  H   H1803     1.0  0.43566  0.23375  0.52224  1.0000
  H   H1804     1.0  0.27940  0.35166  0.51692  1.0000
  C   C1030     1.0  0.28147  0.11382  0.41867  1.0000
  H   H1805     1.0  0.28994  0.09962  0.42568  1.0000
  H   H1806     1.0  0.33961  0.05222  0.56419  1.0000
  H   H1807     1.0  0.34706  0.98912  0.31867  1.0000
  H   H1808     1.0  0.35455  0.15366  0.62620  1.0000
  H   H1809     1.0  0.45350  0.16739  0.43918  1.0000
  H   H1810     1.0  0.27316  0.09294  0.37959  1.0000
  C   C1031     1.0  0.32600  0.98909  0.34662  1.0000
  H   H1811     1.0  0.27935  0.15218  0.39623  1.0000
  C   C1032     1.0  0.44821  0.23747  0.51010  1.0000
  H   H1812     1.0  0.30122  0.04899  0.36361  1.0000
  S   S233      1.0  0.24849  0.47905  0.32623  1.0000
  H   H1813     1.0  0.30967  0.13633  0.38117  1.0000
  C   C1033     1.0  0.27278  0.09391  0.39551  1.0000
  H   H1814     1.0  0.48607  0.99802  0.62563  1.0000
  H   H1815     1.0  0.45978  0.98790  0.38728  1.0000
  H   H1816     1.0  0.34404  0.11805  0.38495  1.0000
  S   S234      1.0  0.48588  0.00992  0.34838  1.0000
  H   H1817     1.0  0.46413  0.23284  0.56887  1.0000
  H   H1818     1.0  0.46649  0.22994  0.41302  1.0000
  H   H1819     1.0  0.33280  0.00921  0.56675  1.0000
  H   H1820     1.0  0.39414  0.13851  0.60357  1.0000
  C   C1034     1.0  0.46167  0.17360  0.35476  1.0000
  H   H1821     1.0  0.28378  0.23498  0.57197  1.0000
  N   N56       1.0  0.46217  0.14046  0.38052  1.0000
  C   C1035     1.0  0.46093  0.11879  0.38120  1.0000
  C   C1036     1.0  0.44341  0.15076  0.39237  1.0000
  C   C1037     1.0  0.46361  0.15047  0.35880  1.0000
  H   H1822     1.0  0.29749  0.44740  0.33468  1.0000
  C   C1038     1.0  0.23973  0.31006  0.45789  1.0000
  H   H1823     1.0  0.34759  0.48041  0.32603  1.0000
  C   C1039     1.0  0.43305  0.13797  0.41130  1.0000
  H   H1824     1.0  0.29846  0.10796  0.38947  1.0000
  H   H1825     1.0  0.32235  0.23074  0.60477  1.0000
  H   H1826     1.0  0.44720  0.11787  0.37563  1.0000
  H   H1827     1.0  0.45926  0.11049  0.39676  1.0000
  H   H1828     1.0  0.44637  0.16437  0.39682  1.0000
  H   H1829     1.0  0.43162  0.15635  0.38280  1.0000
  H   H1830     1.0  0.47569  0.24872  0.50590  1.0000
  H   H1831     1.0  0.27603  0.41502  0.32850  1.0000
  H   H1832     1.0  0.34930  0.13022  0.64137  1.0000
  S   S235      1.0  0.24400  0.48411  0.38391  1.0000
  H   H1833     1.0  0.33733  0.98841  0.37352  1.0000
  H   H1834     1.0  0.26073  0.14990  0.41764  1.0000
  H   H1835     1.0  0.28317  0.00714  0.51940  1.0000
  H   H1836     1.0  0.24036  0.38055  0.47997  1.0000
  H   H1837     1.0  0.34134  0.37935  0.62392  1.0000
  H   H1838     1.0  0.44360  0.12979  0.42138  1.0000
  H   H1839     1.0  0.29650  0.17006  0.41787  1.0000
  H   H1840     1.0  0.28098  0.07963  0.40262  1.0000
  Fe  Fe118     1.0  0.37753  0.01833  0.64320  1.0000
  H   H1841     1.0  0.42242  0.16130  0.42978  1.0000
  H   H1842     1.0  0.43708  0.14054  0.63778  1.0000
  H   H1843     1.0  0.48042  0.17566  0.32521  1.0000
  H   H1844     1.0  0.32404  0.45962  0.31979  1.0000
  H   H1845     1.0  0.24611  0.30067  0.44610  1.0000
  H   H1846     1.0  0.44122  0.16998  0.46448  1.0000
  C   C1040     1.0  0.44037  0.01257  0.41514  1.0000
  C   C1041     1.0  0.29893  0.23673  0.56365  1.0000
  C   C1042     1.0  0.42036  0.00692  0.39122  1.0000
  C   C1043     1.0  0.43070  0.02030  0.37304  1.0000
  H   H1847     1.0  0.34865  0.13881  0.39458  1.0000
  H   H1848     1.0  0.46942  0.25556  0.55377  1.0000
  H   H1849     1.0  0.46153  0.03016  0.62640  1.0000
  C   C1044     1.0  0.36554  0.25458  0.56011  1.0000
  C   C1045     1.0  0.41844  0.02625  0.35609  1.0000
  H   H1850     1.0  0.31435  0.15685  0.39053  1.0000
  N   N57       1.0  0.25883  0.99201  0.49680  1.0000
  C   C1046     1.0  0.29100  0.03199  0.49715  1.0000
  H   H1851     1.0  0.26566  0.11412  0.42636  1.0000
  H   H1852     1.0  0.42929  0.02672  0.41494  1.0000
  S   S236      1.0  0.24645  0.40807  0.62006  1.0000
  C   C1047     1.0  0.36633  0.12743  0.61175  1.0000
  H   H1853     1.0  0.28612  0.23138  0.61499  1.0000
  H   H1854     1.0  0.37048  0.02693  0.56619  1.0000
  H   H1855     1.0  0.40671  0.01683  0.39718  1.0000
  H   H1856     1.0  0.44546  0.01259  0.36688  1.0000
  H   H1857     1.0  0.43248  0.03428  0.37752  1.0000
  H   H1858     1.0  0.41806  0.12269  0.62251  1.0000
  H   H1859     1.0  0.34426  0.14220  0.36915  1.0000
  H   H1860     1.0  0.25697  0.09587  0.40316  1.0000
  H   H1861     1.0  0.29874  0.36642  0.50663  1.0000
  H   H1862     1.0  0.37635  0.25817  0.56814  1.0000
  H   H1863     1.0  0.32673  0.02019  0.37444  1.0000
  H   H1864     1.0  0.27500  0.12495  0.38789  1.0000
  H   H1865     1.0  0.24673  0.33314  0.47041  1.0000
  H   H1866     1.0  0.26572  0.43527  0.34228  1.0000
  H   H1867     1.0  0.42590  0.03650  0.34363  1.0000
  H   H1868     1.0  0.41735  0.01280  0.35019  1.0000
  H   H1869     1.0  0.40321  0.03404  0.36142  1.0000
  N   N58       1.0  0.37668  0.99702  0.55907  1.0000
  H   H1870     1.0  0.34246  0.40365  0.64568  1.0000
  C   C1048     1.0  0.28264  0.11139  0.39665  1.0000
  N   N59       1.0  0.30569  0.98693  0.38282  1.0000
  H   H1871     1.0  0.26449  0.00106  0.42543  1.0000
  H   H1872     1.0  0.26241  0.02553  0.51210  1.0000
  H   H1873     1.0  0.47821  0.14479  0.34999  1.0000
  H   H1874     1.0  0.45409  0.22440  0.50235  1.0000
  H   H1875     1.0  0.39179  0.00967  0.42736  1.0000
  H   H1876     1.0  0.37281  0.24141  0.55288  1.0000
  C   C1049     1.0  0.31450  0.22574  0.59462  1.0000
  C   C1050     1.0  0.27964  0.42498  0.33753  1.0000
  C   C1051     1.0  0.29804  0.00916  0.38049  1.0000
  H   H1877     1.0  0.29023  0.99416  0.48874  1.0000
  H   H1878     1.0  0.36256  0.37213  0.63669  1.0000
  H   H1879     1.0  0.25493  0.41028  0.46131  1.0000
  H   H1880     1.0  0.28989  0.42470  0.64039  1.0000
  H   H1881     1.0  0.46351  0.19828  0.32990  1.0000
  H   H1882     1.0  0.38886  0.99209  0.49832  1.0000
  H   H1883     1.0  0.35688  0.99401  0.33903  1.0000
  H   H1884     1.0  0.48057  0.03885  0.40372  1.0000
  C   C1052     1.0  0.27695  0.15057  0.41279  1.0000
  H   H1885     1.0  0.37406  0.13611  0.63745  1.0000
  H   H1886     1.0  0.32051  0.00540  0.34315  1.0000
  H   H1887     1.0  0.48316  0.25870  0.60216  1.0000
  C   C1053     1.0  0.39966  0.00019  0.50182  1.0000
  H   H1888     1.0  0.30871  0.39335  0.64198  1.0000
  H   H1889     1.0  0.28608  0.10004  0.45880  1.0000
  H   H1890     1.0  0.31065  0.10618  0.44951  1.0000
  H   H1891     1.0  0.32214  0.00440  0.60992  1.0000
  H   H1892     1.0  0.34056  0.43932  0.33111  1.0000
  Fe  Fe119     1.0  0.45755  0.19789  0.63058  1.0000
  H   H1893     1.0  0.36657  0.45909  0.33221  1.0000
  S   S237      1.0  0.48258  0.21027  0.63772  1.0000
  H   H1894     1.0  0.24490  0.03432  0.48283  1.0000
  C   C1054     1.0  0.34685  0.24994  0.57494  1.0000
  H   H1895     1.0  0.31859  0.11415  0.41501  1.0000
  S   S238      1.0  0.45430  0.20782  0.38763  1.0000
  H   H1896     1.0  0.34132  0.35949  0.64550  1.0000
  H   H1897     1.0  0.29560  0.98641  0.41470  1.0000
  H   H1898     1.0  0.46228  0.08338  0.36751  1.0000
  C   C1055     1.0  0.30232  0.26197  0.58310  1.0000
  C   C1056     1.0  0.25789  0.01603  0.42780  1.0000
  H   H1899     1.0  0.44968  0.14546  0.45772  1.0000
  H   H1900     1.0  0.29887  0.19877  0.53702  1.0000
  H   H1901     1.0  0.47231  0.15334  0.47736  1.0000
  H   H1902     1.0  0.37219  0.11146  0.61674  1.0000
  C   C1057     1.0  0.29541  0.11180  0.45687  1.0000
  H   H1903     1.0  0.48052  0.25086  0.46902  1.0000
  C   C1058     1.0  0.24018  0.05423  0.43529  1.0000
  H   H1904     1.0  0.27243  0.17184  0.43358  1.0000
  C   C1059     1.0  0.24335  0.40557  0.45588  1.0000
  H   H1905     1.0  0.33027  0.25487  0.55042  1.0000
  H   H1906     1.0  0.36681  0.99179  0.41876  1.0000
  H   H1907     1.0  0.27957  0.20698  0.55685  1.0000
  C   C1060     1.0  0.41627  0.15084  0.42342  1.0000
  H   H1908     1.0  0.30803  0.27440  0.57182  1.0000
  H   H1909     1.0  0.46248  0.02109  0.38797  1.0000
  H   H1910     1.0  0.36778  0.00028  0.53007  1.0000
  C   C1061     1.0  0.23779  0.02287  0.42601  1.0000
  H   H1911     1.0  0.25568  0.29167  0.59524  1.0000
  C   C1062     1.0  0.45323  0.16080  0.45528  1.0000
  C   C1063     1.0  0.43546  0.12519  0.64406  1.0000
  C   C1064     1.0  0.27248  0.18859  0.40387  1.0000
  H   H1912     1.0  0.31893  0.13669  0.42299  1.0000
  H   H1913     1.0  0.34154  0.98934  0.46930  1.0000
  H   H1914     1.0  0.48079  0.15871  0.38781  1.0000
  H   H1915     1.0  0.31006  0.18866  0.61849  1.0000
  H   H1916     1.0  0.28080  0.36491  0.41124  1.0000
  H   H1917     1.0  0.33290  0.99123  0.40706  1.0000
  C   C1065     1.0  0.42218  0.09514  0.64341  1.0000
  H   H1918     1.0  0.28068  0.18815  0.38834  1.0000
  N   N60       1.0  0.39028  0.12784  0.57754  1.0000
  C   C1066     1.0  0.40315  0.10814  0.58394  1.0000
  C   C1067     1.0  0.37383  0.12381  0.56838  1.0000
  C   C1068     1.0  0.40220  0.14164  0.56224  1.0000
  C   C1069     1.0  0.42106  0.14579  0.56849  1.0000
  C   C1070     1.0  0.41551  0.09701  0.56691  1.0000
  C   C1071     1.0  0.35818  0.14230  0.56221  1.0000
  C   C1072     1.0  0.43199  0.15983  0.55187  1.0000
  C   C1073     1.0  0.42799  0.07751  0.57557  1.0000
  C   C1074     1.0  0.34053  0.13604  0.55639  1.0000
  H   H1919     1.0  0.39379  0.09753  0.59377  1.0000
  H   H1920     1.0  0.41363  0.11010  0.59335  1.0000
  H   H1921     1.0  0.36595  0.11217  0.57861  1.0000
  H   H1922     1.0  0.38016  0.11743  0.55444  1.0000
  H   H1923     1.0  0.40662  0.13607  0.54767  1.0000
  H   H1924     1.0  0.39275  0.15648  0.55876  1.0000
  H   H1925     1.0  0.43174  0.13180  0.57180  1.0000
  H   H1926     1.0  0.41697  0.15309  0.58199  1.0000
  H   H1927     1.0  0.40563  0.09310  0.55806  1.0000
  H   H1928     1.0  0.42593  0.10618  0.55659  1.0000
  H   H1929     1.0  0.36514  0.15210  0.54901  1.0000
  H   H1930     1.0  0.35214  0.15123  0.57437  1.0000
  H   H1931     1.0  0.44538  0.16251  0.55673  1.0000
  H   H1932     1.0  0.43678  0.15321  0.53794  1.0000
  H   H1933     1.0  0.42216  0.17449  0.54867  1.0000
  H   H1934     1.0  0.43850  0.08061  0.58429  1.0000
  H   H1935     1.0  0.41818  0.06743  0.58561  1.0000
  H   H1936     1.0  0.43675  0.06970  0.56323  1.0000
  H   H1937     1.0  0.34572  0.12698  0.54419  1.0000
  H   H1938     1.0  0.33230  0.12718  0.56953  1.0000
  H   H1939     1.0  0.33014  0.14957  0.55093  1.0000
  C   C1075     1.0  0.31760  0.14033  0.39175  1.0000
  H   H1940     1.0  0.47285  0.17838  0.36124  1.0000
  C   C1076     1.0  0.28043  0.17017  0.41819  1.0000
  C   C1077     1.0  0.29683  0.11502  0.47774  1.0000
  H   H1941     1.0  0.47718  0.18827  0.44176  1.0000
  N   N61       1.0  0.28954  0.32476  0.46404  1.0000
  C   C1078     1.0  0.28172  0.33500  0.48210  1.0000
  C   C1079     1.0  0.27450  0.31263  0.46197  1.0000
  C   C1080     1.0  0.30828  0.31020  0.46813  1.0000
  C   C1081     1.0  0.29446  0.33930  0.44492  1.0000
  C   C1082     1.0  0.28168  0.36065  0.44321  1.0000
  C   C1083     1.0  0.29719  0.34462  0.48869  1.0000
  C   C1084     1.0  0.31721  0.29569  0.45290  1.0000
  H   H1942     1.0  0.28707  0.19725  0.63417  1.0000
  Fe  Fe120     1.0  0.40316  0.05083  0.64329  1.0000
  C   C1085     1.0  0.28540  0.37237  0.42194  1.0000
  C   C1086     1.0  0.28723  0.35948  0.50279  1.0000
  C   C1087     1.0  0.33804  0.28472  0.45623  1.0000
  H   H1943     1.0  0.27612  0.32415  0.49521  1.0000
  H   H1944     1.0  0.26842  0.34661  0.47984  1.0000
  H   H1945     1.0  0.28006  0.30455  0.44903  1.0000
  H   H1946     1.0  0.27230  0.30093  0.47555  1.0000
  H   H1947     1.0  0.30550  0.30076  0.48318  1.0000
  H   H1948     1.0  0.32035  0.31839  0.46865  1.0000
  H   H1949     1.0  0.31023  0.34164  0.44267  1.0000
  H   H1950     1.0  0.29359  0.33281  0.43169  1.0000
  H   H1951     1.0  0.28548  0.36934  0.45335  1.0000
  H   H1952     1.0  0.26550  0.36039  0.44733  1.0000
  H   H1953     1.0  0.30743  0.33277  0.49688  1.0000
  H   H1954     1.0  0.30634  0.35251  0.47558  1.0000
  H   H1955     1.0  0.31832  0.30385  0.43725  1.0000
  H   H1956     1.0  0.30778  0.28402  0.45486  1.0000
  H   H1957     1.0  0.30716  0.12570  0.47663  1.0000
  N   N62       1.0  0.43251  0.99717  0.40750  1.0000
  C   C1088     1.0  0.39616  0.99358  0.56687  1.0000
  H   H1958     1.0  0.48215  0.21344  0.52294  1.0000
  C   C1089     1.0  0.47884  0.18130  0.45751  1.0000
  H   H1959     1.0  0.27643  0.38767  0.42144  1.0000
  H   H1960     1.0  0.30142  0.37374  0.41726  1.0000
  H   H1961     1.0  0.29816  0.46847  0.63555  1.0000
  H   H1962     1.0  0.42290  0.99641  0.59128  1.0000
  H   H1963     1.0  0.38612  0.99887  0.59811  1.0000
  H   H1964     1.0  0.27645  0.37156  0.49560  1.0000
  H   H1965     1.0  0.33750  0.27612  0.47171  1.0000
  H   H1966     1.0  0.34376  0.27399  0.44558  1.0000
  H   H1967     1.0  0.34858  0.29545  0.45371  1.0000
  C   C1090     1.0  0.37987  0.00379  0.53653  1.0000
  H   H1968     1.0  0.25071  0.48015  0.52412  1.0000
  C   C1091     1.0  0.36053  0.46985  0.31975  1.0000
  C   C1092     1.0  0.27552  0.00412  0.49098  1.0000
  H   H1969     1.0  0.35246  0.12835  0.60574  1.0000
  C   C1093     1.0  0.27923  0.26803  0.58560  1.0000
  S   S239      1.0  0.25436  0.45741  0.63452  1.0000
  C   C1094     1.0  0.27704  0.01694  0.50644  1.0000
  C   C1095     1.0  0.31524  0.42338  0.31854  1.0000
  H   H1970     1.0  0.28439  0.04341  0.48546  1.0000
  H   H1971     1.0  0.45645  0.98518  0.35235  1.0000
  H   H1972     1.0  0.28188  0.12082  0.48577  1.0000
  H   H1973     1.0  0.47558  0.04246  0.60393  1.0000
  H   H1974     1.0  0.46201  0.24887  0.59939  1.0000
  H   H1975     1.0  0.39519  0.01651  0.49681  1.0000
  C   C1096     1.0  0.30092  0.20183  0.62475  1.0000
  S   S240      1.0  0.40409  0.02926  0.62250  1.0000
  H   H1976     1.0  0.27462  0.01395  0.47616  1.0000
  C   C1097     1.0  0.33121  0.03960  0.56993  1.0000
  C   C1098     1.0  0.29189  0.21160  0.54490  1.0000
  H   H1977     1.0  0.29635  0.24936  0.55116  1.0000
  C   C1099     1.0  0.47664  0.24056  0.56051  1.0000
  C   C1100     1.0  0.34238  0.02091  0.56142  1.0000
  C   C1101     1.0  0.25374  0.32430  0.45838  1.0000
  C   C1102     1.0  0.23942  0.46721  0.56395  1.0000
  C   C1103     1.0  0.47461  0.22492  0.53241  1.0000
  C   C1104     1.0  0.47451  0.25659  0.59108  1.0000
  H   H1978     1.0  0.42619  0.12679  0.40671  1.0000
  C   C1105     1.0  0.30775  0.45773  0.62617  1.0000
  H   H1979     1.0  0.34028  0.26339  0.58193  1.0000
  H   H1980     1.0  0.30283  0.10059  0.48660  1.0000
  H   H1981     1.0  0.28821  0.04775  0.38928  1.0000
  H   H1982     1.0  0.27460  0.20233  0.40858  1.0000
  C   C1106     1.0  0.34682  0.98937  0.62491  1.0000
  C   C1107     1.0  0.41901  0.98681  0.42476  1.0000
  H   H1983     1.0  0.31631  0.04404  0.56528  1.0000
  H   H1984     1.0  0.40285  0.00750  0.56252  1.0000
  H   H1985     1.0  0.41482  0.99545  0.38570  1.0000
  C   C1108     1.0  0.30759  0.21787  0.55389  1.0000
  C   C1109     1.0  0.28607  0.13133  0.44425  1.0000
  C   C1110     1.0  0.33878  0.99335  0.49988  1.0000
  H   H1986     1.0  0.31991  0.22129  0.54143  1.0000
  H   H1987     1.0  0.34397  0.02465  0.54485  1.0000
  H   H1988     1.0  0.37515  0.15358  0.59138  1.0000
  H   H1989     1.0  0.47513  0.19271  0.56287  1.0000
  C   C1111     1.0  0.36289  0.01369  0.56859  1.0000
  C   C1112     1.0  0.47644  0.08468  0.37191  1.0000
  H   H1990     1.0  0.32083  0.41488  0.33239  1.0000
  H   H1991     1.0  0.40866  0.01066  0.44357  1.0000
  C   C1113     1.0  0.34001  0.13447  0.38471  1.0000
  C   C1114     1.0  0.33109  0.99011  0.61451  1.0000
  H   H1992     1.0  0.29243  0.14365  0.44745  1.0000
  H   H1993     1.0  0.25629  0.18937  0.40408  1.0000
  C   C1115     1.0  0.31135  0.13014  0.41371  1.0000
  H   H1994     1.0  0.28671  0.21329  0.59914  1.0000
  C   C1116     1.0  0.37306  0.98800  0.40408  1.0000
  S   S241      1.0  0.44841  0.98735  0.62906  1.0000
  S   S242      1.0  0.35197  0.01219  0.62966  1.0000
  H   H1995     1.0  0.45399  0.17773  0.32490  1.0000
  H   H1996     1.0  0.45751  0.25564  0.52692  1.0000
  H   H1997     1.0  0.33428  0.99310  0.53168  1.0000
  H   H1998     1.0  0.41465  0.99521  0.49334  1.0000
  H   H1999     1.0  0.26981  0.13414  0.45048  1.0000
  H   H2000     1.0  0.35928  0.00914  0.58507  1.0000
  H   H2001     1.0  0.26198  0.99473  0.38862  1.0000
  H   H2002     1.0  0.40528  0.15954  0.41391  1.0000
  H   H2003     1.0  0.27904  0.29984  0.58410  1.0000
  H   H2004     1.0  0.32064  0.46467  0.61747  1.0000
  H   H2005     1.0  0.47232  0.21828  0.46960  1.0000
  S   S243      1.0  0.40791  0.08317  0.63221  1.0000
  H   H2006     1.0  0.48207  0.20167  0.58268  1.0000
  H   H2007     1.0  0.28570  0.22409  0.53383  1.0000
  H   H2008     1.0  0.47207  0.13946  0.42039  1.0000
  H   H2009     1.0  0.44217  0.00732  0.43113  1.0000
  Fe  Fe121     1.0  0.24151  0.32387  0.53335  1.0000
  C   C1117     1.0  0.40020  0.99559  0.52430  1.0000
  C   C1118     1.0  0.46456  0.24315  0.51867  1.0000
  H   H2010     1.0  0.46684  0.18995  0.46719  1.0000
  H   H2011     1.0  0.48175  0.11586  0.41161  1.0000
  H   H2012     1.0  0.29391  0.01498  0.36538  1.0000
  H   H2013     1.0  0.45439  0.04939  0.40703  1.0000
  C   C1119     1.0  0.46510  0.18171  0.33228  1.0000
  C   C1120     1.0  0.30298  0.04457  0.37961  1.0000
  H   H2014     1.0  0.25494  0.33427  0.44361  1.0000
  C   C1121     1.0  0.29534  0.43718  0.32514  1.0000
  H   H2015     1.0  0.30693  0.26300  0.59734  1.0000
  H   H2016     1.0  0.27433  0.27074  0.57079  1.0000
  H   H2017     1.0  0.47994  0.11246  0.35269  1.0000
  H   H2018     1.0  0.33945  0.22944  0.55936  1.0000
  C   C1122     1.0  0.36074  0.13755  0.63030  1.0000
  H   H2019     1.0  0.31370  0.01928  0.40011  1.0000
  C   C1123     1.0  0.47344  0.16001  0.46124  1.0000
  H   H2020     1.0  0.46834  0.27153  0.58327  1.0000
  C   C1124     1.0  0.33185  0.24382  0.56433  1.0000
  N   N63       1.0  0.31150  0.24190  0.57670  1.0000
  H   H2021     1.0  0.24686  0.37072  0.60753  1.0000
  C   C1125     1.0  0.29550  0.21890  0.60787  1.0000
  C   C1126     1.0  0.42459  0.11503  0.63543  1.0000
  C   C1127     1.0  0.48517  0.99058  0.33571  1.0000
  H   H2022     1.0  0.32469  0.21225  0.58986  1.0000
  H   H2023     1.0  0.47021  0.05287  0.62673  1.0000
  C   C1128     1.0  0.47883  0.10658  0.36898  1.0000
  C   C1129     1.0  0.48054  0.14269  0.38785  1.0000
  C   C1130     1.0  0.31522  0.43814  0.63931  1.0000
  C   C1131     1.0  0.39511  0.98699  0.58988  1.0000
  C   C1132     1.0  0.47403  0.03871  0.62052  1.0000
  H   H2024     1.0  0.25914  0.99214  0.46545  1.0000
  H   H2025     1.0  0.25278  0.45774  0.55678  1.0000
  H   H2026     1.0  0.46500  0.03313  0.42770  1.0000
  C   C1133     1.0  0.23873  0.00523  0.50060  1.0000
  H   H2027     1.0  0.47305  0.00498  0.40823  1.0000
  H   H2028     1.0  0.27144  0.25635  0.59557  1.0000
  C   C1134     1.0  0.46545  0.03591  0.41122  1.0000
  Fe  Fe122     1.0  0.48621  0.21267  0.37763  1.0000
  H   H2029     1.0  0.41213  0.00279  0.52698  1.0000
  H   H2030     1.0  0.47670  0.07748  0.38776  1.0000
  C   C1135     1.0  0.27214  0.28747  0.59414  1.0000
  Fe  Fe123     1.0  0.42199  0.00727  0.64339  1.0000
  H   H2031     1.0  0.48706  0.18273  0.49249  1.0000
  C   C1136     1.0  0.23754  0.38233  0.59893  1.0000
  C   C1137     1.0  0.34724  0.98497  0.33503  1.0000
  C   C1138     1.0  0.33688  0.44762  0.31635  1.0000
  H   H2032     1.0  0.46403  0.45795  0.73886  1.0000
  S   S244      1.0  0.44472  0.18879  0.66309  1.0000
  S   S245      1.0  0.45732  0.12793  0.67263  1.0000
  Fe  Fe124     1.0  0.47143  0.19876  0.67023  1.0000
  S   S246      1.0  0.46747  0.21444  0.69776  1.0000
  Fe  Fe125     1.0  0.34530  0.45234  0.73675  1.0000
  S   S247      1.0  0.37617  0.45961  0.73315  1.0000
  S   S248      1.0  0.33132  0.46464  0.70873  1.0000
  Fe  Fe126     1.0  0.34686  0.43042  0.77941  1.0000
  S   S249      1.0  0.37768  0.43574  0.77883  1.0000
  S   S250      1.0  0.33176  0.41281  0.80763  1.0000
  Fe  Fe127     1.0  0.36703  0.46689  0.76408  1.0000
  Fe  Fe128     1.0  0.38439  0.42792  0.74811  1.0000
  S   S251      1.0  0.41470  0.41130  0.73687  1.0000
  S   S252      1.0  0.33534  0.46230  0.76686  1.0000
  S   S253      1.0  0.35436  0.41985  0.74947  1.0000
  H   H2033     1.0  0.39727  0.99526  0.80026  1.0000
  C   C1139     1.0  0.29756  0.42809  0.65167  1.0000
  S   S254      1.0  0.44591  0.32738  0.78644  1.0000
  C   C1140     1.0  0.33221  0.40199  0.71087  1.0000
  H   H2034     1.0  0.28742  0.00886  0.73803  1.0000
  S   S255      1.0  0.25798  0.00795  0.82707  1.0000
  H   H2035     1.0  0.37699  0.12810  0.74606  1.0000
  C   C1141     1.0  0.31364  0.41453  0.68134  1.0000
  C   C1142     1.0  0.25512  0.35742  0.89406  1.0000
  Fe  Fe129     1.0  0.39524  0.02029  0.68042  1.0000
  S   S256      1.0  0.42352  0.02955  0.66225  1.0000
  S   S257      1.0  0.38880  0.01703  0.71440  1.0000
  H   H2036     1.0  0.26704  0.38660  0.82520  1.0000
  C   C1143     1.0  0.47553  0.23394  0.72577  1.0000
  H   H2037     1.0  0.39952  0.35804  0.71615  1.0000
  C   C1144     1.0  0.41480  0.36149  0.71036  1.0000
  Fe  Fe130     1.0  0.39861  0.04701  0.83259  1.0000
  S   S258      1.0  0.41272  0.07288  0.81427  1.0000
  S   S259      1.0  0.36541  0.04818  0.84413  1.0000
  Fe  Fe131     1.0  0.43876  0.01965  0.83286  1.0000
  S   S260      1.0  0.45605  0.04306  0.81418  1.0000
  Fe  Fe132     1.0  0.43649  0.06378  0.83420  1.0000
  S   S261      1.0  0.44603  0.08695  0.84848  1.0000
  Fe  Fe133     1.0  0.43111  0.04998  0.79606  1.0000
  S   S262      1.0  0.43677  0.05579  0.76206  1.0000
  S   S263      1.0  0.42049  0.03977  0.85401  1.0000
  S   S264      1.0  0.41566  0.02487  0.81328  1.0000
  H   H2038     1.0  0.25530  0.41221  0.81784  1.0000
  Fe  Fe134     1.0  0.29936  0.39812  0.94700  1.0000
  S   S265      1.0  0.32983  0.38830  0.92969  1.0000
  S   S266      1.0  0.27385  0.38114  0.95176  1.0000
  Fe  Fe135     1.0  0.31212  0.43187  0.96016  1.0000
  S   S267      1.0  0.34340  0.42517  0.94393  1.0000
  H   H2039     1.0  0.36747  0.07385  0.79874  1.0000
  Fe  Fe136     1.0  0.32948  0.42120  0.91873  1.0000
  S   S268      1.0  0.34206  0.43703  0.88821  1.0000
  Fe  Fe137     1.0  0.34119  0.39306  0.95640  1.0000
  S   S269      1.0  0.29810  0.43070  0.93402  1.0000
  S   S270      1.0  0.37459  0.04238  0.66209  1.0000
  H   H2040     1.0  0.26933  0.10505  0.89790  1.0000
  C   C1145     1.0  0.44858  0.47944  0.75904  1.0000
  C   C1146     1.0  0.25246  0.39229  0.94104  1.0000
  H   H2041     1.0  0.32324  0.00464  0.87910  1.0000
  H   H2042     1.0  0.39238  0.41912  0.94865  1.0000
  H   H2043     1.0  0.42601  0.11581  0.81309  1.0000
  S   S271      1.0  0.30107  0.45687  0.97810  1.0000
  H   H2044     1.0  0.35362  0.12476  0.71376  1.0000
  H   H2045     1.0  0.29350  0.40150  0.83682  1.0000
  S   S272      1.0  0.30767  0.06437  0.96188  1.0000
  H   H2046     1.0  0.26481  0.41769  0.92356  1.0000
  H   H2047     1.0  0.29902  0.48354  0.74196  1.0000
  C   C1147     1.0  0.46913  0.08917  0.85509  1.0000
  C   C1148     1.0  0.46939  0.10442  0.86578  1.0000
  N   N64       1.0  0.32978  0.99866  0.73958  1.0000
  H   H2048     1.0  0.28680  0.43961  0.65932  1.0000
  H   H2049     1.0  0.45559  0.11417  0.87025  1.0000
  S   S273      1.0  0.45018  0.98744  0.84423  1.0000
  C   C1149     1.0  0.40247  0.02778  0.72730  1.0000
  C   C1150     1.0  0.39841  0.02491  0.74834  1.0000
  C   C1151     1.0  0.40898  0.03316  0.75911  1.0000
  C   C1152     1.0  0.42377  0.04440  0.74899  1.0000
  C   C1153     1.0  0.42767  0.04746  0.72793  1.0000
  C   C1154     1.0  0.41704  0.03926  0.71713  1.0000
  H   H2050     1.0  0.38708  0.01620  0.75637  1.0000
  H   H2051     1.0  0.40545  0.03098  0.77522  1.0000
  H   H2052     1.0  0.43893  0.05627  0.71989  1.0000
  H   H2053     1.0  0.42018  0.04183  0.70096  1.0000
  C   C1155     1.0  0.28105  0.04046  0.88798  1.0000
  C   C1156     1.0  0.27046  0.02824  0.88164  1.0000
  H   H2054     1.0  0.29329  0.04635  0.87774  1.0000
  H   H2055     1.0  0.27452  0.02481  0.86661  1.0000
  C   C1157     1.0  0.32979  0.01265  0.81874  1.0000
  C   C1158     1.0  0.34777  0.13065  0.97900  1.0000
  C   C1159     1.0  0.35954  0.02753  0.81590  1.0000
  C   C1160     1.0  0.35148  0.03546  0.83346  1.0000
  C   C1161     1.0  0.33219  0.03259  0.84318  1.0000
  C   C1162     1.0  0.32137  0.02123  0.83587  1.0000
  H   H2056     1.0  0.36185  0.98928  0.73705  1.0000
  H   H2057     1.0  0.37426  0.02978  0.80813  1.0000
  H   H2058     1.0  0.32573  0.03884  0.85665  1.0000
  H   H2059     1.0  0.30668  0.01880  0.84369  1.0000
  C   C1163     1.0  0.42309  0.38809  0.75096  1.0000
  C   C1164     1.0  0.44363  0.38077  0.74904  1.0000
  C   C1165     1.0  0.45077  0.36216  0.75990  1.0000
  C   C1166     1.0  0.43736  0.35058  0.77240  1.0000
  C   C1167     1.0  0.41678  0.35765  0.77389  1.0000
  C   C1168     1.0  0.40964  0.37653  0.76346  1.0000
  H   H2060     1.0  0.45408  0.38962  0.73927  1.0000
  H   H2061     1.0  0.46666  0.35689  0.75868  1.0000
  H   H2062     1.0  0.40635  0.34845  0.78305  1.0000
  H   H2063     1.0  0.39375  0.38195  0.76473  1.0000
  C   C1169     1.0  0.33504  0.41928  0.83000  1.0000
  C   C1170     1.0  0.33036  0.40680  0.84841  1.0000
  C   C1171     1.0  0.33249  0.41201  0.86642  1.0000
  C   C1172     1.0  0.33934  0.42975  0.86606  1.0000
  C   C1173     1.0  0.34433  0.44203  0.84764  1.0000
  C   C1174     1.0  0.34216  0.43685  0.82967  1.0000
  H   H2064     1.0  0.32516  0.39302  0.84876  1.0000
  H   H2065     1.0  0.32886  0.40235  0.88056  1.0000
  H   H2066     1.0  0.34973  0.45574  0.84726  1.0000
  H   H2067     1.0  0.34576  0.44662  0.81559  1.0000
  H   H2068     1.0  0.41114  0.08965  0.97669  1.0000
  H   H2069     1.0  0.27852  0.17313  0.97375  1.0000
  N   N65       1.0  0.30249  0.40959  0.66686  1.0000
  H   H2070     1.0  0.46348  0.22738  0.73567  1.0000
  C   C1175     1.0  0.48731  0.99178  0.82236  1.0000
  H   H2071     1.0  0.46526  0.33082  0.68848  1.0000
  H   H2072     1.0  0.26645  0.44665  0.85861  1.0000
  H   H2073     1.0  0.31001  0.37780  0.66545  1.0000
  H   H2074     1.0  0.24467  0.38891  0.89292  1.0000
  S   S274      1.0  0.23937  0.00733  0.88634  1.0000
  H   H2075     1.0  0.48170  0.26127  0.86648  1.0000
  H   H2076     1.0  0.45787  0.33199  0.97094  1.0000
  H   H2077     1.0  0.31413  0.00571  0.71431  1.0000
  C   C1176     1.0  0.25973  0.03781  0.92041  1.0000
  C   C1177     1.0  0.35447  0.12577  0.72937  1.0000
  C   C1178     1.0  0.27018  0.45672  0.69857  1.0000
  C   C1179     1.0  0.27670  0.44818  0.71689  1.0000
  C   C1180     1.0  0.29529  0.45067  0.72036  1.0000
  C   C1181     1.0  0.30749  0.46176  0.70549  1.0000
  H   H2078     1.0  0.27735  0.39938  0.78921  1.0000
  H   H2079     1.0  0.48435  0.07656  0.80193  1.0000
  H   H2080     1.0  0.34791  0.46518  0.94800  1.0000
  H   H2081     1.0  0.41492  0.99528  0.90753  1.0000
  H   H2082     1.0  0.33298  0.39096  0.72492  1.0000
  S   S275      1.0  0.24722  0.45215  0.69460  1.0000
  H   H2083     1.0  0.27508  0.41581  0.68784  1.0000
  H   H2084     1.0  0.34645  0.11461  0.74001  1.0000
  H   H2085     1.0  0.41564  0.37575  0.71492  1.0000
  H   H2086     1.0  0.41811  0.08773  0.73692  1.0000
  H   H2087     1.0  0.46160  0.36555  0.97324  1.0000
  H   H2088     1.0  0.46003  0.10463  0.76572  1.0000
  H   H2089     1.0  0.35557  0.00942  0.79552  1.0000
  H   H2090     1.0  0.28727  0.41902  0.79550  1.0000
  C   C1182     1.0  0.47623  0.21843  0.97683  1.0000
  H   H2091     1.0  0.46831  0.12488  0.77214  1.0000
  Fe  Fe138     1.0  0.47906  0.31617  0.77962  1.0000
  C   C1183     1.0  0.43321  0.45420  0.74758  1.0000
  C   C1184     1.0  0.33688  0.38956  0.65262  1.0000
  C   C1185     1.0  0.29201  0.00974  0.75225  1.0000
  N   N66       1.0  0.26609  0.40664  0.85786  1.0000
  C   C1186     1.0  0.44174  0.09562  0.66883  1.0000
  C   C1187     1.0  0.27653  0.41485  0.87081  1.0000
  C   C1188     1.0  0.25028  0.39233  0.67949  1.0000
  H   H2092     1.0  0.39392  0.08496  0.77291  1.0000
  H   H2093     1.0  0.37257  0.05812  0.77985  1.0000
  C   C1189     1.0  0.28400  0.40356  0.80078  1.0000
  C   C1190     1.0  0.36661  0.07355  0.78292  1.0000
  H   H2094     1.0  0.40288  0.99640  0.85612  1.0000
  C   C1191     1.0  0.34885  0.01604  0.80871  1.0000
  N   N67       1.0  0.44409  0.30675  0.72094  1.0000
  C   C1192     1.0  0.43012  0.32469  0.71237  1.0000
  H   H2095     1.0  0.41314  0.25825  0.70471  1.0000
  C   C1193     1.0  0.43660  0.30157  0.74315  1.0000
  C   C1194     1.0  0.46495  0.31117  0.71813  1.0000
  C   C1195     1.0  0.24162  0.09475  0.91245  1.0000
  C   C1196     1.0  0.43036  0.34477  0.71898  1.0000
  C   C1197     1.0  0.44735  0.28173  0.75408  1.0000
  C   C1198     1.0  0.28289  0.40413  0.67862  1.0000
  C   C1199     1.0  0.47485  0.16016  0.96762  1.0000
  C   C1200     1.0  0.25418  0.02109  0.89451  1.0000
  C   C1201     1.0  0.43727  0.27697  0.77589  1.0000
  H   H2096     1.0  0.41445  0.32194  0.71664  1.0000
  C   C1202     1.0  0.27506  0.00468  0.76931  1.0000
  H   H2097     1.0  0.28552  0.39002  0.68948  1.0000
  H   H2098     1.0  0.32761  0.14825  0.73075  1.0000
  H   H2099     1.0  0.42031  0.30116  0.74608  1.0000
  H   H2100     1.0  0.43816  0.31350  0.75108  1.0000
  C   C1203     1.0  0.30083  0.47057  0.68730  1.0000
  C   C1204     1.0  0.34329  0.14647  0.73310  1.0000
  H   H2101     1.0  0.30185  0.39952  0.71120  1.0000
  H   H2102     1.0  0.25882  0.37763  0.85741  1.0000
  H   H2103     1.0  0.42693  0.34345  0.73551  1.0000
  H   H2104     1.0  0.44511  0.34961  0.71371  1.0000
  H   H2105     1.0  0.46308  0.28278  0.75412  1.0000
  H   H2106     1.0  0.44715  0.26885  0.74693  1.0000
  H   H2107     1.0  0.41967  0.27613  0.72965  1.0000
  H   H2108     1.0  0.43299  0.26775  0.68642  1.0000
  C   C1205     1.0  0.48110  0.22981  0.70603  1.0000
  H   H2109     1.0  0.45134  0.08923  0.79980  1.0000
  H   H2110     1.0  0.24758  0.11962  0.88837  1.0000
  C   C1206     1.0  0.28449  0.44542  0.88078  1.0000
  C   C1207     1.0  0.37654  0.12309  0.73186  1.0000
  H   H2111     1.0  0.47633  0.20990  0.96474  1.0000
  H   H2112     1.0  0.43738  0.28909  0.78416  1.0000
  H   H2113     1.0  0.42161  0.27504  0.77671  1.0000
  H   H2114     1.0  0.44550  0.26287  0.78332  1.0000
  N   N68       1.0  0.38892  0.10257  0.73102  1.0000
  C   C1208     1.0  0.42760  0.26354  0.70273  1.0000
  C   C1209     1.0  0.39185  0.09719  0.71030  1.0000
  H   H2115     1.0  0.27130  0.44680  0.89289  1.0000
  C   C1210     1.0  0.37606  0.08617  0.70617  1.0000
  C   C1211     1.0  0.37846  0.08520  0.68392  1.0000
  H   H2116     1.0  0.26983  0.38055  0.89748  1.0000
  H   H2117     1.0  0.38898  0.07168  0.74457  1.0000
  H   H2118     1.0  0.33242  0.48033  0.93054  1.0000
  H   H2119     1.0  0.39305  0.11078  0.69859  1.0000
  H   H2120     1.0  0.40634  0.08693  0.70718  1.0000
  H   H2121     1.0  0.43627  0.44217  0.76043  1.0000
  H   H2122     1.0  0.27875  0.00583  0.78390  1.0000
  C   C1212     1.0  0.47479  0.31795  0.69619  1.0000
  H   H2123     1.0  0.37791  0.07051  0.71434  1.0000
  H   H2124     1.0  0.36060  0.09336  0.71109  1.0000
  H   H2125     1.0  0.39265  0.07535  0.67912  1.0000
  H   H2126     1.0  0.36596  0.07884  0.68129  1.0000
  H   H2127     1.0  0.37832  0.10031  0.67461  1.0000
  H   H2128     1.0  0.24236  0.40236  0.69036  1.0000
  H   H2129     1.0  0.48137  0.36767  0.81372  1.0000
  H   H2130     1.0  0.38309  0.13431  0.71976  1.0000
  H   H2131     1.0  0.43735  0.21762  0.97200  1.0000
  H   H2132     1.0  0.32865  0.41772  0.67392  1.0000
  H   H2133     1.0  0.26159  0.41566  0.65771  1.0000
  C   C1213     1.0  0.26691  0.38453  0.86574  1.0000
  H   H2134     1.0  0.41763  0.36362  0.69372  1.0000
  H   H2135     1.0  0.24858  0.08650  0.92549  1.0000
  H   H2136     1.0  0.42547  0.11212  0.70515  1.0000
  H   H2137     1.0  0.27511  0.39094  0.65519  1.0000
  C   C1214     1.0  0.37496  0.06424  0.95350  1.0000
  H   H2138     1.0  0.34882  0.98697  0.76195  1.0000
  H   H2139     1.0  0.44285  0.42090  0.97938  1.0000
  H   H2140     1.0  0.27228  0.98930  0.76992  1.0000
  H   H2141     1.0  0.41303  0.29297  0.70761  1.0000
  C   C1215     1.0  0.42218  0.11680  0.72004  1.0000
  S   S276      1.0  0.36813  0.37310  0.96778  1.0000
  C   C1216     1.0  0.26223  0.15607  0.96267  1.0000
  C   C1217     1.0  0.42492  0.28134  0.71354  1.0000
  H   H2142     1.0  0.34858  0.01007  0.69808  1.0000
  H   H2143     1.0  0.35298  0.98912  0.67201  1.0000
  H   H2144     1.0  0.27877  0.42533  0.83098  1.0000
  C   C1218     1.0  0.45500  0.10455  0.79702  1.0000
  H   H2145     1.0  0.35665  0.13226  0.96414  1.0000
  H   H2146     1.0  0.24340  0.35526  0.88626  1.0000
  S   S277      1.0  0.31744  0.99717  0.80963  1.0000
  Fe  Fe139     1.0  0.25237  0.99226  0.85907  1.0000
  C   C1219     1.0  0.25337  0.11153  0.90217  1.0000
  H   H2147     1.0  0.31465  0.99530  0.77041  1.0000
  H   H2148     1.0  0.45053  0.10036  0.72812  1.0000
  C   C1220     1.0  0.25883  0.37900  0.88845  1.0000
  H   H2149     1.0  0.44503  0.46963  0.77361  1.0000
  H   H2150     1.0  0.32871  0.41726  0.71477  1.0000
  C   C1221     1.0  0.26952  0.40231  0.82070  1.0000
  H   H2151     1.0  0.48050  0.06814  0.78076  1.0000
  C   C1222     1.0  0.48377  0.40708  0.97943  1.0000
  H   H2152     1.0  0.25544  0.37727  0.68776  1.0000
  H   H2153     1.0  0.28263  0.37654  0.86317  1.0000
  S   S278      1.0  0.39568  0.99550  0.66338  1.0000
  H   H2154     1.0  0.26909  0.34687  0.89012  1.0000
  C   C1223     1.0  0.46837  0.10846  0.77623  1.0000
  C   C1224     1.0  0.34462  0.99486  0.70261  1.0000
  C   C1225     1.0  0.46641  0.36555  0.81199  1.0000
  N   N69       1.0  0.41223  0.39567  0.82334  1.0000
  C   C1226     1.0  0.39388  0.39228  0.81680  1.0000
  C   C1227     1.0  0.41613  0.41655  0.81412  1.0000
  C   C1228     1.0  0.42972  0.38113  0.81473  1.0000
  C   C1229     1.0  0.41059  0.39221  0.84591  1.0000
  C   C1230     1.0  0.38946  0.39766  0.85837  1.0000
  C   C1231     1.0  0.38969  0.37044  0.82238  1.0000
  C   C1232     1.0  0.45074  0.38343  0.81751  1.0000
  C   C1233     1.0  0.40055  0.43420  0.82122  1.0000
  C   C1234     1.0  0.40543  0.45427  0.80921  1.0000
  C   C1235     1.0  0.39060  0.39712  0.88033  1.0000
  C   C1236     1.0  0.36909  0.36912  0.81871  1.0000
  H   H2155     1.0  0.24989  0.35400  0.91049  1.0000
  H   H2156     1.0  0.39521  0.39635  0.80018  1.0000
  H   H2157     1.0  0.38029  0.40230  0.82273  1.0000
  H   H2158     1.0  0.43034  0.41900  0.81748  1.0000
  H   H2159     1.0  0.41795  0.41847  0.79744  1.0000
  H   H2160     1.0  0.43014  0.38217  0.79832  1.0000
  H   H2161     1.0  0.42802  0.36545  0.82158  1.0000
  H   H2162     1.0  0.41581  0.37615  0.85171  1.0000
  H   H2163     1.0  0.42087  0.40049  0.85012  1.0000
  H   H2164     1.0  0.37973  0.38689  0.85810  1.0000
  H   H2165     1.0  0.38166  0.41263  0.85265  1.0000
  H   H2166     1.0  0.40069  0.36071  0.81301  1.0000
  H   H2167     1.0  0.39085  0.36399  0.83821  1.0000
  H   H2168     1.0  0.45091  0.38463  0.83324  1.0000
  H   H2169     1.0  0.45550  0.39690  0.80742  1.0000
  H   H2170     1.0  0.38530  0.43314  0.81958  1.0000
  H   H2171     1.0  0.40079  0.43460  0.83714  1.0000
  H   H2172     1.0  0.42007  0.45671  0.81153  1.0000
  H   H2173     1.0  0.26108  0.01531  0.76700  1.0000
  H   H2174     1.0  0.39373  0.46662  0.81424  1.0000
  H   H2175     1.0  0.39891  0.40876  0.88171  1.0000
  H   H2176     1.0  0.37527  0.40018  0.88898  1.0000
  H   H2177     1.0  0.39799  0.38216  0.88699  1.0000
  H   H2178     1.0  0.35733  0.37699  0.82919  1.0000
  H   H2179     1.0  0.36725  0.37587  0.80303  1.0000
  H   H2180     1.0  0.36720  0.35321  0.82129  1.0000
  C   C1237     1.0  0.44634  0.36179  0.97815  1.0000
  H   H2181     1.0  0.43309  0.32705  0.69569  1.0000
  H   H2182     1.0  0.35069  0.07750  0.78109  1.0000
  Fe  Fe140     1.0  0.46471  0.15915  0.65990  1.0000
  H   H2183     1.0  0.28976  0.14247  0.94536  1.0000
  C   C1238     1.0  0.31611  0.39857  0.70037  1.0000
  H   H2184     1.0  0.30022  0.44388  0.73444  1.0000
  C   C1239     1.0  0.44926  0.46751  0.74212  1.0000
  H   H2185     1.0  0.44837  0.08799  0.68180  1.0000
  Fe  Fe141     1.0  0.29862  0.09588  0.96769  1.0000
  H   H2186     1.0  0.29268  0.43773  0.85133  1.0000
  H   H2187     1.0  0.43315  0.44710  0.73456  1.0000
  H   H2188     1.0  0.48057  0.42332  0.97341  1.0000
  H   H2189     1.0  0.24336  0.08442  0.90162  1.0000
  H   H2190     1.0  0.46525  0.32265  0.72717  1.0000
  H   H2191     1.0  0.41818  0.46312  0.75148  1.0000
  C   C1240     1.0  0.33304  0.02003  0.73655  1.0000
  C   C1241     1.0  0.47872  0.24624  0.87442  1.0000
  H   H2192     1.0  0.43828  0.36636  0.96526  1.0000
  C   C1242     1.0  0.28223  0.46811  0.68385  1.0000
  C   C1243     1.0  0.33492  0.02760  0.75564  1.0000
  H   H2193     1.0  0.29140  0.40547  0.87231  1.0000
  Fe  Fe142     1.0  0.28780  0.98765  0.82569  1.0000
  C   C1244     1.0  0.25204  0.41017  0.92732  1.0000
  H   H2194     1.0  0.26958  0.15235  0.93143  1.0000
  C   C1245     1.0  0.33853  0.04922  0.75068  1.0000
  H   H2195     1.0  0.23930  0.42335  0.87316  1.0000
  H   H2196     1.0  0.30584  0.42866  0.68662  1.0000
  H   H2197     1.0  0.47121  0.45595  0.79067  1.0000
  H   H2198     1.0  0.41591  0.43088  0.96480  1.0000
  H   H2199     1.0  0.32105  0.03044  0.72937  1.0000
  H   H2200     1.0  0.34699  0.02206  0.72578  1.0000
  C   C1246     1.0  0.43527  0.11921  0.79809  1.0000
  H   H2201     1.0  0.36833  0.05984  0.96944  1.0000
  C   C1247     1.0  0.31373  0.39230  0.65656  1.0000
  H   H2202     1.0  0.34308  0.14830  0.74876  1.0000
  H   H2203     1.0  0.24485  0.43207  0.84715  1.0000
  H   H2204     1.0  0.29354  0.02541  0.75207  1.0000
  H   H2205     1.0  0.34778  0.01855  0.76232  1.0000
  H   H2206     1.0  0.32123  0.02692  0.76711  1.0000
  H   H2207     1.0  0.47328  0.17500  0.95878  1.0000
  H   H2208     1.0  0.43942  0.12112  0.74138  1.0000
  H   H2209     1.0  0.42687  0.11781  0.78650  1.0000
  H   H2210     1.0  0.43848  0.25097  0.70906  1.0000
  C   C1248     1.0  0.26788  0.40110  0.66608  1.0000
  H   H2211     1.0  0.38725  0.00326  0.88824  1.0000
  H   H2212     1.0  0.47628  0.27138  0.93458  1.0000
  C   C1249     1.0  0.27980  0.43689  0.86383  1.0000
  C   C1250     1.0  0.41428  0.39955  0.97886  1.0000
  H   H2213     1.0  0.33952  0.05422  0.76467  1.0000
  H   H2214     1.0  0.35280  0.05036  0.74010  1.0000
  H   H2215     1.0  0.32605  0.05921  0.74398  1.0000
  N   N70       1.0  0.35282  0.07853  0.90356  1.0000
  C   C1251     1.0  0.36753  0.07382  0.91793  1.0000
  C   C1252     1.0  0.36427  0.08094  0.88242  1.0000
  C   C1253     1.0  0.33856  0.09744  0.90757  1.0000
  C   C1254     1.0  0.34089  0.06196  0.90631  1.0000
  C   C1255     1.0  0.35308  0.04073  0.90499  1.0000
  C   C1256     1.0  0.35888  0.06768  0.94039  1.0000
  C   C1257     1.0  0.32337  0.10573  0.89298  1.0000
  C   C1258     1.0  0.37495  0.09944  0.87573  1.0000
  C   C1259     1.0  0.38732  0.09933  0.85477  1.0000
  C   C1260     1.0  0.33913  0.02534  0.90921  1.0000
  C   C1261     1.0  0.40479  0.42201  0.97437  1.0000
  C   C1262     1.0  0.31076  0.12553  0.89781  1.0000
  H   H2216     1.0  0.37463  0.08707  0.91709  1.0000
  H   H2217     1.0  0.38009  0.06184  0.91355  1.0000
  H   H2218     1.0  0.37600  0.06756  0.88040  1.0000
  H   H2219     1.0  0.35442  0.08138  0.87140  1.0000
  H   H2220     1.0  0.34688  0.10951  0.90788  1.0000
  H   H2221     1.0  0.32940  0.09498  0.92277  1.0000
  H   H2222     1.0  0.33038  0.06135  0.92081  1.0000
  H   H2223     1.0  0.33122  0.06506  0.89463  1.0000
  H   H2224     1.0  0.36344  0.03608  0.91599  1.0000
  H   H2225     1.0  0.36191  0.04012  0.88976  1.0000
  H   H2226     1.0  0.34695  0.07957  0.94577  1.0000
  H   H2227     1.0  0.35265  0.05367  0.94298  1.0000
  H   H2228     1.0  0.31295  0.09513  0.89433  1.0000
  H   H2229     1.0  0.33091  0.10843  0.87716  1.0000
  H   H2230     1.0  0.36400  0.11355  0.87531  1.0000
  H   H2231     1.0  0.38529  0.09958  0.88597  1.0000
  H   H2232     1.0  0.39935  0.08603  0.85483  1.0000
  H   H2233     1.0  0.37778  0.09911  0.84373  1.0000
  H   H2234     1.0  0.39445  0.11291  0.85005  1.0000
  H   H2235     1.0  0.34799  0.01022  0.90828  1.0000
  H   H2236     1.0  0.33008  0.02515  0.92447  1.0000
  H   H2237     1.0  0.32887  0.02900  0.89806  1.0000
  C   C1263     1.0  0.43094  0.08544  0.66013  1.0000
  S   S279      1.0  0.32304  0.11469  0.96246  1.0000
  C   C1264     1.0  0.44403  0.11556  0.66087  1.0000
  H   H2238     1.0  0.30264  0.12353  0.91348  1.0000
  H   H2239     1.0  0.32035  0.13706  0.89583  1.0000
  H   H2240     1.0  0.29963  0.13089  0.88758  1.0000
  H   H2241     1.0  0.40781  0.10797  0.75019  1.0000
  H   H2242     1.0  0.44648  0.47808  0.72816  1.0000
  H   H2243     1.0  0.25034  0.16898  0.95938  1.0000
  H   H2244     1.0  0.47517  0.29768  0.72404  1.0000
  H   H2245     1.0  0.46295  0.35145  0.82188  1.0000
  H   H2246     1.0  0.34271  0.38411  0.66692  1.0000
  H   H2247     1.0  0.35861  0.47224  0.92207  1.0000
  H   H2248     1.0  0.47900  0.12377  0.73852  1.0000
  C   C1265     1.0  0.27566  0.04542  0.90731  1.0000
  C   C1266     1.0  0.38734  0.42470  0.96315  1.0000
  C   C1267     1.0  0.31170  0.99509  0.75526  1.0000
  H   H2249     1.0  0.45685  0.27712  0.71401  1.0000
  C   C1268     1.0  0.48552  0.24626  0.73296  1.0000
  H   H2250     1.0  0.38105  0.07821  0.95215  1.0000
  H   H2251     1.0  0.34705  0.40018  0.70108  1.0000
  H   H2252     1.0  0.26800  0.41395  0.88629  1.0000
  C   C1269     1.0  0.37876  0.08844  0.76885  1.0000
  C   C1270     1.0  0.40920  0.10305  0.73553  1.0000
  H   H2253     1.0  0.38728  0.05213  0.94911  1.0000
  C   C1271     1.0  0.27780  0.40931  0.83680  1.0000
  H   H2254     1.0  0.48719  0.08506  0.74795  1.0000
  C   C1272     1.0  0.44204  0.11588  0.72678  1.0000
  H   H2255     1.0  0.46557  0.24287  0.86968  1.0000
  H   H2256     1.0  0.29823  0.39311  0.80243  1.0000
  H   H2257     1.0  0.40581  0.45493  0.79295  1.0000
  H   H2258     1.0  0.25558  0.04134  0.93539  1.0000
  H   H2259     1.0  0.46237  0.10583  0.80930  1.0000
  C   C1273     1.0  0.27714  0.15495  0.94316  1.0000
  H   H2260     1.0  0.37166  0.10365  0.77179  1.0000
  H   H2261     1.0  0.42441  0.00166  0.88124  1.0000
  C   C1274     1.0  0.48126  0.45313  0.77655  1.0000
  H   H2262     1.0  0.26740  0.43943  0.72838  1.0000
  H   H2263     1.0  0.41477  0.13266  0.71836  1.0000
  S   S280      1.0  0.27469  0.10311  0.94842  1.0000
  H   H2264     1.0  0.43800  0.13482  0.79596  1.0000
  Fe  Fe143     1.0  0.28216  0.07066  0.94494  1.0000
  C   C1275     1.0  0.38003  0.08661  0.74658  1.0000
  H   H2265     1.0  0.45268  0.40026  0.96685  1.0000
  C   C1276     1.0  0.44468  0.28968  0.71017  1.0000
  S   S281      1.0  0.28877  0.06171  0.91415  1.0000
  H   H2266     1.0  0.32719  0.99986  0.67849  1.0000
  H   H2267     1.0  0.44866  0.29438  0.69369  1.0000
  H   H2268     1.0  0.46701  0.36407  0.79616  1.0000
  H   H2269     1.0  0.35041  0.15841  0.72256  1.0000
  C   C1277     1.0  0.32649  0.99449  0.72000  1.0000
  H   H2270     1.0  0.36488  0.08565  0.74447  1.0000
  H   H2271     1.0  0.47431  0.44397  0.76935  1.0000
  H   H2272     1.0  0.47521  0.24654  0.89078  1.0000
  H   H2273     1.0  0.29725  0.43562  0.88717  1.0000
  H   H2274     1.0  0.32005  0.38323  0.69671  1.0000
  H   H2275     1.0  0.28858  0.46047  0.87491  1.0000
  H   H2276     1.0  0.45116  0.12581  0.71563  1.0000
  H   H2277     1.0  0.42937  0.07013  0.66644  1.0000
  H   H2278     1.0  0.48138  0.24874  0.74831  1.0000
  C   C1278     1.0  0.24892  0.02584  0.91395  1.0000
  C   C1279     1.0  0.45822  0.23590  0.97536  1.0000
  H   H2279     1.0  0.46321  0.99729  0.77318  1.0000
  H   H2280     1.0  0.27724  0.47494  0.66980  1.0000
  H   H2281     1.0  0.37554  0.41639  0.97232  1.0000
  H   H2282     1.0  0.42057  0.39518  0.96396  1.0000
  H   H2283     1.0  0.25239  0.12228  0.91242  1.0000
  H   H2284     1.0  0.45878  0.24382  0.95965  1.0000
  S   S282      1.0  0.31082  0.40008  0.97460  1.0000
  C   C1280     1.0  0.48506  0.47280  0.76207  1.0000
  S   S283      1.0  0.26014  0.06048  0.97178  1.0000
  C   C1281     1.0  0.24499  0.41812  0.85850  1.0000
  H   H2285     1.0  0.31016  0.47925  0.67575  1.0000
  H   H2286     1.0  0.38073  0.44079  0.96008  1.0000
  H   H2287     1.0  0.25596  0.14202  0.96673  1.0000
  H   H2288     1.0  0.36136  0.00189  0.86702  1.0000
  H   H2289     1.0  0.34849  0.32710  0.96859  1.0000
  H   H2290     1.0  0.28311  0.16917  0.93782  1.0000
  H   H2291     1.0  0.28557  0.14679  0.98081  1.0000
  H   H2292     1.0  0.48013  0.00540  0.81428  1.0000
  H   H2293     1.0  0.32435  0.44188  0.64902  1.0000
  H   H2294     1.0  0.38001  0.99671  0.83546  1.0000
  C   C1282     1.0  0.27241  0.15901  0.97955  1.0000
  H   H2295     1.0  0.47775  0.30543  0.68759  1.0000
  Fe  Fe144     1.0  0.25452  0.09256  0.97667  1.0000
  H   H2296     1.0  0.23959  0.39091  0.67008  1.0000
  C   C1283     1.0  0.33979  0.98902  0.68415  1.0000
  H   H2297     1.0  0.48714  0.12176  0.80519  1.0000
  C   C1284     1.0  0.34748  0.47735  0.93479  1.0000
  C   C1285     1.0  0.39725  0.98853  0.88792  1.0000
  C   C1286     1.0  0.32509  0.98807  0.88222  1.0000
  H   H2298     1.0  0.42581  0.24095  0.98038  1.0000
  C   C1287     1.0  0.41725  0.99043  0.89274  1.0000
  C   C1288     1.0  0.43836  0.22822  0.98174  1.0000
  C   C1289     1.0  0.48731  0.10722  0.87083  1.0000
  H   H2299     1.0  0.48713  0.11904  0.87901  1.0000
  C   C1290     1.0  0.36275  0.98539  0.87220  1.0000
  C   C1291     1.0  0.48719  0.07673  0.84951  1.0000
  H   H2300     1.0  0.48735  0.06487  0.84141  1.0000
  H   H2301     1.0  0.35798  0.98431  0.70682  1.0000
  H   H2302     1.0  0.36549  0.48406  0.97859  1.0000
  C   C1292     1.0  0.34786  0.98506  0.74658  1.0000
  H   H2303     1.0  0.43106  0.97517  0.20225  1.0000
  S   S284      1.0  0.44896  0.59229  0.25364  1.0000
  H   H2304     1.0  0.32728  0.51031  0.99520  1.0000
  Fe  Fe145     1.0  0.34856  0.50803  0.26487  1.0000
  S   S285      1.0  0.28217  0.53161  0.05370  1.0000
  S   S286      1.0  0.32994  0.51289  0.29515  1.0000
  Fe  Fe146     1.0  0.38820  0.51338  0.23664  1.0000
  H   H2305     1.0  0.36640  0.96904  0.18610  1.0000
  S   S287      1.0  0.41866  0.52287  0.22669  1.0000
  Fe  Fe147     1.0  0.35119  0.51226  0.21984  1.0000
  S   S288      1.0  0.33622  0.52659  0.19312  1.0000
  H   H2306     1.0  0.27546  0.49613  0.08349  1.0000
  S   S289      1.0  0.35757  0.53209  0.23909  1.0000
  H   H2307     1.0  0.29441  0.54491  0.00748  1.0000
  C   C1293     1.0  0.27874  0.49179  0.29737  1.0000
  C   C1294     1.0  0.26325  0.51686  0.05952  1.0000
  H   H2308     1.0  0.29874  0.92504  0.02740  1.0000
  H   H2309     1.0  0.44302  0.67950  0.28501  1.0000
  H   H2310     1.0  0.40190  0.73275  0.99839  1.0000
  S   S290      1.0  0.26862  0.94187  0.09300  1.0000
  C   C1295     1.0  0.39342  0.86577  0.22554  1.0000
  Fe  Fe148     1.0  0.26224  0.94614  0.12517  1.0000
  S   S291      1.0  0.28507  0.95863  0.13612  1.0000
  Fe  Fe149     1.0  0.39197  0.90813  0.15852  1.0000
  S   S292      1.0  0.41454  0.88019  0.16382  1.0000
  S   S293      1.0  0.36052  0.90123  0.16611  1.0000
  Fe  Fe150     1.0  0.42447  0.93416  0.14485  1.0000
  S   S294      1.0  0.44906  0.90803  0.14904  1.0000
  S   S295      1.0  0.43251  0.96481  0.13247  1.0000
  Fe  Fe151     1.0  0.43199  0.89245  0.13449  1.0000
  S   S296      1.0  0.44412  0.87568  0.10843  1.0000
  Fe  Fe152     1.0  0.42916  0.89866  0.17796  1.0000
  S   S297      1.0  0.44251  0.88667  0.20622  1.0000
  S   S298      1.0  0.40849  0.91930  0.12822  1.0000
  S   S299      1.0  0.40545  0.92583  0.17470  1.0000
  C   C1296     1.0  0.25798  0.94279  0.03128  1.0000
  S   S300      1.0  0.33732  0.51986  0.03442  1.0000
  H   H2311     1.0  0.26066  0.89591  0.99274  1.0000
  Fe  Fe153     1.0  0.34199  0.49834  0.09002  1.0000
  S   S301      1.0  0.32821  0.53038  0.08040  1.0000
  H   H2312     1.0  0.43157  0.58295  0.17531  1.0000
  Fe  Fe154     1.0  0.31279  0.51795  0.06115  1.0000
  Fe  Fe155     1.0  0.35349  0.53026  0.05424  1.0000
  S   S302      1.0  0.36876  0.55738  0.04423  1.0000
  H   H2313     1.0  0.26344  0.84955  0.03940  1.0000
  S   S303      1.0  0.36864  0.49935  0.06547  1.0000
  H   H2314     1.0  0.29825  0.87837  0.98898  1.0000
  S   S304      1.0  0.44589  0.81942  0.00492  1.0000
  C   C1297     1.0  0.31316  0.86908  0.98550  1.0000
  S   S305      1.0  0.38002  0.49110  0.26412  1.0000
  H   H2315     1.0  0.39237  0.50668  0.99277  1.0000
  H   H2316     1.0  0.38366  0.50495  0.11060  1.0000
  C   C1298     1.0  0.25541  0.92792  0.99367  1.0000
  H   H2317     1.0  0.45638  0.95678  0.27445  1.0000
  H   H2318     1.0  0.30915  0.55705  0.29080  1.0000
  H   H2319     1.0  0.41196  0.54533  0.04504  1.0000
  C   C1299     1.0  0.42978  0.89416  0.26452  1.0000
  Fe  Fe156     1.0  0.23803  0.95935  0.09116  1.0000
  H   H2320     1.0  0.28757  0.57644  0.29297  1.0000
  H   H2321     1.0  0.32986  0.53565  0.99101  1.0000
  H   H2322     1.0  0.43956  0.60305  0.00208  1.0000
  C   C1300     1.0  0.37653  0.56425  0.01829  1.0000
  C   C1301     1.0  0.38011  0.58380  0.01060  1.0000
  C   C1302     1.0  0.48541  0.81792  0.98790  1.0000
  C   C1303     1.0  0.47584  0.59071  0.18618  1.0000
  C   C1304     1.0  0.41948  0.55167  0.05447  1.0000
  H   H2323     1.0  0.24061  0.49769  0.98935  1.0000
  H   H2324     1.0  0.37729  0.59466  0.02054  1.0000
  S   S306      1.0  0.26570  0.84811  0.99519  1.0000
  S   S307      1.0  0.40247  0.91949  0.28707  1.0000
  H   H2325     1.0  0.37748  0.53519  0.01123  1.0000
  H   H2326     1.0  0.46598  0.58307  0.01638  1.0000
  H   H2327     1.0  0.43353  0.95053  0.19633  1.0000
  H   H2328     1.0  0.44261  0.48811  0.19930  1.0000
  H   H2329     1.0  0.46416  0.91027  0.01595  1.0000
  C   C1305     1.0  0.45118  0.96191  0.23604  1.0000
  C   C1306     1.0  0.48146  0.90158  0.25749  1.0000
  H   H2330     1.0  0.44636  0.61792  0.15139  1.0000
  H   H2331     1.0  0.47682  0.68178  0.29019  1.0000
  H   H2332     1.0  0.45689  0.59239  0.15393  1.0000
  C   C1307     1.0  0.43298  0.95895  0.20857  1.0000
  C   C1308     1.0  0.43181  0.89643  0.22846  1.0000
  C   C1309     1.0  0.41648  0.91300  0.22861  1.0000
  C   C1310     1.0  0.40763  0.91994  0.24666  1.0000
  C   C1311     1.0  0.41427  0.91059  0.26467  1.0000
  C   C1312     1.0  0.43851  0.88712  0.24647  1.0000
  H   H2333     1.0  0.41140  0.92046  0.21484  1.0000
  H   H2334     1.0  0.39575  0.93274  0.24665  1.0000
  C   C1313     1.0  0.44996  0.56574  0.99211  1.0000
  H   H2335     1.0  0.26060  0.92054  0.05836  1.0000
  C   C1314     1.0  0.25545  0.87874  0.07564  1.0000
  H   H2336     1.0  0.46728  0.56498  0.17713  1.0000
  C   C1315     1.0  0.45288  0.97011  0.14096  1.0000
  C   C1316     1.0  0.46216  0.95648  0.15557  1.0000
  H   H2337     1.0  0.23941  0.65593  0.01439  1.0000
  H   H2338     1.0  0.45707  0.54602  0.10056  1.0000
  H   H2339     1.0  0.34530  0.79828  0.00591  1.0000
  C   C1317     1.0  0.30599  0.94264  0.14452  1.0000
  C   C1318     1.0  0.32444  0.94929  0.14048  1.0000
  C   C1319     1.0  0.34144  0.93663  0.14668  1.0000
  C   C1320     1.0  0.33990  0.91744  0.15739  1.0000
  C   C1321     1.0  0.32140  0.91092  0.16167  1.0000
  C   C1322     1.0  0.30448  0.92349  0.15528  1.0000
  H   H2340     1.0  0.32561  0.96420  0.13229  1.0000
  H   H2341     1.0  0.35566  0.94178  0.14331  1.0000
  H   H2342     1.0  0.32012  0.89609  0.17001  1.0000
  H   H2343     1.0  0.29018  0.91852  0.15882  1.0000
  H   H2344     1.0  0.45603  0.55554  0.12322  1.0000
  H   H2345     1.0  0.44142  0.54745  0.02032  1.0000
  H   H2346     1.0  0.25442  0.96905  0.99178  1.0000
  H   H2347     1.0  0.26321  0.58038  0.07051  1.0000
  C   C1323     1.0  0.36845  0.89819  0.22220  1.0000
  N   N71       1.0  0.46000  0.60697  0.17793  1.0000
  H   H2348     1.0  0.35852  0.49766  0.99924  1.0000
  H   H2349     1.0  0.41050  0.64780  0.02303  1.0000
  H   H2350     1.0  0.25260  0.71968  0.00435  1.0000
  H   H2351     1.0  0.39202  0.55874  0.07547  1.0000
  H   H2352     1.0  0.44565  0.89380  0.98539  1.0000
  C   C1324     1.0  0.46401  0.66703  0.26167  1.0000
  H   H2353     1.0  0.45297  0.51716  0.16033  1.0000
  H   H2354     1.0  0.26011  0.55649  0.08610  1.0000
  H   H2355     1.0  0.35458  0.95361  0.22054  1.0000
  H   H2356     1.0  0.36056  0.92495  0.28189  1.0000
  C   C1325     1.0  0.44687  0.55151  0.11366  1.0000
  C   C1326     1.0  0.34000  0.51354  0.17293  1.0000
  C   C1327     1.0  0.46877  0.65197  0.19987  1.0000
  H   H2357     1.0  0.28187  0.86288  0.05963  1.0000
  C   C1328     1.0  0.34539  0.49347  0.14010  1.0000
  C   C1329     1.0  0.33589  0.51341  0.13874  1.0000
  C   C1330     1.0  0.33310  0.52336  0.15517  1.0000
  C   C1331     1.0  0.46526  0.73594  0.25362  1.0000
  S   S308      1.0  0.33983  0.48979  0.24573  1.0000
  H   H2358     1.0  0.33045  0.52110  0.12515  1.0000
  H   H2359     1.0  0.32550  0.53872  0.15413  1.0000
  H   H2360     1.0  0.30735  0.57480  0.30714  1.0000
  H   H2361     1.0  0.46718  0.54595  0.03470  1.0000
  C   C1332     1.0  0.40723  0.54978  0.07561  1.0000
  H   H2362     1.0  0.42639  0.63954  0.00120  1.0000
  H   H2363     1.0  0.43422  0.54215  0.05529  1.0000
  C   C1333     1.0  0.44078  0.57183  0.24794  1.0000
  C   C1334     1.0  0.42034  0.57064  0.25204  1.0000
  C   C1335     1.0  0.41334  0.55519  0.24641  1.0000
  C   C1336     1.0  0.42676  0.54104  0.23632  1.0000
  C   C1337     1.0  0.44722  0.54205  0.23254  1.0000
  C   C1338     1.0  0.45422  0.55722  0.23856  1.0000
  H   H2364     1.0  0.40986  0.58182  0.25944  1.0000
  H   H2365     1.0  0.39755  0.55455  0.24941  1.0000
  H   H2366     1.0  0.45769  0.53104  0.22492  1.0000
  H   H2367     1.0  0.46997  0.55773  0.23585  1.0000
  H   H2368     1.0  0.41464  0.55504  0.08588  1.0000
  H   H2369     1.0  0.44019  0.57283  0.19891  1.0000
  H   H2370     1.0  0.47952  0.88596  0.99630  1.0000
  H   H2371     1.0  0.45631  0.94293  0.16245  1.0000
  H   H2372     1.0  0.32499  0.87789  0.98506  1.0000
  C   C1339     1.0  0.45638  0.76574  0.03886  1.0000
  C   C1340     1.0  0.29052  0.53276  0.00145  1.0000
  H   H2373     1.0  0.48653  0.93411  0.23010  1.0000
  C   C1341     1.0  0.46390  0.73264  0.07299  1.0000
  H   H2374     1.0  0.45659  0.80543  0.09076  1.0000
  C   C1342     1.0  0.45073  0.75324  0.02521  1.0000
  C   C1343     1.0  0.44637  0.70762  0.30635  1.0000
  C   C1344     1.0  0.47109  0.81956  0.00517  1.0000
  H   H2375     1.0  0.26454  0.49504  0.99707  1.0000
  C   C1345     1.0  0.42812  0.75597  0.02668  1.0000
  H   H2376     1.0  0.39176  0.75768  0.00362  1.0000
  H   H2377     1.0  0.45446  0.78156  0.03102  1.0000
  H   H2378     1.0  0.44489  0.76560  0.05262  1.0000
  H   H2379     1.0  0.27464  0.53683  0.99946  1.0000
  H   H2380     1.0  0.24178  0.91155  0.02155  1.0000
  C   C1346     1.0  0.35839  0.94397  0.20879  1.0000
  C   C1347     1.0  0.37998  0.55033  0.00534  1.0000
  C   C1348     1.0  0.34950  0.91845  0.24810  1.0000
  C   C1349     1.0  0.43965  0.60502  0.19024  1.0000
  C   C1350     1.0  0.46977  0.79777  0.08146  1.0000
  H   H2381     1.0  0.33414  0.88531  0.24501  1.0000
  C   C1351     1.0  0.45233  0.95239  0.21723  1.0000
  H   H2382     1.0  0.45252  0.66070  0.25705  1.0000
  H   H2383     1.0  0.42847  0.61821  0.18535  1.0000
  H   H2384     1.0  0.40126  0.63410  0.00829  1.0000
  H   H2385     1.0  0.45719  0.75822  0.00931  1.0000
  C   C1352     1.0  0.46844  0.87585  0.00305  1.0000
  C   C1353     1.0  0.32609  0.89322  0.21537  1.0000
  H   H2386     1.0  0.47776  0.62892  0.13839  1.0000
  C   C1354     1.0  0.45940  0.60701  0.15620  1.0000
  H   H2387     1.0  0.46824  0.92460  0.27497  1.0000
  H   H2388     1.0  0.42114  0.74946  0.04189  1.0000
  H   H2389     1.0  0.42166  0.77210  0.02348  1.0000
  H   H2390     1.0  0.26805  0.90992  0.03568  1.0000
  C   C1355     1.0  0.35163  0.91270  0.28505  1.0000
  H   H2391     1.0  0.31458  0.85590  0.99767  1.0000
  H   H2392     1.0  0.44613  0.69620  0.26126  1.0000
  C   C1356     1.0  0.46787  0.86073  0.10835  1.0000
  H   H2393     1.0  0.27166  0.97793  0.06469  1.0000
  C   C1357     1.0  0.46641  0.96617  0.26367  1.0000
  H   H2394     1.0  0.40273  0.87145  0.23371  1.0000
  H   H2395     1.0  0.44950  0.73365  0.06791  1.0000
  C   C1358     1.0  0.34980  0.49367  0.17420  1.0000
  C   C1359     1.0  0.44125  0.86846  0.03090  1.0000
  C   C1360     1.0  0.45231  0.49784  0.18859  1.0000
  H   H2396     1.0  0.48147  0.58931  0.12303  1.0000
  H   H2397     1.0  0.30206  0.50239  0.27424  1.0000
  C   C1361     1.0  0.45432  0.87844  0.98752  1.0000
  H   H2398     1.0  0.27030  0.48926  0.28683  1.0000
  H   H2399     1.0  0.44539  0.76422  0.24643  1.0000
  C   C1362     1.0  0.41525  0.85443  0.05893  1.0000
  H   H2400     1.0  0.42678  0.90398  0.04787  1.0000
  H   H2401     1.0  0.43977  0.60497  0.20635  1.0000
  H   H2402     1.0  0.47707  0.86037  0.00377  1.0000
  N   N72       1.0  0.46211  0.71251  0.28831  1.0000
  H   H2403     1.0  0.42730  0.53087  0.11493  1.0000
  H   H2404     1.0  0.42773  0.87740  0.02508  1.0000
  H   H2405     1.0  0.44439  0.85443  0.02445  1.0000
  C   C1363     1.0  0.43138  0.58584  0.19054  1.0000
  C   C1364     1.0  0.34532  0.80233  0.98994  1.0000
  H   H2406     1.0  0.37021  0.89540  0.26378  1.0000
  H   H2407     1.0  0.44064  0.90727  0.01230  1.0000
  H   H2408     1.0  0.47764  0.80940  0.07132  1.0000
  H   H2409     1.0  0.44600  0.52190  0.13028  1.0000
  C   C1365     1.0  0.33146  0.89911  0.23389  1.0000
  H   H2410     1.0  0.38086  0.90428  0.22543  1.0000
  H   H2411     1.0  0.47170  0.58673  0.20277  1.0000
  Fe  Fe157     1.0  0.34993  0.48886  0.04817  1.0000
  H   H2412     1.0  0.44680  0.63315  0.20854  1.0000
  C   C1366     1.0  0.35651  0.95768  0.18869  1.0000
  H   H2413     1.0  0.40327  0.86709  0.05501  1.0000
  H   H2414     1.0  0.41535  0.84216  0.05070  1.0000
  H   H2415     1.0  0.26870  0.94753  0.01776  1.0000
  H   H2416     1.0  0.46576  0.56441  0.99378  1.0000
  C   C1367     1.0  0.25514  0.57295  0.08475  1.0000
  H   H2417     1.0  0.47947  0.67077  0.01304  1.0000
  C   C1368     1.0  0.26321  0.50048  0.07514  1.0000
  H   H2418     1.0  0.27051  0.92710  0.99705  1.0000
  C   C1369     1.0  0.48082  0.57104  0.17718  1.0000
  H   H2419     1.0  0.40568  0.53389  0.08135  1.0000
  H   H2420     1.0  0.42462  0.74817  0.01562  1.0000
  N   N73       1.0  0.47069  0.95994  0.24332  1.0000
  H   H2421     1.0  0.39903  0.86906  0.20919  1.0000
  H   H2422     1.0  0.41337  0.50887  0.18729  1.0000
  C   C1370     1.0  0.42182  0.51879  0.17534  1.0000
  H   H2423     1.0  0.39501  0.84929  0.23022  1.0000
  H   H2424     1.0  0.44091  0.74365  0.23631  1.0000
  H   H2425     1.0  0.34089  0.96550  0.18852  1.0000
  H   H2426     1.0  0.32869  0.93656  0.21733  1.0000
  C   C1371     1.0  0.46434  0.62719  0.17923  1.0000
  C   C1372     1.0  0.48163  0.93865  0.24515  1.0000
  H   H2427     1.0  0.43836  0.72596  0.27130  1.0000
  H   H2428     1.0  0.37417  0.93660  0.20834  1.0000
  H   H2429     1.0  0.47493  0.73459  0.29754  1.0000
  H   H2430     1.0  0.41991  0.95596  0.22030  1.0000
  S   S309      1.0  0.26892  0.88767  0.09017  1.0000
  H   H2431     1.0  0.47329  0.89047  0.26812  1.0000
  H   H2432     1.0  0.33963  0.88708  0.20548  1.0000
  H   H2433     1.0  0.29664  0.90964  0.05187  1.0000
  C   C1373     1.0  0.30773  0.50270  0.30364  1.0000
  H   H2434     1.0  0.43307  0.73835  0.31199  1.0000
  H   H2435     1.0  0.40995  0.49883  0.11171  1.0000
  C   C1374     1.0  0.43667  0.93221  0.03954  1.0000
  C   C1375     1.0  0.25535  0.85913  0.04998  1.0000
  Fe  Fe158     1.0  0.25358  0.91500  0.10410  1.0000
  H   H2436     1.0  0.39962  0.59799  0.19213  1.0000
  H   H2437     1.0  0.48076  0.70988  0.31064  1.0000
  N   N74       1.0  0.34865  0.91053  0.22952  1.0000
  C   C1376     1.0  0.29006  0.92370  0.04286  1.0000
  C   C1377     1.0  0.48037  0.93605  0.09041  1.0000
  C   C1378     1.0  0.44126  0.90936  0.04256  1.0000
  H   H2438     1.0  0.36698  0.87202  0.24689  1.0000
  H   H2439     1.0  0.28046  0.54331  0.31184  1.0000
  H   H2440     1.0  0.46704  0.65506  0.21534  1.0000
  C   C1379     1.0  0.34415  0.92837  0.21342  1.0000
  C   C1380     1.0  0.48116  0.77369  0.05636  1.0000
  C   C1381     1.0  0.46665  0.55904  0.04185  1.0000
  H   H2441     1.0  0.33459  0.95900  0.06795  1.0000
  H   H2442     1.0  0.44880  0.93380  0.09897  1.0000
  H   H2443     1.0  0.30829  0.87430  0.20791  1.0000
  C   C1382     1.0  0.31225  0.87767  0.22153  1.0000
  C   C1383     1.0  0.47696  0.82129  0.02287  1.0000
  H   H2444     1.0  0.36114  0.94887  0.17625  1.0000
  H   H2445     1.0  0.45898  0.55642  0.05765  1.0000
  H   H2446     1.0  0.34458  0.89124  0.27046  1.0000
  H   H2447     1.0  0.45749  0.93880  0.07235  1.0000
  H   H2448     1.0  0.43987  0.95541  0.24814  1.0000
  H   H2449     1.0  0.40815  0.59277  0.21597  1.0000
  C   C1384     1.0  0.26578  0.86662  0.06154  1.0000
  H   H2450     1.0  0.48693  0.55060  0.20435  1.0000
  H   H2451     1.0  0.25625  0.95439  0.04089  1.0000
  H   H2452     1.0  0.23870  0.74387  0.99599  1.0000
  H   H2453     1.0  0.47168  0.69645  0.03561  1.0000
  C   C1385     1.0  0.47981  0.60585  0.12110  1.0000
  H   H2454     1.0  0.45300  0.79521  0.05964  1.0000
  C   C1386     1.0  0.47580  0.84967  0.09282  1.0000
  C   C1387     1.0  0.37155  0.87537  0.23046  1.0000
  S   S310      1.0  0.48476  0.93590  0.30869  1.0000
  S   S311      1.0  0.24941  0.91773  0.13679  1.0000
  H   H2455     1.0  0.45693  0.70733  0.09579  1.0000
  H   H2456     1.0  0.29827  0.88344  0.23119  1.0000
  S   S312      1.0  0.38220  0.49516  0.21567  1.0000
  H   H2457     1.0  0.47252  0.70044  0.07318  1.0000
  H   H2458     1.0  0.45065  0.90435  0.05443  1.0000
  H   H2459     1.0  0.45624  0.73702  0.02915  1.0000
  H   H2460     1.0  0.47797  0.85552  0.03907  1.0000
  H   H2461     1.0  0.45928  0.66427  0.19135  1.0000
  H   H2462     1.0  0.42691  0.93820  0.02803  1.0000
  H   H2463     1.0  0.47690  0.74378  0.25578  1.0000
  H   H2464     1.0  0.46047  0.64236  0.01195  1.0000
  C   C1388     1.0  0.35435  0.90275  0.26662  1.0000
  H   H2465     1.0  0.46697  0.84972  0.08167  1.0000
  C   C1389     1.0  0.47885  0.71860  0.29551  1.0000
  C   C1390     1.0  0.29680  0.49914  0.29020  1.0000
  N   N75       1.0  0.43557  0.57800  0.02621  1.0000
  C   C1391     1.0  0.47913  0.86004  0.12317  1.0000
  C   C1392     1.0  0.42089  0.57390  0.04538  1.0000
  C   C1393     1.0  0.42812  0.59843  0.01502  1.0000
  C   C1394     1.0  0.45591  0.57849  0.03051  1.0000
  C   C1395     1.0  0.46975  0.69375  0.27917  1.0000
  H   H2466     1.0  0.29109  0.93660  0.04966  1.0000
  C   C1396     1.0  0.42220  0.61594  0.02721  1.0000
  H   H2467     1.0  0.41195  0.84877  0.07528  1.0000
  C   C1397     1.0  0.41464  0.63550  0.01408  1.0000
  H   H2468     1.0  0.33516  0.92839  0.25259  1.0000
  C   C1398     1.0  0.46303  0.78495  0.06932  1.0000
  H   H2469     1.0  0.42390  0.58127  0.05712  1.0000
  H   H2470     1.0  0.40538  0.58068  0.04289  1.0000
  H   H2471     1.0  0.43286  0.70500  0.30160  1.0000
  H   H2472     1.0  0.31705  0.97036  0.08723  1.0000
  S   S313      1.0  0.45101  0.89659  0.31185  1.0000
  H   H2473     1.0  0.45502  0.59022  0.03966  1.0000
  H   H2474     1.0  0.48376  0.67248  0.04700  1.0000
  H   H2475     1.0  0.34455  0.92331  0.19903  1.0000
  H   H2476     1.0  0.37532  0.73986  0.00689  1.0000
  H   H2477     1.0  0.43510  0.61834  0.03306  1.0000
  H   H2478     1.0  0.41005  0.61313  0.04006  1.0000
  H   H2479     1.0  0.36130  0.92789  0.24509  1.0000
  H   H2480     1.0  0.31977  0.86357  0.22970  1.0000
  H   H2481     1.0  0.39236  0.48572  0.13017  1.0000
  N   N76       1.0  0.45868  0.87971  0.02391  1.0000
  H   H2482     1.0  0.46225  0.75560  0.22523  1.0000
  H   H2483     1.0  0.47200  0.65510  0.27199  1.0000
  H   H2484     1.0  0.47739  0.95251  0.09006  1.0000
  H   H2485     1.0  0.33566  0.91892  0.28966  1.0000
  H   H2486     1.0  0.31821  0.90659  0.20646  1.0000
  C   C1399     1.0  0.45240  0.72947  0.27409  1.0000
  H   H2487     1.0  0.47985  0.62883  0.17164  1.0000
  H   H2488     1.0  0.31768  0.90814  0.24110  1.0000
  H   H2489     1.0  0.45485  0.93581  0.22110  1.0000
  H   H2490     1.0  0.35681  0.90150  0.29770  1.0000
  H   H2491     1.0  0.37119  0.89950  0.20557  1.0000
  H   H2492     1.0  0.30808  0.95911  0.07023  1.0000
  H   H2493     1.0  0.44293  0.49450  0.16202  1.0000
  C   C1400     1.0  0.47825  0.61245  0.14125  1.0000
  H   H2494     1.0  0.45368  0.53460  0.98814  1.0000
  C   C1401     1.0  0.26829  0.92297  0.04257  1.0000
  H   H2495     1.0  0.43482  0.88665  0.27836  1.0000
  C   C1402     1.0  0.46247  0.63187  0.20061  1.0000
  H   H2496     1.0  0.46593  0.82281  0.03620  1.0000
  H   H2497     1.0  0.44764  0.74320  0.28103  1.0000
  H   H2498     1.0  0.47232  0.72308  0.24590  1.0000
  S   S314      1.0  0.24790  0.80604  0.01187  1.0000
  H   H2499     1.0  0.47188  0.61988  0.20949  1.0000
  H   H2500     1.0  0.45033  0.87425  0.24652  1.0000
  H   H2501     1.0  0.43659  0.56509  0.10808  1.0000
  H   H2502     1.0  0.45426  0.63941  0.17116  1.0000
  C   C1403     1.0  0.47008  0.92269  0.25911  1.0000
  Fe  Fe159     1.0  0.48212  0.59269  0.25025  1.0000
  C   C1404     1.0  0.45162  0.90196  0.02270  1.0000
  S   S315      1.0  0.30556  0.80006  0.99931  1.0000
  C   C1405     1.0  0.24730  0.52242  0.04885  1.0000
  C   C1406     1.0  0.45260  0.75075  0.23961  1.0000
  H   H2503     1.0  0.44460  0.97800  0.23239  1.0000
  H   H2504     1.0  0.36267  0.86782  0.22357  1.0000
  H   H2505     1.0  0.25923  0.57794  0.09745  1.0000
  C   C1407     1.0  0.40978  0.58747  0.20150  1.0000
  N   N77       1.0  0.40992  0.52719  0.15857  1.0000
  C   C1408     1.0  0.40676  0.51023  0.14952  1.0000
  H   H2506     1.0  0.45510  0.92366  0.25541  1.0000
  C   C1409     1.0  0.38956  0.53712  0.16780  1.0000
  C   C1410     1.0  0.41993  0.54269  0.14334  1.0000
  C   C1411     1.0  0.43514  0.53517  0.12546  1.0000
  C   C1412     1.0  0.39211  0.51621  0.13421  1.0000
  C   C1413     1.0  0.38954  0.55333  0.18037  1.0000
  H   H2507     1.0  0.48663  0.94937  0.17206  1.0000
  H   H2508     1.0  0.43498  0.87296  0.06286  1.0000
  H   H2509     1.0  0.42103  0.56295  0.01030  1.0000
  H   H2510     1.0  0.40078  0.49851  0.16158  1.0000
  C   C1414     1.0  0.36894  0.56614  0.18451  1.0000
  H   H2511     1.0  0.44675  0.84829  0.05877  1.0000
  C   C1415     1.0  0.44305  0.50697  0.16980  1.0000
  H   H2512     1.0  0.42398  0.53095  0.18261  1.0000
  C   C1416     1.0  0.43553  0.86130  0.05382  1.0000
  H   H2513     1.0  0.38104  0.52575  0.17771  1.0000
  H   H2514     1.0  0.38038  0.54435  0.15599  1.0000
  H   H2515     1.0  0.40859  0.55445  0.13646  1.0000
  H   H2516     1.0  0.42766  0.55085  0.15095  1.0000
  H   H2517     1.0  0.42107  0.50245  0.14213  1.0000
  H   H2518     1.0  0.48210  0.62702  0.30395  1.0000
  H   H2519     1.0  0.37652  0.51778  0.14238  1.0000
  H   H2520     1.0  0.39393  0.53075  0.12443  1.0000
  H   H2521     1.0  0.40021  0.56348  0.17261  1.0000
  H   H2522     1.0  0.39371  0.54603  0.19516  1.0000
  C   C1417     1.0  0.45408  0.68493  0.27208  1.0000
  H   H2523     1.0  0.44365  0.86773  0.99220  1.0000
  C   C1418     1.0  0.39479  0.50040  0.12090  1.0000
  C   C1419     1.0  0.47410  0.87208  0.03749  1.0000
  C   C1420     1.0  0.47175  0.63007  0.00748  1.0000
  C   C1421     1.0  0.46146  0.93024  0.08679  1.0000
  C   C1422     1.0  0.48585  0.68554  0.03492  1.0000
  C   C1423     1.0  0.43637  0.56289  0.01293  1.0000
  C   C1424     1.0  0.38705  0.55598  0.98481  1.0000
  H   H2524     1.0  0.46808  0.87504  0.05292  1.0000
  C   C1425     1.0  0.38889  0.74508  0.99752  1.0000
  H   H2525     1.0  0.36966  0.57778  0.19316  1.0000
  H   H2526     1.0  0.36361  0.57363  0.17031  1.0000
  H   H2527     1.0  0.35804  0.55679  0.19362  1.0000
  H   H2528     1.0  0.40521  0.57254  0.20493  1.0000
  N   N78       1.0  0.33086  0.89937  0.09454  1.0000
  C   C1426     1.0  0.33188  0.88400  0.08150  1.0000
  C   C1427     1.0  0.31385  0.89691  0.11186  1.0000
  C   C1428     1.0  0.32574  0.91982  0.08220  1.0000
  C   C1429     1.0  0.35022  0.89829  0.10192  1.0000
  C   C1430     1.0  0.36350  0.87738  0.10560  1.0000
  C   C1431     1.0  0.34578  0.88685  0.06086  1.0000
  C   C1432     1.0  0.32238  0.93793  0.09325  1.0000
  C   C1433     1.0  0.31547  0.87674  0.12651  1.0000
  C   C1434     1.0  0.29568  0.87469  0.14063  1.0000
  C   C1435     1.0  0.38147  0.87841  0.11480  1.0000
  C   C1436     1.0  0.35052  0.86787  0.05149  1.0000
  C   C1437     1.0  0.32045  0.95775  0.07867  1.0000
  H   H2529     1.0  0.31668  0.88397  0.07845  1.0000
  H   H2530     1.0  0.33652  0.86864  0.08933  1.0000
  H   H2531     1.0  0.31215  0.90841  0.12140  1.0000
  H   H2532     1.0  0.29949  0.89952  0.10611  1.0000
  H   H2533     1.0  0.31200  0.92069  0.07588  1.0000
  H   H2534     1.0  0.33784  0.92254  0.06921  1.0000
  H   H2535     1.0  0.35994  0.90800  0.09111  1.0000
  H   H2536     1.0  0.34717  0.90458  0.11610  1.0000
  H   H2537     1.0  0.36946  0.87169  0.09129  1.0000
  H   H2538     1.0  0.35516  0.86623  0.11577  1.0000
  H   H2539     1.0  0.33828  0.89900  0.05033  1.0000
  H   H2540     1.0  0.36003  0.89099  0.06218  1.0000
  H   H2541     1.0  0.33483  0.93726  0.10132  1.0000
  H   H2542     1.0  0.30829  0.93829  0.10414  1.0000
  H   H2543     1.0  0.31932  0.86369  0.11867  1.0000
  H   H2544     1.0  0.32689  0.87600  0.13593  1.0000
  H   H2545     1.0  0.28381  0.87466  0.13199  1.0000
  H   H2546     1.0  0.29738  0.86039  0.15132  1.0000
  H   H2547     1.0  0.29097  0.88715  0.14934  1.0000
  H   H2548     1.0  0.39074  0.88902  0.10485  1.0000
  H   H2549     1.0  0.37647  0.88326  0.12965  1.0000
  H   H2550     1.0  0.39094  0.86340  0.11698  1.0000
  H   H2551     1.0  0.35984  0.87062  0.03643  1.0000
  H   H2552     1.0  0.35890  0.85540  0.06096  1.0000
  H   H2553     1.0  0.33652  0.86342  0.04976  1.0000
  H   H2554     1.0  0.29216  0.51872  0.01256  1.0000
  H   H2555     1.0  0.46643  0.61291  0.11416  1.0000
  H   H2556     1.0  0.47787  0.70385  0.99510  1.0000
  H   H2557     1.0  0.42877  0.93710  0.05387  1.0000
  Fe  Fe160     1.0  0.41975  0.91369  0.31275  1.0000
  H   H2558     1.0  0.48462  0.65180  0.19275  1.0000
  H   H2559     1.0  0.47292  0.86816  0.13545  1.0000
  S   S316      1.0  0.32409  0.48594  0.07317  1.0000
  H   H2560     1.0  0.46379  0.91399  0.08621  1.0000
  H   H2561     1.0  0.47483  0.67161  0.24810  1.0000
  H   H2562     1.0  0.24130  0.52810  0.31045  1.0000
  H   H2563     1.0  0.46461  0.95677  0.20519  1.0000
  H   H2564     1.0  0.41493  0.59791  0.00848  1.0000
  H   H2565     1.0  0.48183  0.69599  0.26614  1.0000
  H   H2566     1.0  0.46191  0.74254  0.08419  1.0000
  C   C1438     1.0  0.47925  0.96022  0.16111  1.0000
  C   C1439     1.0  0.24687  0.49020  0.08048  1.0000
  H   H2567     1.0  0.24743  0.53488  0.03655  1.0000
  H   H2568     1.0  0.46712  0.48864  0.18446  1.0000
  Fe  Fe161     1.0  0.27539  0.81589  0.99193  1.0000
  C   C1440     1.0  0.29866  0.56605  0.30136  1.0000
  H   H2569     1.0  0.45418  0.77454  0.07997  1.0000
  H   H2570     1.0  0.45069  0.93858  0.03486  1.0000
  H   H2571     1.0  0.47987  0.78836  0.09159  1.0000
  C   C1441     1.0  0.46945  0.71125  0.08374  1.0000
  H   H2572     1.0  0.45437  0.50979  0.19619  1.0000
  H   H2573     1.0  0.47469  0.93260  0.12250  1.0000
  C   C1442     1.0  0.38710  0.58944  0.99004  1.0000
  H   H2574     1.0  0.48232  0.72743  0.04463  1.0000
  N   N79       1.0  0.47708  0.75951  0.04406  1.0000
  H   H2575     1.0  0.44406  0.69226  0.98662  1.0000
  H   H2576     1.0  0.44702  0.98310  0.29694  1.0000
  C   C1443     1.0  0.48580  0.92520  0.11102  1.0000
  H   H2577     1.0  0.35506  0.48596  0.18790  1.0000
  C   C1444     1.0  0.24139  0.72773  0.99482  1.0000
  H   H2578     1.0  0.48277  0.71000  0.09074  1.0000
  H   H2579     1.0  0.48034  0.96333  0.27019  1.0000
  H   H2580     1.0  0.37678  0.80374  0.98273  1.0000
  C   C1445     1.0  0.24373  0.97664  0.00319  1.0000
  C   C1446     1.0  0.48032  0.73823  0.05506  1.0000
  C   C1447     1.0  0.47156  0.62283  0.98997  1.0000
  C   C1448     1.0  0.24810  0.49774  0.00206  1.0000
  C   C1449     1.0  0.38951  0.49424  0.98642  1.0000
  H   H2581     1.0  0.24367  0.51269  0.00669  1.0000
  C   C1450     1.0  0.48367  0.97303  0.22825  1.0000
  C   C1451     1.0  0.48665  0.62148  0.01908  1.0000
  S   S317      1.0  0.48703  0.63010  0.04105  1.0000
  H   H2582     1.0  0.48274  0.90972  0.11338  1.0000
  H   H2583     1.0  0.48276  0.89844  0.24208  1.0000
  H   H2584     1.0  0.38947  0.60464  0.98413  1.0000
  C   C1452     1.0  0.23939  0.92701  0.01282  1.0000
  C   C1453     1.0  0.48709  0.97768  0.15229  1.0000
  C   C1454     1.0  0.32616  0.52414  0.98384  1.0000
  C   C1455     1.0  0.36760  0.49729  0.98413  1.0000
  C   C1456     1.0  0.48715  0.63848  0.30929  1.0000
  C   C1457     1.0  0.32747  0.80473  0.98253  1.0000
  H   H2585     1.0  0.25250  0.98121  0.01275  1.0000
  C   C1458     1.0  0.48604  0.60676  0.98440  1.0000
  H   H2586     1.0  0.30743  0.75469  0.98659  1.0000
  H   H2587     1.0  0.34273  0.75556  0.98334  1.0000
  N   N80       1.0  0.23803  0.94232  0.02601  1.0000
  H   H2588     1.0  0.44528  0.58045  0.98301  1.0000
  C   C1459     1.0  0.25638  0.91040  0.98301  1.0000
  H   H2589     1.0  0.25151  0.94176  0.98299  1.0000
  H   H2590     1.0  0.44396  0.74842  0.52036  1.0000
  C   C1460     1.0  0.27142  0.48798  0.31802  1.0000
  C   C1461     1.0  0.46875  0.96373  0.33287  1.0000
  Fe  Fe162     1.0  0.44345  0.74753  0.61195  1.0000
  S   S318      1.0  0.41076  0.75098  0.60947  1.0000
  C   C1462     1.0  0.36681  0.97870  0.56476  1.0000
  Fe  Fe163     1.0  0.31342  0.71577  0.52505  1.0000
  S   S319      1.0  0.31136  0.74389  0.50207  1.0000
  S   S320      1.0  0.29315  0.69159  0.53280  1.0000
  Fe  Fe164     1.0  0.35265  0.72343  0.53502  1.0000
  S   S321      1.0  0.35340  0.75163  0.51227  1.0000
  S   S322      1.0  0.37971  0.70975  0.55011  1.0000
  Fe  Fe165     1.0  0.32064  0.75876  0.52425  1.0000
  S   S323      1.0  0.30656  0.79129  0.52646  1.0000
  Fe  Fe166     1.0  0.34432  0.73468  0.49221  1.0000
  S   S324      1.0  0.35681  0.73564  0.45918  1.0000
  S   S325      1.0  0.32018  0.73132  0.54838  1.0000
  S   S326      1.0  0.34602  0.70582  0.51382  1.0000
  Fe  Fe167     1.0  0.47013  0.74388  0.35788  1.0000
  S   S327      1.0  0.24292  0.56574  0.45879  1.0000
  S   S328      1.0  0.45753  0.77094  0.33702  1.0000
  Fe  Fe168     1.0  0.47406  0.69851  0.36440  1.0000
  H   H2591     1.0  0.47380  0.69769  0.48424  1.0000
  Fe  Fe169     1.0  0.46471  0.72068  0.40036  1.0000
  S   S329      1.0  0.45080  0.72274  0.43261  1.0000
  S   S330      1.0  0.44931  0.72278  0.37432  1.0000
  C   C1463     1.0  0.46888  0.98045  0.34125  1.0000
  S   S331      1.0  0.44944  0.91044  0.35488  1.0000
  H   H2592     1.0  0.25495  0.52216  0.38463  1.0000
  S   S332      1.0  0.40899  0.89995  0.34469  1.0000
  H   H2593     1.0  0.37990  0.87696  0.64283  1.0000
  Fe  Fe170     1.0  0.41806  0.92613  0.35321  1.0000
  S   S333      1.0  0.40149  0.93818  0.38146  1.0000
  Fe  Fe171     1.0  0.44100  0.88512  0.34446  1.0000
  S   S334      1.0  0.45192  0.85517  0.36259  1.0000
  H   H2594     1.0  0.25705  0.56903  0.37527  1.0000
  H   H2595     1.0  0.24503  0.97513  0.48171  1.0000
  Fe  Fe172     1.0  0.31391  0.88195  0.57606  1.0000
  S   S335      1.0  0.29761  0.89570  0.60303  1.0000
  S   S336      1.0  0.32594  0.84843  0.57930  1.0000
  Fe  Fe173     1.0  0.30859  0.92229  0.54867  1.0000
  S   S337      1.0  0.29181  0.93906  0.57330  1.0000
  S   S338      1.0  0.31274  0.93572  0.51597  1.0000
  Fe  Fe174     1.0  0.31527  0.92107  0.59119  1.0000
  S   S339      1.0  0.33292  0.93092  0.61147  1.0000
  Fe  Fe175     1.0  0.27579  0.91248  0.58282  1.0000
  H   H2596     1.0  0.26153  0.85289  0.49526  1.0000
  S   S340      1.0  0.33315  0.90588  0.56554  1.0000
  S   S341      1.0  0.29105  0.89716  0.55691  1.0000
  C   C1464     1.0  0.32307  0.95767  0.51011  1.0000
  H   H2597     1.0  0.48511  0.77597  0.41769  1.0000
  C   C1465     1.0  0.32553  0.98204  0.36947  1.0000
  C   C1466     1.0  0.47226  0.66770  0.60601  1.0000
  H   H2598     1.0  0.32737  0.95800  0.47834  1.0000
  C   C1467     1.0  0.43900  0.72363  0.32030  1.0000
  C   C1468     1.0  0.40708  0.88606  0.64602  1.0000
  H   H2599     1.0  0.25134  0.89672  0.55699  1.0000
  C   C1469     1.0  0.39014  0.96315  0.38302  1.0000
  H   H2600     1.0  0.47279  0.95433  0.37642  1.0000
  H   H2601     1.0  0.44672  0.74651  0.54611  1.0000
  H   H2602     1.0  0.39548  0.97421  0.35132  1.0000
  H   H2603     1.0  0.38249  0.95677  0.41522  1.0000
  C   C1470     1.0  0.24848  0.56525  0.36493  1.0000
  H   H2604     1.0  0.29790  0.51568  0.39297  1.0000
  C   C1471     1.0  0.25903  0.98133  0.47973  1.0000
  C   C1472     1.0  0.33793  0.95384  0.61610  1.0000
  H   H2605     1.0  0.25062  0.85544  0.56205  1.0000
  C   C1473     1.0  0.30727  0.97806  0.40450  1.0000
  H   H2606     1.0  0.47312  0.70553  0.51651  1.0000
  C   C1474     1.0  0.35357  0.95309  0.62663  1.0000
  H   H2607     1.0  0.35258  0.94490  0.56323  1.0000
  H   H2608     1.0  0.26499  0.84898  0.53050  1.0000
  C   C1475     1.0  0.45653  0.79457  0.34347  1.0000
  C   C1476     1.0  0.44528  0.81168  0.33381  1.0000
  C   C1477     1.0  0.44397  0.83053  0.33921  1.0000
  C   C1478     1.0  0.45385  0.83228  0.35436  1.0000
  C   C1479     1.0  0.46516  0.81521  0.36388  1.0000
  C   C1480     1.0  0.46663  0.79649  0.35835  1.0000
  C   C1481     1.0  0.23861  0.83422  0.54351  1.0000
  H   H2609     1.0  0.27588  0.96618  0.44430  1.0000
  C   C1482     1.0  0.48435  0.88696  0.60827  1.0000
  H   H2610     1.0  0.27739  0.95209  0.48919  1.0000
  C   C1483     1.0  0.38293  0.73185  0.45203  1.0000
  C   C1484     1.0  0.39548  0.73048  0.46590  1.0000
  C   C1485     1.0  0.41629  0.72758  0.45975  1.0000
  C   C1486     1.0  0.42466  0.72594  0.43976  1.0000
  C   C1487     1.0  0.41210  0.72729  0.42590  1.0000
  C   C1488     1.0  0.39128  0.73026  0.43203  1.0000
  H   H2611     1.0  0.38916  0.73159  0.48137  1.0000
  H   H2612     1.0  0.42592  0.72650  0.47056  1.0000
  H   H2613     1.0  0.41838  0.72604  0.41049  1.0000
  H   H2614     1.0  0.38162  0.73128  0.42127  1.0000
  C   C1489     1.0  0.31343  0.80679  0.54060  1.0000
  C   C1490     1.0  0.32259  0.79891  0.55743  1.0000
  C   C1491     1.0  0.32608  0.81181  0.56927  1.0000
  C   C1492     1.0  0.32076  0.83271  0.56427  1.0000
  C   C1493     1.0  0.31190  0.84057  0.54726  1.0000
  C   C1494     1.0  0.30820  0.82767  0.53556  1.0000
  H   H2615     1.0  0.32650  0.78286  0.56160  1.0000
  H   H2616     1.0  0.33265  0.80551  0.58255  1.0000
  H   H2617     1.0  0.30793  0.85660  0.54306  1.0000
  H   H2618     1.0  0.30134  0.83392  0.52244  1.0000
  C   C1495     1.0  0.40245  0.73942  0.59281  1.0000
  C   C1496     1.0  0.41557  0.72616  0.58142  1.0000
  C   C1497     1.0  0.40833  0.71704  0.56853  1.0000
  C   C1498     1.0  0.38811  0.72158  0.56644  1.0000
  C   C1499     1.0  0.37500  0.73480  0.57788  1.0000
  C   C1500     1.0  0.38211  0.74347  0.59119  1.0000
  H   H2619     1.0  0.43121  0.72277  0.58268  1.0000
  H   H2620     1.0  0.41842  0.70649  0.56002  1.0000
  H   H2621     1.0  0.35932  0.73807  0.57668  1.0000
  H   H2622     1.0  0.37173  0.75327  0.60031  1.0000
  C   C1501     1.0  0.25333  0.66608  0.50077  1.0000
  C   C1502     1.0  0.25973  0.68455  0.49251  1.0000
  C   C1503     1.0  0.27141  0.69281  0.50229  1.0000
  C   C1504     1.0  0.27715  0.68263  0.52043  1.0000
  C   C1505     1.0  0.27038  0.66438  0.52893  1.0000
  C   C1506     1.0  0.25869  0.65610  0.51917  1.0000
  H   H2623     1.0  0.41449  0.97821  0.61221  1.0000
  H   H2624     1.0  0.27598  0.70706  0.49579  1.0000
  H   H2625     1.0  0.27446  0.65639  0.54306  1.0000
  C   C1507     1.0  0.32750  0.97679  0.41132  1.0000
  H   H2626     1.0  0.47937  0.95391  0.62340  1.0000
  C   C1508     1.0  0.28391  0.51048  0.39252  1.0000
  C   C1509     1.0  0.24683  0.96273  0.52311  1.0000
  S   S342      1.0  0.48394  0.74353  0.38464  1.0000
  H   H2627     1.0  0.25103  0.52317  0.53427  1.0000
  C   C1510     1.0  0.44372  0.96317  0.39425  1.0000
  C   C1511     1.0  0.37258  0.86859  0.53980  1.0000
  H   H2628     1.0  0.39428  0.78145  0.56908  1.0000
  H   H2629     1.0  0.43751  0.81034  0.32220  1.0000
  N   N81       1.0  0.26202  0.55182  0.35119  1.0000
  H   H2630     1.0  0.26376  0.85548  0.61194  1.0000
  H   H2631     1.0  0.33074  0.96553  0.37187  1.0000
  H   H2632     1.0  0.40929  0.71572  0.33082  1.0000
  H   H2633     1.0  0.31499  0.98199  0.44181  1.0000
  S   S343      1.0  0.47271  0.79957  0.63227  1.0000
  Fe  Fe176     1.0  0.47825  0.72339  0.63150  1.0000
  H   H2634     1.0  0.39915  0.90161  0.64659  1.0000
  C   C1512     1.0  0.45410  0.78451  0.41377  1.0000
  H   H2635     1.0  0.27930  0.76474  0.59462  1.0000
  H   H2636     1.0  0.42393  0.79659  0.54283  1.0000
  H   H2637     1.0  0.36590  0.69972  0.60889  1.0000
  H   H2638     1.0  0.23858  0.86389  0.50946  1.0000
  H   H2639     1.0  0.47578  0.78360  0.36544  1.0000
  N   N82       1.0  0.33557  0.67209  0.47015  1.0000
  C   C1513     1.0  0.31779  0.68873  0.47130  1.0000
  C   C1514     1.0  0.33566  0.65938  0.49069  1.0000
  C   C1515     1.0  0.35416  0.68162  0.46492  1.0000
  C   C1516     1.0  0.33590  0.65953  0.45449  1.0000
  C   C1517     1.0  0.31538  0.65665  0.45069  1.0000
  C   C1518     1.0  0.31717  0.70525  0.45242  1.0000
  C   C1519     1.0  0.37441  0.66707  0.46486  1.0000
  C   C1520     1.0  0.31850  0.64717  0.49873  1.0000
  C   C1521     1.0  0.31869  0.63750  0.52065  1.0000
  C   C1522     1.0  0.31800  0.64074  0.43750  1.0000
  C   C1523     1.0  0.29653  0.71820  0.45259  1.0000
  C   C1524     1.0  0.39198  0.67804  0.45567  1.0000
  H   H2640     1.0  0.31713  0.69638  0.48424  1.0000
  H   H2641     1.0  0.30367  0.68273  0.47449  1.0000
  H   H2642     1.0  0.34939  0.64796  0.49097  1.0000
  H   H2643     1.0  0.33574  0.66891  0.50190  1.0000
  H   H2644     1.0  0.35359  0.69214  0.47535  1.0000
  H   H2645     1.0  0.35496  0.69095  0.44973  1.0000
  H   H2646     1.0  0.34376  0.66607  0.43963  1.0000
  H   H2647     1.0  0.34487  0.64443  0.45829  1.0000
  H   H2648     1.0  0.30762  0.67077  0.44284  1.0000
  H   H2649     1.0  0.30518  0.65215  0.46466  1.0000
  H   H2650     1.0  0.32782  0.71534  0.45198  1.0000
  H   H2651     1.0  0.32138  0.69881  0.43841  1.0000
  H   H2652     1.0  0.37521  0.65501  0.45618  1.0000
  H   H2653     1.0  0.37658  0.66023  0.48040  1.0000
  H   H2654     1.0  0.30372  0.65658  0.49785  1.0000
  H   H2655     1.0  0.32032  0.63487  0.49005  1.0000
  H   H2656     1.0  0.31649  0.64915  0.53022  1.0000
  H   H2657     1.0  0.30631  0.62875  0.52598  1.0000
  H   H2658     1.0  0.33302  0.62726  0.52236  1.0000
  H   H2659     1.0  0.30317  0.63936  0.43467  1.0000
  H   H2660     1.0  0.32754  0.64494  0.42285  1.0000
  H   H2661     1.0  0.32482  0.62597  0.44510  1.0000
  H   H2662     1.0  0.29663  0.72973  0.43884  1.0000
  H   H2663     1.0  0.28507  0.70895  0.45300  1.0000
  H   H2664     1.0  0.29252  0.72597  0.46580  1.0000
  H   H2665     1.0  0.39084  0.68548  0.44001  1.0000
  H   H2666     1.0  0.39241  0.68943  0.46474  1.0000
  H   H2667     1.0  0.40621  0.66726  0.45550  1.0000
  S   S344      1.0  0.46629  0.67339  0.35238  1.0000
  H   H2668     1.0  0.28210  0.57306  0.33940  1.0000
  H   H2669     1.0  0.26449  0.86921  0.58683  1.0000
  C   C1525     1.0  0.27287  0.54759  0.50841  1.0000
  S   S345      1.0  0.24580  0.50546  0.59903  1.0000
  H   H2670     1.0  0.26895  0.55192  0.52354  1.0000
  C   C1526     1.0  0.43637  0.67345  0.62403  1.0000
  H   H2671     1.0  0.24986  0.79150  0.59480  1.0000
  C   C1527     1.0  0.26655  0.85397  0.59587  1.0000
  H   H2672     1.0  0.42056  0.70898  0.63294  1.0000
  C   C1528     1.0  0.44446  0.81307  0.54848  1.0000
  H   H2673     1.0  0.46864  0.68034  0.59385  1.0000
  S   S346      1.0  0.46755  0.72253  0.60303  1.0000
  C   C1529     1.0  0.38917  0.97797  0.36602  1.0000
  C   C1530     1.0  0.45029  0.73845  0.53311  1.0000
  S   S347      1.0  0.46106  0.77147  0.59585  1.0000
  H   H2674     1.0  0.24051  0.83985  0.50201  1.0000
  C   C1531     1.0  0.38367  0.77198  0.53782  1.0000
  C   C1532     1.0  0.32678  0.97256  0.60997  1.0000
  H   H2675     1.0  0.36997  0.81650  0.62949  1.0000
  S   S348      1.0  0.42608  0.94120  0.32132  1.0000
  C   C1533     1.0  0.38190  0.96822  0.40202  1.0000
  C   C1534     1.0  0.47844  0.72006  0.51035  1.0000
  H   H2676     1.0  0.35661  0.86829  0.53980  1.0000
  H   H2677     1.0  0.38458  0.77165  0.52167  1.0000
  H   H2678     1.0  0.39674  0.79850  0.53061  1.0000
  H   H2679     1.0  0.46797  0.78103  0.44021  1.0000
  C   C1535     1.0  0.37864  0.95980  0.55649  1.0000
  C   C1536     1.0  0.30053  0.49866  0.32432  1.0000
  C   C1537     1.0  0.26876  0.52791  0.38429  1.0000
  C   C1538     1.0  0.25502  0.83990  0.56969  1.0000
  C   C1539     1.0  0.36730  0.80272  0.62528  1.0000
  H   H2680     1.0  0.38139  0.86641  0.52484  1.0000
  S   S349      1.0  0.24208  0.91584  0.59254  1.0000
  C   C1540     1.0  0.48651  0.70370  0.47390  1.0000
  H   H2681     1.0  0.45877  0.97535  0.41238  1.0000
  H   H2682     1.0  0.44316  0.72488  0.53733  1.0000
  H   H2683     1.0  0.37953  0.82971  0.59272  1.0000
  C   C1541     1.0  0.45868  0.67097  0.62586  1.0000
  H   H2684     1.0  0.41829  0.82346  0.53502  1.0000
  C   C1542     1.0  0.38042  0.85239  0.55628  1.0000
  H   H2685     1.0  0.41718  0.72913  0.34677  1.0000
  H   H2686     1.0  0.48086  0.71909  0.46688  1.0000
  Fe  Fe177     1.0  0.48606  0.74641  0.58925  1.0000
  H   H2687     1.0  0.36889  0.93760  0.58181  1.0000
  H   H2688     1.0  0.27718  0.48806  0.34745  1.0000
  H   H2689     1.0  0.27526  0.56120  0.49715  1.0000
  C   C1543     1.0  0.23929  0.53746  0.43777  1.0000
  H   H2690     1.0  0.25828  0.92277  0.49671  1.0000
  H   H2691     1.0  0.27302  0.93574  0.62320  1.0000
  H   H2692     1.0  0.28525  0.52577  0.35448  1.0000
  H   H2693     1.0  0.26271  0.95113  0.38481  1.0000
  H   H2694     1.0  0.37619  0.92869  0.55821  1.0000
  H   H2695     1.0  0.28849  0.77410  0.56885  1.0000
  C   C1544     1.0  0.25626  0.83904  0.52653  1.0000
  H   H2696     1.0  0.25444  0.97318  0.36739  1.0000
  C   C1545     1.0  0.24610  0.91374  0.50150  1.0000
  H   H2697     1.0  0.36999  0.80277  0.53567  1.0000
  H   H2698     1.0  0.42760  0.70310  0.34651  1.0000
  H   H2699     1.0  0.39398  0.95599  0.55998  1.0000
  H   H2700     1.0  0.36967  0.76681  0.54610  1.0000
  H   H2701     1.0  0.24906  0.59616  0.34969  1.0000
  H   H2702     1.0  0.46956  0.75800  0.43094  1.0000
  C   C1546     1.0  0.32528  0.96740  0.52520  1.0000
  C   C1547     1.0  0.37614  0.81639  0.58824  1.0000
  H   H2703     1.0  0.43272  0.76659  0.43223  1.0000
  H   H2704     1.0  0.45046  0.80084  0.55989  1.0000
  H   H2705     1.0  0.24215  0.91190  0.51807  1.0000
  H   H2706     1.0  0.29665  0.96108  0.37636  1.0000
  H   H2707     1.0  0.47924  0.74670  0.52324  1.0000
  H   H2708     1.0  0.42807  0.97670  0.43557  1.0000
  H   H2709     1.0  0.31679  0.98094  0.34081  1.0000
  H   H2710     1.0  0.28734  0.49856  0.38311  1.0000
  H   H2711     1.0  0.27134  0.83613  0.56418  1.0000
  H   H2712     1.0  0.39673  0.76159  0.54309  1.0000
  H   H2713     1.0  0.28150  0.91927  0.64484  1.0000
  H   H2714     1.0  0.41484  0.79939  0.57790  1.0000
  C   C1548     1.0  0.36839  0.94169  0.56550  1.0000
  H   H2715     1.0  0.45588  0.80044  0.40918  1.0000
  C   C1549     1.0  0.44952  0.98140  0.40037  1.0000
  C   C1550     1.0  0.35806  0.97068  0.63089  1.0000
  C   C1551     1.0  0.38362  0.79326  0.54070  1.0000
  H   H2716     1.0  0.37015  0.96979  0.63890  1.0000
  N   N83       1.0  0.38721  0.81370  0.56747  1.0000
  Fe  Fe178     1.0  0.47259  0.76914  0.62447  1.0000
  H   H2717     1.0  0.27032  0.97292  0.40590  1.0000
  H   H2718     1.0  0.31464  0.97348  0.60199  1.0000
  H   H2719     1.0  0.27297  0.80152  0.58820  1.0000
  H   H2720     1.0  0.32115  0.95583  0.43905  1.0000
  H   H2721     1.0  0.33897  0.96537  0.40433  1.0000
  H   H2722     1.0  0.25437  0.82686  0.60191  1.0000
  H   H2723     1.0  0.35237  0.98173  0.55924  1.0000
  H   H2724     1.0  0.40734  0.98202  0.55990  1.0000
  H   H2725     1.0  0.36228  0.93875  0.63154  1.0000
  H   H2726     1.0  0.25554  0.69259  0.47844  1.0000
  C   C1552     1.0  0.40115  0.67521  0.63942  1.0000
  N   N84       1.0  0.42150  0.67698  0.64273  1.0000
  C   C1553     1.0  0.45283  0.88604  0.63446  1.0000
  H   H2727     1.0  0.39630  0.79664  0.60768  1.0000
  H   H2728     1.0  0.27120  0.80732  0.55275  1.0000
  H   H2729     1.0  0.48098  0.75592  0.48489  1.0000
  C   C1554     1.0  0.46216  0.94768  0.38898  1.0000
  C   C1555     1.0  0.43284  0.78268  0.42567  1.0000
  C   C1556     1.0  0.42224  0.71744  0.33709  1.0000
  H   H2730     1.0  0.24127  0.96909  0.39274  1.0000
  H   H2731     1.0  0.45125  0.72562  0.32745  1.0000
  C   C1557     1.0  0.28830  0.55209  0.31856  1.0000
  C   C1558     1.0  0.25209  0.84166  0.59221  1.0000
  H   H2732     1.0  0.45429  0.81181  0.53379  1.0000
  H   H2733     1.0  0.26729  0.93812  0.53700  1.0000
  H   H2734     1.0  0.27757  0.50398  0.40800  1.0000
  H   H2735     1.0  0.26039  0.53567  0.48849  1.0000
  C   C1559     1.0  0.42319  0.81138  0.54707  1.0000
  H   H2736     1.0  0.45192  0.69336  0.31585  1.0000
  C   C1560     1.0  0.32585  0.97070  0.43405  1.0000
  H   H2737     1.0  0.36845  0.79116  0.57089  1.0000
  H   H2738     1.0  0.32083  0.96126  0.54078  1.0000
  H   H2739     1.0  0.39612  0.85364  0.55614  1.0000
  H   H2740     1.0  0.47847  0.72394  0.54123  1.0000
  C   C1561     1.0  0.24044  0.53833  0.56989  1.0000
  H   H2741     1.0  0.47213  0.90921  0.62700  1.0000
  H   H2742     1.0  0.43611  0.96790  0.38099  1.0000
  C   C1562     1.0  0.32880  0.96571  0.48997  1.0000
  C   C1563     1.0  0.48171  0.66232  0.33242  1.0000
  H   H2743     1.0  0.26070  0.52735  0.33665  1.0000
  H   H2744     1.0  0.37124  0.85579  0.57070  1.0000
  C   C1564     1.0  0.40913  0.81278  0.56738  1.0000
  H   H2745     1.0  0.38868  0.97307  0.59524  1.0000
  H   H2746     1.0  0.36111  0.68943  0.63519  1.0000
  N   N85       1.0  0.24384  0.82570  0.56407  1.0000
  H   H2747     1.0  0.38603  0.83022  0.53724  1.0000
  C   C1565     1.0  0.39235  0.69128  0.62287  1.0000
  C   C1566     1.0  0.27349  0.56407  0.33371  1.0000
  H   H2748     1.0  0.26138  0.94868  0.46099  1.0000
  C   C1567     1.0  0.48472  0.95732  0.31850  1.0000
  C   C1568     1.0  0.37887  0.83130  0.55292  1.0000
  H   H2749     1.0  0.36279  0.83110  0.55331  1.0000
  H   H2750     1.0  0.25111  0.52807  0.44508  1.0000
  C   C1569     1.0  0.41584  0.98277  0.59568  1.0000
  H   H2751     1.0  0.35376  0.96885  0.33833  1.0000
  H   H2752     1.0  0.47730  0.83826  0.63643  1.0000
  H   H2753     1.0  0.24191  0.53020  0.35755  1.0000
  H   H2754     1.0  0.45715  0.77752  0.40018  1.0000
  H   H2755     1.0  0.41154  0.82577  0.57326  1.0000
  H   H2756     1.0  0.29126  0.96985  0.47256  1.0000
  C   C1570     1.0  0.26305  0.79365  0.58302  1.0000
  C   C1571     1.0  0.38344  0.79435  0.56301  1.0000
  H   H2757     1.0  0.26663  0.50838  0.51701  1.0000
  H   H2758     1.0  0.43114  0.79064  0.43851  1.0000
  H   H2759     1.0  0.25164  0.50610  0.48822  1.0000
  N   N86       1.0  0.41580  0.79062  0.41406  1.0000
  C   C1572     1.0  0.39695  0.78560  0.42787  1.0000
  C   C1573     1.0  0.41983  0.78019  0.39599  1.0000
  C   C1574     1.0  0.41511  0.81288  0.40755  1.0000
  C   C1575     1.0  0.39782  0.82426  0.39649  1.0000
  C   C1576     1.0  0.39100  0.79489  0.44733  1.0000
  C   C1577     1.0  0.40143  0.77742  0.38786  1.0000
  C   C1578     1.0  0.40739  0.77166  0.36700  1.0000
  C   C1579     1.0  0.39718  0.84688  0.39329  1.0000
  C   C1580     1.0  0.37122  0.78941  0.45933  1.0000
  H   H2760     1.0  0.39833  0.76908  0.43242  1.0000
  H   H2761     1.0  0.38382  0.79010  0.42015  1.0000
  H   H2762     1.0  0.42968  0.78805  0.38337  1.0000
  H   H2763     1.0  0.42831  0.76472  0.39940  1.0000
  H   H2764     1.0  0.41494  0.82016  0.42056  1.0000
  H   H2765     1.0  0.42896  0.81602  0.39701  1.0000
  H   H2766     1.0  0.38311  0.82117  0.40496  1.0000
  H   H2767     1.0  0.40016  0.82008  0.38139  1.0000
  H   H2768     1.0  0.38915  0.81145  0.44380  1.0000
  H   H2769     1.0  0.39430  0.76527  0.39804  1.0000
  H   H2770     1.0  0.38999  0.79108  0.38680  1.0000
  H   H2771     1.0  0.41888  0.75797  0.36711  1.0000
  H   H2772     1.0  0.39415  0.76872  0.36208  1.0000
  H   H2773     1.0  0.41340  0.78401  0.35602  1.0000
  H   H2774     1.0  0.38496  0.85469  0.38491  1.0000
  H   H2775     1.0  0.39444  0.85220  0.40789  1.0000
  H   H2776     1.0  0.41144  0.85092  0.38439  1.0000
  H   H2777     1.0  0.35901  0.79491  0.45036  1.0000
  H   H2778     1.0  0.37249  0.77294  0.46392  1.0000
  H   H2779     1.0  0.36717  0.79629  0.47312  1.0000
  H   H2780     1.0  0.43426  0.66011  0.61852  1.0000
  C   C1581     1.0  0.27714  0.53797  0.36285  1.0000
  H   H2781     1.0  0.37254  0.67322  0.61690  1.0000
  H   H2782     1.0  0.46918  0.72767  0.49876  1.0000
  C   C1582     1.0  0.47538  0.64738  0.32537  1.0000
  H   H2783     1.0  0.40162  0.66048  0.63506  1.0000
  H   H2784     1.0  0.45632  0.95570  0.33774  1.0000
  H   H2785     1.0  0.36270  0.97490  0.58129  1.0000
  H   H2786     1.0  0.46978  0.94166  0.40215  1.0000
  H   H2787     1.0  0.37769  0.78466  0.60241  1.0000
  H   H2788     1.0  0.24088  0.56119  0.31872  1.0000
  H   H2789     1.0  0.35976  0.81924  0.58836  1.0000
  H   H2790     1.0  0.26647  0.82508  0.52326  1.0000
  H   H2791     1.0  0.26521  0.53889  0.39473  1.0000
  C   C1583     1.0  0.25602  0.53881  0.50404  1.0000
  H   H2792     1.0  0.26550  0.76402  0.57538  1.0000
  H   H2793     1.0  0.25656  0.53620  0.56644  1.0000
  H   H2794     1.0  0.43374  0.68619  0.61160  1.0000
  H   H2795     1.0  0.27740  0.96870  0.51413  1.0000
  H   H2796     1.0  0.40230  0.78921  0.45730  1.0000
  H   H2797     1.0  0.40202  0.69048  0.60807  1.0000
  H   H2798     1.0  0.37374  0.88354  0.54252  1.0000
  H   H2799     1.0  0.44469  0.89221  0.62164  1.0000
  H   H2800     1.0  0.28882  0.54613  0.36461  1.0000
  H   H2801     1.0  0.43520  0.84364  0.33180  1.0000
  H   H2802     1.0  0.28699  0.53663  0.50752  1.0000
  H   H2803     1.0  0.45757  0.93508  0.38434  1.0000
  C   C1584     1.0  0.38057  0.79879  0.60547  1.0000
  H   H2804     1.0  0.44485  0.82772  0.55249  1.0000
  C   C1585     1.0  0.47011  0.77425  0.42652  1.0000
  H   H2805     1.0  0.41102  0.97718  0.41929  1.0000
  H   H2806     1.0  0.25386  0.64198  0.52587  1.0000
  H   H2807     1.0  0.47548  0.89403  0.59622  1.0000
  C   C1586     1.0  0.27545  0.95486  0.45821  1.0000
  C   C1587     1.0  0.27691  0.96421  0.47598  1.0000
  H   H2808     1.0  0.43382  0.95521  0.40657  1.0000
  Fe  Fe179     1.0  0.45671  0.92314  0.32239  1.0000
  H   H2809     1.0  0.42560  0.97047  0.58849  1.0000
  H   H2810     1.0  0.35130  0.80438  0.62411  1.0000
  H   H2811     1.0  0.30441  0.96233  0.40801  1.0000
  C   C1588     1.0  0.47358  0.95275  0.63924  1.0000
  H   H2812     1.0  0.25055  0.49474  0.55485  1.0000
  H   H2813     1.0  0.24094  0.49358  0.46033  1.0000
  C   C1589     1.0  0.25254  0.51940  0.51909  1.0000
  C   C1590     1.0  0.27293  0.93414  0.63955  1.0000
  H   H2814     1.0  0.47862  0.63904  0.38711  1.0000
  H   H2815     1.0  0.24251  0.55048  0.50470  1.0000
  C   C1591     1.0  0.25251  0.94739  0.54113  1.0000
  C   C1592     1.0  0.45793  0.96719  0.64622  1.0000
  H   H2816     1.0  0.40449  0.97921  0.52843  1.0000
  C   C1593     1.0  0.47291  0.73267  0.52752  1.0000
  H   H2817     1.0  0.46169  0.68453  0.63001  1.0000
  H   H2818     1.0  0.38325  0.97780  0.44841  1.0000
  H   H2819     1.0  0.28222  0.84651  0.59194  1.0000
  C   C1594     1.0  0.37171  0.68813  0.62094  1.0000
  H   H2820     1.0  0.37081  0.78990  0.63732  1.0000
  H   H2821     1.0  0.47065  0.65352  0.60181  1.0000
  H   H2822     1.0  0.46310  0.65799  0.63734  1.0000
  C   C1595     1.0  0.28251  0.49121  0.33150  1.0000
  C   C1596     1.0  0.26960  0.97892  0.38988  1.0000
  H   H2823     1.0  0.37926  0.96214  0.54001  1.0000
  H   H2824     1.0  0.42564  0.91843  0.63615  1.0000
  H   H2825     1.0  0.28056  0.94587  0.64197  1.0000
  H   H2826     1.0  0.26339  0.57528  0.32490  1.0000
  C   C1597     1.0  0.26197  0.97742  0.51575  1.0000
  C   C1598     1.0  0.29070  0.97727  0.37666  1.0000
  C   C1599     1.0  0.25695  0.80554  0.56310  1.0000
  H   H2827     1.0  0.40016  0.97891  0.46478  1.0000
  H   H2828     1.0  0.24385  0.95167  0.64555  1.0000
  H   H2829     1.0  0.28822  0.94248  0.45600  1.0000
  H   H2830     1.0  0.39074  0.70660  0.62617  1.0000
  H   H2831     1.0  0.30901  0.50122  0.33480  1.0000
  H   H2832     1.0  0.45531  0.86955  0.63515  1.0000
  C   C1600     1.0  0.25037  0.53892  0.34444  1.0000
  H   H2833     1.0  0.25020  0.79583  0.55633  1.0000
  S   S350      1.0  0.45275  0.74697  0.64153  1.0000
  C   C1601     1.0  0.27477  0.77289  0.58024  1.0000
  H   H2834     1.0  0.34062  0.96973  0.43838  1.0000
  C   C1602     1.0  0.33669  0.98350  0.48485  1.0000
  C   C1603     1.0  0.47355  0.89277  0.62837  1.0000
  S   S351      1.0  0.23897  0.65629  0.48727  1.0000
  H   H2835     1.0  0.47304  0.81654  0.37540  1.0000
  H   H2836     1.0  0.46128  0.64269  0.33234  1.0000
  H   H2837     1.0  0.24121  0.93737  0.54627  1.0000
  C   C1604     1.0  0.25629  0.96731  0.38322  1.0000
  C   C1605     1.0  0.24867  0.84958  0.50715  1.0000
  H   H2838     1.0  0.25181  0.89884  0.49695  1.0000
  H   H2839     1.0  0.24450  0.91779  0.63257  1.0000
  H   H2840     1.0  0.25297  0.95490  0.55375  1.0000
  H   H2841     1.0  0.41379  0.88485  0.63023  1.0000
  H   H2842     1.0  0.30016  0.54173  0.32587  1.0000
  H   H2843     1.0  0.24614  0.95438  0.51128  1.0000
  H   H2844     1.0  0.48324  0.88546  0.63961  1.0000
  C   C1606     1.0  0.23802  0.58583  0.35509  1.0000
  H   H2845     1.0  0.48050  0.69084  0.45000  1.0000
  H   H2846     1.0  0.44556  0.92259  0.64616  1.0000
  H   H2847     1.0  0.28813  0.98405  0.36117  1.0000
  C   C1607     1.0  0.23750  0.48880  0.55292  1.0000
  H   H2848     1.0  0.43966  0.63585  0.64508  1.0000
  H   H2849     1.0  0.48709  0.87043  0.60923  1.0000
  C   C1608     1.0  0.42176  0.69757  0.64674  1.0000
  C   C1609     1.0  0.24069  0.91977  0.64855  1.0000
  S   S352      1.0  0.23775  0.96908  0.85134  1.0000
  Fe  Fe180     1.0  0.45223  0.61253  0.73827  1.0000
  S   S353      1.0  0.46786  0.60416  0.76501  1.0000
  S   S354      1.0  0.44263  0.64538  0.72558  1.0000
  Fe  Fe181     1.0  0.44555  0.56941  0.74117  1.0000
  S   S355      1.0  0.46007  0.55793  0.76842  1.0000
  S   S356      1.0  0.43454  0.54903  0.72554  1.0000
  Fe  Fe182     1.0  0.44366  0.58628  0.77915  1.0000
  S   S357      1.0  0.42661  0.58799  0.81045  1.0000
  C   C1610     1.0  0.46217  0.50312  0.77238  1.0000
  H   H2850     1.0  0.35259  0.53864  0.77528  1.0000
  S   S358      1.0  0.42687  0.59609  0.75330  1.0000
  S   S359      1.0  0.46978  0.58649  0.72387  1.0000
  H   H2851     1.0  0.32599  0.53207  0.68449  1.0000
  H   H2852     1.0  0.45312  0.97513  0.77379  1.0000
  H   H2853     1.0  0.29901  0.51782  0.97609  1.0000
  H   H2854     1.0  0.42653  0.62873  0.69093  1.0000
  H   H2855     1.0  0.42179  0.72566  0.67107  1.0000
  H   H2856     1.0  0.39972  0.75748  0.96713  1.0000
  S   S360      1.0  0.26370  0.81969  0.96306  1.0000
  H   H2857     1.0  0.32138  0.97983  0.72225  1.0000
  S   S361      1.0  0.27660  0.96380  0.81518  1.0000
  Fe  Fe183     1.0  0.26880  0.95126  0.84795  1.0000
  N   N87       1.0  0.33807  0.52666  0.72269  1.0000
  H   H2858     1.0  0.30382  0.57468  0.68857  1.0000
  H   H2859     1.0  0.40583  0.95572  0.82925  1.0000
  S   S362      1.0  0.41930  0.78761  0.98082  1.0000
  Fe  Fe184     1.0  0.41529  0.80417  0.95011  1.0000
  H   H2860     1.0  0.38520  0.74844  0.90340  1.0000
  S   S363      1.0  0.38556  0.81345  0.93918  1.0000
  Fe  Fe185     1.0  0.46012  0.80207  0.93580  1.0000
  S   S364      1.0  0.46757  0.78473  0.96526  1.0000
  H   H2861     1.0  0.40559  0.73671  0.65281  1.0000
  Fe  Fe186     1.0  0.44394  0.76709  0.96491  1.0000
  H   H2862     1.0  0.35444  0.55853  0.96023  1.0000
  C   C1611     1.0  0.48170  0.93669  0.65269  1.0000
  S   S365      1.0  0.43853  0.78240  0.93417  1.0000
  S   S366      1.0  0.43644  0.82530  0.94904  1.0000
  Fe  Fe187     1.0  0.46036  0.60981  0.94684  1.0000
  S   S367      1.0  0.42900  0.62233  0.95974  1.0000
  C   C1612     1.0  0.48479  0.96975  0.77594  1.0000
  Fe  Fe188     1.0  0.45191  0.61493  0.90439  1.0000
  S   S368      1.0  0.41970  0.62792  0.91341  1.0000
  H   H2863     1.0  0.39021  0.67530  0.65363  1.0000
  Fe  Fe189     1.0  0.43122  0.64538  0.93158  1.0000
  S   S369      1.0  0.42052  0.67875  0.92888  1.0000
  Fe  Fe190     1.0  0.42027  0.60379  0.94074  1.0000
  S   S370      1.0  0.39817  0.58234  0.95115  1.0000
  S   S371      1.0  0.46338  0.63426  0.92039  1.0000
  S   S372      1.0  0.45160  0.58946  0.93011  1.0000
  C   C1613     1.0  0.44176  0.71812  0.96330  1.0000
  C   C1614     1.0  0.43738  0.72545  0.94404  1.0000
  C   C1615     1.0  0.43149  0.71298  0.93344  1.0000
  C   C1616     1.0  0.43027  0.69299  0.94183  1.0000
  C   C1617     1.0  0.43526  0.68539  0.96087  1.0000
  C   C1618     1.0  0.44081  0.69801  0.97166  1.0000
  H   H2864     1.0  0.43837  0.74076  0.93732  1.0000
  H   H2865     1.0  0.42779  0.71889  0.91865  1.0000
  H   H2866     1.0  0.43420  0.67001  0.96752  1.0000
  C   C1619     1.0  0.34151  0.86831  0.92232  1.0000
  C   C1620     1.0  0.37254  0.72387  0.93868  1.0000
  C   C1621     1.0  0.31764  0.54324  0.69386  1.0000
  C   C1622     1.0  0.39172  0.50732  0.76177  1.0000
  C   C1623     1.0  0.42677  0.66177  0.66068  1.0000
  S   S373      1.0  0.27549  0.91767  0.85801  1.0000
  C   C1624     1.0  0.43285  0.91420  0.64975  1.0000
  C   C1625     1.0  0.45004  0.96529  0.66668  1.0000
  C   C1626     1.0  0.34556  0.81231  0.94872  1.0000
  C   C1627     1.0  0.34949  0.55222  0.76391  1.0000
  H   H2867     1.0  0.45906  0.55207  0.96538  1.0000
  H   H2868     1.0  0.43796  0.97643  0.67218  1.0000
  C   C1628     1.0  0.25943  0.92070  0.89735  1.0000
  C   C1629     1.0  0.26648  0.90805  0.88314  1.0000
  C   C1630     1.0  0.39445  0.63322  0.78032  1.0000
  C   C1631     1.0  0.26172  0.87919  0.90953  1.0000
  H   H2869     1.0  0.34811  0.95867  0.73293  1.0000
  C   C1632     1.0  0.31627  0.75699  0.97123  1.0000
  C   C1633     1.0  0.34857  0.96232  0.74770  1.0000
  H   H2870     1.0  0.32377  0.53717  0.75048  1.0000
  H   H2871     1.0  0.32486  0.57834  0.93150  1.0000
  C   C1634     1.0  0.36338  0.81015  0.95616  1.0000
  H   H2872     1.0  0.32393  0.50671  0.71171  1.0000
  C   C1635     1.0  0.31226  0.87973  0.94810  1.0000
  H   H2873     1.0  0.41529  0.97815  0.82896  1.0000
  C   C1636     1.0  0.41213  0.69315  0.77849  1.0000
  C   C1637     1.0  0.41802  0.53317  0.73973  1.0000
  C   C1638     1.0  0.41001  0.53448  0.75977  1.0000
  C   C1639     1.0  0.39683  0.52164  0.77071  1.0000
  C   C1640     1.0  0.43375  0.65103  0.83258  1.0000
  H   H2874     1.0  0.47672  0.95278  0.85914  1.0000
  C   C1641     1.0  0.41307  0.51872  0.73082  1.0000
  H   H2875     1.0  0.41378  0.54554  0.76677  1.0000
  H   H2876     1.0  0.39041  0.52297  0.78612  1.0000
  C   C1642     1.0  0.36171  0.51715  0.96998  1.0000
  H   H2877     1.0  0.41941  0.51752  0.71537  1.0000
  C   C1643     1.0  0.43887  0.59335  0.82822  1.0000
  C   C1644     1.0  0.42794  0.59675  0.84701  1.0000
  C   C1645     1.0  0.43719  0.60168  0.86125  1.0000
  C   C1646     1.0  0.45743  0.60328  0.85671  1.0000
  C   C1647     1.0  0.46840  0.59969  0.83799  1.0000
  C   C1648     1.0  0.45919  0.59464  0.82381  1.0000
  H   H2878     1.0  0.41224  0.59568  0.85053  1.0000
  H   H2879     1.0  0.42862  0.60441  0.87566  1.0000
  C   C1649     1.0  0.45199  0.64624  0.78981  1.0000
  H   H2880     1.0  0.46777  0.59184  0.80945  1.0000
  H   H2881     1.0  0.31848  0.55548  0.71970  1.0000
  C   C1650     1.0  0.39054  0.57553  0.97711  1.0000
  C   C1651     1.0  0.45960  0.68986  0.68098  1.0000
  C   C1652     1.0  0.44917  0.67890  0.69788  1.0000
  C   C1653     1.0  0.45637  0.65861  0.70443  1.0000
  C   C1654     1.0  0.47410  0.64937  0.69396  1.0000
  H   H2882     1.0  0.24934  0.92246  0.92865  1.0000
  H   H2883     1.0  0.45417  0.70554  0.67628  1.0000
  H   H2884     1.0  0.43554  0.68620  0.70598  1.0000
  H   H2885     1.0  0.38167  0.85605  0.92584  1.0000
  N   N88       1.0  0.34094  0.52097  0.96502  1.0000
  H   H2886     1.0  0.31901  0.91638  0.92526  1.0000
  C   C1655     1.0  0.33688  0.50349  0.95743  1.0000
  H   H2887     1.0  0.42753  0.97584  0.89329  1.0000
  C   C1656     1.0  0.25561  0.89182  0.92386  1.0000
  H   H2888     1.0  0.37789  0.68206  0.93996  1.0000
  H   H2889     1.0  0.41917  0.67018  0.85473  1.0000
  C   C1657     1.0  0.35237  0.49616  0.93973  1.0000
  H   H2890     1.0  0.35320  0.87257  0.94825  1.0000
  C   C1658     1.0  0.47726  0.68058  0.67042  1.0000
  H   H2891     1.0  0.41580  0.88127  0.67537  1.0000
  H   H2892     1.0  0.31408  0.84418  0.93663  1.0000
  N   N89       1.0  0.44029  0.89196  0.65362  1.0000
  H   H2893     1.0  0.34115  0.55456  0.70249  1.0000
  H   H2894     1.0  0.32225  0.50723  0.95214  1.0000
  H   H2895     1.0  0.33530  0.49057  0.96984  1.0000
  H   H2896     1.0  0.41853  0.95393  0.65248  1.0000
  H   H2897     1.0  0.48689  0.71276  0.95864  1.0000
  H   H2898     1.0  0.41433  0.63588  0.65781  1.0000
  Fe  Fe191     1.0  0.24612  0.98285  0.81895  1.0000
  S   S374      1.0  0.48444  0.80862  0.90940  1.0000
  H   H2899     1.0  0.46023  0.62957  0.98083  1.0000
  H   H2900     1.0  0.47558  0.91437  0.80909  1.0000
  H   H2901     1.0  0.27255  0.87749  0.87820  1.0000
  H   H2902     1.0  0.35227  0.50779  0.92608  1.0000
  H   H2903     1.0  0.36771  0.49234  0.94327  1.0000
  H   H2904     1.0  0.44071  0.66407  0.66483  1.0000
  H   H2905     1.0  0.33426  0.49587  0.73334  1.0000
  H   H2906     1.0  0.36870  0.95291  0.76963  1.0000
  H   H2907     1.0  0.24823  0.90567  0.65682  1.0000
  H   H2908     1.0  0.33996  0.59057  0.94199  1.0000
  C   C1659     1.0  0.40011  0.50569  0.74186  1.0000
  H   H2909     1.0  0.33402  0.56002  0.76819  1.0000
  H   H2910     1.0  0.43352  0.55124  0.97708  1.0000
  H   H2911     1.0  0.42695  0.92409  0.67895  1.0000
  H   H2912     1.0  0.32602  0.98275  0.89833  1.0000
  H   H2913     1.0  0.33963  0.73253  0.97751  1.0000
  H   H2914     1.0  0.36348  0.52913  0.97766  1.0000
  C   C1660     1.0  0.48538  0.96195  0.84742  1.0000
  C   C1661     1.0  0.45555  0.49487  0.79477  1.0000
  C   C1662     1.0  0.36228  0.69015  0.94116  1.0000
  H   H2915     1.0  0.45581  0.87595  0.95637  1.0000
  H   H2916     1.0  0.41484  0.70262  0.74610  1.0000
  H   H2917     1.0  0.32488  0.54108  0.94295  1.0000
  H   H2918     1.0  0.38612  0.87933  0.93027  1.0000
  C   C1663     1.0  0.48602  0.94749  0.78618  1.0000
  H   H2919     1.0  0.35292  0.50144  0.69265  1.0000
  H   H2920     1.0  0.41512  0.97345  0.79480  1.0000
  H   H2921     1.0  0.41755  0.63504  0.80729  1.0000
  C   C1664     1.0  0.41842  0.92297  0.66735  1.0000
  H   H2922     1.0  0.30397  0.85226  0.96728  1.0000
  H   H2923     1.0  0.28894  0.83284  0.91370  1.0000
  C   C1665     1.0  0.30903  0.85768  0.92605  1.0000
  H   H2924     1.0  0.26255  0.86321  0.91414  1.0000
  H   H2925     1.0  0.39519  0.73074  0.67892  1.0000
  H   H2926     1.0  0.48097  0.81729  0.97397  1.0000
  H   H2927     1.0  0.44473  0.50570  0.82308  1.0000
  N   N90       1.0  0.31914  0.87470  0.92725  1.0000
  H   H2928     1.0  0.43635  0.52259  0.80179  1.0000
  H   H2929     1.0  0.25220  0.93577  0.66703  1.0000
  H   H2930     1.0  0.31953  0.89178  0.95028  1.0000
  H   H2931     1.0  0.25855  0.93672  0.89277  1.0000
  H   H2932     1.0  0.44294  0.89189  0.68436  1.0000
  H   H2933     1.0  0.38797  0.79153  0.90598  1.0000
  C   C1666     1.0  0.38282  0.98019  0.83989  1.0000
  H   H2934     1.0  0.42517  0.71771  0.75864  1.0000
  C   C1667     1.0  0.32760  0.80977  0.96188  1.0000
  H   H2935     1.0  0.30117  0.54397  0.97070  1.0000
  H   H2936     1.0  0.39850  0.72012  0.76073  1.0000
  H   H2937     1.0  0.40126  0.65800  0.80276  1.0000
  S   S375      1.0  0.46929  0.61047  0.87371  1.0000
  H   H2938     1.0  0.31535  0.88886  0.89687  1.0000
  H   H2939     1.0  0.44383  0.68687  0.77766  1.0000
  H   H2940     1.0  0.39938  0.49334  0.97170  1.0000
  C   C1668     1.0  0.35480  0.87802  0.93186  1.0000
  C   C1669     1.0  0.30508  0.51372  0.73934  1.0000
  H   H2941     1.0  0.39839  0.85657  0.65170  1.0000
  H   H2942     1.0  0.24740  0.72628  0.97892  1.0000
  S   S376      1.0  0.37423  0.49238  0.77575  1.0000
  H   H2943     1.0  0.39830  0.95028  0.67314  1.0000
  C   C1670     1.0  0.45229  0.88737  0.67038  1.0000
  H   H2944     1.0  0.44957  0.85634  0.68421  1.0000
  C   C1671     1.0  0.40552  0.70490  0.66398  1.0000
  C   C1672     1.0  0.41560  0.64925  0.79637  1.0000
  H   H2945     1.0  0.36475  0.76729  0.91173  1.0000
  C   C1673     1.0  0.47369  0.93459  0.67311  1.0000
  C   C1674     1.0  0.40720  0.72578  0.66679  1.0000
  C   C1675     1.0  0.43348  0.65998  0.85114  1.0000
  H   H2946     1.0  0.29530  0.89625  0.91574  1.0000
  H   H2947     1.0  0.36579  0.50609  0.72372  1.0000
  C   C1676     1.0  0.30505  0.83128  0.90709  1.0000
  H   H2948     1.0  0.41516  0.66386  0.67411  1.0000
  H   H2949     1.0  0.41373  0.97153  0.86466  1.0000
  H   H2950     1.0  0.41638  0.67695  0.81780  1.0000
  C   C1677     1.0  0.46619  0.87457  0.96706  1.0000
  H   H2951     1.0  0.47503  0.85922  0.96825  1.0000
  C   C1678     1.0  0.40245  0.97229  0.82639  1.0000
  H   H2952     1.0  0.34571  0.81569  0.93271  1.0000
  H   H2953     1.0  0.41089  0.65630  0.76471  1.0000
  H   H2954     1.0  0.47983  0.63378  0.69890  1.0000
  N   N91       1.0  0.46696  0.48838  0.75797  1.0000
  C   C1679     1.0  0.39972  0.98260  0.86691  1.0000
  H   H2955     1.0  0.43527  0.49146  0.75854  1.0000
  H   H2956     1.0  0.30697  0.82725  0.89197  1.0000
  C   C1680     1.0  0.47162  0.50012  0.73709  1.0000
  S   S377      1.0  0.28277  0.97322  0.85805  1.0000
  H   H2957     1.0  0.47641  0.88561  0.96090  1.0000
  H   H2958     1.0  0.31353  0.81896  0.91662  1.0000
  H   H2959     1.0  0.31163  0.98373  0.87912  1.0000
  H   H2960     1.0  0.34645  0.87090  0.90577  1.0000
  H   H2961     1.0  0.35205  0.77025  0.94949  1.0000
  C   C1681     1.0  0.46354  0.98132  0.78017  1.0000
  H   H2962     1.0  0.37956  0.87797  0.90665  1.0000
  C   C1682     1.0  0.41286  0.64321  0.77680  1.0000
  H   H2963     1.0  0.31400  0.77326  0.96530  1.0000
  C   C1683     1.0  0.37685  0.87252  0.92306  1.0000
  C   C1684     1.0  0.32923  0.54562  0.71005  1.0000
  C   C1685     1.0  0.30958  0.92926  0.89718  1.0000
  Fe  Fe192     1.0  0.48318  0.57664  0.75211  1.0000
  H   H2964     1.0  0.39608  0.61926  0.79152  1.0000
  H   H2965     1.0  0.39924  0.68572  0.77913  1.0000
  C   C1686     1.0  0.32044  0.91180  0.91051  1.0000
  H   H2966     1.0  0.29260  0.86141  0.93099  1.0000
  H   H2967     1.0  0.47356  0.94164  0.78263  1.0000
  H   H2968     1.0  0.40938  0.70065  0.79179  1.0000
  C   C1687     1.0  0.25149  0.93651  0.65099  1.0000
  N   N92       1.0  0.37241  0.74202  0.94774  1.0000
  H   H2969     1.0  0.36797  0.93409  0.75529  1.0000
  H   H2970     1.0  0.44264  0.48703  0.79712  1.0000
  H   H2971     1.0  0.33595  0.97375  0.68769  1.0000
  H   H2972     1.0  0.31394  0.81116  0.95610  1.0000
  N   N93       1.0  0.43268  0.66032  0.79452  1.0000
  N   N94       1.0  0.38248  0.97494  0.86225  1.0000
  H   H2973     1.0  0.48293  0.52616  0.74157  1.0000
  H   H2974     1.0  0.30457  0.86219  0.89465  1.0000
  C   C1688     1.0  0.25417  0.91259  0.91765  1.0000
  C   C1689     1.0  0.38489  0.95248  0.86797  1.0000
  C   C1690     1.0  0.38216  0.94402  0.89067  1.0000
  C   C1691     1.0  0.34370  0.97882  0.86894  1.0000
  H   H2975     1.0  0.33637  0.90951  0.90339  1.0000
  C   C1692     1.0  0.36318  0.80532  0.97682  1.0000
  C   C1693     1.0  0.38577  0.75505  0.93307  1.0000
  C   C1694     1.0  0.38225  0.92150  0.89442  1.0000
  H   H2976     1.0  0.48074  0.53077  0.70556  1.0000
  H   H2977     1.0  0.34576  0.85189  0.92708  1.0000
  H   H2978     1.0  0.44611  0.66829  0.84878  1.0000
  H   H2979     1.0  0.35854  0.52607  0.68111  1.0000
  H   H2980     1.0  0.33027  0.85248  0.96268  1.0000
  H   H2981     1.0  0.43511  0.64776  0.86419  1.0000
  C   C1695     1.0  0.43203  0.67809  0.77778  1.0000
  H   H2982     1.0  0.37067  0.97460  0.83551  1.0000
  H   H2983     1.0  0.37460  0.94654  0.86110  1.0000
  H   H2984     1.0  0.40010  0.94539  0.86162  1.0000
  H   H2985     1.0  0.36787  0.95098  0.89888  1.0000
  H   H2986     1.0  0.39478  0.94634  0.89705  1.0000
  H   H2987     1.0  0.38845  0.48992  0.69664  1.0000
  H   H2988     1.0  0.34458  0.96237  0.87269  1.0000
  H   H2989     1.0  0.48216  0.94817  0.80256  1.0000
  C   C1696     1.0  0.35235  0.54657  0.74312  1.0000
  C   C1697     1.0  0.31268  0.85090  0.90533  1.0000
  H   H2990     1.0  0.47629  0.48988  0.72585  1.0000
  C   C1698     1.0  0.38089  0.76139  0.91151  1.0000
  H   H2991     1.0  0.30670  0.51123  0.75537  1.0000
  S   S378      1.0  0.44830  0.73384  0.97718  1.0000
  H   H2992     1.0  0.36984  0.91812  0.88844  1.0000
  H   H2993     1.0  0.39666  0.91356  0.88723  1.0000
  H   H2994     1.0  0.38030  0.91587  0.91080  1.0000
  H   H2995     1.0  0.27719  0.50208  0.74708  1.0000
  H   H2996     1.0  0.38391  0.87336  0.66837  1.0000
  H   H2997     1.0  0.48095  0.83884  0.93443  1.0000
  C   C1699     1.0  0.38394  0.50367  0.68601  1.0000
  C   C1700     1.0  0.40765  0.94391  0.66011  1.0000
  H   H2998     1.0  0.45153  0.94724  0.69590  1.0000
  C   C1701     1.0  0.26735  0.88730  0.88923  1.0000
  H   H2999     1.0  0.32879  0.84855  0.89885  1.0000
  C   C1702     1.0  0.31539  0.86192  0.96553  1.0000
  H   H3000     1.0  0.40160  0.74746  0.93172  1.0000
  H   H3001     1.0  0.36193  0.98335  0.88862  1.0000
  C   C1703     1.0  0.36778  0.95031  0.75451  1.0000
  H   H3002     1.0  0.48269  0.84641  0.69415  1.0000
  H   H3003     1.0  0.37213  0.72618  0.97836  1.0000
  H   H3004     1.0  0.30324  0.53829  0.70103  1.0000
  C   C1704     1.0  0.30388  0.52984  0.98141  1.0000
  C   C1705     1.0  0.32597  0.51010  0.72609  1.0000
  C   C1706     1.0  0.35919  0.51911  0.71334  1.0000
  H   H3005     1.0  0.34892  0.56047  0.73229  1.0000
  H   H3006     1.0  0.44222  0.67771  0.81254  1.0000
  H   H3007     1.0  0.29724  0.52924  0.73538  1.0000
  H   H3008     1.0  0.43710  0.60979  0.67551  1.0000
  C   C1707     1.0  0.31286  0.56308  0.67991  1.0000
  H   H3009     1.0  0.34377  0.71501  0.95311  1.0000
  H   H3010     1.0  0.26763  0.91149  0.96906  1.0000
  H   H3011     1.0  0.24166  0.91064  0.97886  1.0000
  C   C1708     1.0  0.35983  0.70832  0.95140  1.0000
  H   H3012     1.0  0.40680  0.91374  0.67457  1.0000
  H   H3013     1.0  0.35110  0.53715  0.93575  1.0000
  C   C1709     1.0  0.41277  0.70937  0.75983  1.0000
  H   H3014     1.0  0.46821  0.48461  0.80087  1.0000
  C   C1710     1.0  0.31185  0.89246  0.91229  1.0000
  H   H3015     1.0  0.45374  0.64308  0.77433  1.0000
  H   H3016     1.0  0.30415  0.56105  0.66885  1.0000
  H   H3017     1.0  0.34140  0.98367  0.85316  1.0000
  C   C1711     1.0  0.46145  0.86505  0.67612  1.0000
  C   C1712     1.0  0.40075  0.97872  0.80418  1.0000
  C   C1713     1.0  0.33903  0.53919  0.94888  1.0000
  H   H3018     1.0  0.47536  0.51003  0.77200  1.0000
  C   C1714     1.0  0.33894  0.53116  0.74300  1.0000
  C   C1715     1.0  0.45776  0.94883  0.68009  1.0000
  H   H3019     1.0  0.46433  0.89657  0.66681  1.0000
  C   C1716     1.0  0.36216  0.51278  0.69257  1.0000
  H   H3020     1.0  0.40891  0.77248  0.89910  1.0000
  H   H3021     1.0  0.44807  0.64064  0.83012  1.0000
  H   H3022     1.0  0.38970  0.78109  0.88374  1.0000
  H   H3023     1.0  0.35239  0.67965  0.95016  1.0000
  H   H3024     1.0  0.47009  0.86901  0.70357  1.0000
  H   H3025     1.0  0.36671  0.72835  0.92431  1.0000
  Fe  Fe193     1.0  0.44251  0.80667  0.97848  1.0000
  H   H3026     1.0  0.38079  0.64350  0.78568  1.0000
  H   H3027     1.0  0.34413  0.51712  0.75307  1.0000
  H   H3028     1.0  0.29596  0.88595  0.95029  1.0000
  H   H3029     1.0  0.42911  0.86398  0.65993  1.0000
  H   H3030     1.0  0.46901  0.85835  0.66279  1.0000
  H   H3031     1.0  0.36004  0.56235  0.76384  1.0000
  H   H3032     1.0  0.38536  0.76915  0.93868  1.0000
  C   C1717     1.0  0.43122  0.66761  0.81400  1.0000
  H   H3033     1.0  0.45797  0.51026  0.73282  1.0000
  H   H3034     1.0  0.36876  0.53070  0.71114  1.0000
  H   H3035     1.0  0.42603  0.63245  0.77137  1.0000
  H   H3036     1.0  0.38817  0.71597  0.93496  1.0000
  H   H3037     1.0  0.35091  0.89450  0.92961  1.0000
  C   C1718     1.0  0.39262  0.77760  0.89940  1.0000
  H   H3038     1.0  0.36836  0.54023  0.73924  1.0000
  C   C1719     1.0  0.47600  0.97998  0.83748  1.0000
  H   H3039     1.0  0.36416  0.70273  0.96637  1.0000
  H   H3040     1.0  0.39779  0.94330  0.64952  1.0000
  H   H3041     1.0  0.32682  0.56832  0.67157  1.0000
  S   S379      1.0  0.48304  0.91388  0.68981  1.0000
  C   C1720     1.0  0.42328  0.88025  0.65967  1.0000
  H   H3042     1.0  0.47989  0.65406  0.95124  1.0000
  H   H3043     1.0  0.39030  0.70570  0.66086  1.0000
  H   H3044     1.0  0.29380  0.93325  0.90435  1.0000
  C   C1721     1.0  0.38586  0.75221  0.97578  1.0000
  H   H3045     1.0  0.48406  0.60094  0.83441  1.0000
  H   H3046     1.0  0.47311  0.66762  0.78015  1.0000
  H   H3047     1.0  0.39068  0.97759  0.90014  1.0000
  H   H3048     1.0  0.45183  0.62769  0.67746  1.0000
  C   C1722     1.0  0.47684  0.86255  0.68978  1.0000
  H   H3049     1.0  0.31686  0.94260  0.89495  1.0000
  H   H3050     1.0  0.30850  0.97980  0.75611  1.0000
  H   H3051     1.0  0.39594  0.72491  0.96359  1.0000
  H   H3052     1.0  0.30986  0.92541  0.88225  1.0000
  C   C1723     1.0  0.44925  0.51188  0.80703  1.0000
  H   H3053     1.0  0.42144  0.64220  0.83609  1.0000
  H   H3054     1.0  0.34327  0.75301  0.93932  1.0000
  H   H3055     1.0  0.45031  0.51568  0.76761  1.0000
  H   H3056     1.0  0.32768  0.56327  0.96706  1.0000
  H   H3057     1.0  0.33584  0.95710  0.75865  1.0000
  H   H3058     1.0  0.45170  0.63144  0.79970  1.0000
  C   C1724     1.0  0.33833  0.74879  0.97198  1.0000
  C   C1725     1.0  0.38151  0.73524  0.96658  1.0000
  H   H3059     1.0  0.39267  0.62930  0.76605  1.0000
  H   H3060     1.0  0.43639  0.69818  0.65057  1.0000
  C   C1726     1.0  0.33911  0.57642  0.93720  1.0000
  C   C1727     1.0  0.39141  0.87235  0.65271  1.0000
  C   C1728     1.0  0.35155  0.75399  0.95121  1.0000
  H   H3061     1.0  0.43575  0.67311  0.76288  1.0000
  H   H3062     1.0  0.38104  0.95464  0.74373  1.0000
  C   C1729     1.0  0.34020  0.55928  0.95497  1.0000
  C   C1730     1.0  0.43654  0.62565  0.67676  1.0000
  C   C1731     1.0  0.48448  0.66033  0.67703  1.0000
  S   S380      1.0  0.48577  0.59649  0.96345  1.0000
  H   H3063     1.0  0.45837  0.98062  0.79658  1.0000
  C   C1732     1.0  0.47134  0.65362  0.79095  1.0000
  H   H3064     1.0  0.35187  0.57356  0.92492  1.0000
  H   H3065     1.0  0.37311  0.51797  0.95607  1.0000
  H   H3066     1.0  0.35828  0.69474  0.92592  1.0000
  H   H3067     1.0  0.40705  0.69483  0.67846  1.0000
  H   H3068     1.0  0.39397  0.51455  0.68523  1.0000
  H   H3069     1.0  0.37352  0.76513  0.97532  1.0000
  H   H3070     1.0  0.46181  0.52005  0.80573  1.0000
  H   H3071     1.0  0.39017  0.54517  0.97482  1.0000
  H   H3072     1.0  0.28948  0.50124  0.72157  1.0000
  C   C1733     1.0  0.42898  0.63948  0.65863  1.0000
  H   H3073     1.0  0.38580  0.49956  0.67094  1.0000
  H   H3074     1.0  0.31057  0.74916  0.96160  1.0000
  H   H3075     1.0  0.47984  0.67937  0.97378  1.0000
  S   S381      1.0  0.25147  0.88259  0.94981  1.0000
  H   H3076     1.0  0.39662  0.49446  0.73494  1.0000
  Fe  Fe194     1.0  0.25153  0.85142  0.96798  1.0000
  C   C1734     1.0  0.29193  0.49925  0.73731  1.0000
  H   H3077     1.0  0.48108  0.88106  0.83033  1.0000
  C   C1735     1.0  0.44894  0.54987  0.98003  1.0000
  H   H3078     1.0  0.38882  0.97217  0.80058  1.0000
  H   H3079     1.0  0.47133  0.65642  0.80620  1.0000
  C   C1736     1.0  0.65441  0.44030  0.99968  1.0000
  Fe  Fe195     1.0  0.52798  0.35912  0.21987  1.0000
  S   S382      1.0  0.56061  0.36132  0.21605  1.0000
  Fe  Fe196     1.0  0.65163  0.42908  0.20357  1.0000
  S   S383      1.0  0.65304  0.41321  0.23528  1.0000
  S   S384      1.0  0.66532  0.41272  0.17714  1.0000
  H   H3080     1.0  0.68995  0.14474  0.07363  1.0000
  S   S385      1.0  0.63025  0.45532  0.25042  1.0000
  Fe  Fe197     1.0  0.66207  0.44101  0.24095  1.0000
  S   S386      1.0  0.68907  0.43797  0.25685  1.0000
  Fe  Fe198     1.0  0.62138  0.42891  0.24207  1.0000
  S   S387      1.0  0.59469  0.41574  0.26014  1.0000
  S   S388      1.0  0.66307  0.45567  0.20852  1.0000
  S   S389      1.0  0.61947  0.44289  0.21020  1.0000
  H   H3081     1.0  0.59762  0.37585  0.20822  1.0000
  Fe  Fe199     1.0  0.71187  0.09861  0.00120  1.0000
  S   S390      1.0  0.69939  0.08878  0.03381  1.0000
  C   C1737     1.0  0.69634  0.44061  0.06077  1.0000
  C   C1738     1.0  0.62563  0.02657  0.18041  1.0000
  C   C1739     1.0  0.51150  0.34756  0.30716  1.0000
  C   C1740     1.0  0.66167  0.45580  0.98559  1.0000
  C   C1741     1.0  0.62349  0.44824  0.98629  1.0000
  Fe  Fe200     1.0  0.55342  0.03357  0.14430  1.0000
  S   S391      1.0  0.53373  0.06112  0.15409  1.0000
  C   C1742     1.0  0.63769  0.02491  0.22165  1.0000
  Fe  Fe201     1.0  0.51925  0.04026  0.17941  1.0000
  H   H3082     1.0  0.67642  0.45883  0.98530  1.0000
  S   S392      1.0  0.54071  0.01314  0.17136  1.0000
  H   H3083     1.0  0.57347  0.06374  0.28241  1.0000
  S   S393      1.0  0.53286  0.02932  0.12472  1.0000
  C   C1743     1.0  0.63881  0.98602  0.14014  1.0000
  C   C1744     1.0  0.63717  0.99201  0.19690  1.0000
  H   H3084     1.0  0.52653  0.31311  0.02405  1.0000
  H   H3085     1.0  0.56620  0.45681  0.27655  1.0000
  H   H3086     1.0  0.66797  0.47172  0.27690  1.0000
  S   S394      1.0  0.50822  0.04524  0.21139  1.0000
  S   S395      1.0  0.56530  0.02334  0.27607  1.0000
  S   S396      1.0  0.51826  0.32990  0.22044  1.0000
  H   H3087     1.0  0.61996  0.36592  0.00232  1.0000
  Fe  Fe202     1.0  0.63960  0.38733  0.08145  1.0000
  S   S397      1.0  0.65110  0.35479  0.07959  1.0000
  S   S398      1.0  0.62128  0.40000  0.10885  1.0000
  Fe  Fe203     1.0  0.65903  0.40040  0.03841  1.0000
  S   S399      1.0  0.67214  0.36904  0.03343  1.0000
  S   S400      1.0  0.66950  0.42667  0.01691  1.0000
  Fe  Fe204     1.0  0.64191  0.36169  0.04880  1.0000
  S   S401      1.0  0.62631  0.33874  0.04032  1.0000
  Fe  Fe205     1.0  0.68007  0.36503  0.06418  1.0000
  S   S402      1.0  0.71155  0.35130  0.06985  1.0000
  S   S403      1.0  0.62826  0.39374  0.05193  1.0000
  S   S404      1.0  0.66897  0.39682  0.06792  1.0000
  C   C1745     1.0  0.51521  0.98836  0.21793  1.0000
  H   H3088     1.0  0.53560  0.47710  0.26343  1.0000
  C   C1746     1.0  0.59512  0.98679  0.21292  1.0000
  H   H3089     1.0  0.50310  0.03829  0.06273  1.0000
  H   H3090     1.0  0.53659  0.12146  0.27490  1.0000
  C   C1747     1.0  0.61779  0.33616  0.01826  1.0000
  H   H3091     1.0  0.71118  0.45485  0.00540  1.0000
  H   H3092     1.0  0.54108  0.10250  0.19216  1.0000
  H   H3093     1.0  0.56503  0.10386  0.00694  1.0000
  C   C1748     1.0  0.61216  0.31791  0.01741  1.0000
  H   H3094     1.0  0.70254  0.99767  0.06415  1.0000
  H   H3095     1.0  0.49051  0.41002  0.16527  1.0000
  H   H3096     1.0  0.61390  0.30560  0.02969  1.0000
  C   C1749     1.0  0.50946  0.08672  0.03863  1.0000
  H   H3097     1.0  0.56953  0.29163  0.18893  1.0000
  C   C1750     1.0  0.71637  0.38300  0.08624  1.0000
  H   H3098     1.0  0.65998  0.99970  0.17088  1.0000
  H   H3099     1.0  0.70038  0.38544  0.09097  1.0000
  H   H3100     1.0  0.61104  0.39741  0.22488  1.0000
  H   H3101     1.0  0.55709  0.40154  0.26825  1.0000
  C   C1751     1.0  0.68897  0.01621  0.02773  1.0000
  H   H3102     1.0  0.57615  0.31597  0.15753  1.0000
  C   C1752     1.0  0.52446  0.03632  0.22895  1.0000
  C   C1753     1.0  0.51637  0.03305  0.24939  1.0000
  C   C1754     1.0  0.52884  0.02821  0.26393  1.0000
  C   C1755     1.0  0.54949  0.02694  0.25814  1.0000
  C   C1756     1.0  0.55765  0.02936  0.23766  1.0000
  C   C1757     1.0  0.54519  0.03395  0.22305  1.0000
  H   H3103     1.0  0.50035  0.03458  0.25402  1.0000
  H   H3104     1.0  0.52242  0.02554  0.27961  1.0000
  H   H3105     1.0  0.57356  0.02826  0.23316  1.0000
  H   H3106     1.0  0.55153  0.03646  0.20728  1.0000
  C   C1758     1.0  0.49178  0.15175  0.02503  1.0000
  H   H3107     1.0  0.58909  0.01771  0.19983  1.0000
  N   N95       1.0  0.54595  0.32465  0.03826  1.0000
  H   H3108     1.0  0.55461  0.35405  0.02956  1.0000
  C   C1759     1.0  0.56603  0.32122  0.17075  1.0000
  H   H3109     1.0  0.51498  0.33894  0.04224  1.0000
  C   C1760     1.0  0.71023  0.06548  0.04609  1.0000
  C   C1761     1.0  0.69998  0.05648  0.06427  1.0000
  C   C1762     1.0  0.70862  0.03809  0.07456  1.0000
  C   C1763     1.0  0.72141  0.45758  0.29023  1.0000
  H   H3110     1.0  0.49921  0.09326  0.05108  1.0000
  H   H3111     1.0  0.66355  0.00710  0.19306  1.0000
  H   H3112     1.0  0.68538  0.06379  0.07047  1.0000
  H   H3113     1.0  0.70074  0.03129  0.08864  1.0000
  C   C1764     1.0  0.72561  0.36726  0.07589  1.0000
  H   H3114     1.0  0.51114  0.11158  0.21738  1.0000
  H   H3115     1.0  0.53306  0.08703  0.28341  1.0000
  H   H3116     1.0  0.55708  0.33892  0.06952  1.0000
  C   C1765     1.0  0.72766  0.02881  0.06679  1.0000
  C   C1766     1.0  0.69600  0.45203  0.27264  1.0000
  C   C1767     1.0  0.71523  0.44683  0.27787  1.0000
  H   H3117     1.0  0.52561  0.06268  0.05863  1.0000
  C   C1768     1.0  0.53401  0.43256  0.22418  1.0000
  C   C1769     1.0  0.49215  0.09011  0.28236  1.0000
  H   H3118     1.0  0.51462  0.45710  0.23580  1.0000
  H   H3119     1.0  0.56125  0.31181  0.20315  1.0000
  H   H3120     1.0  0.62002  0.44974  0.03904  1.0000
  H   H3121     1.0  0.54702  0.11627  0.99111  1.0000
  C   C1770     1.0  0.65254  0.40934  0.15846  1.0000
  C   C1771     1.0  0.66293  0.39787  0.14374  1.0000
  C   C1772     1.0  0.65364  0.39515  0.12838  1.0000
  C   C1773     1.0  0.63368  0.40371  0.12763  1.0000
  C   C1774     1.0  0.62322  0.41514  0.14235  1.0000
  C   C1775     1.0  0.63257  0.41797  0.15768  1.0000
  H   H3122     1.0  0.67827  0.39094  0.14424  1.0000
  H   H3123     1.0  0.66187  0.38622  0.11726  1.0000
  H   H3124     1.0  0.60784  0.42194  0.14182  1.0000
  H   H3125     1.0  0.62437  0.42685  0.16884  1.0000
  H   H3126     1.0  0.72727  0.44494  0.13352  1.0000
  C   C1776     1.0  0.51022  0.29148  0.27344  1.0000
  C   C1777     1.0  0.52092  0.27387  0.28301  1.0000
  H   H3127     1.0  0.50323  0.39151  0.14997  1.0000
  H   H3128     1.0  0.51563  0.29763  0.25809  1.0000
  H   H3129     1.0  0.53460  0.26660  0.27495  1.0000
  C   C1778     1.0  0.56932  0.37708  0.22821  1.0000
  C   C1779     1.0  0.55787  0.38449  0.24509  1.0000
  C   C1780     1.0  0.56583  0.39617  0.25497  1.0000
  C   C1781     1.0  0.58497  0.40102  0.24765  1.0000
  C   C1782     1.0  0.59620  0.39392  0.23055  1.0000
  C   C1783     1.0  0.58853  0.38173  0.22109  1.0000
  H   H3130     1.0  0.54310  0.38087  0.25077  1.0000
  C   C1784     1.0  0.54481  0.28698  0.03856  1.0000
  H   H3131     1.0  0.55458  0.47021  0.01568  1.0000
  C   C1785     1.0  0.69366  0.00777  0.99353  1.0000
  H   H3132     1.0  0.66332  0.03528  0.00010  1.0000
  Fe  Fe206     1.0  0.49203  0.34107  0.24278  1.0000
  H   H3133     1.0  0.57544  0.46254  0.99681  1.0000
  H   H3134     1.0  0.62788  0.03490  0.11882  1.0000
  C   C1786     1.0  0.52715  0.33312  0.05124  1.0000
  C   C1787     1.0  0.69974  0.43412  0.13791  1.0000
  N   N96       1.0  0.54283  0.46759  0.22301  1.0000
  H   H3135     1.0  0.63024  0.06620  0.16356  1.0000
  H   H3136     1.0  0.51997  0.46122  0.20933  1.0000
  C   C1788     1.0  0.60149  0.00499  0.19745  1.0000
  H   H3137     1.0  0.64607  0.43701  0.05997  1.0000
  H   H3138     1.0  0.53825  0.28540  0.05465  1.0000
  C   C1789     1.0  0.56273  0.31591  0.05004  1.0000
  H   H3139     1.0  0.59446  0.47541  0.27904  1.0000
  C   C1790     1.0  0.50383  0.08602  0.26162  1.0000
  C   C1791     1.0  0.72344  0.39737  0.16002  1.0000
  H   H3140     1.0  0.56258  0.36087  0.98293  1.0000
  H   H3141     1.0  0.55054  0.08363  0.08238  1.0000
  H   H3142     1.0  0.70652  0.42915  0.17667  1.0000
  C   C1792     1.0  0.56977  0.33059  0.06033  1.0000
  H   H3143     1.0  0.60476  0.07488  0.15968  1.0000
  H   H3144     1.0  0.52959  0.31027  0.07860  1.0000
  H   H3145     1.0  0.73112  0.35560  0.16024  1.0000
  H   H3146     1.0  0.69239  0.44264  0.15017  1.0000
  H   H3147     1.0  0.69378  0.42003  0.14067  1.0000
  H   H3148     1.0  0.57600  0.30930  0.03998  1.0000
  C   C1793     1.0  0.49268  0.30113  0.28382  1.0000
  C   C1794     1.0  0.60978  0.47891  0.04928  1.0000
  H   H3149     1.0  0.72670  0.19292  0.99418  1.0000
  H   H3150     1.0  0.71661  0.38957  0.00573  1.0000
  C   C1795     1.0  0.70840  0.47371  0.29764  1.0000
  H   H3151     1.0  0.68425  0.06431  0.01377  1.0000
  H   H3152     1.0  0.56103  0.28087  0.03736  1.0000
  H   H3153     1.0  0.51884  0.27797  0.03214  1.0000
  H   H3154     1.0  0.55039  0.37941  0.99853  1.0000
  H   H3155     1.0  0.50169  0.08587  0.29402  1.0000
  H   H3156     1.0  0.51575  0.22843  0.99460  1.0000
  C   C1796     1.0  0.52940  0.09286  0.19692  1.0000
  H   H3157     1.0  0.50624  0.00269  0.21191  1.0000
  C   C1797     1.0  0.71314  0.03171  0.00008  1.0000
  H   H3158     1.0  0.59752  0.31064  0.06576  1.0000
  C   C1798     1.0  0.63269  0.03398  0.24087  1.0000
  C   C1799     1.0  0.54192  0.30908  0.02769  1.0000
  H   H3159     1.0  0.54054  0.27557  0.01273  1.0000
  H   H3160     1.0  0.73282  0.00230  0.99917  1.0000
  N   N97       1.0  0.62127  0.01049  0.19826  1.0000
  H   H3161     1.0  0.58701  0.30683  0.19108  1.0000
  H   H3162     1.0  0.67250  0.01779  0.03278  1.0000
  H   H3163     1.0  0.55767  0.10800  0.07253  1.0000
  N   N98       1.0  0.52326  0.09392  0.25442  1.0000
  C   C1800     1.0  0.53791  0.08322  0.26814  1.0000
  H   H3164     1.0  0.49390  0.33671  0.12780  1.0000
  C   C1801     1.0  0.53168  0.08846  0.23388  1.0000
  H   H3165     1.0  0.53651  0.07698  0.19677  1.0000
  C   C1802     1.0  0.53533  0.27386  0.02916  1.0000
  C   C1803     1.0  0.55975  0.08686  0.26068  1.0000
  C   C1804     1.0  0.49244  0.24031  0.02752  1.0000
  C   C1805     1.0  0.51999  0.11643  0.25275  1.0000
  H   H3166     1.0  0.52938  0.34639  0.05674  1.0000
  C   C1806     1.0  0.49710  0.12950  0.03330  1.0000
  C   C1807     1.0  0.67722  0.04103  0.00002  1.0000
  S   S405      1.0  0.49594  0.03735  0.16236  1.0000
  C   C1808     1.0  0.55808  0.46557  0.20416  1.0000
  H   H3167     1.0  0.72070  0.40591  0.04946  1.0000
  H   H3168     1.0  0.49994  0.08741  0.02722  1.0000
  H   H3169     1.0  0.69486  0.42731  0.07269  1.0000
  H   H3170     1.0  0.53605  0.07193  0.23505  1.0000
  H   H3171     1.0  0.54561  0.09472  0.22746  1.0000
  H   H3172     1.0  0.53121  0.12296  0.24057  1.0000
  C   C1809     1.0  0.51422  0.26578  0.30301  1.0000
  H   H3173     1.0  0.70521  0.36568  0.15844  1.0000
  H   H3174     1.0  0.57760  0.34145  0.04894  1.0000
  H   H3175     1.0  0.71278  0.98929  0.02999  1.0000
  H   H3176     1.0  0.56034  0.10287  0.25464  1.0000
  H   H3177     1.0  0.51244  0.42819  0.20713  1.0000
  H   H3178     1.0  0.71465  0.17671  0.98479  1.0000
  H   H3179     1.0  0.58243  0.48005  0.30366  1.0000
  C   C1810     1.0  0.68881  0.14400  0.05799  1.0000
  H   H3180     1.0  0.65691  0.00784  0.12395  1.0000
  H   H3181     1.0  0.59397  0.46191  0.17776  1.0000
  C   C1811     1.0  0.49315  0.33910  0.00552  1.0000
  H   H3182     1.0  0.63993  0.03149  0.18004  1.0000
  C   C1812     1.0  0.61573  0.35179  0.00203  1.0000
  C   C1813     1.0  0.72786  0.39554  0.09075  1.0000
  H   H3183     1.0  0.60591  0.05247  0.19221  1.0000
  C   C1814     1.0  0.49754  0.30548  0.99816  1.0000
  H   H3184     1.0  0.62005  0.05564  0.14669  1.0000
  H   H3185     1.0  0.57715  0.30921  0.08678  1.0000
  H   H3186     1.0  0.50618  0.37686  0.28832  1.0000
  H   H3187     1.0  0.51896  0.09703  0.18593  1.0000
  N   N99       1.0  0.56824  0.35736  0.15198  1.0000
  C   C1815     1.0  0.56718  0.34316  0.17172  1.0000
  C   C1816     1.0  0.56563  0.37845  0.15606  1.0000
  C   C1817     1.0  0.55063  0.35605  0.14281  1.0000
  C   C1818     1.0  0.58733  0.35239  0.13752  1.0000
  C   C1819     1.0  0.60647  0.34299  0.14675  1.0000
  C   C1820     1.0  0.54747  0.37082  0.12314  1.0000
  C   C1821     1.0  0.58232  0.38354  0.16504  1.0000
  C   C1822     1.0  0.57587  0.40371  0.17230  1.0000
  C   C1823     1.0  0.62500  0.34148  0.13051  1.0000
  C   C1824     1.0  0.53203  0.36517  0.11327  1.0000
  H   H3188     1.0  0.57986  0.34298  0.17929  1.0000
  H   H3189     1.0  0.56494  0.38948  0.14200  1.0000
  H   H3190     1.0  0.55114  0.38201  0.16616  1.0000
  H   H3191     1.0  0.53651  0.35837  0.15379  1.0000
  H   H3192     1.0  0.55195  0.34079  0.13932  1.0000
  H   H3193     1.0  0.58561  0.34165  0.12821  1.0000
  H   H3194     1.0  0.59058  0.36605  0.12658  1.0000
  H   H3195     1.0  0.60540  0.32763  0.15495  1.0000
  H   H3196     1.0  0.60905  0.35174  0.15742  1.0000
  H   H3197     1.0  0.56160  0.37091  0.11221  1.0000
  H   H3198     1.0  0.54170  0.38622  0.12634  1.0000
  H   H3199     1.0  0.58636  0.37227  0.17799  1.0000
  H   H3200     1.0  0.59586  0.38461  0.15338  1.0000
  H   H3201     1.0  0.57203  0.41583  0.15978  1.0000
  H   H3202     1.0  0.56280  0.40315  0.18461  1.0000
  H   H3203     1.0  0.58830  0.40718  0.17820  1.0000
  H   H3204     1.0  0.63832  0.33409  0.13743  1.0000
  H   H3205     1.0  0.62338  0.33257  0.11942  1.0000
  H   H3206     1.0  0.62754  0.35663  0.12268  1.0000
  H   H3207     1.0  0.52953  0.37628  0.09959  1.0000
  H   H3208     1.0  0.53734  0.35016  0.10887  1.0000
  H   H3209     1.0  0.51758  0.36499  0.12374  1.0000
  C   C1825     1.0  0.55206  0.45092  0.27846  1.0000
  H   H3210     1.0  0.54683  0.42876  0.21235  1.0000
  S   S406      1.0  0.70697  0.99494  0.13717  1.0000
  H   H3211     1.0  0.54869  0.08279  0.04714  1.0000
  H   H3212     1.0  0.72203  0.35696  0.13724  1.0000
  C   C1826     1.0  0.63537  0.43633  0.99996  1.0000
  C   C1827     1.0  0.65479  0.07385  0.00652  1.0000
  H   H3213     1.0  0.63896  0.46527  0.03360  1.0000
  H   H3214     1.0  0.62078  0.04735  0.23957  1.0000
  N   N100      1.0  0.69366  0.02386  0.00542  1.0000
  C   C1828     1.0  0.52112  0.12483  0.27168  1.0000
  C   C1829     1.0  0.68912  0.47878  0.29258  1.0000
  N   N101      1.0  0.54388  0.32256  0.29845  1.0000
  H   H3215     1.0  0.68419  0.15941  0.05036  1.0000
  H   H3216     1.0  0.52448  0.05607  0.03494  1.0000
  C   C1830     1.0  0.50049  0.22489  0.99591  1.0000
  H   H3217     1.0  0.70641  0.18435  0.02821  1.0000
  H   H3218     1.0  0.58753  0.08362  0.27175  1.0000
  H   H3219     1.0  0.72805  0.14701  0.01005  1.0000
  H   H3220     1.0  0.62981  0.42420  0.01072  1.0000
  H   H3221     1.0  0.52838  0.08696  0.00229  1.0000
  H   H3222     1.0  0.49626  0.40436  0.98800  1.0000
  C   C1831     1.0  0.51478  0.14754  0.26879  1.0000
  C   C1832     1.0  0.52983  0.10421  0.06470  1.0000
  C   C1833     1.0  0.48942  0.40264  0.15275  1.0000
  H   H3223     1.0  0.72550  0.43448  0.27215  1.0000
  C   C1834     1.0  0.56527  0.47558  0.00235  1.0000
  H   H3224     1.0  0.52448  0.15488  0.25571  1.0000
  H   H3225     1.0  0.69569  0.16737  0.01834  1.0000
  H   H3226     1.0  0.71252  0.04413  0.00828  1.0000
  C   C1835     1.0  0.54491  0.09996  0.07902  1.0000
  C   C1836     1.0  0.53832  0.08944  0.01203  1.0000
  H   H3227     1.0  0.72479  0.19495  0.06908  1.0000
  H   H3228     1.0  0.64618  0.03864  0.24358  1.0000
  H   H3229     1.0  0.68395  0.44321  0.05209  1.0000
  H   H3230     1.0  0.66567  0.05113  0.02947  1.0000
  H   H3231     1.0  0.50729  0.34031  0.08947  1.0000
  H   H3232     1.0  0.59979  0.46602  0.01806  1.0000
  Fe  Fe207     1.0  0.51820  0.01121  0.15279  1.0000
  H   H3233     1.0  0.65797  0.13945  0.06712  1.0000
  C   C1837     1.0  0.72908  0.05600  0.03817  1.0000
  C   C1838     1.0  0.52701  0.45546  0.22298  1.0000
  H   H3234     1.0  0.54659  0.07437  0.01725  1.0000
  H   H3235     1.0  0.71621  0.39331  0.13180  1.0000
  H   H3236     1.0  0.64083  0.45981  0.07015  1.0000
  H   H3237     1.0  0.71160  0.30677  0.13074  1.0000
  H   H3238     1.0  0.54747  0.36477  0.29842  1.0000
  C   C1839     1.0  0.50153  0.32507  0.99270  1.0000
  C   C1840     1.0  0.58449  0.31942  0.07420  1.0000
  H   H3239     1.0  0.51150  0.11839  0.28521  1.0000
  C   C1841     1.0  0.56387  0.32281  0.26210  1.0000
  C   C1842     1.0  0.57126  0.30942  0.24608  1.0000
  H   H3240     1.0  0.55291  0.33540  0.25608  1.0000
  H   H3241     1.0  0.57699  0.32855  0.26417  1.0000
  H   H3242     1.0  0.57839  0.31815  0.23210  1.0000
  H   H3243     1.0  0.58245  0.29644  0.25116  1.0000
  H   H3244     1.0  0.55856  0.30392  0.24266  1.0000
  H   H3245     1.0  0.65163  0.08573  0.01594  1.0000
  H   H3246     1.0  0.48934  0.33766  0.07488  1.0000
  C   C1843     1.0  0.63422  0.44970  0.06375  1.0000
  C   C1844     1.0  0.60277  0.99766  0.14446  1.0000
  H   H3247     1.0  0.59795  0.47280  0.06095  1.0000
  C   C1845     1.0  0.62542  0.02021  0.12675  1.0000
  H   H3248     1.0  0.55206  0.30880  0.01292  1.0000
  H   H3249     1.0  0.50265  0.16021  0.02782  1.0000
  H   H3250     1.0  0.49309  0.09263  0.25118  1.0000
  H   H3251     1.0  0.67000  0.13151  0.04366  1.0000
  C   C1846     1.0  0.57131  0.30703  0.18966  1.0000
  Fe  Fe208     1.0  0.51233  0.05587  0.13600  1.0000
  H   H3252     1.0  0.49562  0.35439  0.00102  1.0000
  H   H3253     1.0  0.67593  0.11661  0.06705  1.0000
  C   C1847     1.0  0.69336  0.98945  0.05832  1.0000
  S   S407      1.0  0.70399  0.13105  0.98827  1.0000
  C   C1848     1.0  0.51611  0.06435  0.04706  1.0000
  C   C1849     1.0  0.60953  0.04571  0.17840  1.0000
  H   H3254     1.0  0.58774  0.99480  0.15032  1.0000
  H   H3255     1.0  0.52432  0.35836  0.01413  1.0000
  H   H3256     1.0  0.56696  0.07805  0.24856  1.0000
  H   H3257     1.0  0.71580  0.03863  0.98395  1.0000
  C   C1850     1.0  0.71300  0.18622  0.99638  1.0000
  H   H3258     1.0  0.56743  0.29968  0.28725  1.0000
  H   H3259     1.0  0.59566  0.04229  0.17518  1.0000
  C   C1851     1.0  0.65885  0.99525  0.18742  1.0000
  H   H3260     1.0  0.60017  0.30124  0.00051  1.0000
  C   C1852     1.0  0.72619  0.38552  0.14258  1.0000
  C   C1853     1.0  0.50156  0.32952  0.08311  1.0000
  H   H3261     1.0  0.56120  0.44416  0.24050  1.0000
  H   H3262     1.0  0.71323  0.38324  0.03257  1.0000
  C   C1854     1.0  0.57225  0.08015  0.27739  1.0000
  H   H3263     1.0  0.57924  0.47129  0.03697  1.0000
  H   H3264     1.0  0.60154  0.00189  0.18228  1.0000
  H   H3265     1.0  0.48871  0.36050  0.28858  1.0000
  C   C1855     1.0  0.72713  0.15699  0.02102  1.0000
  H   H3266     1.0  0.62773  0.02027  0.16639  1.0000
  C   C1856     1.0  0.68292  0.46796  0.28030  1.0000
  H   H3267     1.0  0.49532  0.31854  0.09567  1.0000
  H   H3268     1.0  0.51434  0.12128  0.00624  1.0000
  H   H3269     1.0  0.72833  0.28473  0.13972  1.0000
  C   C1857     1.0  0.72348  0.29440  0.12606  1.0000
  H   H3270     1.0  0.72956  0.42325  0.12290  1.0000
  H   H3271     1.0  0.60633  0.02993  0.21960  1.0000
  H   H3272     1.0  0.59009  0.33036  0.08050  1.0000
  C   C1858     1.0  0.51730  0.12010  0.02173  1.0000
  H   H3273     1.0  0.53838  0.06674  0.27040  1.0000
  H   H3274     1.0  0.72892  0.42400  0.22222  1.0000
  H   H3275     1.0  0.53196  0.34924  0.27891  1.0000
  H   H3276     1.0  0.55895  0.30321  0.06185  1.0000
  C   C1859     1.0  0.67132  0.05733  0.01371  1.0000
  C   C1860     1.0  0.60584  0.01674  0.13448  1.0000
  S   S408      1.0  0.50071  0.08424  0.11562  1.0000
  H   H3277     1.0  0.59235  0.99001  0.22843  1.0000
  H   H3278     1.0  0.73131  0.38737  0.17178  1.0000
  H   H3279     1.0  0.50528  0.12314  0.24813  1.0000
  H   H3280     1.0  0.54455  0.30204  0.27862  1.0000
  H   H3281     1.0  0.52404  0.12049  0.06276  1.0000
  S   S409      1.0  0.58579  0.03685  0.13231  1.0000
  H   H3282     1.0  0.60836  0.46860  0.29957  1.0000
  H   H3283     1.0  0.56425  0.35473  0.27829  1.0000
  H   H3284     1.0  0.72454  0.44658  0.20427  1.0000
  H   H3285     1.0  0.64996  0.01203  0.22371  1.0000
  C   C1861     1.0  0.55475  0.31083  0.28211  1.0000
  H   H3286     1.0  0.55054  0.32011  0.16963  1.0000
  H   H3287     1.0  0.53826  0.42602  0.23903  1.0000
  H   H3288     1.0  0.50023  0.21014  0.00580  1.0000
  C   C1862     1.0  0.73189  0.01641  0.00478  1.0000
  C   C1863     1.0  0.56108  0.35372  0.29473  1.0000
  H   H3289     1.0  0.50431  0.42447  0.23404  1.0000
  C   C1864     1.0  0.72300  0.42830  0.17227  1.0000
  C   C1865     1.0  0.70906  0.13369  0.04737  1.0000
  H   H3290     1.0  0.50661  0.24639  0.02416  1.0000
  C   C1866     1.0  0.49804  0.05431  0.05690  1.0000
  H   H3291     1.0  0.55092  0.10801  0.03760  1.0000
  C   C1867     1.0  0.59666  0.47990  0.29286  1.0000
  H   H3292     1.0  0.52833  0.13018  0.02033  1.0000
  C   C1868     1.0  0.53898  0.35116  0.00680  1.0000
  H   H3293     1.0  0.70637  0.12907  0.03374  1.0000
  H   H3294     1.0  0.56778  0.33640  0.01408  1.0000
  C   C1869     1.0  0.52667  0.33732  0.29092  1.0000
  H   H3295     1.0  0.51175  0.30762  0.06386  1.0000
  H   H3296     1.0  0.64088  0.06776  0.00778  1.0000
  H   H3297     1.0  0.69845  0.46123  0.11540  1.0000
  H   H3298     1.0  0.69432  0.02555  0.03630  1.0000
  S   S410      1.0  0.50107  0.33886  0.16655  1.0000
  H   H3299     1.0  0.57984  0.37573  0.29331  1.0000
  C   C1870     1.0  0.70925  0.17390  0.01737  1.0000
  H   H3300     1.0  0.55364  0.34846  0.18229  1.0000
  C   C1871     1.0  0.61669  0.06154  0.16102  1.0000
  C   C1872     1.0  0.64188  0.00493  0.12963  1.0000
  H   H3301     1.0  0.51805  0.32973  0.28364  1.0000
  C   C1873     1.0  0.51831  0.31846  0.06930  1.0000
  H   H3302     1.0  0.66927  0.43507  0.31194  1.0000
  H   H3303     1.0  0.53661  0.33989  0.99857  1.0000
  C   C1874     1.0  0.67219  0.13214  0.05901  1.0000
  H   H3304     1.0  0.70736  0.39918  0.16688  1.0000
  H   H3305     1.0  0.57422  0.07567  0.98770  1.0000
  S   S411      1.0  0.50314  0.36925  0.24369  1.0000
  H   H3306     1.0  0.72536  0.44414  0.16803  1.0000
  S   S412      1.0  0.51183  0.37498  0.19480  1.0000
  H   H3307     1.0  0.52708  0.45396  0.26365  1.0000
  H   H3308     1.0  0.62224  0.44359  0.07519  1.0000
  C   C1875     1.0  0.55280  0.34159  0.02250  1.0000
  H   H3309     1.0  0.73164  0.01311  0.02123  1.0000
  H   H3310     1.0  0.53753  0.10504  0.09340  1.0000
  H   H3311     1.0  0.51763  0.09580  0.07212  1.0000
  C   C1876     1.0  0.69671  0.99385  0.03543  1.0000
  H   H3312     1.0  0.55556  0.43453  0.27866  1.0000
  H   H3313     1.0  0.68141  0.04908  0.98454  1.0000
  H   H3314     1.0  0.56358  0.99508  0.21038  1.0000
  H   H3315     1.0  0.50655  0.06959  0.26180  1.0000
  H   H3316     1.0  0.50574  0.08653  0.22103  1.0000
  C   C1877     1.0  0.58686  0.47767  0.17866  1.0000
  H   H3317     1.0  0.70015  0.43842  0.10569  1.0000
  C   C1878     1.0  0.54805  0.36737  0.99124  1.0000
  N   N102      1.0  0.73056  0.41731  0.15472  1.0000
  H   H3318     1.0  0.71569  0.42179  0.99846  1.0000
  H   H3319     1.0  0.68973  0.41472  0.30897  1.0000
  H   H3320     1.0  0.62762  0.02286  0.25398  1.0000
  C   C1879     1.0  0.54038  0.46118  0.26160  1.0000
  H   H3321     1.0  0.55041  0.46840  0.19090  1.0000
  H   H3322     1.0  0.53941  0.25791  0.03583  1.0000
  H   H3323     1.0  0.70465  0.41843  0.03243  1.0000
  H   H3324     1.0  0.73713  0.06292  0.02428  1.0000
  C   C1880     1.0  0.60440  0.31536  0.00082  1.0000
  H   H3325     1.0  0.71275  0.11942  0.05782  1.0000
  C   C1881     1.0  0.49756  0.36546  0.29781  1.0000
  H   H3326     1.0  0.72048  0.40789  0.09831  1.0000
  H   H3327     1.0  0.69508  0.45385  0.06800  1.0000
  C   C1882     1.0  0.62612  0.46067  0.04479  1.0000
  H   H3328     1.0  0.70426  0.99402  0.99783  1.0000
  C   C1883     1.0  0.72080  0.36466  0.15018  1.0000
  C   C1884     1.0  0.55342  0.45986  0.24077  1.0000
  H   H3329     1.0  0.71106  0.16927  0.05826  1.0000
  H   H3330     1.0  0.56550  0.08798  0.29034  1.0000
  C   C1885     1.0  0.55415  0.10146  0.99832  1.0000
  S   S413      1.0  0.52918  0.24468  0.31481  1.0000
  N   N103      1.0  0.52600  0.09872  0.02961  1.0000
  C   C1886     1.0  0.71650  0.43750  0.04694  1.0000
  H   H3331     1.0  0.49719  0.12791  0.04951  1.0000
  H   H3332     1.0  0.64294  0.03652  0.20924  1.0000
  H   H3333     1.0  0.56665  0.45008  0.20492  1.0000
  H   H3334     1.0  0.67870  0.00309  0.99713  1.0000
  H   H3335     1.0  0.49823  0.98535  0.24756  1.0000
  H   H3336     1.0  0.55389  0.27861  0.31313  1.0000
  C   C1887     1.0  0.53972  0.09803  0.04421  1.0000
  Fe  Fe209     1.0  0.63065  0.46815  0.21779  1.0000
  C   C1888     1.0  0.51788  0.09557  0.21782  1.0000
  Fe  Fe210     1.0  0.49972  0.34687  0.19714  1.0000
  C   C1889     1.0  0.58940  0.47862  0.02427  1.0000
  C   C1890     1.0  0.55807  0.33236  0.30569  1.0000
  C   C1891     1.0  0.51732  0.42227  0.22186  1.0000
  H   H3337     1.0  0.73633  0.45359  0.29375  1.0000
  H   H3338     1.0  0.71759  0.45132  0.03582  1.0000
  C   C1892     1.0  0.72974  0.42630  0.99999  1.0000
  H   H3339     1.0  0.72486  0.14908  0.07247  1.0000
  H   H3340     1.0  0.51619  0.15309  0.28237  1.0000
  C   C1893     1.0  0.69358  0.44643  0.11849  1.0000
  H   H3341     1.0  0.49177  0.15401  0.00867  1.0000
  H   H3342     1.0  0.48837  0.41401  0.13898  1.0000
  C   C1894     1.0  0.61933  0.01771  0.21786  1.0000
  H   H3343     1.0  0.70595  0.43038  0.21240  1.0000
  H   H3344     1.0  0.52284  0.40596  0.22263  1.0000
  H   H3345     1.0  0.51849  0.18534  0.99338  1.0000
  C   C1895     1.0  0.72223  0.43077  0.20857  1.0000
  H   H3346     1.0  0.67706  0.44885  0.11993  1.0000
  H   H3347     1.0  0.54296  0.45367  0.29313  1.0000
  C   C1896     1.0  0.71901  0.41874  0.03700  1.0000
  Fe  Fe211     1.0  0.55014  0.02931  0.30714  1.0000
  H   H3348     1.0  0.70016  0.19850  0.99429  1.0000
  C   C1897     1.0  0.73227  0.36084  0.01694  1.0000
  C   C1898     1.0  0.72519  0.15838  0.05725  1.0000
  H   H3349     1.0  0.52786  0.99182  0.22345  1.0000
  C   C1899     1.0  0.73189  0.41897  0.19161  1.0000
  H   H3350     1.0  0.52298  0.30217  0.31153  1.0000
  Fe  Fe212     1.0  0.72609  0.98774  0.10799  1.0000
  H   H3351     1.0  0.71955  0.35301  0.01788  1.0000
  H   H3352     1.0  0.72923  0.40336  0.19691  1.0000
  C   C1900     1.0  0.72274  0.42998  0.13655  1.0000
  C   C1901     1.0  0.72440  0.38282  0.01862  1.0000
  H   H3353     1.0  0.60877  0.44523  0.98648  1.0000
  C   C1902     1.0  0.72560  0.44944  0.99619  1.0000
  C   C1903     1.0  0.57839  0.36022  0.30095  1.0000
  H   H3354     1.0  0.56557  0.46837  0.23992  1.0000
  C   C1904     1.0  0.49646  0.27520  0.31329  1.0000
  H   H3355     1.0  0.72837  0.43550  0.05620  1.0000
  N   N104      1.0  0.72635  0.14518  0.04198  1.0000
  H   H3356     1.0  0.58432  0.47484  0.21048  1.0000
  H   H3357     1.0  0.49898  0.15178  0.26654  1.0000
  S   S414      1.0  0.50700  0.28770  0.98246  1.0000
  H   H3358     1.0  0.67739  0.99387  0.06469  1.0000
  H   H3359     1.0  0.71707  0.28555  0.11800  1.0000
  H   H3360     1.0  0.65934  0.08078  0.99070  1.0000
  H   H3361     1.0  0.61601  0.00560  0.23069  1.0000
  C   C1905     1.0  0.57416  0.47932  0.19930  1.0000
  H   H3362     1.0  0.59265  0.35027  0.29652  1.0000
  H   H3363     1.0  0.49461  0.22516  0.03674  1.0000
  C   C1906     1.0  0.60219  0.33107  0.98466  1.0000
  C   C1907     1.0  0.60803  0.34923  0.98541  1.0000
  H   H3364     1.0  0.57303  0.32266  0.30504  1.0000
  H   H3365     1.0  0.48946  0.06157  0.06968  1.0000
  H   H3366     1.0  0.73593  0.10456  0.03434  1.0000
  S   S415      1.0  0.51883  0.04590  0.31163  1.0000
  H   H3367     1.0  0.73501  0.31294  0.09939  1.0000
  N   N105      1.0  0.73605  0.41598  0.01972  1.0000
  H   H3368     1.0  0.48808  0.05525  0.04590  1.0000
  H   H3369     1.0  0.49843  0.18201  0.98204  1.0000
  H   H3370     1.0  0.55672  0.48368  0.99033  1.0000
  H   H3371     1.0  0.57757  0.48329  0.16671  1.0000
  Fe  Fe213     1.0  0.62782  0.23466  0.50569  1.0000
  S   S416      1.0  0.59836  0.23929  0.49494  1.0000
  S   S417      1.0  0.63979  0.26160  0.51004  1.0000
  Fe  Fe214     1.0  0.62739  0.18943  0.51956  1.0000
  S   S418      1.0  0.59768  0.19114  0.51070  1.0000
  S   S419      1.0  0.64553  0.16076  0.53311  1.0000
  Fe  Fe215     1.0  0.61008  0.21060  0.48276  1.0000
  S   S420      1.0  0.60741  0.20162  0.45381  1.0000
  Fe  Fe216     1.0  0.58873  0.21939  0.52374  1.0000
  S   S421      1.0  0.55959  0.22971  0.54308  1.0000
  S   S422      1.0  0.64058  0.20758  0.49093  1.0000
  S   S423      1.0  0.61735  0.21598  0.53513  1.0000
  Fe  Fe217     1.0  0.51939  0.22835  0.34618  1.0000
  H   H3372     1.0  0.69614  0.43714  0.33001  1.0000
  Fe  Fe218     1.0  0.52186  0.22292  0.39054  1.0000
  S   S424      1.0  0.64755  0.00417  0.50473  1.0000
  S   S425      1.0  0.52860  0.23532  0.41598  1.0000
  Fe  Fe219     1.0  0.52678  0.18630  0.37038  1.0000
  H   H3373     1.0  0.53810  0.25325  0.50767  1.0000
  C   C1908     1.0  0.73109  0.35534  0.38241  1.0000
  H   H3374     1.0  0.65031  0.11166  0.47610  1.0000
  S   S426      1.0  0.54332  0.21226  0.36438  1.0000
  H   H3375     1.0  0.73308  0.45377  0.53056  1.0000
  C   C1909     1.0  0.64203  0.14875  0.46520  1.0000
  S   S427      1.0  0.53162  0.17012  0.62119  1.0000
  H   H3376     1.0  0.52602  0.01891  0.58622  1.0000
  S   S428      1.0  0.56146  0.04765  0.32458  1.0000
  C   C1910     1.0  0.52561  0.11181  0.33825  1.0000
  H   H3377     1.0  0.63929  0.48183  0.63782  1.0000
  H   H3378     1.0  0.51719  0.15367  0.45635  1.0000
  H   H3379     1.0  0.63683  0.16341  0.45602  1.0000
  S   S429      1.0  0.54468  0.00492  0.33349  1.0000
  S   S430      1.0  0.51833  0.09603  0.32503  1.0000
  Fe  Fe220     1.0  0.64145  0.01491  0.53452  1.0000
  H   H3380     1.0  0.53208  0.12997  0.61441  1.0000
  C   C1911     1.0  0.50094  0.98458  0.32083  1.0000
  Fe  Fe221     1.0  0.62557  0.05164  0.55415  1.0000
  S   S431      1.0  0.63502  0.03618  0.58338  1.0000
  S   S432      1.0  0.60640  0.08245  0.55040  1.0000
  Fe  Fe222     1.0  0.66352  0.02370  0.56473  1.0000
  H   H3381     1.0  0.68246  0.44695  0.40732  1.0000
  Fe  Fe223     1.0  0.62291  0.00999  0.57882  1.0000
  H   H3382     1.0  0.53360  0.18953  0.42860  1.0000
  S   S433      1.0  0.65519  0.04141  0.53566  1.0000
  S   S434      1.0  0.61115  0.02637  0.55092  1.0000
  C   C1912     1.0  0.73609  0.41167  0.32890  1.0000
  C   C1913     1.0  0.60545  0.12811  0.59781  1.0000
  H   H3383     1.0  0.49309  0.10691  0.37371  1.0000
  S   S435      1.0  0.52170  0.04120  0.35897  1.0000
  C   C1914     1.0  0.68374  0.21473  0.52258  1.0000
  N   N106      1.0  0.72597  0.24458  0.52367  1.0000
  C   C1915     1.0  0.71385  0.02796  0.56682  1.0000
  C   C1916     1.0  0.71317  0.04582  0.55300  1.0000
  H   H3384     1.0  0.51234  0.21225  0.56019  1.0000
  C   C1917     1.0  0.70079  0.40831  0.50982  1.0000
  H   H3385     1.0  0.55109  0.03711  0.59168  1.0000
  C   C1918     1.0  0.73161  0.43957  0.54115  1.0000
  H   H3386     1.0  0.69927  0.05299  0.54795  1.0000
  C   C1919     1.0  0.67740  0.42128  0.31998  1.0000
  H   H3387     1.0  0.59284  0.11080  0.58298  1.0000
  H   H3388     1.0  0.57574  0.35990  0.31740  1.0000
  Fe  Fe224     1.0  0.73483  0.45577  0.62223  1.0000
  C   C1920     1.0  0.63400  0.11566  0.48159  1.0000
  H   H3389     1.0  0.53964  0.26921  0.61377  1.0000
  H   H3390     1.0  0.49181  0.21543  0.48372  1.0000
  H   H3391     1.0  0.48900  0.07660  0.36229  1.0000
  C   C1921     1.0  0.73064  0.05425  0.54556  1.0000
  H   H3392     1.0  0.62606  0.06589  0.49176  1.0000
  H   H3393     1.0  0.61839  0.10971  0.42486  1.0000
  C   C1922     1.0  0.53693  0.10411  0.35352  1.0000
  H   H3394     1.0  0.72603  0.41899  0.31798  1.0000
  H   H3395     1.0  0.63798  0.11888  0.40602  1.0000
  C   C1923     1.0  0.53547  0.13788  0.35981  1.0000
  C   C1924     1.0  0.52424  0.14555  0.34445  1.0000
  C   C1925     1.0  0.51933  0.13254  0.33371  1.0000
  H   H3396     1.0  0.62894  0.08064  0.50930  1.0000
  H   H3397     1.0  0.51941  0.16148  0.34077  1.0000
  S   S436      1.0  0.54118  0.15368  0.37418  1.0000
  H   H3398     1.0  0.50329  0.98846  0.38884  1.0000
  C   C1926     1.0  0.66220  0.27028  0.49769  1.0000
  C   C1927     1.0  0.66723  0.28669  0.50352  1.0000
  C   C1928     1.0  0.68519  0.29374  0.49460  1.0000
  C   C1929     1.0  0.69835  0.28440  0.47973  1.0000
  C   C1930     1.0  0.69323  0.26809  0.47377  1.0000
  C   C1931     1.0  0.67527  0.26103  0.48271  1.0000
  H   H3399     1.0  0.65720  0.29398  0.51506  1.0000
  H   H3400     1.0  0.68890  0.30634  0.49927  1.0000
  H   H3401     1.0  0.67157  0.24841  0.47806  1.0000
  C   C1932     1.0  0.58535  0.21086  0.44357  1.0000
  C   C1933     1.0  0.58286  0.20398  0.42660  1.0000
  C   C1934     1.0  0.56557  0.21139  0.41792  1.0000
  C   C1935     1.0  0.55066  0.22573  0.42618  1.0000
  C   C1936     1.0  0.55313  0.23252  0.44320  1.0000
  C   C1937     1.0  0.57035  0.22504  0.45195  1.0000
  H   H3402     1.0  0.59446  0.19308  0.41998  1.0000
  H   H3403     1.0  0.56386  0.20613  0.40474  1.0000
  H   H3404     1.0  0.54183  0.24386  0.44943  1.0000
  H   H3405     1.0  0.57225  0.23057  0.46488  1.0000
  C   C1938     1.0  0.55352  0.21348  0.56560  1.0000
  C   C1939     1.0  0.56329  0.19367  0.56879  1.0000
  C   C1940     1.0  0.55695  0.18063  0.58628  1.0000
  C   C1941     1.0  0.54062  0.18724  0.60043  1.0000
  C   C1942     1.0  0.53137  0.20724  0.59750  1.0000
  C   C1943     1.0  0.53802  0.22039  0.58027  1.0000
  H   H3406     1.0  0.57551  0.18830  0.55766  1.0000
  H   H3407     1.0  0.56448  0.16535  0.58861  1.0000
  H   H3408     1.0  0.51913  0.21260  0.60855  1.0000
  H   H3409     1.0  0.53095  0.23588  0.57812  1.0000
  C   C1944     1.0  0.63473  0.13894  0.53790  1.0000
  C   C1945     1.0  0.61419  0.14021  0.53914  1.0000
  C   C1946     1.0  0.60585  0.12274  0.54256  1.0000
  C   C1947     1.0  0.61785  0.10385  0.54524  1.0000
  C   C1948     1.0  0.63840  0.10248  0.54418  1.0000
  C   C1949     1.0  0.64681  0.12002  0.54052  1.0000
  H   H3410     1.0  0.60468  0.15464  0.53774  1.0000
  H   H3411     1.0  0.58999  0.12387  0.54344  1.0000
  H   H3412     1.0  0.64779  0.08795  0.54631  1.0000
  H   H3413     1.0  0.66272  0.11893  0.53970  1.0000
  H   H3414     1.0  0.64304  0.14121  0.42721  1.0000
  H   H3415     1.0  0.50197  0.33681  0.31642  1.0000
  H   H3416     1.0  0.51333  0.99268  0.31608  1.0000
  H   H3417     1.0  0.54434  0.12000  0.64631  1.0000
  H   H3418     1.0  0.68373  0.39996  0.35937  1.0000
  H   H3419     1.0  0.62906  0.31544  0.56302  1.0000
  Fe  Fe225     1.0  0.51407  0.02302  0.33914  1.0000
  C   C1950     1.0  0.73188  0.01892  0.57341  1.0000
  H   H3420     1.0  0.70850  0.99627  0.48973  1.0000
  H   H3421     1.0  0.56887  0.08164  0.62926  1.0000
  H   H3422     1.0  0.72473  0.45452  0.56703  1.0000
  H   H3423     1.0  0.56713  0.10126  0.57653  1.0000
  H   H3424     1.0  0.65516  0.14133  0.45559  1.0000
  C   C1951     1.0  0.68569  0.42647  0.33681  1.0000
  H   H3425     1.0  0.49563  0.25703  0.52572  1.0000
  Fe  Fe226     1.0  0.55292  0.02461  0.35149  1.0000
  H   H3426     1.0  0.71120  0.26403  0.55828  1.0000
  H   H3427     1.0  0.67301  0.43435  0.34651  1.0000
  S   S437      1.0  0.71597  0.43645  0.61488  1.0000
  H   H3428     1.0  0.63282  0.11596  0.49788  1.0000
  C   C1952     1.0  0.50345  0.24180  0.53124  1.0000
  H   H3429     1.0  0.59021  0.03925  0.60174  1.0000
  H   H3430     1.0  0.53516  0.01622  0.62218  1.0000
  H   H3431     1.0  0.64925  0.07476  0.48930  1.0000
  C   C1953     1.0  0.65517  0.47547  0.63333  1.0000
  N   N107      1.0  0.59288  0.26153  0.57350  1.0000
  C   C1954     1.0  0.59273  0.26466  0.55127  1.0000
  C   C1955     1.0  0.60739  0.24273  0.57920  1.0000
  C   C1956     1.0  0.57227  0.25801  0.58414  1.0000
  C   C1957     1.0  0.59781  0.27931  0.57999  1.0000
  C   C1958     1.0  0.61221  0.29182  0.56460  1.0000
  C   C1959     1.0  0.57610  0.28136  0.54354  1.0000
  C   C1960     1.0  0.56961  0.25204  0.60732  1.0000
  C   C1961     1.0  0.62968  0.24282  0.57006  1.0000
  C   C1962     1.0  0.64241  0.22246  0.57589  1.0000
  C   C1963     1.0  0.61928  0.30637  0.57447  1.0000
  C   C1964     1.0  0.58093  0.28813  0.52090  1.0000
  H   H3432     1.0  0.50898  0.16839  0.43464  1.0000
  H   H3433     1.0  0.59075  0.25067  0.54692  1.0000
  H   H3434     1.0  0.60730  0.26772  0.54244  1.0000
  H   H3435     1.0  0.60709  0.23948  0.59566  1.0000
  H   H3436     1.0  0.60280  0.22963  0.57534  1.0000
  H   H3437     1.0  0.56767  0.24606  0.57829  1.0000
  H   H3438     1.0  0.56103  0.27167  0.58093  1.0000
  H   H3439     1.0  0.58399  0.29015  0.58391  1.0000
  H   H3440     1.0  0.60415  0.27439  0.59411  1.0000
  H   H3441     1.0  0.60453  0.30083  0.55229  1.0000
  H   H3442     1.0  0.62559  0.28244  0.55753  1.0000
  H   H3443     1.0  0.56176  0.27558  0.54676  1.0000
  H   H3444     1.0  0.57379  0.29462  0.55096  1.0000
  H   H3445     1.0  0.51923  0.35271  0.31723  1.0000
  H   H3446     1.0  0.57672  0.23624  0.61151  1.0000
  H   H3447     1.0  0.63200  0.24632  0.55349  1.0000
  H   H3448     1.0  0.63547  0.25386  0.57597  1.0000
  H   H3449     1.0  0.63748  0.21052  0.57045  1.0000
  H   H3450     1.0  0.65825  0.22294  0.56899  1.0000
  H   H3451     1.0  0.64144  0.21862  0.59242  1.0000
  H   H3452     1.0  0.62800  0.29807  0.58630  1.0000
  C   C1965     1.0  0.48814  0.24417  0.57613  1.0000
  C   C1966     1.0  0.55587  0.02305  0.58536  1.0000
  H   H3453     1.0  0.59514  0.29420  0.51680  1.0000
  H   H3454     1.0  0.58230  0.27538  0.51296  1.0000
  H   H3455     1.0  0.56877  0.30000  0.51585  1.0000
  H   H3456     1.0  0.50712  0.16806  0.56052  1.0000
  H   H3457     1.0  0.68231  0.20785  0.53867  1.0000
  H   H3458     1.0  0.56378  0.29378  0.32587  1.0000
  S   S438      1.0  0.49899  0.24104  0.37204  1.0000
  H   H3459     1.0  0.62853  0.09449  0.46420  1.0000
  H   H3460     1.0  0.56902  0.16477  0.49274  1.0000
  H   H3461     1.0  0.54217  0.17921  0.45192  1.0000
  H   H3462     1.0  0.54782  0.07687  0.62123  1.0000
  H   H3463     1.0  0.53851  0.24092  0.48701  1.0000
  H   H3464     1.0  0.58876  0.07587  0.59367  1.0000
  H   H3465     1.0  0.52268  0.19230  0.48611  1.0000
  H   H3466     1.0  0.53232  0.16658  0.48331  1.0000
  S   S439      1.0  0.65206  0.99639  0.56210  1.0000
  H   H3467     1.0  0.56676  0.06835  0.58982  1.0000
  H   H3468     1.0  0.57339  0.11450  0.62642  1.0000
  H   H3469     1.0  0.52444  0.10666  0.61613  1.0000
  C   C1967     1.0  0.70778  0.27311  0.54385  1.0000
  H   H3470     1.0  0.72577  0.39458  0.38587  1.0000
  H   H3471     1.0  0.52762  0.21970  0.51844  1.0000
  C   C1968     1.0  0.53533  0.17586  0.44010  1.0000
  N   N108      1.0  0.48878  0.22924  0.54432  1.0000
  N   N109      1.0  0.73261  0.42182  0.51101  1.0000
  H   H3472     1.0  0.70683  0.43112  0.53268  1.0000
  H   H3473     1.0  0.57752  0.15375  0.51627  1.0000
  S   S440      1.0  0.69280  0.01627  0.57652  1.0000
  C   C1969     1.0  0.53587  0.00322  0.61474  1.0000
  Fe  Fe227     1.0  0.49988  0.17918  0.63670  1.0000
  H   H3474     1.0  0.64711  0.45285  0.62024  1.0000
  H   H3475     1.0  0.54486  0.99674  0.58421  1.0000
  H   H3476     1.0  0.68361  0.42214  0.38240  1.0000
  H   H3477     1.0  0.59343  0.12280  0.50285  1.0000
  H   H3478     1.0  0.51312  0.17661  0.58131  1.0000
  Fe  Fe228     1.0  0.71397  0.42231  0.64749  1.0000
  C   C1970     1.0  0.57509  0.06992  0.60141  1.0000
  H   H3479     1.0  0.51063  0.13857  0.32187  1.0000
  C   C1971     1.0  0.57164  0.11715  0.61042  1.0000
  C   C1972     1.0  0.71593  0.39206  0.37609  1.0000
  S   S441      1.0  0.71917  0.34670  0.54181  1.0000
  H   H3480     1.0  0.71654  0.43070  0.57159  1.0000
  C   C1973     1.0  0.58153  0.04892  0.61263  1.0000
  H   H3481     1.0  0.53772  0.28795  0.35571  1.0000
  C   C1974     1.0  0.50018  0.17503  0.48306  1.0000
  S   S442      1.0  0.72182  0.29174  0.46909  1.0000
  C   C1975     1.0  0.72394  0.40525  0.50643  1.0000
  C   C1976     1.0  0.69590  0.40742  0.34954  1.0000
  S   S443      1.0  0.73614  0.39081  0.45158  1.0000
  N   N110      1.0  0.70987  0.41112  0.36202  1.0000
  H   H3482     1.0  0.54982  0.99300  0.61807  1.0000
  C   C1977     1.0  0.69799  0.44865  0.40013  1.0000
  C   C1978     1.0  0.72195  0.03902  0.49726  1.0000
  C   C1979     1.0  0.54056  0.27845  0.34393  1.0000
  H   H3483     1.0  0.72831  0.23439  0.55494  1.0000
  C   C1980     1.0  0.58066  0.98859  0.38359  1.0000
  C   C1981     1.0  0.72819  0.43998  0.47466  1.0000
  S   S444      1.0  0.71676  0.34501  0.48671  1.0000
  H   H3484     1.0  0.69474  0.44125  0.36515  1.0000
  C   C1982     1.0  0.50387  0.13251  0.41333  1.0000
  H   H3485     1.0  0.72432  0.43180  0.38515  1.0000
  H   H3486     1.0  0.70354  0.39671  0.33935  1.0000
  H   H3487     1.0  0.60067  0.09767  0.60605  1.0000
  C   C1983     1.0  0.53640  0.11364  0.61922  1.0000
  C   C1984     1.0  0.71881  0.37014  0.56974  1.0000
  H   H3488     1.0  0.69507  0.25203  0.51949  1.0000
  H   H3489     1.0  0.51697  0.15452  0.51734  1.0000
  H   H3490     1.0  0.50654  0.14819  0.41062  1.0000
  H   H3491     1.0  0.65336  0.13964  0.49400  1.0000
  H   H3492     1.0  0.73117  0.09213  0.63058  1.0000
  H   H3493     1.0  0.66688  0.41053  0.32612  1.0000
  H   H3494     1.0  0.61501  0.13558  0.41246  1.0000
  H   H3495     1.0  0.69617  0.29975  0.55752  1.0000
  H   H3496     1.0  0.49436  0.22981  0.58483  1.0000
  H   H3497     1.0  0.60642  0.12992  0.61317  1.0000
  H   H3498     1.0  0.52627  0.27428  0.34269  1.0000
  H   H3499     1.0  0.55084  0.26449  0.34858  1.0000
  H   H3500     1.0  0.61380  0.14807  0.49836  1.0000
  H   H3501     1.0  0.57635  0.26178  0.61402  1.0000
  H   H3502     1.0  0.54402  0.15643  0.41745  1.0000
  H   H3503     1.0  0.64591  0.11578  0.44013  1.0000
  C   C1985     1.0  0.71809  0.44459  0.56049  1.0000
  H   H3504     1.0  0.70246  0.38731  0.38633  1.0000
  H   H3505     1.0  0.58426  0.13313  0.47952  1.0000
  C   C1986     1.0  0.53958  0.01004  0.59175  1.0000
  H   H3506     1.0  0.63899  0.16450  0.49047  1.0000
  H   H3507     1.0  0.66066  0.48334  0.61816  1.0000
  H   H3508     1.0  0.58452  0.99157  0.41297  1.0000
  N   N111      1.0  0.51800  0.99301  0.62331  1.0000
  H   H3509     1.0  0.69476  0.40588  0.52615  1.0000
  H   H3510     1.0  0.68393  0.47162  0.64194  1.0000
  H   H3511     1.0  0.56626  0.13352  0.60689  1.0000
  C   C1987     1.0  0.72804  0.41898  0.34937  1.0000
  C   C1988     1.0  0.63278  0.07863  0.49336  1.0000
  C   C1989     1.0  0.62594  0.12287  0.41855  1.0000
  H   H3512     1.0  0.54618  0.24874  0.63328  1.0000
  H   H3513     1.0  0.68138  0.15117  0.46865  1.0000
  Fe  Fe229     1.0  0.52952  0.06268  0.33081  1.0000
  H   H3514     1.0  0.70409  0.30489  0.53080  1.0000
  C   C1990     1.0  0.70553  0.23901  0.52592  1.0000
  H   H3515     1.0  0.50651  0.24247  0.45984  1.0000
  H   H3516     1.0  0.72239  0.29709  0.54732  1.0000
  C   C1991     1.0  0.57306  0.15047  0.50288  1.0000
  H   H3517     1.0  0.51419  0.24428  0.54007  1.0000
  H   H3518     1.0  0.59123  0.04937  0.62344  1.0000
  H   H3519     1.0  0.66670  0.17600  0.46429  1.0000
  C   C1992     1.0  0.55065  0.13086  0.57490  1.0000
  C   C1993     1.0  0.54474  0.13230  0.55446  1.0000
  H   H3520     1.0  0.53881  0.14070  0.58339  1.0000
  H   H3521     1.0  0.56471  0.13701  0.57237  1.0000
  H   H3522     1.0  0.54419  0.14792  0.54635  1.0000
  H   H3523     1.0  0.55575  0.12226  0.54529  1.0000
  H   H3524     1.0  0.52976  0.12812  0.55636  1.0000
  C   C1994     1.0  0.51667  0.23281  0.51314  1.0000
  H   H3525     1.0  0.68249  0.20332  0.51386  1.0000
  C   C1995     1.0  0.72787  0.37398  0.36644  1.0000
  H   H3526     1.0  0.72955  0.40264  0.49084  1.0000
  H   H3527     1.0  0.49824  0.00989  0.60270  1.0000
  C   C1996     1.0  0.54999  0.15975  0.42996  1.0000
  H   H3528     1.0  0.56995  0.01489  0.59045  1.0000
  C   C1997     1.0  0.54756  0.25355  0.61678  1.0000
  C   C1998     1.0  0.51944  0.17681  0.49011  1.0000
  H   H3529     1.0  0.60828  0.10028  0.48380  1.0000
  H   H3530     1.0  0.72396  0.41051  0.54257  1.0000
  Fe  Fe230     1.0  0.73495  0.33938  0.51139  1.0000
  C   C1999     1.0  0.51466  0.16938  0.44829  1.0000
  H   H3531     1.0  0.50405  0.17939  0.52056  1.0000
  H   H3532     1.0  0.49114  0.26909  0.32870  1.0000
  H   H3533     1.0  0.69913  0.39467  0.48447  1.0000
  S   S445      1.0  0.50466  0.20136  0.35026  1.0000
  C   C2000     1.0  0.55391  0.10880  0.58584  1.0000
  H   H3534     1.0  0.64962  0.44526  0.64625  1.0000
  H   H3535     1.0  0.70510  0.22726  0.49882  1.0000
  H   H3536     1.0  0.50771  0.22797  0.50407  1.0000
  C   C2001     1.0  0.62472  0.09761  0.47977  1.0000
  C   C2002     1.0  0.66928  0.16216  0.47548  1.0000
  H   H3537     1.0  0.56435  0.16517  0.42363  1.0000
  C   C2003     1.0  0.69827  0.42643  0.37476  1.0000
  C   C2004     1.0  0.70765  0.29501  0.54488  1.0000
  C   C2005     1.0  0.70868  0.43000  0.39129  1.0000
  H   H3538     1.0  0.55061  0.11111  0.37607  1.0000
  H   H3539     1.0  0.67158  0.44637  0.62711  1.0000
  H   H3540     1.0  0.50511  0.12576  0.42912  1.0000
  H   H3541     1.0  0.71413  0.45035  0.50214  1.0000
  C   C2006     1.0  0.52859  0.24802  0.49931  1.0000
  H   H3542     1.0  0.49153  0.16485  0.58471  1.0000
  H   H3543     1.0  0.55974  0.14303  0.50787  1.0000
  H   H3544     1.0  0.71570  0.20866  0.51743  1.0000
  H   H3545     1.0  0.70863  0.41718  0.40390  1.0000
  C   C2007     1.0  0.65010  0.15332  0.48285  1.0000
  H   H3546     1.0  0.69244  0.27190  0.54245  1.0000
  H   H3547     1.0  0.50541  0.03569  0.62061  1.0000
  N   N112      1.0  0.55640  0.10572  0.60756  1.0000
  C   C2008     1.0  0.56163  0.08364  0.61583  1.0000
  H   H3548     1.0  0.55291  0.14582  0.44091  1.0000
  H   H3549     1.0  0.69903  0.23544  0.54208  1.0000
  H   H3550     1.0  0.61060  0.15048  0.44596  1.0000
  C   C2009     1.0  0.63490  0.12867  0.43458  1.0000
  H   H3551     1.0  0.73245  0.00521  0.58423  1.0000
  H   H3552     1.0  0.71889  0.27624  0.51207  1.0000
  H   H3553     1.0  0.54133  0.10160  0.58460  1.0000
  S   S446      1.0  0.50724  0.19574  0.39801  1.0000
  H   H3554     1.0  0.69437  0.42365  0.50321  1.0000
  C   C2010     1.0  0.72303  0.42506  0.53206  1.0000
  C   C2011     1.0  0.72799  0.46051  0.46128  1.0000
  H   H3555     1.0  0.72681  0.04404  0.48100  1.0000
  H   H3556     1.0  0.72009  0.37028  0.35551  1.0000
  H   H3557     1.0  0.60635  0.31668  0.58117  1.0000
  H   H3558     1.0  0.59888  0.14267  0.58956  1.0000
  H   H3559     1.0  0.70330  0.26078  0.46227  1.0000
  H   H3560     1.0  0.52800  0.31556  0.32878  1.0000
  H   H3561     1.0  0.67126  0.22740  0.52052  1.0000
  H   H3562     1.0  0.70311  0.45246  0.55751  1.0000
  C   C2012     1.0  0.59296  0.11208  0.59860  1.0000
  H   H3563     1.0  0.54183  0.08814  0.35711  1.0000
  H   H3564     1.0  0.70340  0.36823  0.57480  1.0000
  H   H3565     1.0  0.71826  0.38927  0.59117  1.0000
  S   S447      1.0  0.56910  0.01377  0.37799  1.0000
  C   C2013     1.0  0.73019  0.36095  0.55374  1.0000
  H   H3566     1.0  0.51732  0.20620  0.45518  1.0000
  H   H3567     1.0  0.67415  0.16602  0.48838  1.0000
  H   H3568     1.0  0.60410  0.16225  0.47698  1.0000
  C   C2014     1.0  0.50188  0.20421  0.45511  1.0000
  C   C2015     1.0  0.60881  0.14665  0.48453  1.0000
  N   N113      1.0  0.62572  0.13608  0.47092  1.0000
  C   C2016     1.0  0.61846  0.13537  0.45194  1.0000
  H   H3569     1.0  0.60712  0.12549  0.45489  1.0000
  C   C2017     1.0  0.49868  0.00628  0.61899  1.0000
  H   H3570     1.0  0.53089  0.17376  0.51776  1.0000
  H   H3571     1.0  0.56838  0.04208  0.62075  1.0000
  C   C2018     1.0  0.54187  0.11714  0.36424  1.0000
  H   H3572     1.0  0.71452  0.43447  0.47373  1.0000
  C   C2019     1.0  0.69344  0.39332  0.50084  1.0000
  S   S448      1.0  0.60608  0.99413  0.60728  1.0000
  C   C2020     1.0  0.59000  0.13668  0.49198  1.0000
  C   C2021     1.0  0.72719  0.38201  0.57906  1.0000
  C   C2022     1.0  0.51766  0.17074  0.51285  1.0000
  H   H3573     1.0  0.51844  0.26107  0.49257  1.0000
  C   C2023     1.0  0.51660  0.98820  0.64584  1.0000
  C   C2024     1.0  0.65597  0.45365  0.63167  1.0000
  H   H3574     1.0  0.50824  0.20115  0.54105  1.0000
  H   H3575     1.0  0.50815  0.13334  0.64638  1.0000
  H   H3576     1.0  0.55893  0.02695  0.56875  1.0000
  H   H3577     1.0  0.72902  0.39075  0.51590  1.0000
  C   C2025     1.0  0.53514  0.30792  0.31576  1.0000
  H   H3578     1.0  0.73016  0.06789  0.53465  1.0000
  H   H3579     1.0  0.69847  0.37788  0.50838  1.0000
  H   H3580     1.0  0.62079  0.12368  0.58971  1.0000
  H   H3581     1.0  0.67688  0.39613  0.50321  1.0000
  H   H3582     1.0  0.49950  0.20968  0.43930  1.0000
  C   C2026     1.0  0.72329  0.26634  0.52582  1.0000
  Fe  Fe231     1.0  0.73415  0.31600  0.47837  1.0000
  C   C2027     1.0  0.72996  0.07865  0.64213  1.0000
  H   H3583     1.0  0.49424  0.13780  0.37733  1.0000
  H   H3584     1.0  0.51563  0.12388  0.40341  1.0000
  H   H3585     1.0  0.72572  0.05603  0.62619  1.0000
  H   H3586     1.0  0.49889  0.15891  0.48698  1.0000
  H   H3587     1.0  0.70607  0.45082  0.41165  1.0000
  H   H3588     1.0  0.69769  0.46219  0.38833  1.0000
  H   H3589     1.0  0.55308  0.33366  0.32183  1.0000
  H   H3590     1.0  0.72856  0.25129  0.49151  1.0000
  H   H3591     1.0  0.72507  0.43563  0.34566  1.0000
  C   C2028     1.0  0.70386  0.22182  0.51523  1.0000
  H   H3592     1.0  0.54027  0.24367  0.61082  1.0000
  C   C2029     1.0  0.50078  0.17501  0.57408  1.0000
  C   C2030     1.0  0.50029  0.20966  0.55314  1.0000
  H   H3593     1.0  0.73408  0.02399  0.52342  1.0000
  C   C2031     1.0  0.49103  0.24053  0.45983  1.0000
  H   H3594     1.0  0.71656  0.35104  0.39027  1.0000
  C   C2032     1.0  0.72874  0.44132  0.49674  1.0000
  H   H3595     1.0  0.68927  0.98734  0.48182  1.0000
  C   C2033     1.0  0.53488  0.11075  0.64233  1.0000
  N   N114      1.0  0.49931  0.18252  0.46116  1.0000
  C   C2034     1.0  0.49346  0.02655  0.62676  1.0000
  C   C2035     1.0  0.54991  0.28943  0.32379  1.0000
  H   H3596     1.0  0.72841  0.20290  0.54501  1.0000
  H   H3597     1.0  0.71505  0.47143  0.46698  1.0000
  H   H3598     1.0  0.71446  0.05234  0.50420  1.0000
  H   H3599     1.0  0.72675  0.45937  0.44578  1.0000
  H   H3600     1.0  0.71094  0.02884  0.49935  1.0000
  H   H3601     1.0  0.73049  0.09042  0.59946  1.0000
  H   H3602     1.0  0.50040  0.25254  0.56878  1.0000
  H   H3603     1.0  0.49112  0.02423  0.64337  1.0000
  H   H3604     1.0  0.69842  0.08026  0.64130  1.0000
  H   H3605     1.0  0.51717  0.98581  0.58389  1.0000
  H   H3606     1.0  0.73719  0.39535  0.33005  1.0000
  H   H3607     1.0  0.48794  0.24470  0.44421  1.0000
  C   C2036     1.0  0.48792  0.19539  0.56868  1.0000
  C   C2037     1.0  0.48825  0.21894  0.46837  1.0000
  C   C2038     1.0  0.73710  0.23240  0.53993  1.0000
  C   C2039     1.0  0.66824  0.47719  0.64848  1.0000
  C   C2040     1.0  0.63863  0.34864  0.75975  1.0000
  H   H3608     1.0  0.53620  0.21576  0.86310  1.0000
  Fe  Fe232     1.0  0.59836  0.41749  0.78016  1.0000
  C   C2041     1.0  0.52155  0.17501  0.84110  1.0000
  S   S449      1.0  0.59921  0.38426  0.78284  1.0000
  C   C2042     1.0  0.64591  0.38913  0.73783  1.0000
  C   C2043     1.0  0.61361  0.39679  0.71065  1.0000
  S   S450      1.0  0.62412  0.42951  0.78585  1.0000
  H   H3609     1.0  0.68456  0.45437  0.71837  1.0000
  Fe  Fe233     1.0  0.50979  0.28874  0.75445  1.0000
  H   H3610     1.0  0.66486  0.34849  0.73642  1.0000
  Fe  Fe234     1.0  0.51983  0.32790  0.76276  1.0000
  H   H3611     1.0  0.53951  0.09489  0.64892  1.0000
  S   S451      1.0  0.53196  0.35669  0.74973  1.0000
  Fe  Fe235     1.0  0.51575  0.29297  0.79659  1.0000
  S   S452      1.0  0.52756  0.27644  0.82504  1.0000
  S   S453      1.0  0.53544  0.29586  0.76617  1.0000
  H   H3612     1.0  0.61157  0.37789  0.73948  1.0000
  C   C2044     1.0  0.51014  0.04242  0.79816  1.0000
  S   S454      1.0  0.57632  0.43515  0.80098  1.0000
  H   H3613     1.0  0.58908  0.38534  0.70384  1.0000
  H   H3614     1.0  0.58768  0.15893  0.90409  1.0000
  S   S455      1.0  0.70147  0.02642  0.89513  1.0000
  Fe  Fe236     1.0  0.69552  0.12000  0.96314  1.0000
  H   H3615     1.0  0.66492  0.35760  0.66106  1.0000
  S   S456      1.0  0.66503  0.13390  0.95450  1.0000
  S   S457      1.0  0.51432  0.27079  0.72855  1.0000
  S   S458      1.0  0.70128  0.08788  0.97736  1.0000
  C   C2045     1.0  0.59955  0.15989  0.89066  1.0000
  Fe  Fe237     1.0  0.57385  0.11385  0.91304  1.0000
  S   S459      1.0  0.56280  0.13176  0.88518  1.0000
  S   S460      1.0  0.60701  0.10103  0.91257  1.0000
  Fe  Fe238     1.0  0.53159  0.11747  0.93680  1.0000
  S   S461      1.0  0.51753  0.13612  0.91108  1.0000
  H   H3616     1.0  0.48887  0.22872  0.84155  1.0000
  Fe  Fe239     1.0  0.53733  0.11406  0.89267  1.0000
  S   S462      1.0  0.52888  0.09897  0.86929  1.0000
  Fe  Fe240     1.0  0.54394  0.15204  0.90607  1.0000
  S   S463      1.0  0.54090  0.18593  0.89822  1.0000
  S   S464      1.0  0.55011  0.09446  0.91899  1.0000
  S   S465      1.0  0.55624  0.13499  0.93337  1.0000
  Fe  Fe241     1.0  0.53541  0.29315  0.96188  1.0000
  S   S466      1.0  0.56471  0.27966  0.97182  1.0000
  Fe  Fe242     1.0  0.55424  0.30642  0.91878  1.0000
  S   S467      1.0  0.58532  0.29412  0.92526  1.0000
  S   S468      1.0  0.54648  0.32238  0.88855  1.0000
  Fe  Fe243     1.0  0.57157  0.26754  0.94279  1.0000
  S   S469      1.0  0.58221  0.23444  0.94259  1.0000
  Fe  Fe244     1.0  0.57553  0.30758  0.95386  1.0000
  S   S470      1.0  0.59196  0.32913  0.96340  1.0000
  S   S471      1.0  0.54152  0.27919  0.93442  1.0000
  S   S472      1.0  0.54526  0.32187  0.94577  1.0000
  C   C2046     1.0  0.55154  0.19944  0.91135  1.0000
  C   C2047     1.0  0.56197  0.18977  0.92689  1.0000
  C   C2048     1.0  0.57054  0.20079  0.93688  1.0000
  C   C2049     1.0  0.56903  0.22160  0.93130  1.0000
  C   C2050     1.0  0.55844  0.23136  0.91586  1.0000
  C   C2051     1.0  0.54971  0.22033  0.90596  1.0000
  H   H3617     1.0  0.56358  0.17377  0.93120  1.0000
  H   H3618     1.0  0.57852  0.19312  0.94889  1.0000
  H   H3619     1.0  0.55754  0.24731  0.91105  1.0000
  H   H3620     1.0  0.54176  0.22803  0.89391  1.0000
  H   H3621     1.0  0.59970  0.19113  0.88824  1.0000
  C   C2052     1.0  0.73574  0.04477  0.82823  1.0000
  H   H3622     1.0  0.66109  0.38342  0.66406  1.0000
  H   H3623     1.0  0.55577  0.08784  0.97202  1.0000
  H   H3624     1.0  0.51456  0.10261  0.71169  1.0000
  H   H3625     1.0  0.67299  0.37196  0.74952  1.0000
  C   C2053     1.0  0.50544  0.09503  0.86492  1.0000
  C   C2054     1.0  0.50519  0.07984  0.85413  1.0000
  H   H3626     1.0  0.69248  0.17382  0.87805  1.0000
  H   H3627     1.0  0.51905  0.07031  0.84940  1.0000
  C   C2055     1.0  0.64909  0.12310  0.94416  1.0000
  C   C2056     1.0  0.62845  0.13043  0.94729  1.0000
  C   C2057     1.0  0.61539  0.12371  0.93791  1.0000
  C   C2058     1.0  0.62284  0.10964  0.92510  1.0000
  C   C2059     1.0  0.64348  0.10222  0.92205  1.0000
  C   C2060     1.0  0.65653  0.10877  0.93164  1.0000
  H   H3628     1.0  0.62253  0.14151  0.95692  1.0000
  H   H3629     1.0  0.59959  0.12957  0.94044  1.0000
  H   H3630     1.0  0.64951  0.09157  0.91199  1.0000
  H   H3631     1.0  0.67239  0.10316  0.92887  1.0000
  C   C2061     1.0  0.71309  0.03445  0.91183  1.0000
  C   C2062     1.0  0.71563  0.06111  0.92902  1.0000
  C   C2063     1.0  0.70564  0.05334  0.91734  1.0000
  H   H3632     1.0  0.71003  0.07590  0.93278  1.0000
  H   H3633     1.0  0.69235  0.06222  0.91219  1.0000
  C   C2064     1.0  0.53265  0.28940  0.84264  1.0000
  C   C2065     1.0  0.53075  0.31027  0.83920  1.0000
  C   C2066     1.0  0.53488  0.32010  0.85347  1.0000
  C   C2067     1.0  0.54106  0.30924  0.87128  1.0000
  C   C2068     1.0  0.54301  0.28835  0.87474  1.0000
  C   C2069     1.0  0.53880  0.27849  0.86049  1.0000
  H   H3634     1.0  0.52614  0.31885  0.82552  1.0000
  H   H3635     1.0  0.53314  0.33622  0.85072  1.0000
  H   H3636     1.0  0.54783  0.27980  0.88833  1.0000
  H   H3637     1.0  0.54037  0.26235  0.86330  1.0000
  C   C2070     1.0  0.65481  0.45020  0.71770  1.0000
  C   C2071     1.0  0.64313  0.44223  0.70806  1.0000
  C   C2072     1.0  0.65214  0.43219  0.69190  1.0000
  C   C2073     1.0  0.67288  0.42980  0.68543  1.0000
  C   C2074     1.0  0.68451  0.43790  0.69500  1.0000
  C   C2075     1.0  0.67547  0.44817  0.71101  1.0000
  H   H3638     1.0  0.62713  0.44414  0.71285  1.0000
  H   H3639     1.0  0.64298  0.42640  0.68425  1.0000
  H   H3640     1.0  0.70049  0.43603  0.69029  1.0000
  H   H3641     1.0  0.53779  0.17327  0.83544  1.0000
  C   C2076     1.0  0.57981  0.37675  0.77456  1.0000
  C   C2077     1.0  0.57877  0.35633  0.77710  1.0000
  C   C2078     1.0  0.56364  0.35000  0.77034  1.0000
  C   C2079     1.0  0.54981  0.36407  0.76042  1.0000
  C   C2080     1.0  0.55092  0.38448  0.75783  1.0000
  C   C2081     1.0  0.56569  0.39083  0.76511  1.0000
  H   H3642     1.0  0.58980  0.34529  0.78410  1.0000
  H   H3643     1.0  0.56301  0.33423  0.77224  1.0000
  H   H3644     1.0  0.54033  0.39543  0.75008  1.0000
  H   H3645     1.0  0.56633  0.40660  0.76304  1.0000
  H   H3646     1.0  0.59544  0.98586  0.80135  1.0000
  H   H3647     1.0  0.62677  0.15890  0.91289  1.0000
  H   H3648     1.0  0.50382  0.04385  0.81402  1.0000
  H   H3649     1.0  0.59393  0.23886  0.88777  1.0000
  S   S473      1.0  0.72642  0.11991  0.94486  1.0000
  C   C2082     1.0  0.49481  0.32430  0.69543  1.0000
  H   H3650     1.0  0.72703  0.05850  0.83364  1.0000
  N   N115      1.0  0.57236  0.37114  0.84804  1.0000
  C   C2083     1.0  0.58159  0.34940  0.84826  1.0000
  C   C2084     1.0  0.56053  0.37355  0.86858  1.0000
  C   C2085     1.0  0.55779  0.37654  0.83344  1.0000
  C   C2086     1.0  0.58750  0.38515  0.84156  1.0000
  C   C2087     1.0  0.60874  0.37708  0.84672  1.0000
  C   C2088     1.0  0.59039  0.34322  0.82753  1.0000
  C   C2089     1.0  0.54418  0.39730  0.83342  1.0000
  C   C2090     1.0  0.57213  0.36732  0.88641  1.0000
  C   C2091     1.0  0.55794  0.36847  0.90637  1.0000
  C   C2092     1.0  0.62108  0.39389  0.84247  1.0000
  C   C2093     1.0  0.60276  0.32221  0.82962  1.0000
  C   C2094     1.0  0.53418  0.40357  0.81482  1.0000
  H   H3651     1.0  0.57021  0.33976  0.85532  1.0000
  H   H3652     1.0  0.59338  0.34471  0.85774  1.0000
  H   H3653     1.0  0.55353  0.38943  0.86900  1.0000
  H   H3654     1.0  0.54797  0.36489  0.87198  1.0000
  H   H3655     1.0  0.54782  0.36515  0.83631  1.0000
  H   H3656     1.0  0.56592  0.37628  0.81782  1.0000
  H   H3657     1.0  0.58982  0.39004  0.82499  1.0000
  H   H3658     1.0  0.58166  0.39926  0.84777  1.0000
  H   H3659     1.0  0.61677  0.36569  0.83737  1.0000
  H   H3660     1.0  0.60844  0.37000  0.86259  1.0000
  H   H3661     1.0  0.57805  0.34294  0.81963  1.0000
  H   H3662     1.0  0.59990  0.35383  0.81816  1.0000
  H   H3663     1.0  0.55276  0.40905  0.83380  1.0000
  H   H3664     1.0  0.53213  0.39673  0.84674  1.0000
  H   H3665     1.0  0.58028  0.35174  0.88726  1.0000
  H   H3666     1.0  0.58271  0.37770  0.88520  1.0000
  H   H3667     1.0  0.56660  0.36378  0.91891  1.0000
  H   H3668     1.0  0.54986  0.38399  0.90690  1.0000
  H   H3669     1.0  0.54695  0.35825  0.90856  1.0000
  H   H3670     1.0  0.63632  0.38774  0.84586  1.0000
  H   H3671     1.0  0.62237  0.40099  0.82644  1.0000
  H   H3672     1.0  0.61406  0.40551  0.85193  1.0000
  H   H3673     1.0  0.60811  0.31793  0.81456  1.0000
  H   H3674     1.0  0.61590  0.32172  0.83670  1.0000
  H   H3675     1.0  0.59350  0.31119  0.83886  1.0000
  H   H3676     1.0  0.52551  0.39213  0.81367  1.0000
  H   H3677     1.0  0.52393  0.41803  0.81573  1.0000
  H   H3678     1.0  0.54557  0.40563  0.80108  1.0000
  H   H3679     1.0  0.69101  0.02779  0.96425  1.0000
  H   H3680     1.0  0.52759  0.21235  0.96500  1.0000
  H   H3681     1.0  0.51599  0.00190  0.65214  1.0000
  H   H3682     1.0  0.50159  0.27588  0.93079  1.0000
  C   C2095     1.0  0.52890  0.23313  0.78279  1.0000
  C   C2096     1.0  0.66629  0.36779  0.67104  1.0000
  C   C2097     1.0  0.50078  0.11080  0.80138  1.0000
  H   H3683     1.0  0.51938  0.10175  0.77429  1.0000
  H   H3684     1.0  0.72924  0.02141  0.81473  1.0000
  H   H3685     1.0  0.71012  0.44404  0.84542  1.0000
  H   H3686     1.0  0.68049  0.45920  0.83326  1.0000
  C   C2098     1.0  0.66868  0.43173  0.84289  1.0000
  C   C2099     1.0  0.49317  0.12631  0.97337  1.0000
  N   N116      1.0  0.51940  0.21339  0.84083  1.0000
  H   H3687     1.0  0.54073  0.23245  0.84049  1.0000
  H   H3688     1.0  0.73588  0.00835  0.91474  1.0000
  H   H3689     1.0  0.64443  0.44460  0.82603  1.0000
  S   S474      1.0  0.73089  0.44326  0.65500  1.0000
  H   H3690     1.0  0.52153  0.06998  0.79109  1.0000
  H   H3691     1.0  0.65427  0.39180  0.69863  1.0000
  H   H3692     1.0  0.61113  0.24999  0.86751  1.0000
  H   H3693     1.0  0.67220  0.37227  0.70794  1.0000
  H   H3694     1.0  0.63509  0.38920  0.75212  1.0000
  H   H3695     1.0  0.61749  0.36444  0.71937  1.0000
  H   H3696     1.0  0.51358  0.23857  0.93186  1.0000
  H   H3697     1.0  0.65599  0.47896  0.96074  1.0000
  C   C2100     1.0  0.65368  0.36268  0.69166  1.0000
  S   S475      1.0  0.54072  0.47231  0.77350  1.0000
  C   C2101     1.0  0.63073  0.46396  0.97236  1.0000
  N   N117      1.0  0.48959  0.09715  0.77377  1.0000
  H   H3698     1.0  0.51190  0.08783  0.74891  1.0000
  H   H3699     1.0  0.71181  0.45167  0.96985  1.0000
  H   H3700     1.0  0.52556  0.15303  0.86791  1.0000
  H   H3701     1.0  0.62235  0.17704  0.87624  1.0000
  C   C2102     1.0  0.49040  0.07627  0.78583  1.0000
  C   C2103     1.0  0.49113  0.14555  0.96205  1.0000
  H   H3702     1.0  0.51060  0.32951  0.97843  1.0000
  S   S476      1.0  0.71277  0.98861  0.85733  1.0000
  H   H3703     1.0  0.56079  0.20193  0.82460  1.0000
  H   H3704     1.0  0.50762  0.44830  0.79064  1.0000
  H   H3705     1.0  0.49974  0.09638  0.81153  1.0000
  C   C2104     1.0  0.51253  0.20817  0.96685  1.0000
  H   H3706     1.0  0.70903  0.47638  0.84503  1.0000
  H   H3707     1.0  0.51673  0.99496  0.80589  1.0000
  H   H3708     1.0  0.53176  0.46940  0.84101  1.0000
  C   C2105     1.0  0.69933  0.01320  0.97039  1.0000
  H   H3709     1.0  0.51993  0.13343  0.79617  1.0000
  C   C2106     1.0  0.70814  0.07994  0.65235  1.0000
  C   C2107     1.0  0.51136  0.06300  0.78522  1.0000
  H   H3710     1.0  0.63294  0.47799  0.67438  1.0000
  C   C2108     1.0  0.70263  0.43915  0.86099  1.0000
  H   H3711     1.0  0.64405  0.34189  0.72991  1.0000
  H   H3712     1.0  0.66125  0.32313  0.76827  1.0000
  H   H3713     1.0  0.51811  0.06043  0.76980  1.0000
  H   H3714     1.0  0.62195  0.39734  0.69512  1.0000
  C   C2109     1.0  0.73692  0.42681  0.87087  1.0000
  H   H3715     1.0  0.69965  0.00131  0.94348  1.0000
  C   C2110     1.0  0.49905  0.11072  0.71498  1.0000
  H   H3716     1.0  0.51496  0.23031  0.77913  1.0000
  H   H3717     1.0  0.53236  0.10791  0.80292  1.0000
  H   H3718     1.0  0.52445  0.17241  0.95233  1.0000
  H   H3719     1.0  0.62022  0.21302  0.87383  1.0000
  H   H3720     1.0  0.49268  0.33737  0.70315  1.0000
  C   C2111     1.0  0.51332  0.18656  0.97895  1.0000
  H   H3721     1.0  0.50630  0.24472  0.84010  1.0000
  H   H3722     1.0  0.53326  0.20253  0.81301  1.0000
  H   H3723     1.0  0.50179  0.32858  0.67959  1.0000
  H   H3724     1.0  0.65689  0.46201  0.84877  1.0000
  C   C2112     1.0  0.67066  0.44007  0.88387  1.0000
  C   C2113     1.0  0.64792  0.44780  0.88881  1.0000
  H   H3725     1.0  0.50732  0.21186  0.81486  1.0000
  C   C2114     1.0  0.63343  0.18505  0.96640  1.0000
  H   H3726     1.0  0.53785  0.37402  0.98026  1.0000
  C   C2115     1.0  0.63873  0.43691  0.90904  1.0000
  H   H3727     1.0  0.60651  0.36150  0.97304  1.0000
  H   H3728     1.0  0.51154  0.43731  0.76823  1.0000
  S   S477      1.0  0.59673  0.47433  0.77825  1.0000
  H   H3729     1.0  0.51552  0.12049  0.82167  1.0000
  H   H3730     1.0  0.64001  0.16901  0.97003  1.0000
  S   S478      1.0  0.51388  0.10812  0.96709  1.0000
  C   C2116     1.0  0.55744  0.20222  0.84093  1.0000
  H   H3731     1.0  0.67265  0.42376  0.88356  1.0000
  H   H3732     1.0  0.67707  0.44112  0.89706  1.0000
  H   H3733     1.0  0.64001  0.44542  0.87729  1.0000
  H   H3734     1.0  0.73384  0.05222  0.87238  1.0000
  H   H3735     1.0  0.57282  0.20820  0.86313  1.0000
  Fe  Fe245     1.0  0.73247  0.08808  0.96087  1.0000
  H   H3736     1.0  0.51056  0.20712  0.95153  1.0000
  H   H3737     1.0  0.65864  0.34665  0.69746  1.0000
  H   H3738     1.0  0.63339  0.04896  0.95247  1.0000
  H   H3739     1.0  0.49375  0.46801  0.74790  1.0000
  H   H3740     1.0  0.64545  0.43962  0.92133  1.0000
  H   H3741     1.0  0.62244  0.44264  0.91204  1.0000
  H   H3742     1.0  0.64094  0.42056  0.90903  1.0000
  H   H3743     1.0  0.50324  0.10811  0.64968  1.0000
  H   H3744     1.0  0.68229  0.36612  0.67226  1.0000
  H   H3745     1.0  0.54345  0.17402  0.96619  1.0000
  N   N118      1.0  0.63099  0.04119  0.89396  1.0000
  C   C2117     1.0  0.65059  0.04232  0.87985  1.0000
  C   C2118     1.0  0.62770  0.01976  0.89861  1.0000
  C   C2119     1.0  0.61466  0.05485  0.88387  1.0000
  C   C2120     1.0  0.63114  0.04799  0.91332  1.0000
  C   C2121     1.0  0.64706  0.03559  0.92582  1.0000
  C   C2122     1.0  0.65891  0.06210  0.87709  1.0000
  C   C2123     1.0  0.59289  0.05359  0.89455  1.0000
  S   S479      1.0  0.50152  0.32528  0.79360  1.0000
  H   H3746     1.0  0.61264  0.25088  0.89308  1.0000
  C   C2124     1.0  0.64830  0.04577  0.94308  1.0000
  C   C2125     1.0  0.67559  0.06389  0.85891  1.0000
  C   C2126     1.0  0.57798  0.06641  0.88162  1.0000
  H   H3747     1.0  0.64922  0.04005  0.86472  1.0000
  H   H3748     1.0  0.66241  0.02980  0.88463  1.0000
  H   H3749     1.0  0.52531  0.03330  0.79772  1.0000
  H   H3750     1.0  0.63987  0.31664  0.76124  1.0000
  H   H3751     1.0  0.61603  0.05230  0.86821  1.0000
  H   H3752     1.0  0.61628  0.07077  0.88238  1.0000
  H   H3753     1.0  0.63293  0.06395  0.91048  1.0000
  H   H3754     1.0  0.61649  0.04752  0.92337  1.0000
  H   H3755     1.0  0.66205  0.03352  0.91656  1.0000
  H   H3756     1.0  0.64315  0.02058  0.93241  1.0000
  H   H3757     1.0  0.64719  0.07545  0.87492  1.0000
  H   H3758     1.0  0.66513  0.06256  0.89055  1.0000
  H   H3759     1.0  0.58986  0.05920  0.90901  1.0000
  H   H3760     1.0  0.58977  0.03809  0.89753  1.0000
  C   C2127     1.0  0.50359  0.10857  0.77908  1.0000
  C   C2128     1.0  0.50801  0.98580  0.81754  1.0000
  H   H3761     1.0  0.51407  0.24694  0.80790  1.0000
  H   H3762     1.0  0.65864  0.03584  0.95262  1.0000
  C   C2129     1.0  0.69501  0.99743  0.95994  1.0000
  C   C2130     1.0  0.71661  0.43997  0.87563  1.0000
  H   H3763     1.0  0.68206  0.07749  0.85815  1.0000
  H   H3764     1.0  0.68765  0.05069  0.86007  1.0000
  H   H3765     1.0  0.66965  0.06514  0.84487  1.0000
  H   H3766     1.0  0.57963  0.08241  0.87902  1.0000
  H   H3767     1.0  0.58015  0.06134  0.86696  1.0000
  H   H3768     1.0  0.56250  0.06511  0.88934  1.0000
  H   H3769     1.0  0.55139  0.46769  0.81963  1.0000
  H   H3770     1.0  0.50490  0.12428  0.73796  1.0000
  H   H3771     1.0  0.68316  0.42157  0.84022  1.0000
  H   H3772     1.0  0.60746  0.21127  0.91299  1.0000
  H   H3773     1.0  0.49567  0.47939  0.76782  1.0000
  H   H3774     1.0  0.64310  0.35810  0.76868  1.0000
  H   H3775     1.0  0.71936  0.45542  0.87455  1.0000
  H   H3776     1.0  0.50218  0.14926  0.94908  1.0000
  C   C2131     1.0  0.60889  0.47531  0.86207  1.0000
  H   H3777     1.0  0.69158  0.14771  0.87968  1.0000
  H   H3778     1.0  0.67879  0.99684  0.96295  1.0000
  C   C2132     1.0  0.65620  0.37598  0.70624  1.0000
  H   H3779     1.0  0.61166  0.01980  0.87396  1.0000
  H   H3780     1.0  0.70902  0.47350  0.69049  1.0000
  C   C2133     1.0  0.52795  0.17139  0.96755  1.0000
  H   H3781     1.0  0.51886  0.25727  0.69084  1.0000
  C   C2134     1.0  0.72374  0.45759  0.97422  1.0000
  C   C2135     1.0  0.51826  0.11867  0.80567  1.0000
  C   C2136     1.0  0.61107  0.47324  0.84190  1.0000
  H   H3782     1.0  0.54142  0.22109  0.77865  1.0000
  Fe  Fe246     1.0  0.60134  0.44964  0.80420  1.0000
  H   H3783     1.0  0.71009  0.43462  0.89137  1.0000
  N   N119      1.0  0.64293  0.37380  0.72647  1.0000
  C   C2137     1.0  0.64999  0.46739  0.97179  1.0000
  H   H3784     1.0  0.66212  0.19632  0.89336  1.0000
  H   H3785     1.0  0.50118  0.15639  0.86096  1.0000
  H   H3786     1.0  0.65416  0.05998  0.93719  1.0000
  H   H3787     1.0  0.65689  0.42010  0.82158  1.0000
  H   H3788     1.0  0.71475  0.04580  0.80849  1.0000
  N   N120      1.0  0.68172  0.45074  0.86491  1.0000
  C   C2138     1.0  0.62115  0.37728  0.72454  1.0000
  H   H3789     1.0  0.63932  0.22507  0.87776  1.0000
  H   H3790     1.0  0.58898  0.19740  0.84274  1.0000
  H   H3791     1.0  0.52783  0.48393  0.81692  1.0000
  S   S480      1.0  0.59339  0.43985  0.75245  1.0000
  H   H3792     1.0  0.60066  0.46555  0.87360  1.0000
  H   H3793     1.0  0.61713  0.20484  0.94514  1.0000
  H   H3794     1.0  0.51272  0.11591  0.66874  1.0000
  H   H3795     1.0  0.61000  0.14540  0.89114  1.0000
  C   C2139     1.0  0.59157  0.39837  0.70956  1.0000
  S   S481      1.0  0.68366  0.41681  0.66529  1.0000
  H   H3796     1.0  0.49367  0.21574  0.87872  1.0000
  C   C2140     1.0  0.50260  0.22975  0.84706  1.0000
  H   H3797     1.0  0.61487  0.01779  0.91103  1.0000
  H   H3798     1.0  0.64516  0.19435  0.96464  1.0000
  H   H3799     1.0  0.70899  0.03127  0.83302  1.0000
  C   C2141     1.0  0.57526  0.20825  0.84671  1.0000
  C   C2142     1.0  0.51740  0.15569  0.85513  1.0000
  H   H3800     1.0  0.62987  0.21951  0.91341  1.0000
  C   C2143     1.0  0.50077  0.44044  0.78196  1.0000
  S   S482      1.0  0.64386  0.46372  0.73735  1.0000
  Fe  Fe247     1.0  0.61767  0.45323  0.75938  1.0000
  H   H3801     1.0  0.73327  0.02533  0.85720  1.0000
  C   C2144     1.0  0.66729  0.38728  0.74231  1.0000
  C   C2145     1.0  0.66775  0.40152  0.75639  1.0000
  H   H3802     1.0  0.64242  0.40442  0.72931  1.0000
  H   H3803     1.0  0.61513  0.41018  0.71634  1.0000
  H   H3804     1.0  0.67770  0.39129  0.72821  1.0000
  H   H3805     1.0  0.66197  0.41719  0.75002  1.0000
  H   H3806     1.0  0.65860  0.39729  0.77125  1.0000
  H   H3807     1.0  0.68335  0.40073  0.75850  1.0000
  H   H3808     1.0  0.64644  0.16796  0.93269  1.0000
  H   H3809     1.0  0.62215  0.35155  0.76127  1.0000
  H   H3810     1.0  0.61269  0.17945  0.95007  1.0000
  C   C2146     1.0  0.60956  0.24156  0.88307  1.0000
  H   H3811     1.0  0.65600  0.15287  0.89437  1.0000
  C   C2147     1.0  0.67167  0.45200  0.84717  1.0000
  H   H3812     1.0  0.50936  0.23427  0.87557  1.0000
  C   C2148     1.0  0.62433  0.18896  0.94731  1.0000
  H   H3813     1.0  0.67107  0.16021  0.90915  1.0000
  C   C2149     1.0  0.73020  0.02305  0.91867  1.0000
  C   C2150     1.0  0.68268  0.16303  0.87786  1.0000
  H   H3814     1.0  0.66889  0.44151  0.81075  1.0000
  Fe  Fe248     1.0  0.57302  0.45870  0.77389  1.0000
  H   H3815     1.0  0.57754  0.22341  0.83859  1.0000
  C   C2151     1.0  0.51379  0.19348  0.85184  1.0000
  H   H3816     1.0  0.60654  0.17666  0.92121  1.0000
  H   H3817     1.0  0.68738  0.47140  0.88195  1.0000
  C   C2152     1.0  0.66490  0.16429  0.89498  1.0000
  H   H3818     1.0  0.67751  0.16621  0.86316  1.0000
  H   H3819     1.0  0.53230  0.24756  0.77360  1.0000
  C   C2153     1.0  0.61068  0.17703  0.88979  1.0000
  H   H3820     1.0  0.51339  0.24807  0.96266  1.0000
  S   S483      1.0  0.60095  0.45408  0.83600  1.0000
  H   H3821     1.0  0.55616  0.18696  0.84934  1.0000
  H   H3822     1.0  0.54041  0.23784  0.80768  1.0000
  C   C2154     1.0  0.53808  0.21688  0.84661  1.0000
  H   H3823     1.0  0.59242  0.16250  0.87714  1.0000
  H   H3824     1.0  0.63765  0.32439  0.78508  1.0000
  C   C2155     1.0  0.52143  0.21451  0.81844  1.0000
  N   N121      1.0  0.49651  0.22404  0.97542  1.0000
  C   C2156     1.0  0.62406  0.22169  0.88388  1.0000
  H   H3825     1.0  0.65296  0.19218  0.92852  1.0000
  C   C2157     1.0  0.62459  0.01100  0.88072  1.0000
  H   H3826     1.0  0.73121  0.08108  0.89054  1.0000
  H   H3827     1.0  0.66496  0.46616  0.66226  1.0000
  Fe  Fe249     1.0  0.70771  0.99469  0.88889  1.0000
  H   H3828     1.0  0.64490  0.46391  0.88972  1.0000
  H   H3829     1.0  0.58231  0.39904  0.72458  1.0000
  H   H3830     1.0  0.50515  0.31177  0.70267  1.0000
  H   H3831     1.0  0.64841  0.18920  0.87781  1.0000
  H   H3832     1.0  0.65884  0.42412  0.85560  1.0000
  C   C2158     1.0  0.50672  0.25082  0.70069  1.0000
  H   H3833     1.0  0.51379  0.17653  0.82815  1.0000
  C   C2159     1.0  0.65916  0.43474  0.82417  1.0000
  H   H3834     1.0  0.70626  0.06696  0.66459  1.0000
  H   H3835     1.0  0.62161  0.18895  0.97913  1.0000
  C   C2160     1.0  0.61958  0.17469  0.90907  1.0000
  H   H3836     1.0  0.52261  0.14281  0.84696  1.0000
  C   C2161     1.0  0.64839  0.35279  0.73738  1.0000
  N   N122      1.0  0.63372  0.18869  0.90882  1.0000
  C   C2162     1.0  0.65216  0.18562  0.89311  1.0000
  C   C2163     1.0  0.62336  0.21027  0.90575  1.0000
  C   C2164     1.0  0.64047  0.18409  0.92899  1.0000
  C   C2165     1.0  0.64480  0.32683  0.76907  1.0000
  C   C2166     1.0  0.49889  0.24382  0.96197  1.0000
  H   H3837     1.0  0.48808  0.23493  0.93747  1.0000
  C   C2167     1.0  0.49841  0.24440  0.93946  1.0000
  C   C2168     1.0  0.49686  0.23834  0.69354  1.0000
  H   H3838     1.0  0.48755  0.25621  0.96733  1.0000
  S   S484      1.0  0.61553  0.47984  0.95624  1.0000
  H   H3839     1.0  0.58663  0.41225  0.69929  1.0000
  H   H3840     1.0  0.70331  0.09388  0.65892  1.0000
  H   H3841     1.0  0.70217  0.42303  0.86177  1.0000
  H   H3842     1.0  0.63797  0.36469  0.68947  1.0000
  C   C2169     1.0  0.50110  0.25499  0.72040  1.0000
  S   S485      1.0  0.49610  0.32128  0.74846  1.0000
  C   C2170     1.0  0.52634  0.23434  0.80505  1.0000
  C   C2171     1.0  0.72132  0.03515  0.82071  1.0000
  H   H3843     1.0  0.64079  0.00977  0.90434  1.0000
  H   H3844     1.0  0.51852  0.18972  0.86681  1.0000
  H   H3845     1.0  0.50141  0.23539  0.67835  1.0000
  H   H3846     1.0  0.49779  0.42594  0.79127  1.0000
  H   H3847     1.0  0.50208  0.12409  0.77055  1.0000
  C   C2172     1.0  0.53901  0.47799  0.82703  1.0000
  H   H3848     1.0  0.48857  0.39855  0.96678  1.0000
  C   C2173     1.0  0.49602  0.09507  0.75190  1.0000
  H   H3849     1.0  0.49756  0.12512  0.70435  1.0000
  C   C2174     1.0  0.73341  0.05023  0.93482  1.0000
  C   C2175     1.0  0.68195  0.47171  0.86778  1.0000
  H   H3850     1.0  0.50071  0.03437  0.79247  1.0000
  C   C2176     1.0  0.51344  0.11741  0.65232  1.0000
  H   H3851     1.0  0.71553  0.01387  0.96622  1.0000
  H   H3852     1.0  0.57686  0.09937  0.97172  1.0000
  H   H3853     1.0  0.52699  0.15598  0.97580  1.0000
  Fe  Fe250     1.0  0.73563  0.12827  0.97149  1.0000
  H   H3854     1.0  0.49358  0.26564  0.91238  1.0000
  C   C2177     1.0  0.49207  0.26564  0.92870  1.0000
  H   H3855     1.0  0.49725  0.19441  0.85509  1.0000
  H   H3856     1.0  0.63809  0.01074  0.86891  1.0000
  H   H3857     1.0  0.71992  0.47415  0.97193  1.0000
  C   C2178     1.0  0.49703  0.23031  0.86995  1.0000
  C   C2179     1.0  0.62070  0.98952  0.88752  1.0000
  S   S486      1.0  0.49030  0.16818  0.66950  1.0000
  C   C2180     1.0  0.49425  0.11488  0.73650  1.0000
  H   H3858     1.0  0.70656  0.48069  0.65428  1.0000
  H   H3859     1.0  0.66656  0.48038  0.86965  1.0000
  H   H3860     1.0  0.60735  0.98884  0.89945  1.0000
  C   C2181     1.0  0.56593  0.09033  0.98147  1.0000
  H   H3861     1.0  0.67528  0.48343  0.68202  1.0000
  S   S487      1.0  0.49141  0.28325  0.78525  1.0000
  H   H3862     1.0  0.73520  0.41093  0.87246  1.0000
  H   H3863     1.0  0.48850  0.10174  0.71245  1.0000
  H   H3864     1.0  0.49658  0.89974  0.26134  1.0000
  H   H3865     1.0  0.61157  0.63033  0.08845  1.0000
  H   H3866     1.0  0.50462  0.67114  0.13237  1.0000
  H   H3867     1.0  0.52979  0.66688  0.98335  1.0000
  C   C2182     1.0  0.50656  0.83802  0.10630  1.0000
  H   H3868     1.0  0.56762  0.49533  0.19923  1.0000
  H   H3869     1.0  0.58882  0.60142  0.99402  1.0000
  S   S488      1.0  0.54088  0.53941  0.26078  1.0000
  H   H3870     1.0  0.68909  0.97862  0.18374  1.0000
  C   C2183     1.0  0.71851  0.89469  0.98335  1.0000
  Fe  Fe251     1.0  0.72888  0.97056  0.15223  1.0000
  S   S489      1.0  0.71204  0.94613  0.15192  1.0000
  H   H3871     1.0  0.49459  0.73491  0.06095  1.0000
  H   H3872     1.0  0.53431  0.97529  0.08919  1.0000
  Fe  Fe252     1.0  0.71658  0.84315  0.05899  1.0000
  C   C2184     1.0  0.56165  0.65999  0.17404  1.0000
  H   H3873     1.0  0.51094  0.52665  0.22148  1.0000
  C   C2185     1.0  0.50558  0.81738  0.98850  1.0000
  S   S490      1.0  0.65892  0.96671  0.14523  1.0000
  Fe  Fe253     1.0  0.70386  0.82928  0.02478  1.0000
  S   S491      1.0  0.67657  0.83029  0.01125  1.0000
  C   C2186     1.0  0.55817  0.65779  0.15351  1.0000
  S   S492      1.0  0.70714  0.85915  0.03014  1.0000
  H   H3874     1.0  0.57120  0.96922  0.22063  1.0000
  C   C2187     1.0  0.52712  0.61205  0.16679  1.0000
  H   H3875     1.0  0.56463  0.64224  0.15123  1.0000
  H   H3876     1.0  0.68727  0.89127  0.10593  1.0000
  Fe  Fe254     1.0  0.55766  0.59315  0.03624  1.0000
  S   S493      1.0  0.54420  0.62432  0.02367  1.0000
  S   S494      1.0  0.57148  0.56752  0.01919  1.0000
  Fe  Fe255     1.0  0.54349  0.59990  0.07982  1.0000
  S   S495      1.0  0.52886  0.63166  0.07102  1.0000
  S   S496      1.0  0.54265  0.58194  0.11112  1.0000
  Fe  Fe256     1.0  0.51800  0.61977  0.04809  1.0000
  Fe  Fe257     1.0  0.55623  0.63388  0.04739  1.0000
  S   S497      1.0  0.57190  0.66073  0.03842  1.0000
  S   S498      1.0  0.53016  0.58780  0.05878  1.0000
  S   S499      1.0  0.57208  0.60290  0.05811  1.0000
  Fe  Fe258     1.0  0.58089  0.78506  0.05847  1.0000
  S   S500      1.0  0.56066  0.77542  0.08709  1.0000
  S   S501      1.0  0.61376  0.77601  0.05997  1.0000
  Fe  Fe259     1.0  0.54604  0.80326  0.03657  1.0000
  S   S502      1.0  0.52332  0.79512  0.06346  1.0000
  S   S503      1.0  0.53689  0.81785  0.00681  1.0000
  Fe  Fe260     1.0  0.54226  0.80584  0.08038  1.0000
  S   S504      1.0  0.53115  0.82477  0.10477  1.0000
  Fe  Fe261     1.0  0.54378  0.76561  0.06742  1.0000
  S   S505      1.0  0.52930  0.73796  0.07554  1.0000
  S   S506      1.0  0.56374  0.81629  0.05308  1.0000
  S   S507      1.0  0.56529  0.77290  0.03920  1.0000
  C   C2188     1.0  0.51152  0.81876  0.00629  1.0000
  C   C2189     1.0  0.59395  0.58839  0.98678  1.0000
  S   S508      1.0  0.52131  0.62427  0.18773  1.0000
  C   C2190     1.0  0.50139  0.60585  0.01310  1.0000
  H   H3877     1.0  0.59775  0.70918  0.06940  1.0000
  C   C2191     1.0  0.58782  0.57018  0.99605  1.0000
  H   H3878     1.0  0.67946  0.87687  0.98419  1.0000
  C   C2192     1.0  0.71364  0.90189  0.10854  1.0000
  H   H3879     1.0  0.56964  0.69024  0.08623  1.0000
  H   H3880     1.0  0.63625  0.56754  0.99675  1.0000
  H   H3881     1.0  0.51296  0.59917  0.02193  1.0000
  C   C2193     1.0  0.55929  0.68302  0.04686  1.0000
  C   C2194     1.0  0.56929  0.69934  0.04396  1.0000
  C   C2195     1.0  0.55999  0.71666  0.05207  1.0000
  C   C2196     1.0  0.54072  0.71761  0.06324  1.0000
  C   C2197     1.0  0.53047  0.70164  0.06535  1.0000
  C   C2198     1.0  0.53965  0.68448  0.05709  1.0000
  H   H3882     1.0  0.58446  0.69836  0.03593  1.0000
  H   H3883     1.0  0.56805  0.72889  0.05034  1.0000
  H   H3884     1.0  0.51553  0.70237  0.07373  1.0000
  H   H3885     1.0  0.53162  0.67226  0.05894  1.0000
  H   H3886     1.0  0.49797  0.69245  0.03762  1.0000
  H   H3887     1.0  0.66330  0.86034  0.03692  1.0000
  N   N123      1.0  0.60086  0.49124  0.03157  1.0000
  H   H3888     1.0  0.50718  0.84823  0.13361  1.0000
  C   C2199     1.0  0.61922  0.98239  0.14736  1.0000
  C   C2200     1.0  0.49712  0.82101  0.02339  1.0000
  H   H3889     1.0  0.57131  0.95622  0.28510  1.0000
  C   C2201     1.0  0.53674  0.59386  0.13232  1.0000
  H   H3890     1.0  0.56552  0.69189  0.00026  1.0000
  C   C2202     1.0  0.65928  0.81480  0.02416  1.0000
  C   C2203     1.0  0.63916  0.82037  0.02184  1.0000
  C   C2204     1.0  0.62496  0.80860  0.03273  1.0000
  C   C2205     1.0  0.63098  0.79095  0.04552  1.0000
  C   C2206     1.0  0.65119  0.78509  0.04724  1.0000
  C   C2207     1.0  0.66528  0.79709  0.03679  1.0000
  H   H3891     1.0  0.63449  0.83400  0.01192  1.0000
  H   H3892     1.0  0.60941  0.81313  0.03120  1.0000
  H   H3893     1.0  0.65597  0.77119  0.05671  1.0000
  H   H3894     1.0  0.68085  0.79248  0.03828  1.0000
  H   H3895     1.0  0.50148  0.82278  0.03697  1.0000
  H   H3896     1.0  0.54343  0.75486  0.00824  1.0000
  H   H3897     1.0  0.49265  0.93262  0.07793  1.0000
  C   C2208     1.0  0.50542  0.64440  0.30020  1.0000
  C   C2209     1.0  0.71401  0.87259  0.09386  1.0000
  H   H3898     1.0  0.59893  0.62901  0.06856  1.0000
  C   C2210     1.0  0.56762  0.67331  0.13663  1.0000
  S   S509      1.0  0.70094  0.85698  0.08622  1.0000
  C   C2211     1.0  0.73505  0.93468  0.04691  1.0000
  C   C2212     1.0  0.49335  0.69651  0.99712  1.0000
  H   H3899     1.0  0.64688  0.89384  0.99828  1.0000
  C   C2213     1.0  0.57245  0.68998  0.10154  1.0000
  S   S510      1.0  0.71071  0.81370  0.05490  1.0000
  H   H3900     1.0  0.60407  0.50435  0.30266  1.0000
  H   H3901     1.0  0.49064  0.52064  0.24137  1.0000
  N   N124      1.0  0.63117  0.51993  0.26876  1.0000
  C   C2214     1.0  0.56146  0.52862  0.24470  1.0000
  C   C2215     1.0  0.56985  0.53962  0.22680  1.0000
  C   C2216     1.0  0.58704  0.53074  0.21497  1.0000
  C   C2217     1.0  0.59575  0.51082  0.22091  1.0000
  C   C2218     1.0  0.58701  0.49973  0.23851  1.0000
  C   C2219     1.0  0.56997  0.50861  0.25040  1.0000
  H   H3902     1.0  0.56332  0.55506  0.22228  1.0000
  H   H3903     1.0  0.59368  0.53936  0.20126  1.0000
  H   H3904     1.0  0.61794  0.49881  0.25864  1.0000
  H   H3905     1.0  0.56344  0.50002  0.26418  1.0000
  H   H3906     1.0  0.50698  0.68021  0.10570  1.0000
  H   H3907     1.0  0.50544  0.66754  0.01454  1.0000
  H   H3908     1.0  0.70539  0.91444  0.11553  1.0000
  H   H3909     1.0  0.58957  0.53943  0.99335  1.0000
  H   H3910     1.0  0.51917  0.88537  0.13772  1.0000
  C   C2220     1.0  0.49846  0.84868  0.12215  1.0000
  S   S511      1.0  0.61769  0.50014  0.20635  1.0000
  H   H3911     1.0  0.54257  0.56624  0.15281  1.0000
  H   H3912     1.0  0.49239  0.89186  0.13995  1.0000
  H   H3913     1.0  0.50893  0.48561  0.24817  1.0000
  H   H3914     1.0  0.49323  0.61045  0.11078  1.0000
  H   H3915     1.0  0.53303  0.70825  0.99149  1.0000
  H   H3916     1.0  0.49681  0.69724  0.12329  1.0000
  H   H3917     1.0  0.52938  0.69063  0.13530  1.0000
  H   H3918     1.0  0.68836  0.98419  0.03042  1.0000
  C   C2221     1.0  0.53209  0.97282  0.10582  1.0000
  C   C2222     1.0  0.50354  0.89086  0.16671  1.0000
  H   H3919     1.0  0.62613  0.54874  0.24926  1.0000
  C   C2223     1.0  0.52754  0.75930  0.00630  1.0000
  H   H3920     1.0  0.66159  0.50484  0.26093  1.0000
  H   H3921     1.0  0.49207  0.76587  0.06638  1.0000
  H   H3922     1.0  0.49700  0.56222  0.02698  1.0000
  H   H3923     1.0  0.71178  0.88715  0.99744  1.0000
  H   H3924     1.0  0.50069  0.87616  0.06120  1.0000
  H   H3925     1.0  0.73449  0.92606  0.06246  1.0000
  H   H3926     1.0  0.58353  0.67157  0.13830  1.0000
  H   H3927     1.0  0.71026  0.89144  0.05382  1.0000
  C   C2224     1.0  0.60254  0.50069  0.28824  1.0000
  H   H3928     1.0  0.73597  0.96851  0.06285  1.0000
  C   C2225     1.0  0.62196  0.50124  0.27260  1.0000
  H   H3929     1.0  0.49829  0.54122  0.18154  1.0000
  H   H3930     1.0  0.49679  0.95635  0.11831  1.0000
  H   H3931     1.0  0.58723  0.49478  0.99361  1.0000
  C   C2226     1.0  0.70385  0.90757  0.05112  1.0000
  H   H3932     1.0  0.58275  0.52050  0.02506  1.0000
  H   H3933     1.0  0.49528  0.54701  0.05149  1.0000
  H   H3934     1.0  0.63957  0.52529  0.98979  1.0000
  N   N125      1.0  0.56628  0.67170  0.11549  1.0000
  C   C2227     1.0  0.49142  0.67860  0.01459  1.0000
  H   H3935     1.0  0.61608  0.48843  0.05675  1.0000
  H   H3936     1.0  0.52590  0.66393  0.30035  1.0000
  H   H3937     1.0  0.57751  0.57505  0.27413  1.0000
  H   H3938     1.0  0.72079  0.94321  0.99516  1.0000
  C   C2228     1.0  0.54530  0.67064  0.11355  1.0000
  H   H3939     1.0  0.66575  0.53232  0.27954  1.0000
  C   C2229     1.0  0.57575  0.98199  0.20923  1.0000
  H   H3940     1.0  0.64450  0.50803  0.29535  1.0000
  H   H3941     1.0  0.50214  0.87597  0.01648  1.0000
  H   H3942     1.0  0.72726  0.93723  0.21861  1.0000
  H   H3943     1.0  0.67261  0.52582  0.21542  1.0000
  H   H3944     1.0  0.63813  0.59357  0.99494  1.0000
  C   C2230     1.0  0.58744  0.50965  0.03817  1.0000
  C   C2231     1.0  0.73486  0.86933  0.09044  1.0000
  S   S512      1.0  0.52071  0.63404  0.27974  1.0000
  S   S513      1.0  0.50058  0.58358  0.27495  1.0000
  H   H3945     1.0  0.55462  0.64881  0.18581  1.0000
  H   H3946     1.0  0.51788  0.76416  0.03667  1.0000
  C   C2232     1.0  0.58265  0.64989  0.08807  1.0000
  C   C2233     1.0  0.53782  0.58227  0.15139  1.0000
  H   H3947     1.0  0.70468  0.92671  0.22690  1.0000
  H   H3948     1.0  0.56299  0.70383  0.10624  1.0000
  C   C2234     1.0  0.73451  0.89861  0.10506  1.0000
  H   H3949     1.0  0.61452  0.71323  0.08434  1.0000
  H   H3950     1.0  0.63308  0.48788  0.27721  1.0000
  C   C2235     1.0  0.65039  0.51666  0.25399  1.0000
  H   H3951     1.0  0.51904  0.98364  0.11149  1.0000
  H   H3952     1.0  0.55899  0.49794  0.04820  1.0000
  H   H3953     1.0  0.54344  0.49728  0.22832  1.0000
  H   H3954     1.0  0.48912  0.77625  0.01575  1.0000
  H   H3955     1.0  0.51194  0.96228  0.24022  1.0000
  H   H3956     1.0  0.72083  0.94558  0.04746  1.0000
  H   H3957     1.0  0.70971  0.94007  0.20170  1.0000
  C   C2236     1.0  0.59903  0.71109  0.08464  1.0000
  C   C2237     1.0  0.53062  0.61456  0.13057  1.0000
  S   S514      1.0  0.50493  0.57761  0.22763  1.0000
  C   C2238     1.0  0.51181  0.65924  0.30737  1.0000
  H   H3958     1.0  0.49129  0.89693  0.02935  1.0000
  H   H3959     1.0  0.65546  0.50134  0.99537  1.0000
  C   C2239     1.0  0.50687  0.51667  0.23583  1.0000
  C   C2240     1.0  0.64504  0.57789  0.00002  1.0000
  S   S515      1.0  0.50998  0.98039  0.15779  1.0000
  H   H3960     1.0  0.55234  0.97420  0.29678  1.0000
  H   H3961     1.0  0.56081  0.68854  0.13994  1.0000
  Fe  Fe262     1.0  0.51279  0.61221  0.26303  1.0000
  C   C2241     1.0  0.57719  0.48957  0.00754  1.0000
  H   H3962     1.0  0.59037  0.61733  0.09379  1.0000
  H   H3963     1.0  0.67012  0.96370  0.18569  1.0000
  H   H3964     1.0  0.67516  0.58363  0.99409  1.0000
  H   H3965     1.0  0.53446  0.58239  0.18319  1.0000
  H   H3966     1.0  0.56826  0.64910  0.08390  1.0000
  C   C2242     1.0  0.59676  0.63041  0.08462  1.0000
  H   H3967     1.0  0.67891  0.49113  0.29830  1.0000
  C   C2243     1.0  0.70341  0.88871  0.10319  1.0000
  H   H3968     1.0  0.57787  0.65730  0.17461  1.0000
  H   H3969     1.0  0.63749  0.98261  0.21201  1.0000
  H   H3970     1.0  0.59716  0.69470  0.11462  1.0000
  H   H3971     1.0  0.69689  0.51676  0.99141  1.0000
  H   H3972     1.0  0.60868  0.53317  0.25006  1.0000
  C   C2244     1.0  0.53314  0.59135  0.16860  1.0000
  H   H3973     1.0  0.64437  0.57562  0.01651  1.0000
  C   C2245     1.0  0.65018  0.53830  0.28603  1.0000
  H   H3974     1.0  0.51508  0.51916  0.24706  1.0000
  H   H3975     1.0  0.61676  0.96774  0.15541  1.0000
  C   C2246     1.0  0.49399  0.88039  0.03092  1.0000
  C   C2247     1.0  0.52561  0.62354  0.14783  1.0000
  H   H3976     1.0  0.54180  0.65988  0.15417  1.0000
  C   C2248     1.0  0.73331  0.94749  0.00025  1.0000
  S   S516      1.0  0.53796  0.59850  0.24101  1.0000
  H   H3977     1.0  0.49204  0.60541  0.14739  1.0000
  H   H3978     1.0  0.54768  0.93915  0.31108  1.0000
  C   C2249     1.0  0.63658  0.52251  0.28808  1.0000
  H   H3979     1.0  0.52498  0.77547  0.99982  1.0000
  C   C2250     1.0  0.48817  0.56070  0.04237  1.0000
  H   H3980     1.0  0.60661  0.97315  0.21197  1.0000
  S   S517      1.0  0.70894  0.96457  0.10494  1.0000
  H   H3981     1.0  0.65724  0.53045  0.24982  1.0000
  C   C2251     1.0  0.71531  0.91810  0.03148  1.0000
  H   H3982     1.0  0.52193  0.87825  0.04143  1.0000
  H   H3983     1.0  0.51788  0.73923  0.03276  1.0000
  H   H3984     1.0  0.73062  0.90206  0.16158  1.0000
  C   C2252     1.0  0.59439  0.69263  0.09997  1.0000
  H   H3985     1.0  0.71563  0.90934  0.01952  1.0000
  H   H3986     1.0  0.49704  0.92704  0.14547  1.0000
  H   H3987     1.0  0.50227  0.87484  0.17201  1.0000
  H   H3988     1.0  0.50121  0.83025  0.07951  1.0000
  H   H3989     1.0  0.59885  0.48684  0.17595  1.0000
  H   H3990     1.0  0.57381  0.63939  0.11941  1.0000
  H   H3991     1.0  0.50155  0.49218  0.22399  1.0000
  C   C2253     1.0  0.53384  0.48954  0.22236  1.0000
  C   C2254     1.0  0.61740  0.53787  0.25969  1.0000
  H   H3992     1.0  0.52948  0.62356  0.11599  1.0000
  H   H3993     1.0  0.58917  0.66224  0.07766  1.0000
  S   S518      1.0  0.49231  0.62249  0.24042  1.0000
  C   C2255     1.0  0.51411  0.75537  0.02663  1.0000
  H   H3994     1.0  0.54603  0.68895  0.31099  1.0000
  H   H3995     1.0  0.70586  0.93285  0.02743  1.0000
  C   C2256     1.0  0.61686  0.49774  0.01457  1.0000
  C   C2257     1.0  0.68188  0.90889  0.04985  1.0000
  C   C2258     1.0  0.50574  0.89549  0.14385  1.0000
  H   H3996     1.0  0.58866  0.72477  0.08855  1.0000
  C   C2259     1.0  0.59459  0.55339  0.98656  1.0000
  H   H3997     1.0  0.54550  0.97577  0.11045  1.0000
  N   N126      1.0  0.64258  0.82619  0.09284  1.0000
  C   C2260     1.0  0.64698  0.80364  0.09545  1.0000
  C   C2261     1.0  0.62066  0.83244  0.10046  1.0000
  C   C2262     1.0  0.64803  0.83467  0.07095  1.0000
  C   C2263     1.0  0.65456  0.83403  0.10456  1.0000
  C   C2264     1.0  0.65344  0.82460  0.12702  1.0000
  C   C2265     1.0  0.66928  0.79411  0.09070  1.0000
  C   C2266     1.0  0.64314  0.85784  0.06550  1.0000
  C   C2267     1.0  0.60599  0.82887  0.08778  1.0000
  C   C2268     1.0  0.58431  0.83507  0.09737  1.0000
  C   C2269     1.0  0.66641  0.83371  0.13698  1.0000
  C   C2270     1.0  0.67218  0.77139  0.09702  1.0000
  C   C2271     1.0  0.64728  0.86486  0.04288  1.0000
  H   H3998     1.0  0.63921  0.79822  0.08553  1.0000
  H   H3999     1.0  0.64077  0.79690  0.11092  1.0000
  H   H4000     1.0  0.61649  0.82427  0.11590  1.0000
  H   H4001     1.0  0.61730  0.84852  0.10204  1.0000
  H   H4002     1.0  0.64084  0.82790  0.06159  1.0000
  H   H4003     1.0  0.66434  0.83048  0.06572  1.0000
  H   H4004     1.0  0.67054  0.83242  0.09738  1.0000
  H   H4005     1.0  0.64967  0.85042  0.10413  1.0000
  H   H4006     1.0  0.65887  0.80823  0.12896  1.0000
  H   H4007     1.0  0.63788  0.82731  0.13514  1.0000
  H   H4008     1.0  0.67471  0.79735  0.07438  1.0000
  H   H4009     1.0  0.67893  0.79975  0.09847  1.0000
  H   H4010     1.0  0.65257  0.86495  0.07223  1.0000
  H   H4011     1.0  0.62726  0.86361  0.07080  1.0000
  H   H4012     1.0  0.60812  0.83775  0.07245  1.0000
  H   H4013     1.0  0.60802  0.81286  0.08643  1.0000
  H   H4014     1.0  0.58128  0.85112  0.09887  1.0000
  H   H4015     1.0  0.57417  0.83279  0.08781  1.0000
  H   H4016     1.0  0.58089  0.82582  0.11237  1.0000
  H   H4017     1.0  0.66129  0.85010  0.13600  1.0000
  H   H4018     1.0  0.66545  0.82679  0.15304  1.0000
  H   H4019     1.0  0.68228  0.83095  0.12958  1.0000
  H   H4020     1.0  0.68801  0.76485  0.09215  1.0000
  H   H4021     1.0  0.66850  0.76737  0.11358  1.0000
  H   H4022     1.0  0.66257  0.76476  0.09004  1.0000
  C   C2272     1.0  0.49512  0.83844  0.09171  1.0000
  H   H4023     1.0  0.63810  0.85843  0.03522  1.0000
  H   H4024     1.0  0.56641  0.50266  0.01215  1.0000
  H   H4025     1.0  0.57845  0.55880  0.25664  1.0000
  C   C2273     1.0  0.66833  0.51072  0.21924  1.0000
  N   N127      1.0  0.50666  0.92546  0.11407  1.0000
  C   C2274     1.0  0.52891  0.68806  0.12011  1.0000
  C   C2275     1.0  0.50822  0.91756  0.13585  1.0000
  C   C2276     1.0  0.50948  0.94711  0.10980  1.0000
  C   C2277     1.0  0.52267  0.91385  0.10044  1.0000
  C   C2278     1.0  0.51751  0.89502  0.09494  1.0000
  H   H4026     1.0  0.54107  0.65623  0.12183  1.0000
  C   C2279     1.0  0.52899  0.95133  0.11458  1.0000
  H   H4027     1.0  0.53074  0.70214  0.10945  1.0000
  C   C2280     1.0  0.73133  0.86342  0.15297  1.0000
  C   C2281     1.0  0.53606  0.88235  0.08488  1.0000
  H   H4028     1.0  0.68040  0.49975  0.22572  1.0000
  C   C2282     1.0  0.50096  0.59838  0.99590  1.0000
  Fe  Fe263     1.0  0.69149  0.96995  0.13511  1.0000
  H   H4029     1.0  0.57712  0.96874  0.30313  1.0000
  H   H4030     1.0  0.52303  0.91855  0.13898  1.0000
  C   C2283     1.0  0.51196  0.49475  0.23314  1.0000
  C   C2284     1.0  0.71665  0.92976  0.21391  1.0000
  H   H4031     1.0  0.50923  0.95343  0.09370  1.0000
  H   H4032     1.0  0.52705  0.92356  0.08588  1.0000
  H   H4033     1.0  0.53655  0.90915  0.10716  1.0000
  C   C2285     1.0  0.49451  0.55475  0.18877  1.0000
  H   H4034     1.0  0.51076  0.88532  0.10818  1.0000
  Fe  Fe264     1.0  0.51637  0.60675  0.21924  1.0000
  H   H4035     1.0  0.65776  0.52245  0.00587  1.0000
  H   H4036     1.0  0.54223  0.94106  0.10843  1.0000
  H   H4037     1.0  0.52822  0.94955  0.13104  1.0000
  H   H4038     1.0  0.63694  0.52169  0.22679  1.0000
  Fe  Fe265     1.0  0.52436  0.57057  0.25139  1.0000
  H   H4039     1.0  0.59005  0.51131  0.28219  1.0000
  H   H4040     1.0  0.67276  0.55795  0.99552  1.0000
  H   H4041     1.0  0.72474  0.85464  0.16719  1.0000
  H   H4042     1.0  0.53180  0.86924  0.08085  1.0000
  H   H4043     1.0  0.54319  0.89121  0.07101  1.0000
  H   H4044     1.0  0.54697  0.87663  0.09532  1.0000
  H   H4045     1.0  0.66017  0.86381  0.98256  1.0000
  H   H4046     1.0  0.70461  0.91430  0.06416  1.0000
  H   H4047     1.0  0.59572  0.57629  0.25142  1.0000
  H   H4048     1.0  0.72693  0.95864  0.01033  1.0000
  H   H4049     1.0  0.63351  0.98238  0.18745  1.0000
  H   H4050     1.0  0.61004  0.50785  0.00218  1.0000
  C   C2286     1.0  0.57974  0.65276  0.11024  1.0000
  H   H4051     1.0  0.64506  0.49561  0.23646  1.0000
  C   C2287     1.0  0.56533  0.96217  0.29929  1.0000
  C   C2288     1.0  0.66676  0.57367  0.98965  1.0000
  H   H4052     1.0  0.54441  0.67051  0.09772  1.0000
  H   H4053     1.0  0.60505  0.67954  0.09518  1.0000
  H   H4054     1.0  0.53095  0.68567  0.00893  1.0000
  H   H4055     1.0  0.71941  0.87492  0.14687  1.0000
  C   C2289     1.0  0.50808  0.68383  0.12033  1.0000
  Fe  Fe266     1.0  0.73072  0.94302  0.12195  1.0000
  C   C2290     1.0  0.51429  0.72603  0.28895  1.0000
  N   N128      1.0  0.73622  0.92078  0.03222  1.0000
  H   H4056     1.0  0.67420  0.92470  0.04822  1.0000
  H   H4057     1.0  0.62380  0.52308  0.02529  1.0000
  C   C2291     1.0  0.64705  0.51484  0.00155  1.0000
  H   H4058     1.0  0.53360  0.49723  0.20656  1.0000
  H   H4059     1.0  0.55484  0.67516  0.17742  1.0000
  H   H4060     1.0  0.49561  0.93730  0.25119  1.0000
  H   H4061     1.0  0.64361  0.88143  0.03949  1.0000
  C   C2292     1.0  0.55569  0.52577  0.05844  1.0000
  H   H4062     1.0  0.64502  0.55231  0.27607  1.0000
  H   H4063     1.0  0.63995  0.49967  0.03162  1.0000
  C   C2293     1.0  0.56847  0.50598  0.05376  1.0000
  H   H4064     1.0  0.48906  0.96657  0.21423  1.0000
  H   H4065     1.0  0.49952  0.70785  0.00215  1.0000
  H   H4066     1.0  0.59573  0.51789  0.04507  1.0000
  H   H4067     1.0  0.67444  0.90041  0.06383  1.0000
  S   S519      1.0  0.71546  0.48836  0.31280  1.0000
  C   C2294     1.0  0.50784  0.87203  0.04636  1.0000
  H   H4068     1.0  0.68047  0.90222  0.03697  1.0000
  H   H4069     1.0  0.57259  0.49710  0.06804  1.0000
  H   H4070     1.0  0.67422  0.97159  0.20777  1.0000
  H   H4071     1.0  0.59475  0.65159  0.11418  1.0000
  H   H4072     1.0  0.59363  0.54085  0.28637  1.0000
  H   H4073     1.0  0.51166  0.85546  0.04789  1.0000
  H   H4074     1.0  0.48872  0.57366  0.16148  1.0000
  C   C2295     1.0  0.60241  0.55029  0.27439  1.0000
  C   C2296     1.0  0.50072  0.96791  0.31221  1.0000
  H   H4075     1.0  0.52028  0.63940  0.14664  1.0000
  C   C2297     1.0  0.49170  0.76084  0.02457  1.0000
  H   H4076     1.0  0.51670  0.89387  0.17173  1.0000
  H   H4077     1.0  0.56445  0.53467  0.06398  1.0000
  H   H4078     1.0  0.55011  0.53474  0.04483  1.0000
  H   H4079     1.0  0.54264  0.52282  0.07021  1.0000
  H   H4080     1.0  0.66657  0.50624  0.20522  1.0000
  C   C2298     1.0  0.58770  0.56605  0.26340  1.0000
  H   H4081     1.0  0.50667  0.89941  0.08438  1.0000
  C   C2299     1.0  0.64865  0.51091  0.23396  1.0000
  C   C2300     1.0  0.63169  0.50904  0.01991  1.0000
  H   H4082     1.0  0.59076  0.79722  0.98425  1.0000
  S   S520      1.0  0.73537  0.82236  0.00873  1.0000
  C   C2301     1.0  0.65081  0.54329  0.30642  1.0000
  H   H4083     1.0  0.73339  0.90046  0.21992  1.0000
  H   H4084     1.0  0.62309  0.52631  0.29921  1.0000
  H   H4085     1.0  0.71589  0.90343  0.20285  1.0000
  H   H4086     1.0  0.61044  0.55834  0.28169  1.0000
  H   H4087     1.0  0.48862  0.57384  0.04914  1.0000
  H   H4088     1.0  0.69778  0.97319  0.06350  1.0000
  H   H4089     1.0  0.52467  0.75049  0.99573  1.0000
  H   H4090     1.0  0.50002  0.72036  0.26648  1.0000
  H   H4091     1.0  0.50635  0.69902  0.28473  1.0000
  C   C2302     1.0  0.67391  0.97607  0.19145  1.0000
  H   H4092     1.0  0.52932  0.72313  0.27971  1.0000
  C   C2303     1.0  0.50245  0.97658  0.23510  1.0000
  H   H4093     1.0  0.51299  0.96313  0.30085  1.0000
  H   H4094     1.0  0.52128  0.97954  0.20560  1.0000
  H   H4095     1.0  0.48866  0.78570  0.04647  1.0000
  H   H4096     1.0  0.57782  0.97789  0.19411  1.0000
  H   H4097     1.0  0.62559  0.48471  0.00771  1.0000
  C   C2304     1.0  0.55923  0.68576  0.98969  1.0000
  C   C2305     1.0  0.72736  0.91017  0.20691  1.0000
  C   C2306     1.0  0.53653  0.69178  0.99310  1.0000
  H   H4098     1.0  0.49026  0.59623  0.18399  1.0000
  H   H4099     1.0  0.50860  0.55990  0.18895  1.0000
  H   H4100     1.0  0.51567  0.72054  0.30491  1.0000
  H   H4101     1.0  0.51216  0.58594  0.99161  1.0000
  H   H4102     1.0  0.48979  0.90004  0.17367  1.0000
  H   H4103     1.0  0.72830  0.88281  0.18256  1.0000
  H   H4104     1.0  0.50887  0.74244  0.28678  1.0000
  C   C2307     1.0  0.50003  0.71523  0.28267  1.0000
  H   H4105     1.0  0.56350  0.66920  0.99249  1.0000
  H   H4106     1.0  0.66111  0.55416  0.30449  1.0000
  S   S521      1.0  0.73699  0.97090  0.18262  1.0000
  H   H4107     1.0  0.59349  0.48431  0.24301  1.0000
  H   H4108     1.0  0.63574  0.55008  0.31337  1.0000
  H   H4109     1.0  0.48938  0.75069  0.01497  1.0000
  H   H4110     1.0  0.49893  0.66085  0.98319  1.0000
  H   H4111     1.0  0.56411  0.70262  0.31481  1.0000
  H   H4112     1.0  0.53959  0.60672  0.98339  1.0000
  H   H4113     1.0  0.57289  0.78245  0.98198  1.0000
  H   H4114     1.0  0.50703  0.68678  0.49248  1.0000
  H   H4115     1.0  0.49800  0.77960  0.45865  1.0000
  H   H4116     1.0  0.56825  0.92196  0.38688  1.0000
  C   C2308     1.0  0.59637  0.87457  0.50951  1.0000
  H   H4117     1.0  0.54949  0.84839  0.60401  1.0000
  H   H4118     1.0  0.57788  0.64657  0.36093  1.0000
  H   H4119     1.0  0.57156  0.66786  0.33107  1.0000
  C   C2309     1.0  0.70735  0.90529  0.44989  1.0000
  C   C2310     1.0  0.67789  0.89298  0.50141  1.0000
  S   S522      1.0  0.53883  0.71291  0.37444  1.0000
  H   H4120     1.0  0.68782  0.56204  0.45493  1.0000
  Fe  Fe267     1.0  0.60428  0.71076  0.50453  1.0000
  S   S523      1.0  0.59683  0.68904  0.48838  1.0000
  S   S524      1.0  0.59297  0.70861  0.53792  1.0000
  Fe  Fe268     1.0  0.62676  0.73224  0.46643  1.0000
  S   S525      1.0  0.62061  0.71242  0.44701  1.0000
  S   S526      1.0  0.64396  0.75753  0.45278  1.0000
  Fe  Fe269     1.0  0.58965  0.71570  0.46496  1.0000
  S   S527      1.0  0.55884  0.72349  0.45665  1.0000
  Fe  Fe270     1.0  0.62854  0.68735  0.47204  1.0000
  S   S528      1.0  0.64604  0.65701  0.46596  1.0000
  S   S529      1.0  0.59529  0.73761  0.48211  1.0000
  S   S530      1.0  0.63670  0.70697  0.49029  1.0000
  H   H4121     1.0  0.55123  0.90561  0.38677  1.0000
  H   H4122     1.0  0.56129  0.71324  0.62910  1.0000
  H   H4123     1.0  0.50369  0.65966  0.36843  1.0000
  H   H4124     1.0  0.51541  0.94233  0.34576  1.0000
  H   H4125     1.0  0.63824  0.76007  0.39130  1.0000
  H   H4126     1.0  0.56857  0.62569  0.37635  1.0000
  H   H4127     1.0  0.56058  0.61376  0.34861  1.0000
  C   C2311     1.0  0.51789  0.91517  0.36776  1.0000
  H   H4128     1.0  0.51033  0.71479  0.52937  1.0000
  H   H4129     1.0  0.50726  0.77664  0.48185  1.0000
  H   H4130     1.0  0.68186  0.95659  0.54661  1.0000
  H   H4131     1.0  0.57527  0.95817  0.53057  1.0000
  Fe  Fe271     1.0  0.62361  0.87155  0.45802  1.0000
  S   S531      1.0  0.64060  0.87898  0.42707  1.0000
  S   S532      1.0  0.60740  0.84513  0.47087  1.0000
  Fe  Fe272     1.0  0.62957  0.90992  0.47014  1.0000
  S   S533      1.0  0.64685  0.92072  0.43980  1.0000
  S   S534      1.0  0.62232  0.92271  0.49912  1.0000
  Fe  Fe273     1.0  0.62371  0.91036  0.42734  1.0000
  S   S535      1.0  0.61067  0.92326  0.39885  1.0000
  Fe  Fe274     1.0  0.66231  0.88869  0.44175  1.0000
  S   S536      1.0  0.60512  0.90228  0.45749  1.0000
  S   S537      1.0  0.64668  0.87853  0.47282  1.0000
  C   C2312     1.0  0.70385  0.89404  0.37385  1.0000
  S   S538      1.0  0.55784  0.92401  0.61299  1.0000
  H   H4132     1.0  0.56051  0.68252  0.52383  1.0000
  H   H4133     1.0  0.53204  0.78002  0.42459  1.0000
  C   C2313     1.0  0.58397  0.97559  0.36974  1.0000
  H   H4134     1.0  0.67884  0.92290  0.56867  1.0000
  H   H4135     1.0  0.50537  0.69174  0.52555  1.0000
  H   H4136     1.0  0.50482  0.67995  0.32839  1.0000
  H   H4137     1.0  0.71314  0.93864  0.53933  1.0000
  H   H4138     1.0  0.67681  0.95615  0.50170  1.0000
  H   H4139     1.0  0.52955  0.63042  0.35782  1.0000
  H   H4140     1.0  0.66148  0.95502  0.53557  1.0000
  H   H4141     1.0  0.59748  0.80329  0.59798  1.0000
  C   C2314     1.0  0.71848  0.90700  0.37592  1.0000
  C   C2315     1.0  0.59089  0.83573  0.41797  1.0000
  H   H4142     1.0  0.63204  0.74752  0.41666  1.0000
  C   C2316     1.0  0.59945  0.94855  0.39332  1.0000
  C   C2317     1.0  0.59338  0.95566  0.37459  1.0000
  H   H4143     1.0  0.71546  0.64357  0.41903  1.0000
  H   H4144     1.0  0.69281  0.91434  0.44884  1.0000
  H   H4145     1.0  0.52803  0.67650  0.35271  1.0000
  C   C2318     1.0  0.59620  0.96155  0.40715  1.0000
  H   H4146     1.0  0.59627  0.94578  0.36370  1.0000
  H   H4147     1.0  0.60090  0.95624  0.42158  1.0000
  C   C2319     1.0  0.59413  0.97372  0.60817  1.0000
  C   C2320     1.0  0.58846  0.96208  0.62684  1.0000
  C   C2321     1.0  0.57792  0.94636  0.62841  1.0000
  C   C2322     1.0  0.57263  0.94242  0.61132  1.0000
  C   C2323     1.0  0.57823  0.95410  0.59264  1.0000
  C   C2324     1.0  0.58914  0.96957  0.59100  1.0000
  H   H4148     1.0  0.57945  0.88209  0.37086  1.0000
  C   C2325     1.0  0.72576  0.91770  0.51883  1.0000
  H   H4149     1.0  0.57384  0.95142  0.57946  1.0000
  S   S539      1.0  0.48767  0.69436  0.39221  1.0000
  C   C2326     1.0  0.62871  0.94583  0.50010  1.0000
  C   C2327     1.0  0.62397  0.95305  0.51838  1.0000
  C   C2328     1.0  0.62900  0.97132  0.51980  1.0000
  H   H4150     1.0  0.52866  0.90113  0.37058  1.0000
  H   H4151     1.0  0.67794  0.54497  0.60543  1.0000
  C   C2329     1.0  0.63864  0.95696  0.48324  1.0000
  H   H4152     1.0  0.61653  0.94444  0.53154  1.0000
  H   H4153     1.0  0.60767  0.80711  0.41288  1.0000
  H   H4154     1.0  0.64235  0.95154  0.46909  1.0000
  H   H4155     1.0  0.53641  0.95867  0.64807  1.0000
  C   C2330     1.0  0.50820  0.73545  0.49246  1.0000
  H   H4156     1.0  0.57752  0.84232  0.42787  1.0000
  H   H4157     1.0  0.66254  0.92374  0.52374  1.0000
  Fe  Fe275     1.0  0.50572  0.71745  0.37450  1.0000
  C   C2331     1.0  0.71224  0.88690  0.44315  1.0000
  H   H4158     1.0  0.71070  0.55228  0.46459  1.0000
  H   H4159     1.0  0.54457  0.65071  0.43570  1.0000
  H   H4160     1.0  0.68428  0.59966  0.57611  1.0000
  H   H4161     1.0  0.66094  0.95381  0.58132  1.0000
  H   H4162     1.0  0.58441  0.77961  0.46399  1.0000
  C   C2332     1.0  0.56488  0.91130  0.37844  1.0000
  C   C2333     1.0  0.66757  0.64652  0.47685  1.0000
  C   C2334     1.0  0.67360  0.62567  0.48010  1.0000
  C   C2335     1.0  0.69086  0.61691  0.48851  1.0000
  C   C2336     1.0  0.70202  0.62897  0.49404  1.0000
  C   C2337     1.0  0.69595  0.64981  0.49079  1.0000
  C   C2338     1.0  0.67896  0.65858  0.48198  1.0000
  H   H4163     1.0  0.66468  0.61625  0.47640  1.0000
  H   H4164     1.0  0.69521  0.60083  0.49131  1.0000
  H   H4165     1.0  0.70467  0.65922  0.49479  1.0000
  H   H4166     1.0  0.67476  0.67467  0.47896  1.0000
  C   C2339     1.0  0.63426  0.78175  0.45844  1.0000
  C   C2340     1.0  0.64254  0.79818  0.44692  1.0000
  C   C2341     1.0  0.63473  0.81770  0.45081  1.0000
  C   C2342     1.0  0.61843  0.82089  0.46612  1.0000
  C   C2343     1.0  0.61022  0.80445  0.47769  1.0000
  C   C2344     1.0  0.61828  0.78493  0.47405  1.0000
  H   H4167     1.0  0.65503  0.79583  0.43493  1.0000
  H   H4168     1.0  0.64118  0.83028  0.44183  1.0000
  H   H4169     1.0  0.59766  0.80683  0.48960  1.0000
  H   H4170     1.0  0.61215  0.77237  0.48335  1.0000
  C   C2345     1.0  0.54467  0.71572  0.39721  1.0000
  C   C2346     1.0  0.56462  0.71195  0.40014  1.0000
  C   C2347     1.0  0.56931  0.71406  0.41841  1.0000
  C   C2348     1.0  0.55403  0.72017  0.43364  1.0000
  C   C2349     1.0  0.53419  0.72417  0.43053  1.0000
  C   C2350     1.0  0.52949  0.72172  0.41251  1.0000
  H   H4171     1.0  0.57642  0.70732  0.38831  1.0000
  H   H4172     1.0  0.58468  0.71104  0.42068  1.0000
  H   H4173     1.0  0.52236  0.72909  0.44214  1.0000
  H   H4174     1.0  0.51408  0.72457  0.41044  1.0000
  C   C2351     1.0  0.52761  0.73793  0.55282  1.0000
  C   C2352     1.0  0.53664  0.72408  0.56750  1.0000
  C   C2353     1.0  0.55681  0.71519  0.56301  1.0000
  C   C2354     1.0  0.56776  0.71973  0.54370  1.0000
  C   C2355     1.0  0.55849  0.73335  0.52914  1.0000
  C   C2356     1.0  0.53862  0.74254  0.53369  1.0000
  H   H4175     1.0  0.52811  0.72025  0.58226  1.0000
  H   H4176     1.0  0.56381  0.70453  0.57436  1.0000
  H   H4177     1.0  0.56661  0.73701  0.51435  1.0000
  H   H4178     1.0  0.53179  0.75332  0.52232  1.0000
  C   C2357     1.0  0.54401  0.68530  0.52821  1.0000
  S   S540      1.0  0.50267  0.74983  0.55750  1.0000
  H   H4179     1.0  0.68201  0.88900  0.48614  1.0000
  S   S541      1.0  0.72250  0.61855  0.50660  1.0000
  H   H4180     1.0  0.66140  0.89479  0.50579  1.0000
  H   H4181     1.0  0.53864  0.67072  0.53173  1.0000
  C   C2358     1.0  0.71158  0.57978  0.44306  1.0000
  C   C2359     1.0  0.52743  0.92992  0.35033  1.0000
  C   C2360     1.0  0.69750  0.59908  0.43558  1.0000
  C   C2361     1.0  0.69112  0.62618  0.40773  1.0000
  H   H4182     1.0  0.51082  0.95465  0.57573  1.0000
  C   C2362     1.0  0.73698  0.64055  0.44679  1.0000
  C   C2363     1.0  0.72410  0.60543  0.40626  1.0000
  C   C2364     1.0  0.67140  0.63627  0.41959  1.0000
  S   S542      1.0  0.52242  0.89015  0.64659  1.0000
  H   H4183     1.0  0.51736  0.70544  0.47424  1.0000
  S   S543      1.0  0.69539  0.87826  0.43237  1.0000
  C   C2365     1.0  0.68514  0.91240  0.50133  1.0000
  C   C2366     1.0  0.65593  0.64529  0.40593  1.0000
  H   H4184     1.0  0.53807  0.69083  0.49819  1.0000
  C   C2367     1.0  0.56620  0.94650  0.53848  1.0000
  H   H4185     1.0  0.68916  0.60546  0.44897  1.0000
  H   H4186     1.0  0.68619  0.59369  0.42955  1.0000
  H   H4187     1.0  0.68727  0.61593  0.39910  1.0000
  C   C2368     1.0  0.51176  0.70535  0.51771  1.0000
  H   H4188     1.0  0.71416  0.96491  0.51423  1.0000
  C   C2369     1.0  0.49303  0.80807  0.63796  1.0000
  C   C2370     1.0  0.62954  0.76197  0.40635  1.0000
  C   C2371     1.0  0.66650  0.93203  0.56118  1.0000
  H   H4189     1.0  0.72418  0.58323  0.44855  1.0000
  H   H4190     1.0  0.53225  0.92174  0.33741  1.0000
  H   H4191     1.0  0.67415  0.64866  0.42610  1.0000
  H   H4192     1.0  0.66462  0.62550  0.43197  1.0000
  C   C2372     1.0  0.53017  0.63637  0.37147  1.0000
  C   C2373     1.0  0.55855  0.67752  0.33848  1.0000
  H   H4193     1.0  0.65172  0.98360  0.47164  1.0000
  H   H4194     1.0  0.59327  0.97860  0.57657  1.0000
  C   C2374     1.0  0.71259  0.62994  0.43015  1.0000
  H   H4195     1.0  0.58944  0.84150  0.40203  1.0000
  C   C2375     1.0  0.56252  0.92188  0.35675  1.0000
  H   H4196     1.0  0.71488  0.97455  0.47754  1.0000
  H   H4197     1.0  0.53435  0.62292  0.38266  1.0000
  H   H4198     1.0  0.55522  0.76574  0.48648  1.0000
  C   C2376     1.0  0.64385  0.97515  0.48470  1.0000
  H   H4199     1.0  0.65193  0.63344  0.39954  1.0000
  H   H4200     1.0  0.64220  0.65266  0.41480  1.0000
  H   H4201     1.0  0.66173  0.65672  0.39358  1.0000
  N   N129      1.0  0.54564  0.64988  0.36680  1.0000
  H   H4202     1.0  0.58396  0.88694  0.39412  1.0000
  C   C2377     1.0  0.54469  0.66069  0.38396  1.0000
  H   H4203     1.0  0.56226  0.78583  0.49503  1.0000
  C   C2378     1.0  0.54660  0.64743  0.40467  1.0000
  C   C2379     1.0  0.49330  0.69087  0.45736  1.0000
  C   C2380     1.0  0.59164  0.61592  0.34078  1.0000
  C   C2381     1.0  0.73061  0.62270  0.44132  1.0000
  H   H4204     1.0  0.60773  0.88443  0.50353  1.0000
  H   H4205     1.0  0.55677  0.66984  0.38064  1.0000
  H   H4206     1.0  0.53060  0.67171  0.38574  1.0000
  H   H4207     1.0  0.53559  0.63710  0.40912  1.0000
  H   H4208     1.0  0.53440  0.95085  0.58419  1.0000
  H   H4209     1.0  0.55431  0.67056  0.41762  1.0000
  H   H4210     1.0  0.65637  0.52957  0.31659  1.0000
  H   H4211     1.0  0.73238  0.52828  0.58866  1.0000
  H   H4212     1.0  0.68499  0.88052  0.51190  1.0000
  C   C2382     1.0  0.72134  0.91200  0.45793  1.0000
  N   N130      1.0  0.70676  0.61501  0.42018  1.0000
  H   H4213     1.0  0.60403  0.85904  0.51395  1.0000
  H   H4214     1.0  0.68432  0.56022  0.62070  1.0000
  H   H4215     1.0  0.64652  0.93395  0.58960  1.0000
  H   H4216     1.0  0.49899  0.89218  0.60430  1.0000
  H   H4217     1.0  0.50733  0.65051  0.39392  1.0000
  C   C2383     1.0  0.50861  0.81520  0.57916  1.0000
  H   H4218     1.0  0.59596  0.60526  0.35415  1.0000
  N   N131      1.0  0.58022  0.89032  0.56262  1.0000
  C   C2384     1.0  0.59299  0.88272  0.54434  1.0000
  C   C2385     1.0  0.59299  0.89022  0.57803  1.0000
  C   C2386     1.0  0.56574  0.87600  0.57181  1.0000
  C   C2387     1.0  0.56819  0.91084  0.55740  1.0000
  C   C2388     1.0  0.58007  0.92735  0.54558  1.0000
  C   C2389     1.0  0.58184  0.88207  0.52722  1.0000
  C   C2390     1.0  0.55262  0.87954  0.59229  1.0000
  C   C2391     1.0  0.61452  0.89469  0.57029  1.0000
  C   C2392     1.0  0.62369  0.89808  0.58742  1.0000
  H   H4219     1.0  0.52792  0.66953  0.42209  1.0000
  C   C2393     1.0  0.51798  0.95412  0.58885  1.0000
  C   C2394     1.0  0.53988  0.86311  0.60053  1.0000
  H   H4220     1.0  0.60121  0.86736  0.54880  1.0000
  H   H4221     1.0  0.60483  0.89184  0.53740  1.0000
  H   H4222     1.0  0.58529  0.90086  0.58833  1.0000
  H   H4223     1.0  0.59502  0.87527  0.58782  1.0000
  H   H4224     1.0  0.57398  0.86034  0.57385  1.0000
  H   H4225     1.0  0.55506  0.87655  0.56164  1.0000
  H   H4226     1.0  0.55649  0.91009  0.54881  1.0000
  H   H4227     1.0  0.55985  0.91648  0.57125  1.0000
  H   H4228     1.0  0.58994  0.92270  0.53205  1.0000
  H   H4229     1.0  0.58911  0.93116  0.55531  1.0000
  H   H4230     1.0  0.65771  0.92182  0.55777  1.0000
  H   H4231     1.0  0.57408  0.89721  0.52159  1.0000
  H   H4232     1.0  0.54233  0.89408  0.59063  1.0000
  H   H4233     1.0  0.56176  0.87952  0.60374  1.0000
  H   H4234     1.0  0.62408  0.88170  0.56401  1.0000
  H   H4235     1.0  0.61514  0.90802  0.55840  1.0000
  H   H4236     1.0  0.63960  0.89945  0.58208  1.0000
  H   H4237     1.0  0.61567  0.91207  0.59295  1.0000
  H   H4238     1.0  0.62289  0.88531  0.60005  1.0000
  C   C2395     1.0  0.55046  0.72584  0.62271  1.0000
  C   C2396     1.0  0.49393  0.63171  0.38140  1.0000
  H   H4239     1.0  0.62537  0.97671  0.53396  1.0000
  H   H4240     1.0  0.60413  0.84059  0.42104  1.0000
  H   H4241     1.0  0.58806  0.87470  0.49734  1.0000
  H   H4242     1.0  0.56377  0.68406  0.34944  1.0000
  H   H4243     1.0  0.49377  0.62765  0.36667  1.0000
  H   H4244     1.0  0.53001  0.86632  0.61468  1.0000
  H   H4245     1.0  0.53038  0.86226  0.58970  1.0000
  S   S544      1.0  0.73067  0.48934  0.61291  1.0000
  H   H4246     1.0  0.69453  0.57380  0.47322  1.0000
  H   H4247     1.0  0.70074  0.88322  0.38788  1.0000
  H   H4248     1.0  0.70574  0.91497  0.54677  1.0000
  N   N132      1.0  0.55642  0.77449  0.58299  1.0000
  C   C2397     1.0  0.53995  0.78902  0.57391  1.0000
  C   C2398     1.0  0.57080  0.76521  0.56648  1.0000
  C   C2399     1.0  0.54701  0.75790  0.59708  1.0000
  C   C2400     1.0  0.56707  0.78389  0.59479  1.0000
  C   C2401     1.0  0.56927  0.80618  0.58735  1.0000
  C   C2402     1.0  0.52192  0.79716  0.58914  1.0000
  C   C2403     1.0  0.56161  0.73982  0.60618  1.0000
  C   C2404     1.0  0.58216  0.77941  0.54987  1.0000
  C   C2405     1.0  0.59354  0.76853  0.53268  1.0000
  C   C2406     1.0  0.58237  0.81259  0.59942  1.0000
  H   H4249     1.0  0.72414  0.64953  0.45523  1.0000
  H   H4250     1.0  0.73562  0.59613  0.41470  1.0000
  H   H4251     1.0  0.53383  0.78177  0.56397  1.0000
  H   H4252     1.0  0.54571  0.80203  0.56399  1.0000
  H   H4253     1.0  0.58274  0.75380  0.57265  1.0000
  H   H4254     1.0  0.56275  0.75712  0.55913  1.0000
  H   H4255     1.0  0.53739  0.75199  0.58941  1.0000
  H   H4256     1.0  0.53690  0.76382  0.61004  1.0000
  H   H4257     1.0  0.55930  0.78318  0.61067  1.0000
  H   H4258     1.0  0.58227  0.77504  0.59573  1.0000
  H   H4259     1.0  0.55453  0.81604  0.58933  1.0000
  H   H4260     1.0  0.57591  0.80912  0.57132  1.0000
  H   H4261     1.0  0.51250  0.78547  0.59571  1.0000
  H   H4262     1.0  0.52697  0.80165  0.60151  1.0000
  C   C2407     1.0  0.55153  0.69468  0.32240  1.0000
  H   H4263     1.0  0.56971  0.73073  0.59458  1.0000
  H   H4264     1.0  0.57205  0.79251  0.54329  1.0000
  H   H4265     1.0  0.59339  0.78459  0.55607  1.0000
  H   H4266     1.0  0.60373  0.75489  0.53830  1.0000
  H   H4267     1.0  0.58300  0.76417  0.52488  1.0000
  H   H4268     1.0  0.60263  0.77857  0.52160  1.0000
  H   H4269     1.0  0.58405  0.82844  0.59382  1.0000
  H   H4270     1.0  0.57544  0.81118  0.61554  1.0000
  H   H4271     1.0  0.73542  0.92926  0.39346  1.0000
  N   N133      1.0  0.50026  0.71625  0.50120  1.0000
  C   C2408     1.0  0.54313  0.66039  0.42097  1.0000
  H   H4272     1.0  0.51857  0.78631  0.39344  1.0000
  C   C2409     1.0  0.67427  0.61365  0.57968  1.0000
  H   H4273     1.0  0.71906  0.59476  0.39900  1.0000
  H   H4274     1.0  0.54024  0.69234  0.54187  1.0000
  C   C2410     1.0  0.49994  0.66828  0.32329  1.0000
  C   C2411     1.0  0.50642  0.83597  0.64408  1.0000
  H   H4275     1.0  0.60151  0.62742  0.33645  1.0000
  H   H4276     1.0  0.50395  0.90194  0.34912  1.0000
  N   N134      1.0  0.65612  0.66468  0.54668  1.0000
  C   C2412     1.0  0.63987  0.68142  0.55294  1.0000
  C   C2413     1.0  0.65020  0.65687  0.53026  1.0000
  C   C2414     1.0  0.65857  0.64849  0.56468  1.0000
  C   C2415     1.0  0.67585  0.67184  0.53886  1.0000
  C   C2416     1.0  0.67562  0.69077  0.52240  1.0000
  C   C2417     1.0  0.64429  0.69301  0.56811  1.0000
  C   C2418     1.0  0.67247  0.62866  0.56034  1.0000
  C   C2419     1.0  0.63101  0.64723  0.53631  1.0000
  C   C2420     1.0  0.62713  0.63868  0.51905  1.0000
  C   C2421     1.0  0.69600  0.69746  0.51697  1.0000
  C   C2422     1.0  0.62727  0.71032  0.57218  1.0000
  H   H4277     1.0  0.49262  0.89931  0.37520  1.0000
  H   H4278     1.0  0.62586  0.67558  0.56012  1.0000
  H   H4279     1.0  0.63581  0.69234  0.53957  1.0000
  H   H4280     1.0  0.64755  0.66914  0.51748  1.0000
  H   H4281     1.0  0.66263  0.64588  0.52379  1.0000
  H   H4282     1.0  0.64382  0.64486  0.57275  1.0000
  H   H4283     1.0  0.66479  0.65394  0.57581  1.0000
  H   H4284     1.0  0.68226  0.67467  0.55134  1.0000
  H   H4285     1.0  0.68705  0.65993  0.53227  1.0000
  H   H4286     1.0  0.66457  0.70361  0.52720  1.0000
  H   H4287     1.0  0.67201  0.68762  0.50862  1.0000
  H   H4288     1.0  0.64586  0.68298  0.58262  1.0000
  H   H4289     1.0  0.65817  0.69943  0.56246  1.0000
  H   H4290     1.0  0.68774  0.63132  0.55318  1.0000
  H   H4291     1.0  0.66665  0.62145  0.55029  1.0000
  H   H4292     1.0  0.63216  0.63480  0.54916  1.0000
  H   H4293     1.0  0.61772  0.65852  0.54037  1.0000
  H   H4294     1.0  0.62446  0.65084  0.50622  1.0000
  H   H4295     1.0  0.63998  0.62729  0.51413  1.0000
  H   H4296     1.0  0.61363  0.63149  0.52392  1.0000
  H   H4297     1.0  0.70784  0.68525  0.51190  1.0000
  H   H4298     1.0  0.69564  0.71051  0.50460  1.0000
  H   H4299     1.0  0.69981  0.70199  0.53008  1.0000
  H   H4300     1.0  0.61296  0.70470  0.57826  1.0000
  H   H4301     1.0  0.63054  0.71824  0.58329  1.0000
  H   H4302     1.0  0.62556  0.72118  0.55814  1.0000
  H   H4303     1.0  0.72636  0.61248  0.45547  1.0000
  H   H4304     1.0  0.56607  0.63573  0.33117  1.0000
  C   C2423     1.0  0.70038  0.56622  0.45999  1.0000
  C   C2424     1.0  0.56601  0.63730  0.36300  1.0000
  H   H4305     1.0  0.54054  0.79058  0.48311  1.0000
  C   C2425     1.0  0.54158  0.66540  0.34865  1.0000
  H   H4306     1.0  0.53798  0.65847  0.33692  1.0000
  H   H4307     1.0  0.67833  0.92411  0.48993  1.0000
  H   H4308     1.0  0.52111  0.97703  0.35816  1.0000
  C   C2426     1.0  0.53855  0.94895  0.37200  1.0000
  H   H4309     1.0  0.59223  0.96525  0.64019  1.0000
  H   H4310     1.0  0.68951  0.90368  0.37095  1.0000
  C   C2427     1.0  0.55053  0.95337  0.33600  1.0000
  H   H4311     1.0  0.53942  0.70559  0.32937  1.0000
  H   H4312     1.0  0.50514  0.69697  0.44578  1.0000
  C   C2428     1.0  0.70805  0.92696  0.53358  1.0000
  H   H4313     1.0  0.53624  0.76329  0.39496  1.0000
  N   N135      1.0  0.54453  0.93819  0.35416  1.0000
  H   H4314     1.0  0.68157  0.90540  0.53383  1.0000
  Fe  Fe276     1.0  0.54885  0.90539  0.64326  1.0000
  H   H4315     1.0  0.68076  0.61978  0.59010  1.0000
  S   S545      1.0  0.49888  0.74553  0.61672  1.0000
  H   H4316     1.0  0.53538  0.93846  0.38620  1.0000
  H   H4317     1.0  0.51293  0.92170  0.38169  1.0000
  H   H4318     1.0  0.69694  0.63841  0.39640  1.0000
  H   H4319     1.0  0.63514  0.77351  0.41177  1.0000
  H   H4320     1.0  0.53998  0.71949  0.61656  1.0000
  H   H4321     1.0  0.72541  0.62734  0.37823  1.0000
  H   H4322     1.0  0.70997  0.88570  0.36119  1.0000
  H   H4323     1.0  0.50941  0.74333  0.50459  1.0000
  H   H4324     1.0  0.51323  0.94184  0.60084  1.0000
  H   H4325     1.0  0.49392  0.92577  0.64718  1.0000
  H   H4326     1.0  0.50629  0.95910  0.37259  1.0000
  N   N136      1.0  0.68869  0.93538  0.52582  1.0000
  C   C2429     1.0  0.67462  0.94582  0.54178  1.0000
  H   H4327     1.0  0.69996  0.63546  0.44152  1.0000
  H   H4328     1.0  0.56851  0.80370  0.45997  1.0000
  H   H4329     1.0  0.63990  0.95364  0.56950  1.0000
  H   H4330     1.0  0.57082  0.87178  0.53219  1.0000
  H   H4331     1.0  0.71752  0.92625  0.46309  1.0000
  C   C2430     1.0  0.67363  0.53326  0.63754  1.0000
  C   C2431     1.0  0.69139  0.95067  0.50696  1.0000
  H   H4332     1.0  0.72856  0.92793  0.50438  1.0000
  H   H4333     1.0  0.51418  0.96602  0.40395  1.0000
  C   C2432     1.0  0.56979  0.62579  0.34511  1.0000
  H   H4334     1.0  0.52192  0.76436  0.46151  1.0000
  H   H4335     1.0  0.70142  0.90997  0.49640  1.0000
  H   H4336     1.0  0.54200  0.73391  0.63500  1.0000
  C   C2433     1.0  0.67906  0.91895  0.52221  1.0000
  N   N137      1.0  0.57410  0.78343  0.42526  1.0000
  C   C2434     1.0  0.59424  0.77020  0.42589  1.0000
  C   C2435     1.0  0.56148  0.78089  0.44586  1.0000
  C   C2436     1.0  0.56394  0.77593  0.41148  1.0000
  C   C2437     1.0  0.57567  0.80523  0.41753  1.0000
  C   C2438     1.0  0.59353  0.81289  0.42228  1.0000
  C   C2439     1.0  0.60742  0.76847  0.40503  1.0000
  C   C2440     1.0  0.54183  0.78553  0.41058  1.0000
  C   C2441     1.0  0.56904  0.78726  0.46275  1.0000
  C   C2442     1.0  0.55590  0.78200  0.48305  1.0000
  H   H4337     1.0  0.70124  0.94393  0.49442  1.0000
  H   H4338     1.0  0.60574  0.78289  0.39453  1.0000
  C   C2443     1.0  0.53459  0.77982  0.39335  1.0000
  H   H4339     1.0  0.59234  0.75469  0.43346  1.0000
  H   H4340     1.0  0.60296  0.77505  0.43529  1.0000
  H   H4341     1.0  0.54633  0.78991  0.44561  1.0000
  H   H4342     1.0  0.55944  0.76499  0.45069  1.0000
  H   H4343     1.0  0.56442  0.75943  0.41581  1.0000
  H   H4344     1.0  0.57210  0.77832  0.39581  1.0000
  H   H4345     1.0  0.57690  0.80865  0.40091  1.0000
  H   H4346     1.0  0.56164  0.81495  0.42321  1.0000
  C   C2444     1.0  0.65264  0.94417  0.57624  1.0000
  H   H4347     1.0  0.59561  0.80802  0.43807  1.0000
  H   H4348     1.0  0.60281  0.75714  0.39836  1.0000
  H   H4349     1.0  0.68898  0.97849  0.51878  1.0000
  H   H4350     1.0  0.53983  0.80209  0.40849  1.0000
  H   H4351     1.0  0.71111  0.91573  0.38804  1.0000
  H   H4352     1.0  0.71772  0.57104  0.43070  1.0000
  H   H4353     1.0  0.57662  0.92803  0.35083  1.0000
  S   S546      1.0  0.49378  0.71975  0.34607  1.0000
  H   H4354     1.0  0.70073  0.53730  0.61590  1.0000
  H   H4355     1.0  0.57367  0.93748  0.64289  1.0000
  H   H4356     1.0  0.55126  0.95571  0.37370  1.0000
  H   H4357     1.0  0.53756  0.96499  0.33267  1.0000
  H   H4358     1.0  0.72085  0.91757  0.36165  1.0000
  H   H4359     1.0  0.51698  0.82780  0.57307  1.0000
  H   H4360     1.0  0.51301  0.96234  0.62709  1.0000
  H   H4361     1.0  0.59641  0.89892  0.37074  1.0000
  H   H4362     1.0  0.57266  0.74489  0.61273  1.0000
  H   H4363     1.0  0.56179  0.63844  0.40445  1.0000
  C   C2445     1.0  0.58222  0.89372  0.37842  1.0000
  C   C2446     1.0  0.68483  0.54459  0.61871  1.0000
  H   H4364     1.0  0.52375  0.73216  0.48444  1.0000
  H   H4365     1.0  0.48842  0.92315  0.35901  1.0000
  H   H4366     1.0  0.66417  0.51291  0.62334  1.0000
  H   H4367     1.0  0.55587  0.95220  0.55136  1.0000
  H   H4368     1.0  0.56183  0.96125  0.33903  1.0000
  H   H4369     1.0  0.56302  0.91018  0.34763  1.0000
  H   H4370     1.0  0.53646  0.96662  0.61306  1.0000
  C   C2447     1.0  0.51983  0.96558  0.37177  1.0000
  C   C2448     1.0  0.52045  0.97351  0.61559  1.0000
  C   C2449     1.0  0.53460  0.69897  0.51107  1.0000
  H   H4371     1.0  0.54319  0.78567  0.37868  1.0000
  H   H4372     1.0  0.65942  0.60992  0.58715  1.0000
  H   H4373     1.0  0.54205  0.71232  0.50657  1.0000
  C   C2450     1.0  0.73119  0.87537  0.44438  1.0000
  C   C2451     1.0  0.49963  0.90957  0.36243  1.0000
  H   H4374     1.0  0.50289  0.81111  0.56690  1.0000
  H   H4375     1.0  0.55743  0.94373  0.52784  1.0000
  C   C2452     1.0  0.50855  0.64615  0.37908  1.0000
  H   H4376     1.0  0.57236  0.93346  0.31745  1.0000
  C   C2453     1.0  0.67362  0.51153  0.63491  1.0000
  H   H4377     1.0  0.49578  0.74393  0.46454  1.0000
  H   H4378     1.0  0.50460  0.85161  0.64516  1.0000
  H   H4379     1.0  0.68886  0.50503  0.62793  1.0000
  C   C2454     1.0  0.69976  0.96929  0.50861  1.0000
  C   C2455     1.0  0.63923  0.98227  0.50301  1.0000
  C   C2456     1.0  0.51088  0.79532  0.64136  1.0000
  C   C2457     1.0  0.70334  0.98262  0.48813  1.0000
  C   C2458     1.0  0.49099  0.82840  0.63919  1.0000
  H   H4380     1.0  0.72297  0.90336  0.51610  1.0000
  C   C2459     1.0  0.50655  0.76894  0.46944  1.0000
  C   C2460     1.0  0.52648  0.80297  0.64594  1.0000
  H   H4381     1.0  0.73536  0.50950  0.43971  1.0000
  H   H4382     1.0  0.73412  0.88544  0.39652  1.0000
  H   H4383     1.0  0.65806  0.54143  0.64016  1.0000
  H   H4384     1.0  0.52970  0.98369  0.38906  1.0000
  S   S547      1.0  0.73715  0.50084  0.40042  1.0000
  H   H4385     1.0  0.57963  0.98103  0.35519  1.0000
  H   H4386     1.0  0.59385  0.60753  0.32817  1.0000
  H   H4387     1.0  0.51259  0.77960  0.64060  1.0000
  C   C2461     1.0  0.51197  0.97420  0.59625  1.0000
  C   C2462     1.0  0.51660  0.97651  0.38958  1.0000
  C   C2463     1.0  0.58689  0.98153  0.40225  1.0000
  H   H4388     1.0  0.49565  0.82020  0.59044  1.0000
  C   C2464     1.0  0.50376  0.70283  0.48549  1.0000
  H   H4389     1.0  0.49798  0.61792  0.39217  1.0000
  C   C2465     1.0  0.52423  0.82329  0.64756  1.0000
  H   H4390     1.0  0.49540  0.97752  0.59930  1.0000
  C   C2466     1.0  0.49639  0.75063  0.47756  1.0000
  H   H4391     1.0  0.48804  0.66679  0.60761  1.0000
  H   H4392     1.0  0.49903  0.67516  0.46365  1.0000
  H   H4393     1.0  0.73491  0.86102  0.43940  1.0000
  C   C2467     1.0  0.73509  0.61981  0.38945  1.0000
  C   C2468     1.0  0.55907  0.94531  0.31602  1.0000
  C   C2469     1.0  0.52711  0.68345  0.97858  1.0000
  H   H4394     1.0  0.72406  0.61820  0.93989  1.0000
  C   C2470     1.0  0.62165  0.48601  0.82712  1.0000
  N   N138      1.0  0.66634  0.49775  0.65363  1.0000
  C   C2471     1.0  0.69996  0.88619  0.88909  1.0000
  H   H4395     1.0  0.51835  0.91031  0.76363  1.0000
  H   H4396     1.0  0.69258  0.60338  0.95239  1.0000
  C   C2472     1.0  0.48979  0.63804  0.78589  1.0000
  Fe  Fe277     1.0  0.58909  0.89982  0.84790  1.0000
  S   S548      1.0  0.57320  0.87322  0.85346  1.0000
  S   S549      1.0  0.62095  0.89589  0.85365  1.0000
  Fe  Fe278     1.0  0.55338  0.92882  0.83513  1.0000
  S   S550      1.0  0.53450  0.90515  0.84001  1.0000
  S   S551      1.0  0.54328  0.96060  0.82139  1.0000
  Fe  Fe279     1.0  0.54705  0.89317  0.86821  1.0000
  S   S552      1.0  0.52691  0.88427  0.89760  1.0000
  Fe  Fe280     1.0  0.56170  0.88721  0.82461  1.0000
  S   S553      1.0  0.55450  0.87044  0.80272  1.0000
  S   S554      1.0  0.56375  0.91874  0.86480  1.0000
  S   S555      1.0  0.57986  0.91180  0.81774  1.0000
  S   S556      1.0  0.53837  0.91701  0.67219  1.0000
  S   S557      1.0  0.52997  0.87127  0.69299  1.0000
  Fe  Fe281     1.0  0.51371  0.89941  0.67688  1.0000
  H   H4397     1.0  0.49746  0.56241  0.82454  1.0000
  Fe  Fe282     1.0  0.55552  0.88837  0.68636  1.0000
  S   S558      1.0  0.57472  0.89261  0.70770  1.0000
  C   C2473     1.0  0.73680  0.54742  0.90638  1.0000
  Fe  Fe283     1.0  0.64396  0.51937  0.89130  1.0000
  H   H4398     1.0  0.56039  0.61909  0.97129  1.0000
  S   S559      1.0  0.64031  0.51983  0.85918  1.0000
  Fe  Fe284     1.0  0.63851  0.54483  0.92396  1.0000
  S   S560      1.0  0.65146  0.51931  0.94549  1.0000
  S   S561      1.0  0.62851  0.57457  0.93472  1.0000
  Fe  Fe285     1.0  0.67488  0.51206  0.91920  1.0000
  S   S562      1.0  0.70682  0.50030  0.92423  1.0000
  H   H4399     1.0  0.54270  0.95739  0.68222  1.0000
  H   H4400     1.0  0.70790  0.49992  0.69033  1.0000
  S   S563      1.0  0.66326  0.53906  0.89807  1.0000
  S   S564      1.0  0.61824  0.52769  0.91531  1.0000
  C   C2474     1.0  0.59667  0.96944  0.80252  1.0000
  C   C2475     1.0  0.50748  0.91746  0.79993  1.0000
  C   C2476     1.0  0.52680  0.54387  0.82186  1.0000
  H   H4401     1.0  0.61584  0.49105  0.88315  1.0000
  H   H4402     1.0  0.48805  0.74851  0.94551  1.0000
  H   H4403     1.0  0.50025  0.50918  0.70276  1.0000
  C   C2477     1.0  0.64495  0.50595  0.66149  1.0000
  S   S565      1.0  0.73164  0.96999  0.89907  1.0000
  H   H4404     1.0  0.71004  0.53976  0.90056  1.0000
  C   C2478     1.0  0.60665  0.58970  0.96800  1.0000
  C   C2479     1.0  0.61334  0.57279  0.95858  1.0000
  H   H4405     1.0  0.51424  0.58133  0.90052  1.0000
  H   H4406     1.0  0.61122  0.60382  0.96077  1.0000
  H   H4407     1.0  0.61219  0.54159  0.96082  1.0000
  S   S566      1.0  0.68337  0.97628  0.89917  1.0000
  H   H4408     1.0  0.50183  0.64832  0.93299  1.0000
  C   C2480     1.0  0.51416  0.86402  0.90011  1.0000
  C   C2481     1.0  0.50068  0.85924  0.91779  1.0000
  H   H4409     1.0  0.50812  0.75958  0.94925  1.0000
  H   H4410     1.0  0.68839  0.53193  0.94843  1.0000
  C   C2482     1.0  0.50829  0.83545  0.88810  1.0000
  C   C2483     1.0  0.51785  0.85213  0.88522  1.0000
  H   H4411     1.0  0.51775  0.57638  0.81654  1.0000
  H   H4412     1.0  0.54641  0.85288  0.97434  1.0000
  H   H4413     1.0  0.57967  0.79237  0.94475  1.0000
  H   H4414     1.0  0.52820  0.85568  0.87154  1.0000
  C   C2484     1.0  0.51743  0.96797  0.82777  1.0000
  H   H4415     1.0  0.73446  0.60196  0.96071  1.0000
  C   C2485     1.0  0.54701  0.49507  0.83198  1.0000
  H   H4416     1.0  0.52451  0.72668  0.96458  1.0000
  C   C2486     1.0  0.52987  0.96803  0.67677  1.0000
  C   C2487     1.0  0.50609  0.95601  0.84265  1.0000
  H   H4417     1.0  0.52075  0.66665  0.94799  1.0000
  C   C2488     1.0  0.69725  0.50337  0.85695  1.0000
  C   C2489     1.0  0.61754  0.48969  0.86753  1.0000
  H   H4418     1.0  0.51329  0.94243  0.85088  1.0000
  C   C2490     1.0  0.55955  0.87774  0.77640  1.0000
  C   C2491     1.0  0.54852  0.87173  0.76440  1.0000
  C   C2492     1.0  0.55264  0.87662  0.74335  1.0000
  C   C2493     1.0  0.56813  0.88724  0.73411  1.0000
  C   C2494     1.0  0.57907  0.89338  0.74613  1.0000
  C   C2495     1.0  0.57472  0.88877  0.76719  1.0000
  H   H4419     1.0  0.53686  0.86305  0.77141  1.0000
  H   H4420     1.0  0.54420  0.87170  0.73426  1.0000
  H   H4421     1.0  0.59107  0.90159  0.73909  1.0000
  H   H4422     1.0  0.58328  0.89342  0.77630  1.0000
  C   C2496     1.0  0.65156  0.94860  0.85508  1.0000
  C   C2497     1.0  0.63246  0.95219  0.84978  1.0000
  C   C2498     1.0  0.62249  0.93623  0.85027  1.0000
  C   C2499     1.0  0.63190  0.91645  0.85519  1.0000
  C   C2500     1.0  0.65096  0.91285  0.86053  1.0000
  C   C2501     1.0  0.66062  0.92883  0.86081  1.0000
  H   H4423     1.0  0.62536  0.96739  0.84517  1.0000
  H   H4424     1.0  0.60771  0.93922  0.84639  1.0000
  H   H4425     1.0  0.65835  0.89761  0.86431  1.0000
  H   H4426     1.0  0.67535  0.92586  0.86478  1.0000
  C   C2502     1.0  0.53493  0.49849  0.76833  1.0000
  C   C2503     1.0  0.51632  0.50803  0.77695  1.0000
  H   H4427     1.0  0.67436  0.50955  0.67728  1.0000
  C   C2504     1.0  0.68744  0.82545  0.94319  1.0000
  C   C2505     1.0  0.54257  0.53070  0.75039  1.0000
  C   C2506     1.0  0.54823  0.50987  0.75532  1.0000
  H   H4428     1.0  0.50626  0.49934  0.78752  1.0000
  H   H4429     1.0  0.49826  0.91485  0.72936  1.0000
  H   H4430     1.0  0.56265  0.50257  0.74865  1.0000
  H   H4431     1.0  0.50186  0.50423  0.73925  1.0000
  H   H4432     1.0  0.55446  0.87153  0.95370  1.0000
  C   C2507     1.0  0.63026  0.50046  0.83259  1.0000
  C   C2508     1.0  0.62849  0.50216  0.85283  1.0000
  S   S567      1.0  0.65758  0.49187  0.91054  1.0000
  H   H4433     1.0  0.70653  0.86017  0.96900  1.0000
  C   C2509     1.0  0.70091  0.58793  0.95594  1.0000
  H   H4434     1.0  0.63863  0.51012  0.82110  1.0000
  N   N139      1.0  0.68878  0.57264  0.95451  1.0000
  H   H4435     1.0  0.68537  0.83764  0.97019  1.0000
  Fe  Fe286     1.0  0.70774  0.95085  0.90700  1.0000
  C   C2510     1.0  0.50974  0.58247  0.91667  1.0000
  H   H4436     1.0  0.70366  0.82265  0.93754  1.0000
  H   H4437     1.0  0.71150  0.87369  0.88417  1.0000
  H   H4438     1.0  0.50384  0.59837  0.91816  1.0000
  H   H4439     1.0  0.51871  0.88499  0.95041  1.0000
  C   C2511     1.0  0.68663  0.57315  0.93313  1.0000
  C   C2512     1.0  0.50594  0.92335  0.76420  1.0000
  C   C2513     1.0  0.56770  0.52571  0.83536  1.0000
  H   H4440     1.0  0.56407  0.51427  0.96554  1.0000
  H   H4441     1.0  0.52011  0.94480  0.73985  1.0000
  H   H4442     1.0  0.50837  0.92439  0.81288  1.0000
  H   H4443     1.0  0.57679  0.51572  0.77590  1.0000
  H   H4444     1.0  0.70333  0.98240  0.96509  1.0000
  H   H4445     1.0  0.50770  0.88023  0.82445  1.0000
  H   H4446     1.0  0.52500  0.91347  0.72642  1.0000
  C   C2514     1.0  0.60736  0.55464  0.96801  1.0000
  H   H4447     1.0  0.65640  0.90958  0.97564  1.0000
  H   H4448     1.0  0.51313  0.74175  0.93242  1.0000
  H   H4449     1.0  0.68984  0.80182  0.96924  1.0000
  H   H4450     1.0  0.54984  0.50864  0.80045  1.0000
  C   C2515     1.0  0.50270  0.70921  0.96118  1.0000
  H   H4451     1.0  0.65771  0.56883  0.96294  1.0000
  H   H4452     1.0  0.61347  0.51595  0.69229  1.0000
  C   C2516     1.0  0.57499  0.54420  0.83908  1.0000
  H   H4453     1.0  0.70129  0.85340  0.91689  1.0000
  C   C2517     1.0  0.63421  0.49202  0.67908  1.0000
  C   C2518     1.0  0.58659  0.78858  0.97426  1.0000
  H   H4454     1.0  0.73685  0.97065  0.97400  1.0000
  H   H4455     1.0  0.70535  0.51268  0.84411  1.0000
  C   C2519     1.0  0.70633  0.90804  0.97104  1.0000
  C   C2520     1.0  0.66817  0.57732  0.96654  1.0000
  H   H4456     1.0  0.56441  0.54968  0.96653  1.0000
  C   C2521     1.0  0.49502  0.83049  0.90587  1.0000
  H   H4457     1.0  0.70465  0.90047  0.88098  1.0000
  H   H4458     1.0  0.68271  0.51245  0.86219  1.0000
  C   C2522     1.0  0.54763  0.54352  0.80857  1.0000
  H   H4459     1.0  0.52148  0.90647  0.79747  1.0000
  H   H4460     1.0  0.68586  0.48945  0.83753  1.0000
  H   H4461     1.0  0.63387  0.97967  0.89315  1.0000
  C   C2523     1.0  0.58283  0.52923  0.80004  1.0000
  C   C2524     1.0  0.58252  0.52891  0.77770  1.0000
  C   C2525     1.0  0.60344  0.52841  0.76523  1.0000
  H   H4462     1.0  0.66499  0.94262  0.72741  1.0000
  H   H4463     1.0  0.59539  0.51758  0.80486  1.0000
  H   H4464     1.0  0.58694  0.54392  0.80008  1.0000
  H   H4465     1.0  0.57293  0.54255  0.77117  1.0000
  H   H4466     1.0  0.49059  0.89560  0.79515  1.0000
  H   H4467     1.0  0.60274  0.52820  0.74935  1.0000
  H   H4468     1.0  0.60957  0.54185  0.76585  1.0000
  H   H4469     1.0  0.71398  0.54841  0.95247  1.0000
  H   H4470     1.0  0.50546  0.53109  0.70975  1.0000
  C   C2526     1.0  0.68826  0.53462  0.96373  1.0000
  S   S568      1.0  0.66407  0.96910  0.85297  1.0000
  N   N140      1.0  0.68891  0.86243  0.94587  1.0000
  S   S569      1.0  0.71343  0.94093  0.87699  1.0000
  C   C2527     1.0  0.52300  0.94454  0.77846  1.0000
  C   C2528     1.0  0.54410  0.93189  0.77429  1.0000
  H   H4471     1.0  0.61798  0.98377  0.87463  1.0000
  C   C2529     1.0  0.53406  0.97291  0.65388  1.0000
  C   C2530     1.0  0.56025  0.94507  0.76820  1.0000
  Fe  Fe287     1.0  0.63323  0.50154  0.93501  1.0000
  H   H4472     1.0  0.54755  0.92119  0.78793  1.0000
  H   H4473     1.0  0.54534  0.92350  0.76192  1.0000
  H   H4474     1.0  0.51630  0.96095  0.68191  1.0000
  H   H4475     1.0  0.72361  0.83148  0.95397  1.0000
  C   C2531     1.0  0.49635  0.67504  0.97235  1.0000
  H   H4476     1.0  0.58744  0.52170  0.95318  1.0000
  N   N141      1.0  0.56170  0.58166  0.93090  1.0000
  C   C2532     1.0  0.55506  0.58860  0.95094  1.0000
  C   C2533     1.0  0.57093  0.55971  0.93389  1.0000
  C   C2534     1.0  0.57761  0.59350  0.91894  1.0000
  C   C2535     1.0  0.54482  0.58579  0.91910  1.0000
  C   C2536     1.0  0.52731  0.57430  0.92794  1.0000
  C   C2537     1.0  0.54487  0.61077  0.95060  1.0000
  C   C2538     1.0  0.59036  0.58538  0.90007  1.0000
  C   C2539     1.0  0.56173  0.54576  0.95261  1.0000
  H   H4477     1.0  0.72873  0.48611  0.67579  1.0000
  C   C2540     1.0  0.54500  0.61761  0.97028  1.0000
  C   C2541     1.0  0.60428  0.59978  0.88823  1.0000
  H   H4478     1.0  0.56808  0.58576  0.95888  1.0000
  H   H4479     1.0  0.54409  0.57984  0.96097  1.0000
  H   H4480     1.0  0.57121  0.55326  0.92029  1.0000
  H   H4481     1.0  0.58680  0.55805  0.93570  1.0000
  H   H4482     1.0  0.58827  0.59457  0.92861  1.0000
  H   H4483     1.0  0.57089  0.60917  0.91354  1.0000
  H   H4484     1.0  0.53868  0.60209  0.91664  1.0000
  H   H4485     1.0  0.55031  0.58207  0.90384  1.0000
  H   H4486     1.0  0.52191  0.57539  0.94394  1.0000
  H   H4487     1.0  0.53210  0.55832  0.92634  1.0000
  H   H4488     1.0  0.55221  0.62121  0.93840  1.0000
  H   H4489     1.0  0.52912  0.61227  0.94858  1.0000
  H   H4490     1.0  0.58093  0.58319  0.88981  1.0000
  H   H4491     1.0  0.59994  0.57086  0.90436  1.0000
  H   H4492     1.0  0.67986  0.89382  0.94855  1.0000
  H   H4493     1.0  0.54546  0.54682  0.95381  1.0000
  C   C2542     1.0  0.69768  0.88546  0.91169  1.0000
  H   H4494     1.0  0.51111  0.86627  0.97155  1.0000
  H   H4495     1.0  0.67960  0.82872  0.93007  1.0000
  H   H4496     1.0  0.69037  0.91065  0.97591  1.0000
  H   H4497     1.0  0.68836  0.60483  0.92044  1.0000
  H   H4498     1.0  0.58727  0.52864  0.86583  1.0000
  H   H4499     1.0  0.61437  0.60219  0.89780  1.0000
  H   H4500     1.0  0.61363  0.59333  0.87524  1.0000
  H   H4501     1.0  0.59556  0.61439  0.88252  1.0000
  H   H4502     1.0  0.70636  0.50664  0.65353  1.0000
  C   C2543     1.0  0.56596  0.81968  0.95768  1.0000
  H   H4503     1.0  0.69092  0.50274  0.97469  1.0000
  C   C2544     1.0  0.68114  0.84312  0.95512  1.0000
  H   H4504     1.0  0.66329  0.59982  0.92919  1.0000
  H   H4505     1.0  0.67118  0.60737  0.89221  1.0000
  H   H4506     1.0  0.49881  0.68226  0.93949  1.0000
  S   S570      1.0  0.69796  0.93200  0.93667  1.0000
  C   C2545     1.0  0.72236  0.53509  0.90879  1.0000
  C   C2546     1.0  0.58314  0.80188  0.95428  1.0000
  H   H4507     1.0  0.52751  0.54355  0.83780  1.0000
  H   H4508     1.0  0.71294  0.87746  0.94728  1.0000
  H   H4509     1.0  0.55424  0.52359  0.84679  1.0000
  H   H4510     1.0  0.56183  0.54171  0.87084  1.0000
  H   H4511     1.0  0.51194  0.70591  0.94671  1.0000
  H   H4512     1.0  0.70617  0.49930  0.86929  1.0000
  H   H4513     1.0  0.49751  0.57372  0.92313  1.0000
  H   H4514     1.0  0.71232  0.88680  0.91493  1.0000
  S   S571      1.0  0.49087  0.69370  0.64907  1.0000
  H   H4515     1.0  0.70112  0.56744  0.92432  1.0000
  C   C2547     1.0  0.57665  0.54233  0.86115  1.0000
  C   C2548     1.0  0.72415  0.51658  0.92150  1.0000
  H   H4516     1.0  0.58597  0.96662  0.79386  1.0000
  H   H4517     1.0  0.48882  0.62365  0.79635  1.0000
  H   H4518     1.0  0.57227  0.49578  0.80881  1.0000
  H   H4519     1.0  0.64414  0.52019  0.66697  1.0000
  C   C2549     1.0  0.69943  0.55216  0.96236  1.0000
  H   H4520     1.0  0.49777  0.86840  0.92934  1.0000
  H   H4521     1.0  0.61364  0.51475  0.77077  1.0000
  H   H4522     1.0  0.59240  0.96297  0.81855  1.0000
  H   H4523     1.0  0.63724  0.89540  0.97557  1.0000
  H   H4524     1.0  0.53424  0.50479  0.83951  1.0000
  H   H4525     1.0  0.59890  0.77588  0.97160  1.0000
  H   H4526     1.0  0.49456  0.97713  0.78197  1.0000
  H   H4527     1.0  0.55970  0.95394  0.78006  1.0000
  H   H4528     1.0  0.57517  0.93547  0.76605  1.0000
  C   C2550     1.0  0.71455  0.91762  0.95228  1.0000
  C   C2551     1.0  0.70837  0.86253  0.95236  1.0000
  C   C2552     1.0  0.66685  0.87748  0.97636  1.0000
  H   H4529     1.0  0.56453  0.55818  0.83503  1.0000
  N   N142      1.0  0.56094  0.83402  0.93914  1.0000
  C   C2553     1.0  0.57816  0.84512  0.93031  1.0000
  H   H4530     1.0  0.73162  0.57223  0.94711  1.0000
  C   C2554     1.0  0.55754  0.82314  0.92359  1.0000
  C   C2555     1.0  0.54204  0.84820  0.94497  1.0000
  H   H4531     1.0  0.73546  0.56162  0.89633  1.0000
  C   C2556     1.0  0.57440  0.86297  0.91307  1.0000
  C   C2557     1.0  0.54175  0.80906  0.93072  1.0000
  H   H4532     1.0  0.56953  0.51898  0.93856  1.0000
  H   H4533     1.0  0.68661  0.89871  0.91551  1.0000
  C   C2558     1.0  0.67382  0.87955  0.95327  1.0000
  C   C2559     1.0  0.59326  0.87212  0.90445  1.0000
  C   C2560     1.0  0.54184  0.79667  0.91472  1.0000
  H   H4534     1.0  0.59139  0.83471  0.92420  1.0000
  H   H4535     1.0  0.66450  0.84571  0.95763  1.0000
  H   H4536     1.0  0.68078  0.53374  0.65034  1.0000
  H   H4537     1.0  0.59729  0.80729  0.94703  1.0000
  H   H4538     1.0  0.57182  0.81443  0.91700  1.0000
  H   H4539     1.0  0.55234  0.83403  0.91070  1.0000
  H   H4540     1.0  0.53701  0.85787  0.93147  1.0000
  H   H4541     1.0  0.52966  0.83982  0.95192  1.0000
  H   H4542     1.0  0.66546  0.80799  0.96188  1.0000
  H   H4543     1.0  0.50246  0.98236  0.65281  1.0000
  H   H4544     1.0  0.56975  0.85822  0.90058  1.0000
  H   H4545     1.0  0.56265  0.87504  0.91848  1.0000
  H   H4546     1.0  0.52657  0.81794  0.93367  1.0000
  H   H4547     1.0  0.54444  0.79839  0.94456  1.0000
  H   H4548     1.0  0.55258  0.81351  0.96629  1.0000
  H   H4549     1.0  0.52026  0.53099  0.82043  1.0000
  H   H4550     1.0  0.51136  0.82620  0.87657  1.0000
  H   H4551     1.0  0.55829  0.95536  0.75390  1.0000
  C   C2561     1.0  0.72197  0.58669  0.94269  1.0000
  C   C2562     1.0  0.68179  0.80611  0.95623  1.0000
  H   H4552     1.0  0.70343  0.55187  0.97724  1.0000
  C   C2563     1.0  0.69077  0.86572  0.92333  1.0000
  H   H4553     1.0  0.60532  0.86106  0.89764  1.0000
  H   H4554     1.0  0.58996  0.88513  0.89253  1.0000
  H   H4555     1.0  0.59851  0.87745  0.91626  1.0000
  H   H4556     1.0  0.53994  0.80650  0.90017  1.0000
  H   H4557     1.0  0.55607  0.78598  0.91266  1.0000
  H   H4558     1.0  0.52929  0.78809  0.91939  1.0000
  H   H4559     1.0  0.70329  0.58647  0.97166  1.0000
  C   C2564     1.0  0.67838  0.59386  0.92163  1.0000
  H   H4560     1.0  0.52237  0.95143  0.79185  1.0000
  Fe  Fe288     1.0  0.69038  0.96762  0.86869  1.0000
  H   H4561     1.0  0.52207  0.95724  0.76584  1.0000
  C   C2565     1.0  0.51241  0.56276  0.81506  1.0000
  C   C2566     1.0  0.50739  0.93655  0.74320  1.0000
  N   N143      1.0  0.64066  0.92623  0.78871  1.0000
  C   C2567     1.0  0.63991  0.90411  0.79476  1.0000
  C   C2568     1.0  0.65550  0.93217  0.79881  1.0000
  C   C2569     1.0  0.62016  0.93732  0.79601  1.0000
  C   C2570     1.0  0.64524  0.93226  0.76627  1.0000
  C   C2571     1.0  0.66528  0.92175  0.75569  1.0000
  C   C2572     1.0  0.62670  0.89564  0.78396  1.0000
  C   C2573     1.0  0.61804  0.96036  0.79434  1.0000
  C   C2574     1.0  0.67454  0.91673  0.80253  1.0000
  C   C2575     1.0  0.68993  0.92645  0.80844  1.0000
  C   C2576     1.0  0.66655  0.92625  0.73292  1.0000
  C   C2577     1.0  0.62418  0.87426  0.79386  1.0000
  H   H4562     1.0  0.57922  0.51240  0.83920  1.0000
  H   H4563     1.0  0.63484  0.90058  0.81125  1.0000
  H   H4564     1.0  0.65487  0.89483  0.79207  1.0000
  H   H4565     1.0  0.66013  0.94648  0.79044  1.0000
  H   H4566     1.0  0.64837  0.93531  0.81405  1.0000
  H   H4567     1.0  0.61515  0.93127  0.81207  1.0000
  H   H4568     1.0  0.60891  0.93502  0.78770  1.0000
  H   H4569     1.0  0.63296  0.93001  0.75921  1.0000
  H   H4570     1.0  0.64572  0.94854  0.76219  1.0000
  H   H4571     1.0  0.66730  0.90527  0.76027  1.0000
  H   H4572     1.0  0.67783  0.92739  0.75921  1.0000
  H   H4573     1.0  0.61162  0.90463  0.78411  1.0000
  H   H4574     1.0  0.63371  0.89534  0.76805  1.0000
  H   H4575     1.0  0.62154  0.96766  0.77852  1.0000
  H   H4576     1.0  0.62801  0.96432  0.80307  1.0000
  H   H4577     1.0  0.67050  0.90460  0.81509  1.0000
  H   H4578     1.0  0.68184  0.90979  0.78924  1.0000
  H   H4579     1.0  0.68330  0.93387  0.82165  1.0000
  H   H4580     1.0  0.70278  0.91486  0.81235  1.0000
  H   H4581     1.0  0.69549  0.93776  0.79581  1.0000
  H   H4582     1.0  0.66578  0.58240  0.90068  1.0000
  H   H4583     1.0  0.68125  0.91894  0.72567  1.0000
  H   H4584     1.0  0.67648  0.56278  0.93254  1.0000
  H   H4585     1.0  0.61648  0.87391  0.80966  1.0000
  H   H4586     1.0  0.61495  0.86844  0.78569  1.0000
  H   H4587     1.0  0.63891  0.86428  0.79354  1.0000
  C   C2578     1.0  0.50419  0.66977  0.95103  1.0000
  H   H4588     1.0  0.55731  0.48839  0.84290  1.0000
  C   C2579     1.0  0.50414  0.74562  0.94678  1.0000
  C   C2580     1.0  0.54298  0.86186  0.95987  1.0000
  S   S572      1.0  0.51635  0.56603  0.75120  1.0000
  H   H4589     1.0  0.59009  0.54552  0.83035  1.0000
  H   H4590     1.0  0.62346  0.48454  0.81153  1.0000
  S   S573      1.0  0.54410  0.83236  0.65345  1.0000
  C   C2581     1.0  0.71238  0.48784  0.68109  1.0000
  H   H4591     1.0  0.57032  0.82768  0.96812  1.0000
  C   C2582     1.0  0.67662  0.59232  0.90032  1.0000
  C   C2583     1.0  0.49648  0.65146  0.94849  1.0000
  C   C2584     1.0  0.49398  0.52147  0.71154  1.0000
  N   N144      1.0  0.50564  0.93350  0.78168  1.0000
  C   C2585     1.0  0.61308  0.50213  0.68664  1.0000
  H   H4592     1.0  0.60395  0.50592  0.67450  1.0000
  H   H4593     1.0  0.53524  0.63236  0.97102  1.0000
  S   S574      1.0  0.56808  0.87789  0.65668  1.0000
  H   H4594     1.0  0.49641  0.53603  0.77888  1.0000
  Fe  Fe289     1.0  0.54079  0.86322  0.66200  1.0000
  H   H4595     1.0  0.58234  0.55548  0.86334  1.0000
  H   H4596     1.0  0.48959  0.87008  0.68178  1.0000
  H   H4597     1.0  0.68555  0.88532  0.88497  1.0000
  H   H4598     1.0  0.65466  0.92034  0.72845  1.0000
  H   H4599     1.0  0.66161  0.59330  0.96217  1.0000
  C   C2586     1.0  0.52289  0.87543  0.96442  1.0000
  H   H4600     1.0  0.49331  0.94730  0.74204  1.0000
  C   C2587     1.0  0.57131  0.52388  0.95235  1.0000
  H   H4601     1.0  0.66019  0.88187  0.94631  1.0000
  H   H4602     1.0  0.49821  0.65307  0.66903  1.0000
  H   H4603     1.0  0.53625  0.68599  0.96335  1.0000
  C   C2588     1.0  0.67859  0.49611  0.66982  1.0000
  C   C2589     1.0  0.70154  0.49296  0.66307  1.0000
  N   N145      1.0  0.56372  0.52636  0.81450  1.0000
  H   H4604     1.0  0.56584  0.69179  0.97416  1.0000
  H   H4605     1.0  0.58303  0.85086  0.94214  1.0000
  H   H4606     1.0  0.71429  0.51187  0.96895  1.0000
  H   H4607     1.0  0.52389  0.88526  0.97491  1.0000
  C   C2590     1.0  0.55847  0.50660  0.81287  1.0000
  C   C2591     1.0  0.51067  0.52879  0.77199  1.0000
  H   H4608     1.0  0.49207  0.89876  0.83856  1.0000
  C   C2592     1.0  0.49111  0.84255  0.92068  1.0000
  H   H4609     1.0  0.67611  0.86537  0.91926  1.0000
  H   H4610     1.0  0.72868  0.84658  0.92938  1.0000
  H   H4611     1.0  0.55269  0.53946  0.73997  1.0000
  H   H4612     1.0  0.50338  0.64344  0.78729  1.0000
  H   H4613     1.0  0.55247  0.55811  0.80753  1.0000
  H   H4614     1.0  0.54506  0.54336  0.79321  1.0000
  H   H4615     1.0  0.51657  0.81541  0.97526  1.0000
  C   C2593     1.0  0.51044  0.92377  0.72682  1.0000
  H   H4616     1.0  0.69136  0.58635  0.89199  1.0000
  C   C2594     1.0  0.52358  0.54012  0.75833  1.0000
  H   H4617     1.0  0.51039  0.93355  0.71196  1.0000
  H   H4618     1.0  0.52777  0.98178  0.68342  1.0000
  N   N146      1.0  0.50524  0.69119  0.97754  1.0000
  C   C2595     1.0  0.49044  0.90480  0.80662  1.0000
  H   H4619     1.0  0.67256  0.53766  0.97117  1.0000
  H   H4620     1.0  0.60587  0.49178  0.69920  1.0000
  C   C2596     1.0  0.50833  0.72875  0.96426  1.0000
  H   H4621     1.0  0.49130  0.63548  0.77025  1.0000
  C   C2597     1.0  0.72619  0.84649  0.94573  1.0000
  H   H4622     1.0  0.72113  0.58828  0.92658  1.0000
  H   H4623     1.0  0.68595  0.79380  0.94729  1.0000
  H   H4624     1.0  0.49958  0.73387  0.97815  1.0000
  C   C2598     1.0  0.69825  0.51535  0.97544  1.0000
  H   H4625     1.0  0.51078  0.56364  0.79921  1.0000
  C   C2599     1.0  0.49304  0.89037  0.82618  1.0000
  C   C2600     1.0  0.73529  0.91465  0.94631  1.0000
  H   H4626     1.0  0.64239  0.48808  0.69193  1.0000
  H   H4627     1.0  0.54020  0.79304  0.64867  1.0000
  H   H4628     1.0  0.54818  0.97907  0.64959  1.0000
  H   H4629     1.0  0.48953  0.97130  0.75951  1.0000
  H   H4630     1.0  0.49217  0.91675  0.76629  1.0000
  H   H4631     1.0  0.50204  0.63818  0.95905  1.0000
  C   C2601     1.0  0.73258  0.60322  0.94489  1.0000
  C   C2602     1.0  0.65088  0.89521  0.98172  1.0000
  H   H4632     1.0  0.63587  0.51014  0.64926  1.0000
  Fe  Fe290     1.0  0.73539  0.96256  0.86797  1.0000
  C   C2603     1.0  0.48824  0.51307  0.73372  1.0000
  C   C2604     1.0  0.69410  0.48458  0.85038  1.0000
  Fe  Fe291     1.0  0.82578  0.21269  0.01252  1.0000
  C   C2605     1.0  0.74172  0.39385  0.01893  1.0000
  S   S575      1.0  0.80828  0.18690  0.01439  1.0000
  Fe  Fe292     1.0  0.86266  0.21891  0.02795  1.0000
  S   S576      1.0  0.86247  0.25007  0.01069  1.0000
  S   S577      1.0  0.88777  0.20305  0.04496  1.0000
  Fe  Fe293     1.0  0.82947  0.25408  0.02132  1.0000
  S   S578      1.0  0.81351  0.28434  0.02926  1.0000
  H   H4633     1.0  0.80560  0.33444  0.10429  1.0000
  S   S579      1.0  0.82975  0.22336  0.04031  1.0000
  S   S580      1.0  0.85900  0.20621  0.00165  1.0000
  S   S581      1.0  0.95695  0.23485  0.14087  1.0000
  H   H4634     1.0  0.79819  0.14808  0.01686  1.0000
  Fe  Fe294     1.0  0.94955  0.23922  0.10979  1.0000
  S   S582      1.0  0.91786  0.24624  0.10330  1.0000
  H   H4635     1.0  0.88425  0.41705  0.04416  1.0000
  Fe  Fe295     1.0  0.95344  0.10002  0.23693  1.0000
  H   H4636     1.0  0.87115  0.29937  0.00391  1.0000
  S   S583      1.0  0.94328  0.12984  0.21766  1.0000
  Fe  Fe296     1.0  0.93568  0.06478  0.26401  1.0000
  H   H4637     1.0  0.82914  0.46821  0.05846  1.0000
  S   S584      1.0  0.90807  0.05069  0.27736  1.0000
  H   H4638     1.0  0.84913  0.45796  0.98796  1.0000
  H   H4639     1.0  0.85034  0.48135  0.03111  1.0000
  C   C2606     1.0  0.93285  0.00288  0.30772  1.0000
  C   C2607     1.0  0.86364  0.47476  0.13641  1.0000
  S   S585      1.0  0.93689  0.09567  0.26878  1.0000
  S   S586      1.0  0.94986  0.06997  0.23160  1.0000
  H   H4640     1.0  0.77927  0.40379  0.00770  1.0000
  Fe  Fe297     1.0  0.83289  0.37019  0.07849  1.0000
  S   S587      1.0  0.81699  0.38276  0.10635  1.0000
  S   S588      1.0  0.84458  0.33687  0.07860  1.0000
  Fe  Fe298     1.0  0.83065  0.41177  0.05304  1.0000
  S   S589      1.0  0.81386  0.42729  0.07849  1.0000
  S   S590      1.0  0.84130  0.42743  0.02202  1.0000
  Fe  Fe299     1.0  0.83595  0.40737  0.09661  1.0000
  S   S591      1.0  0.85571  0.41806  0.11426  1.0000
  Fe  Fe300     1.0  0.79648  0.40173  0.08570  1.0000
  S   S592      1.0  0.76262  0.40725  0.09326  1.0000
  S   S593      1.0  0.85354  0.39279  0.07056  1.0000
  S   S594      1.0  0.81154  0.38810  0.05858  1.0000
  H   H4641     1.0  0.91501  0.16442  0.26927  1.0000
  C   C2608     1.0  0.96887  0.45528  0.16843  1.0000
  C   C2609     1.0  0.93411  0.39725  0.16439  1.0000
  H   H4642     1.0  0.91177  0.14327  0.08093  1.0000
  H   H4643     1.0  0.77402  0.37360  0.07113  1.0000
  C   C2610     1.0  0.82915  0.45215  0.01593  1.0000
  H   H4644     1.0  0.90836  0.28474  0.12136  1.0000
  H   H4645     1.0  0.89380  0.33351  0.06550  1.0000
  C   C2611     1.0  0.87902  0.45826  0.13519  1.0000
  C   C2612     1.0  0.87627  0.44118  0.12840  1.0000
  C   C2613     1.0  0.85821  0.44030  0.12249  1.0000
  C   C2614     1.0  0.84282  0.45682  0.12369  1.0000
  H   H4646     1.0  0.89310  0.45874  0.13932  1.0000
  H   H4647     1.0  0.88831  0.42855  0.12764  1.0000
  H   H4648     1.0  0.82871  0.45634  0.11963  1.0000
  H   H4649     1.0  0.98647  0.47300  0.25301  1.0000
  H   H4650     1.0  0.74897  0.38596  0.03200  1.0000
  H   H4651     1.0  0.96565  0.40207  0.13390  1.0000
  C   C2615     1.0  0.96509  0.45834  0.14880  1.0000
  C   C2616     1.0  0.78665  0.30513  0.09806  1.0000
  H   H4652     1.0  0.88543  0.46719  0.05456  1.0000
  S   S595      1.0  0.73959  0.00617  0.07929  1.0000
  H   H4653     1.0  0.83752  0.47101  0.24682  1.0000
  C   C2617     1.0  0.78362  0.19076  0.98567  1.0000
  S   S596      1.0  0.96764  0.26359  0.09806  1.0000
  H   H4654     1.0  0.79317  0.42345  0.02663  1.0000
  C   C2618     1.0  0.78949  0.42970  0.01144  1.0000
  C   C2619     1.0  0.88907  0.01947  0.27751  1.0000
  C   C2620     1.0  0.90285  0.03166  0.26656  1.0000
  C   C2621     1.0  0.91250  0.02820  0.24745  1.0000
  C   C2622     1.0  0.90845  0.01263  0.23942  1.0000
  H   H4655     1.0  0.75920  0.44266  0.13262  1.0000
  H   H4656     1.0  0.88152  0.02207  0.29231  1.0000
  H   H4657     1.0  0.92306  0.03754  0.23886  1.0000
  H   H4658     1.0  0.95390  0.46272  0.24720  1.0000
  H   H4659     1.0  0.76832  0.28022  0.05433  1.0000
  H   H4660     1.0  0.83534  0.05400  0.24570  1.0000
  C   C2623     1.0  0.95038  0.16426  0.19184  1.0000
  C   C2624     1.0  0.95828  0.14425  0.19871  1.0000
  H   H4661     1.0  0.88692  0.26406  0.03785  1.0000
  H   H4662     1.0  0.75694  0.16097  0.05454  1.0000
  Fe  Fe301     1.0  0.96689  0.08265  0.27731  1.0000
  H   H4663     1.0  0.93557  0.17060  0.19855  1.0000
  H   H4664     1.0  0.82768  0.46478  0.27313  1.0000
  H   H4665     1.0  0.75871  0.13770  0.03698  1.0000
  C   C2625     1.0  0.89602  0.21534  0.06100  1.0000
  C   C2626     1.0  0.91525  0.20871  0.06585  1.0000
  C   C2627     1.0  0.92223  0.21815  0.07866  1.0000
  C   C2628     1.0  0.90984  0.23405  0.08700  1.0000
  C   C2629     1.0  0.89050  0.24045  0.08242  1.0000
  C   C2630     1.0  0.88365  0.23123  0.06936  1.0000
  H   H4666     1.0  0.92486  0.19638  0.05947  1.0000
  H   H4667     1.0  0.93714  0.21313  0.08205  1.0000
  H   H4668     1.0  0.88077  0.25262  0.08896  1.0000
  H   H4669     1.0  0.86875  0.23631  0.06587  1.0000
  C   C2631     1.0  0.82413  0.29908  0.04119  1.0000
  C   C2632     1.0  0.81632  0.31957  0.04015  1.0000
  C   C2633     1.0  0.82266  0.33135  0.05126  1.0000
  C   C2634     1.0  0.83676  0.32273  0.06372  1.0000
  C   C2635     1.0  0.84477  0.30225  0.06459  1.0000
  C   C2636     1.0  0.83868  0.29052  0.05321  1.0000
  H   H4670     1.0  0.80502  0.32633  0.03095  1.0000
  H   H4671     1.0  0.81635  0.34704  0.05040  1.0000
  H   H4672     1.0  0.85550  0.29534  0.07438  1.0000
  H   H4673     1.0  0.84473  0.27473  0.05428  1.0000
  H   H4674     1.0  0.73788  0.31882  0.04765  1.0000
  C   C2637     1.0  0.79076  0.15802  0.00537  1.0000
  C   C2638     1.0  0.79330  0.17823  0.00067  1.0000
  H   H4675     1.0  0.83600  0.14873  0.99042  1.0000
  H   H4676     1.0  0.79144  0.41595  0.15527  1.0000
  H   H4677     1.0  0.78466  0.44615  0.01019  1.0000
  H   H4678     1.0  0.75161  0.27508  0.10117  1.0000
  N   N147      1.0  0.77519  0.29276  0.09023  1.0000
  C   C2639     1.0  0.76815  0.30414  0.07115  1.0000
  H   H4679     1.0  0.92455  0.47029  0.27390  1.0000
  C   C2640     1.0  0.78931  0.27410  0.08510  1.0000
  H   H4680     1.0  0.94123  0.48081  0.22904  1.0000
  H   H4681     1.0  0.78105  0.30906  0.06019  1.0000
  H   H4682     1.0  0.74489  0.28682  0.07052  1.0000
  C   C2641     1.0  0.80090  0.26156  0.10176  1.0000
  Fe  Fe302     1.0  0.97734  0.25752  0.12792  1.0000
  H   H4683     1.0  0.90068  0.31157  0.11967  1.0000
  H   H4684     1.0  0.94340  0.11634  0.30382  1.0000
  H   H4685     1.0  0.98072  0.36951  0.16918  1.0000
  C   C2642     1.0  0.81554  0.24398  0.09402  1.0000
  H   H4686     1.0  0.97204  0.37648  0.09874  1.0000
  H   H4687     1.0  0.75777  0.31812  0.07375  1.0000
  H   H4688     1.0  0.74094  0.42122  0.98726  1.0000
  S   S597      1.0  0.97995  0.08698  0.30335  1.0000
  H   H4689     1.0  0.80061  0.27809  0.07175  1.0000
  H   H4690     1.0  0.78123  0.26369  0.08082  1.0000
  C   C2643     1.0  0.75308  0.41349  0.15009  1.0000
  H   H4691     1.0  0.95334  0.47013  0.14406  1.0000
  H   H4692     1.0  0.74624  0.31231  0.12105  1.0000
  H   H4693     1.0  0.85259  0.29762  0.98992  1.0000
  H   H4694     1.0  0.76136  0.41303  0.30462  1.0000
  H   H4695     1.0  0.93578  0.15662  0.09392  1.0000
  Fe  Fe303     1.0  0.97890  0.05865  0.24324  1.0000
  C   C2644     1.0  0.93734  0.41928  0.16131  1.0000
  H   H4696     1.0  0.76181  0.31305  0.03176  1.0000
  H   H4697     1.0  0.97354  0.44821  0.12019  1.0000
  C   C2645     1.0  0.78907  0.33800  0.10778  1.0000
  H   H4698     1.0  0.94313  0.32446  0.15657  1.0000
  C   C2646     1.0  0.92338  0.47391  0.25772  1.0000
  H   H4699     1.0  0.96092  0.14372  0.11019  1.0000
  H   H4700     1.0  0.90038  0.43354  0.04641  1.0000
  H   H4701     1.0  0.75300  0.39115  0.00539  1.0000
  H   H4702     1.0  0.78201  0.99849  0.21652  1.0000
  H   H4703     1.0  0.90284  0.26563  0.01375  1.0000
  C   C2647     1.0  0.93351  0.35688  0.15120  1.0000
  H   H4704     1.0  0.82670  0.24946  0.08117  1.0000
  C   C2648     1.0  0.91568  0.16640  0.12017  1.0000
  S   S598      1.0  0.97417  0.21530  0.09930  1.0000
  N   N148      1.0  0.91189  0.30520  0.05893  1.0000
  C   C2649     1.0  0.93182  0.30965  0.04722  1.0000
  C   C2650     1.0  0.89554  0.32293  0.05479  1.0000
  C   C2651     1.0  0.91322  0.30188  0.08097  1.0000
  C   C2652     1.0  0.90687  0.28646  0.05457  1.0000
  H   H4705     1.0  0.76324  0.33235  0.09889  1.0000
  C   C2653     1.0  0.95022  0.29337  0.05111  1.0000
  C   C2654     1.0  0.89353  0.29917  0.09586  1.0000
  H   H4706     1.0  0.94437  0.14523  0.15723  1.0000
  H   H4707     1.0  0.95451  0.36888  0.20089  1.0000
  H   H4708     1.0  0.78706  0.29963  0.11430  1.0000
  H   H4709     1.0  0.75254  0.03066  0.04249  1.0000
  H   H4710     1.0  0.91580  0.01012  0.22457  1.0000
  H   H4711     1.0  0.93470  0.32379  0.05059  1.0000
  H   H4712     1.0  0.88092  0.36082  0.01589  1.0000
  H   H4713     1.0  0.88090  0.31782  0.05752  1.0000
  C   C2655     1.0  0.96284  0.98871  0.28373  1.0000
  H   H4714     1.0  0.91886  0.31459  0.08438  1.0000
  H   H4715     1.0  0.92417  0.28821  0.08503  1.0000
  H   H4716     1.0  0.91700  0.27295  0.06063  1.0000
  H   H4717     1.0  0.89174  0.28413  0.06266  1.0000
  H   H4718     1.0  0.80256  0.30329  0.09045  1.0000
  C   C2656     1.0  0.77959  0.32813  0.09504  1.0000
  H   H4719     1.0  0.95339  0.29288  0.06630  1.0000
  H   H4720     1.0  0.94789  0.27835  0.04979  1.0000
  H   H4721     1.0  0.88851  0.28526  0.09481  1.0000
  H   H4722     1.0  0.91829  0.46134  0.25355  1.0000
  H   H4723     1.0  0.92102  0.14412  0.25500  1.0000
  C   C2657     1.0  0.94695  0.36155  0.16450  1.0000
  H   H4724     1.0  0.85365  0.03834  0.25963  1.0000
  H   H4725     1.0  0.76404  0.01439  0.00054  1.0000
  H   H4726     1.0  0.85453  0.44005  0.05721  1.0000
  H   H4727     1.0  0.94244  0.01020  0.31402  1.0000
  H   H4728     1.0  0.98062  0.17079  0.21501  1.0000
  H   H4729     1.0  0.74655  0.12288  0.05837  1.0000
  H   H4730     1.0  0.75939  0.40244  0.16228  1.0000
  H   H4731     1.0  0.91316  0.25322  0.03587  1.0000
  H   H4732     1.0  0.94082  0.35811  0.13527  1.0000
  H   H4733     1.0  0.82930  0.03165  0.26286  1.0000
  C   C2658     1.0  0.74873  0.39203  0.08577  1.0000
  H   H4734     1.0  0.88133  0.31189  0.09300  1.0000
  H   H4735     1.0  0.74953  0.11947  0.01390  1.0000
  C   C2659     1.0  0.97439  0.99652  0.22503  1.0000
  H   H4736     1.0  0.90204  0.32749  0.02141  1.0000
  H   H4737     1.0  0.78408  0.33282  0.12398  1.0000
  C   C2660     1.0  0.94147  0.00113  0.28584  1.0000
  S   S599      1.0  0.96442  0.05133  0.27524  1.0000
  H   H4738     1.0  0.76374  0.27849  0.11999  1.0000
  H   H4739     1.0  0.86646  0.34247  0.03079  1.0000
  H   H4740     1.0  0.76672  0.09083  0.04883  1.0000
  C   C2661     1.0  0.89793  0.33629  0.03376  1.0000
  H   H4741     1.0  0.89509  0.98607  0.18750  1.0000
  H   H4742     1.0  0.97041  0.17976  0.27092  1.0000
  H   H4743     1.0  0.81880  0.99435  0.21433  1.0000
  H   H4744     1.0  0.91775  0.01221  0.30861  1.0000
  C   C2662     1.0  0.95467  0.16241  0.25033  1.0000
  H   H4745     1.0  0.75373  0.35232  0.06193  1.0000
  H   H4746     1.0  0.95590  0.17877  0.13299  1.0000
  H   H4747     1.0  0.77762  0.13477  0.99872  1.0000
  C   C2663     1.0  0.89492  0.00028  0.25045  1.0000
  C   C2664     1.0  0.96892  0.29798  0.03625  1.0000
  H   H4748     1.0  0.75830  0.40638  0.13649  1.0000
  H   H4749     1.0  0.97134  0.16735  0.30690  1.0000
  C   C2665     1.0  0.80322  0.47998  0.02400  1.0000
  H   H4750     1.0  0.86870  0.45161  0.03459  1.0000
  C   C2666     1.0  0.85937  0.46362  0.26629  1.0000
  H   H4751     1.0  0.90881  0.14759  0.17340  1.0000
  C   C2667     1.0  0.96144  0.17612  0.17626  1.0000
  H   H4752     1.0  0.94996  0.42068  0.16819  1.0000
  Fe  Fe304     1.0  0.85591  0.23791  0.98547  1.0000
  H   H4753     1.0  0.94868  0.38919  0.12809  1.0000
  H   H4754     1.0  0.86509  0.00165  0.17204  1.0000
  C   C2668     1.0  0.74839  0.11319  0.03005  1.0000
  N   N149      1.0  0.85430  0.48071  0.06156  1.0000
  H   H4755     1.0  0.74819  0.41896  0.18908  1.0000
  H   H4756     1.0  0.78074  0.10596  0.02845  1.0000
  H   H4757     1.0  0.92108  0.44837  0.16704  1.0000
  H   H4758     1.0  0.93179  0.31247  0.03086  1.0000
  C   C2669     1.0  0.90683  0.28586  0.03233  1.0000
  H   H4759     1.0  0.91940  0.33259  0.14825  1.0000
  H   H4760     1.0  0.78672  0.00189  0.18937  1.0000
  H   H4761     1.0  0.77008  0.42677  0.99216  1.0000
  H   H4762     1.0  0.79320  0.43977  0.13926  1.0000
  C   C2670     1.0  0.94552  0.14809  0.26847  1.0000
  C   C2671     1.0  0.78351  0.00966  0.20253  1.0000
  H   H4763     1.0  0.84730  0.16042  0.00540  1.0000
  C   C2672     1.0  0.79805  0.47931  0.08592  1.0000
  C   C2673     1.0  0.97080  0.19813  0.22733  1.0000
  H   H4764     1.0  0.92152  0.28769  0.02294  1.0000
  C   C2674     1.0  0.93325  0.14527  0.14758  1.0000
  H   H4765     1.0  0.95053  0.15953  0.23657  1.0000
  H   H4766     1.0  0.74281  0.29794  0.03449  1.0000
  H   H4767     1.0  0.97572  0.35687  0.13223  1.0000
  N   N150      1.0  0.97692  0.16186  0.24735  1.0000
  H   H4768     1.0  0.78411  0.33464  0.07907  1.0000
  H   H4769     1.0  0.82366  0.23515  0.10611  1.0000
  C   C2675     1.0  0.75798  0.37638  0.07531  1.0000
  H   H4770     1.0  0.97731  0.46457  0.22063  1.0000
  H   H4771     1.0  0.78455  0.35451  0.10457  1.0000
  H   H4772     1.0  0.80975  0.27060  0.10690  1.0000
  C   C2676     1.0  0.87861  0.35081  0.03060  1.0000
  H   H4773     1.0  0.97596  0.39580  0.16489  1.0000
  H   H4774     1.0  0.74311  0.18076  0.03894  1.0000
  C   C2677     1.0  0.75765  0.29276  0.06032  1.0000
  H   H4775     1.0  0.94644  0.17753  0.25262  1.0000
  H   H4776     1.0  0.89275  0.14835  0.10213  1.0000
  C   C2678     1.0  0.91972  0.18049  0.14837  1.0000
  C   C2679     1.0  0.73778  0.03777  0.04853  1.0000
  C   C2680     1.0  0.88585  0.42847  0.05268  1.0000
  C   C2681     1.0  0.91736  0.20293  0.13873  1.0000
  C   C2682     1.0  0.76753  0.09830  0.03293  1.0000
  H   H4777     1.0  0.74235  0.35949  0.00241  1.0000
  C   C2683     1.0  0.96065  0.38728  0.13721  1.0000
  C   C2684     1.0  0.90890  0.21621  0.15471  1.0000
  H   H4778     1.0  0.97063  0.20416  0.24109  1.0000
  C   C2685     1.0  0.94931  0.17147  0.12350  1.0000
  H   H4779     1.0  0.92805  0.17848  0.16095  1.0000
  H   H4780     1.0  0.90437  0.17780  0.15538  1.0000
  H   H4781     1.0  0.92585  0.10603  0.16212  1.0000
  C   C2686     1.0  0.96537  0.01352  0.20991  1.0000
  C   C2687     1.0  0.78612  0.42622  0.14213  1.0000
  H   H4782     1.0  0.80325  0.42681  0.00027  1.0000
  H   H4783     1.0  0.90687  0.20643  0.12785  1.0000
  H   H4784     1.0  0.93182  0.20724  0.13083  1.0000
  H   H4785     1.0  0.78504  0.20641  0.98204  1.0000
  H   H4786     1.0  0.94009  0.13344  0.13842  1.0000
  C   C2688     1.0  0.76339  0.43216  0.14609  1.0000
  C   C2689     1.0  0.91482  0.13797  0.16176  1.0000
  H   H4787     1.0  0.88572  0.42144  0.06866  1.0000
  H   H4788     1.0  0.85874  0.13621  0.99930  1.0000
  H   H4789     1.0  0.96855  0.01415  0.24885  1.0000
  H   H4790     1.0  0.91912  0.21378  0.16577  1.0000
  H   H4791     1.0  0.90724  0.23220  0.14753  1.0000
  H   H4792     1.0  0.89399  0.21303  0.16263  1.0000
  N   N151      1.0  0.83768  0.01698  0.20413  1.0000
  C   C2690     1.0  0.85595  0.00085  0.20479  1.0000
  C   C2691     1.0  0.83187  0.02536  0.22357  1.0000
  C   C2692     1.0  0.82065  0.00739  0.20204  1.0000
  C   C2693     1.0  0.84062  0.03352  0.18644  1.0000
  C   C2694     1.0  0.85900  0.04369  0.18442  1.0000
  C   C2695     1.0  0.97649  0.44595  0.13534  1.0000
  C   C2696     1.0  0.80006  0.02139  0.20201  1.0000
  C   C2697     1.0  0.84885  0.02597  0.23489  1.0000
  H   H4793     1.0  0.79050  0.25533  0.11487  1.0000
  C   C2698     1.0  0.86144  0.05860  0.16484  1.0000
  H   H4794     1.0  0.98183  0.28619  0.03965  1.0000
  H   H4795     1.0  0.87235  0.45565  0.07754  1.0000
  S   S600      1.0  0.95482  0.46995  0.18592  1.0000
  H   H4796     1.0  0.86881  0.00658  0.20744  1.0000
  H   H4797     1.0  0.82308  0.04074  0.22108  1.0000
  H   H4798     1.0  0.82168  0.01639  0.23477  1.0000
  C   C2699     1.0  0.97753  0.13628  0.19013  1.0000
  H   H4799     1.0  0.82386  0.00118  0.18786  1.0000
  H   H4800     1.0  0.84124  0.02808  0.17220  1.0000
  H   H4801     1.0  0.82748  0.04576  0.18706  1.0000
  H   H4802     1.0  0.87304  0.03269  0.18439  1.0000
  H   H4803     1.0  0.85702  0.05223  0.19683  1.0000
  H   H4804     1.0  0.93227  0.11608  0.18178  1.0000
  H   H4805     1.0  0.83713  0.45971  0.08196  1.0000
  H   H4806     1.0  0.80035  0.03281  0.18818  1.0000
  H   H4807     1.0  0.79581  0.02918  0.21516  1.0000
  H   H4808     1.0  0.85463  0.01053  0.24183  1.0000
  H   H4809     1.0  0.86149  0.03230  0.22497  1.0000
  H   H4810     1.0  0.86216  0.44747  0.26523  1.0000
  H   H4811     1.0  0.92667  0.39293  0.18011  1.0000
  H   H4812     1.0  0.90980  0.34535  0.03240  1.0000
  H   H4813     1.0  0.87449  0.06594  0.16391  1.0000
  H   H4814     1.0  0.86404  0.05080  0.15174  1.0000
  H   H4815     1.0  0.84794  0.07035  0.16417  1.0000
  C   C2700     1.0  0.90629  0.15323  0.09234  1.0000
  C   C2701     1.0  0.75815  0.28636  0.10600  1.0000
  C   C2702     1.0  0.75102  0.02470  0.99514  1.0000
  C   C2703     1.0  0.86332  0.99056  0.18601  1.0000
  H   H4816     1.0  0.79974  0.46512  0.09681  1.0000
  H   H4817     1.0  0.86089  0.46514  0.28159  1.0000
  H   H4818     1.0  0.74048  0.35339  0.02939  1.0000
  C   C2704     1.0  0.92330  0.14900  0.26861  1.0000
  H   H4819     1.0  0.88240  0.29519  0.12785  1.0000
  H   H4820     1.0  0.94917  0.01366  0.21123  1.0000
  C   C2705     1.0  0.81246  0.46008  0.02877  1.0000
  C   C2706     1.0  0.92044  0.11671  0.17285  1.0000
  C   C2707     1.0  0.86858  0.44599  0.05082  1.0000
  H   H4821     1.0  0.97112  0.22727  0.20837  1.0000
  H   H4822     1.0  0.75086  0.43890  0.02487  1.0000
  C   C2708     1.0  0.85037  0.15100  0.99352  1.0000
  C   C2709     1.0  0.77316  0.41994  0.00741  1.0000
  H   H4823     1.0  0.95174  0.43218  0.30821  1.0000
  C   C2710     1.0  0.96624  0.15431  0.11706  1.0000
  C   C2711     1.0  0.94353  0.47712  0.24486  1.0000
  H   H4824     1.0  0.91614  0.42811  0.18721  1.0000
  H   H4825     1.0  0.87389  0.36022  0.04256  1.0000
  C   C2712     1.0  0.91881  0.43252  0.17064  1.0000
  H   H4826     1.0  0.95519  0.19859  0.22543  1.0000
  S   S601      1.0  0.97594  0.28539  0.14099  1.0000
  H   H4827     1.0  0.87080  0.47093  0.25513  1.0000
  C   C2713     1.0  0.89651  0.29759  0.11749  1.0000
  H   H4828     1.0  0.96053  0.34979  0.16425  1.0000
  H   H4829     1.0  0.90718  0.11199  0.18332  1.0000
  H   H4830     1.0  0.97258  0.14567  0.13042  1.0000
  H   H4831     1.0  0.91902  0.36723  0.15211  1.0000
  C   C2714     1.0  0.84554  0.47388  0.13057  1.0000
  H   H4832     1.0  0.80646  0.45084  0.04224  1.0000
  C   C2715     1.0  0.83630  0.46408  0.99803  1.0000
  H   H4833     1.0  0.89501  0.29766  0.02664  1.0000
  H   H4834     1.0  0.90222  0.16874  0.08438  1.0000
  H   H4835     1.0  0.94896  0.00195  0.24788  1.0000
  H   H4836     1.0  0.75048  0.03963  0.99903  1.0000
  H   H4837     1.0  0.96693  0.29817  0.02066  1.0000
  C   C2716     1.0  0.74098  0.30315  0.11238  1.0000
  H   H4838     1.0  0.93895  0.35903  0.18022  1.0000
  H   H4839     1.0  0.94663  0.15267  0.28263  1.0000
  H   H4840     1.0  0.86025  0.32145  0.98846  1.0000
  H   H4841     1.0  0.95522  0.19150  0.17110  1.0000
  C   C2717     1.0  0.92260  0.15211  0.10466  1.0000
  C   C2718     1.0  0.74646  0.36412  0.07033  1.0000
  S   S602      1.0  0.74393  0.09613  0.98601  1.0000
  H   H4842     1.0  0.90546  0.43135  0.16469  1.0000
  C   C2719     1.0  0.83478  0.47324  0.07024  1.0000
  C   C2720     1.0  0.87082  0.46270  0.06176  1.0000
  C   C2721     1.0  0.88516  0.00375  0.26953  1.0000
  H   H4843     1.0  0.91705  0.13884  0.28197  1.0000
  H   H4844     1.0  0.94044  0.42540  0.14506  1.0000
  H   H4845     1.0  0.97399  0.38165  0.22055  1.0000
  H   H4846     1.0  0.94197  0.01653  0.27744  1.0000
  H   H4847     1.0  0.90288  0.13792  0.15328  1.0000
  C   C2722     1.0  0.84122  0.03827  0.25178  1.0000
  H   H4848     1.0  0.96767  0.02820  0.21236  1.0000
  H   H4849     1.0  0.76943  0.08662  0.02347  1.0000
  C   C2723     1.0  0.92909  0.33555  0.15792  1.0000
  H   H4850     1.0  0.90064  0.16391  0.12844  1.0000
  H   H4851     1.0  0.95095  0.39579  0.19700  1.0000
  H   H4852     1.0  0.91316  0.18165  0.11113  1.0000
  H   H4853     1.0  0.80750  0.23397  0.08912  1.0000
  H   H4854     1.0  0.76198  0.48381  0.27660  1.0000
  H   H4855     1.0  0.76905  0.02001  0.20211  1.0000
  H   H4856     1.0  0.92282  0.39733  0.15502  1.0000
  H   H4857     1.0  0.75804  0.41483  0.03820  1.0000
  H   H4858     1.0  0.79097  0.41875  0.12872  1.0000
  N   N152      1.0  0.95255  0.38219  0.15925  1.0000
  H   H4859     1.0  0.75935  0.44025  0.15903  1.0000
  S   S603      1.0  0.82255  0.24397  0.99474  1.0000
  C   C2724     1.0  0.96170  0.38210  0.19391  1.0000
  H   H4860     1.0  0.98170  0.13655  0.23198  1.0000
  H   H4861     1.0  0.97244  0.44200  0.31246  1.0000
  C   C2725     1.0  0.77890  0.15041  0.99523  1.0000
  H   H4862     1.0  0.93101  0.99467  0.27991  1.0000
  C   C2726     1.0  0.90218  0.26594  0.02988  1.0000
  C   C2727     1.0  0.96535  0.99959  0.24688  1.0000
  C   C2728     1.0  0.74958  0.30656  0.04247  1.0000
  N   N153      1.0  0.92960  0.16560  0.13460  1.0000
  H   H4863     1.0  0.94688  0.18295  0.10998  1.0000
  H   H4864     1.0  0.92628  0.13634  0.11196  1.0000
  H   H4865     1.0  0.95296  0.13239  0.26824  1.0000
  C   C2729     1.0  0.75409  0.42286  0.02343  1.0000
  C   C2730     1.0  0.96854  0.38254  0.17102  1.0000
  H   H4866     1.0  0.92123  0.33346  0.17369  1.0000
  H   H4867     1.0  0.97235  0.31264  0.03747  1.0000
  C   C2731     1.0  0.82689  0.48396  0.99310  1.0000
  H   H4868     1.0  0.87463  0.99435  0.27812  1.0000
  H   H4869     1.0  0.97272  0.01143  0.19446  1.0000
  H   H4870     1.0  0.97729  0.14023  0.28668  1.0000
  H   H4871     1.0  0.97194  0.99803  0.28834  1.0000
  C   C2732     1.0  0.97883  0.37234  0.12892  1.0000
  C   C2733     1.0  0.86546  0.30506  0.98956  1.0000
  C   C2734     1.0  0.97937  0.38116  0.20436  1.0000
  H   H4872     1.0  0.98070  0.32315  0.14783  1.0000
  H   H4873     1.0  0.97786  0.17116  0.08823  1.0000
  C   C2735     1.0  0.98400  0.43996  0.17455  1.0000
  H   H4874     1.0  0.79364  0.47651  0.07228  1.0000
  H   H4875     1.0  0.85314  0.98880  0.21780  1.0000
  H   H4876     1.0  0.98036  0.20647  0.19509  1.0000
  H   H4877     1.0  0.98683  0.43743  0.18977  1.0000
  H   H4878     1.0  0.74176  0.38365  0.13444  1.0000
  C   C2736     1.0  0.98042  0.16796  0.16722  1.0000
  C   C2737     1.0  0.98009  0.21197  0.20921  1.0000
  C   C2738     1.0  0.73894  0.18410  0.06967  1.0000
  H   H4879     1.0  0.75144  0.19266  0.06688  1.0000
  C   C2739     1.0  0.74546  0.13016  0.04258  1.0000
  C   C2740     1.0  0.83840  0.47310  0.26208  1.0000
  H   H4880     1.0  0.93539  0.07295  0.31396  1.0000
  C   C2741     1.0  0.74227  0.17080  0.05373  1.0000
  C   C2742     1.0  0.98250  0.17643  0.22845  1.0000
  C   C2743     1.0  0.98441  0.37770  0.10617  1.0000
  Fe  Fe305     1.0  0.98306  0.21248  0.12964  1.0000
  H   H4881     1.0  0.98381  0.12091  0.19531  1.0000
  C   C2744     1.0  0.98251  0.16815  0.26494  1.0000
  H   H4882     1.0  0.73844  0.17489  0.08487  1.0000
  H   H4883     1.0  0.74105  0.16349  0.01627  1.0000
  S   S604      1.0  0.98368  0.08904  0.24589  1.0000
  H   H4884     1.0  0.98389  0.19982  0.03662  1.0000
  C   C2745     1.0  0.98331  0.16235  0.10196  1.0000
  H   H4885     1.0  0.79904  0.48276  0.26538  1.0000
  H   H4886     1.0  0.98491  0.12977  0.25712  1.0000
  C   C2746     1.0  0.98671  0.15978  0.30175  1.0000
  H   H4887     1.0  0.98722  0.39408  0.19782  1.0000
  H   H4888     1.0  0.73765  0.45590  0.99953  1.0000
  H   H4889     1.0  0.82640  0.45689  0.61745  1.0000
  H   H4890     1.0  0.83469  0.34890  0.62305  1.0000
  C   C2747     1.0  0.74924  0.02733  0.56600  1.0000
  H   H4891     1.0  0.76001  0.47708  0.54501  1.0000
  H   H4892     1.0  0.78232  0.98789  0.47856  1.0000
  Fe  Fe306     1.0  0.77364  0.32547  0.48377  1.0000
  S   S605      1.0  0.75932  0.35512  0.49296  1.0000
  S   S606      1.0  0.80637  0.31334  0.48509  1.0000
  H   H4893     1.0  0.80659  0.44309  0.38930  1.0000
  C   C2748     1.0  0.86277  0.06132  0.41764  1.0000
  S   S607      1.0  0.74111  0.39851  0.64221  1.0000
  H   H4894     1.0  0.89890  0.43794  0.34959  1.0000
  C   C2749     1.0  0.81349  0.41577  0.63683  1.0000
  S   S608      1.0  0.75852  0.33045  0.45691  1.0000
  S   S609      1.0  0.76352  0.43511  0.61493  1.0000
  H   H4895     1.0  0.95392  0.15158  0.60023  1.0000
  Fe  Fe307     1.0  0.83218  0.00093  0.54753  1.0000
  S   S610      1.0  0.82741  0.03042  0.52685  1.0000
  H   H4896     1.0  0.90883  0.33000  0.62725  1.0000
  Fe  Fe308     1.0  0.82260  0.01973  0.58534  1.0000
  S   S611      1.0  0.81687  0.05087  0.56796  1.0000
  S   S612      1.0  0.81601  0.00939  0.61894  1.0000
  Fe  Fe309     1.0  0.80041  0.03816  0.55001  1.0000
  Fe  Fe310     1.0  0.84432  0.04085  0.54626  1.0000
  S   S613      1.0  0.86811  0.06065  0.53670  1.0000
  S   S614      1.0  0.80402  0.00789  0.56894  1.0000
  S   S615      1.0  0.85125  0.01050  0.56525  1.0000
  S   S616      1.0  0.78167  0.47583  0.36521  1.0000
  Fe  Fe311     1.0  0.96542  0.12615  0.43037  1.0000
  S   S617      1.0  0.93903  0.13179  0.45462  1.0000
  H   H4897     1.0  0.83683  0.40932  0.38091  1.0000
  Fe  Fe312     1.0  0.94036  0.14013  0.39692  1.0000
  S   S618      1.0  0.91244  0.14771  0.41890  1.0000
  S   S619      1.0  0.93554  0.14530  0.36461  1.0000
  Fe  Fe313     1.0  0.93142  0.16072  0.43388  1.0000
  S   S620      1.0  0.92195  0.18917  0.44740  1.0000
  Fe  Fe314     1.0  0.92269  0.11810  0.43731  1.0000
  S   S621      1.0  0.90147  0.09549  0.44615  1.0000
  S   S622      1.0  0.95857  0.15572  0.41040  1.0000
  S   S623      1.0  0.94989  0.11003  0.41459  1.0000
  Fe  Fe315     1.0  0.90786  0.32890  0.41712  1.0000
  S   S624      1.0  0.92186  0.30298  0.43794  1.0000
  S   S625      1.0  0.87527  0.33690  0.41352  1.0000
  Fe  Fe316     1.0  0.94834  0.34119  0.39650  1.0000
  S   S626      1.0  0.96558  0.31596  0.41529  1.0000
  S   S627      1.0  0.96106  0.36529  0.37269  1.0000
  Fe  Fe317     1.0  0.94464  0.29699  0.41074  1.0000
  S   S628      1.0  0.95563  0.26724  0.40009  1.0000
  Fe  Fe318     1.0  0.94156  0.32412  0.44082  1.0000
  S   S629      1.0  0.94713  0.32846  0.47065  1.0000
  S   S630      1.0  0.92943  0.32161  0.38961  1.0000
  S   S631      1.0  0.92541  0.35066  0.42231  1.0000
  C   C2750     1.0  0.95845  0.43125  0.58899  1.0000
  C   C2751     1.0  0.89665  0.37870  0.37965  1.0000
  C   C2752     1.0  0.98594  0.47242  0.33923  1.0000
  H   H4898     1.0  0.79881  0.00439  0.50776  1.0000
  H   H4899     1.0  0.90579  0.41003  0.39442  1.0000
  C   C2753     1.0  0.93207  0.21049  0.43439  1.0000
  C   C2754     1.0  0.92968  0.22712  0.44392  1.0000
  C   C2755     1.0  0.93708  0.24454  0.43364  1.0000
  C   C2756     1.0  0.94682  0.24544  0.41375  1.0000
  C   C2757     1.0  0.94946  0.22871  0.40437  1.0000
  C   C2758     1.0  0.94204  0.21133  0.41461  1.0000
  H   H4900     1.0  0.92203  0.22651  0.45926  1.0000
  H   H4901     1.0  0.93533  0.25727  0.44104  1.0000
  H   H4902     1.0  0.95702  0.22930  0.38899  1.0000
  H   H4903     1.0  0.94376  0.19873  0.40703  1.0000
  H   H4904     1.0  0.88251  0.38309  0.43261  1.0000
  C   C2759     1.0  0.90621  0.34297  0.63512  1.0000
  H   H4905     1.0  0.83800  0.99012  0.46898  1.0000
  C   C2760     1.0  0.94965  0.11618  0.31695  1.0000
  C   C2761     1.0  0.90536  0.44247  0.36114  1.0000
  C   C2762     1.0  0.97580  0.11088  0.63141  1.0000
  H   H4906     1.0  0.96228  0.09628  0.60042  1.0000
  H   H4907     1.0  0.76296  0.02017  0.57118  1.0000
  C   C2763     1.0  0.75601  0.19954  0.55547  1.0000
  H   H4908     1.0  0.97059  0.41599  0.32146  1.0000
  H   H4909     1.0  0.79304  0.43727  0.41429  1.0000
  H   H4910     1.0  0.97987  0.07777  0.57333  1.0000
  C   C2764     1.0  0.78886  0.39998  0.49442  1.0000
  C   C2765     1.0  0.76635  0.03501  0.62086  1.0000
  H   H4911     1.0  0.94118  0.45196  0.33563  1.0000
  H   H4912     1.0  0.78306  0.25136  0.47306  1.0000
  C   C2766     1.0  0.97519  0.42701  0.60141  1.0000
  C   C2767     1.0  0.87700  0.07034  0.51142  1.0000
  C   C2768     1.0  0.87072  0.06514  0.49545  1.0000
  C   C2769     1.0  0.87835  0.07298  0.47554  1.0000
  C   C2770     1.0  0.89220  0.08615  0.47142  1.0000
  C   C2771     1.0  0.89844  0.09140  0.48738  1.0000
  C   C2772     1.0  0.89090  0.08347  0.50728  1.0000
  H   H4913     1.0  0.86007  0.05504  0.49843  1.0000
  H   H4914     1.0  0.87347  0.06883  0.46330  1.0000
  H   H4915     1.0  0.90911  0.10149  0.48441  1.0000
  H   H4916     1.0  0.89584  0.08755  0.51955  1.0000
  H   H4917     1.0  0.94490  0.40661  0.40000  1.0000
  C   C2773     1.0  0.92329  0.34018  0.64687  1.0000
  H   H4918     1.0  0.88138  0.43613  0.38696  1.0000
  H   H4919     1.0  0.75116  0.23804  0.53935  1.0000
  H   H4920     1.0  0.76164  0.40004  0.48437  1.0000
  C   C2774     1.0  0.93697  0.12873  0.61515  1.0000
  C   C2775     1.0  0.96522  0.11524  0.35164  1.0000
  C   C2776     1.0  0.94789  0.12870  0.34798  1.0000
  H   H4921     1.0  0.96791  0.24266  0.48644  1.0000
  H   H4922     1.0  0.85869  0.39970  0.40504  1.0000
  H   H4923     1.0  0.91137  0.45631  0.35350  1.0000
  C   C2777     1.0  0.75086  0.00988  0.49816  1.0000
  C   C2778     1.0  0.84133  0.03065  0.62876  1.0000
  H   H4924     1.0  0.96094  0.43740  0.34825  1.0000
  C   C2779     1.0  0.97526  0.32615  0.49405  1.0000
  H   H4925     1.0  0.84640  0.03471  0.61283  1.0000
  H   H4926     1.0  0.92673  0.39539  0.38225  1.0000
  H   H4927     1.0  0.93789  0.33818  0.63670  1.0000
  C   C2780     1.0  0.95767  0.47032  0.63916  1.0000
  C   C2781     1.0  0.75851  0.37510  0.55678  1.0000
  H   H4928     1.0  0.77051  0.47096  0.62568  1.0000
  H   H4929     1.0  0.77394  0.37693  0.55171  1.0000
  H   H4930     1.0  0.74979  0.03966  0.50585  1.0000
  C   C2782     1.0  0.82541  0.31973  0.46500  1.0000
  C   C2783     1.0  0.84484  0.31824  0.46875  1.0000
  C   C2784     1.0  0.86031  0.32342  0.45310  1.0000
  C   C2785     1.0  0.85653  0.32962  0.43349  1.0000
  C   C2786     1.0  0.83727  0.33044  0.42962  1.0000
  C   C2787     1.0  0.82169  0.32577  0.44535  1.0000
  H   H4931     1.0  0.84786  0.31342  0.48391  1.0000
  H   H4932     1.0  0.87511  0.32271  0.45625  1.0000
  H   H4933     1.0  0.83429  0.33502  0.41444  1.0000
  H   H4934     1.0  0.80681  0.32678  0.44228  1.0000
  H   H4935     1.0  0.90748  0.39796  0.35309  1.0000
  H   H4936     1.0  0.75917  0.35607  0.53542  1.0000
  H   H4937     1.0  0.86996  0.04547  0.42134  1.0000
  C   C2788     1.0  0.91690  0.14285  0.61692  1.0000
  C   C2789     1.0  0.81245  0.45661  0.57473  1.0000
  H   H4938     1.0  0.93875  0.12244  0.60124  1.0000
  H   H4939     1.0  0.75254  0.98948  0.61894  1.0000
  H   H4940     1.0  0.82830  0.45401  0.57667  1.0000
  C   C2790     1.0  0.96173  0.06314  0.39384  1.0000
  C   C2791     1.0  0.86906  0.38445  0.44443  1.0000
  H   H4941     1.0  0.78844  0.38508  0.50408  1.0000
  C   C2792     1.0  0.98184  0.11938  0.59419  1.0000
  H   H4942     1.0  0.97331  0.17399  0.44090  1.0000
  H   H4943     1.0  0.82113  0.07534  0.61239  1.0000
  N   N154      1.0  0.76950  0.99920  0.50626  1.0000
  C   C2793     1.0  0.76395  0.99161  0.52838  1.0000
  H   H4944     1.0  0.87115  0.34751  0.62396  1.0000
  C   C2794     1.0  0.93652  0.42108  0.34958  1.0000
  C   C2795     1.0  0.96468  0.17101  0.48000  1.0000
  C   C2796     1.0  0.77166  0.06722  0.62612  1.0000
  C   C2797     1.0  0.96066  0.43013  0.40032  1.0000
  C   C2798     1.0  0.82639  0.01885  0.63555  1.0000
  C   C2799     1.0  0.82588  0.42859  0.41164  1.0000
  H   H4945     1.0  0.79140  0.43809  0.57211  1.0000
  C   C2800     1.0  0.96566  0.37020  0.42969  1.0000
  C   C2801     1.0  0.76779  0.41016  0.49109  1.0000
  H   H4946     1.0  0.96382  0.20948  0.46148  1.0000
  H   H4947     1.0  0.80812  0.04687  0.46624  1.0000
  C   C2802     1.0  0.98408  0.11386  0.49706  1.0000
  H   H4948     1.0  0.96108  0.41376  0.37700  1.0000
  H   H4949     1.0  0.97306  0.41936  0.40627  1.0000
  S   S632      1.0  0.77331  0.46803  0.32219  1.0000
  H   H4950     1.0  0.75951  0.00437  0.53673  1.0000
  N   N155      1.0  0.92194  0.42633  0.36795  1.0000
  H   H4951     1.0  0.75909  0.18310  0.55578  1.0000
  H   H4952     1.0  0.80001  0.45566  0.60587  1.0000
  H   H4953     1.0  0.93653  0.44864  0.37427  1.0000
  N   N156      1.0  0.98105  0.18343  0.47682  1.0000
  Fe  Fe319     1.0  0.75824  0.42094  0.64714  1.0000
  H   H4954     1.0  0.80839  0.06708  0.63718  1.0000
  H   H4955     1.0  0.93530  0.05004  0.39941  1.0000
  H   H4956     1.0  0.92533  0.16501  0.49432  1.0000
  C   C2803     1.0  0.79871  0.46664  0.59191  1.0000
  S   S633      1.0  0.96254  0.47744  0.35439  1.0000
  H   H4957     1.0  0.76791  0.40821  0.32930  1.0000
  S   S634      1.0  0.87283  0.41469  0.63200  1.0000
  H   H4958     1.0  0.98463  0.39469  0.35001  1.0000
  H   H4959     1.0  0.77165  0.99347  0.63129  1.0000
  H   H4960     1.0  0.80892  0.42600  0.58881  1.0000
  H   H4961     1.0  0.91114  0.06614  0.32372  1.0000
  H   H4962     1.0  0.87724  0.47732  0.35966  1.0000
  H   H4963     1.0  0.83924  0.37101  0.39498  1.0000
  C   C2804     1.0  0.93662  0.15449  0.50238  1.0000
  H   H4964     1.0  0.75485  0.09678  0.59831  1.0000
  H   H4965     1.0  0.94559  0.38324  0.61907  1.0000
  C   C2805     1.0  0.89954  0.34967  0.59116  1.0000
  C   C2806     1.0  0.81236  0.37820  0.43979  1.0000
  C   C2807     1.0  0.79270  0.37183  0.45086  1.0000
  H   H4966     1.0  0.79564  0.40228  0.42136  1.0000
  H   H4967     1.0  0.82221  0.37657  0.45102  1.0000
  H   H4968     1.0  0.81936  0.36759  0.42952  1.0000
  H   H4969     1.0  0.78278  0.38395  0.45814  1.0000
  H   H4970     1.0  0.78488  0.36759  0.44030  1.0000
  H   H4971     1.0  0.79575  0.35855  0.46254  1.0000
  H   H4972     1.0  0.88588  0.40950  0.36853  1.0000
  H   H4973     1.0  0.81084  0.46590  0.55988  1.0000
  C   C2808     1.0  0.74703  0.48237  0.57493  1.0000
  H   H4974     1.0  0.74047  0.41553  0.35812  1.0000
  H   H4975     1.0  0.74785  0.46665  0.58115  1.0000
  N   N157      1.0  0.90784  0.08178  0.38092  1.0000
  C   C2809     1.0  0.90969  0.07130  0.36333  1.0000
  C   C2810     1.0  0.89584  0.07083  0.39899  1.0000
  C   C2811     1.0  0.89789  0.10318  0.37558  1.0000
  C   C2812     1.0  0.92800  0.08183  0.38594  1.0000
  C   C2813     1.0  0.94223  0.06136  0.38784  1.0000
  C   C2814     1.0  0.92307  0.07961  0.34379  1.0000
  C   C2815     1.0  0.89224  0.11556  0.39287  1.0000
  C   C2816     1.0  0.87361  0.07146  0.39785  1.0000
  C   C2817     1.0  0.76325  0.99951  0.61867  1.0000
  N   N158      1.0  0.75741  0.05700  0.61953  1.0000
  C   C2818     1.0  0.88146  0.13662  0.38589  1.0000
  H   H4976     1.0  0.89477  0.07232  0.35926  1.0000
  H   H4977     1.0  0.91514  0.05499  0.36740  1.0000
  H   H4978     1.0  0.90259  0.05474  0.40175  1.0000
  H   H4979     1.0  0.89642  0.07643  0.41286  1.0000
  H   H4980     1.0  0.88429  0.10391  0.36908  1.0000
  H   H4981     1.0  0.90788  0.11151  0.36352  1.0000
  H   H4982     1.0  0.93599  0.09277  0.37476  1.0000
  H   H4983     1.0  0.92611  0.08721  0.40045  1.0000
  H   H4984     1.0  0.94619  0.05567  0.37340  1.0000
  H   H4985     1.0  0.98523  0.39624  0.59719  1.0000
  H   H4986     1.0  0.91616  0.09492  0.33757  1.0000
  H   H4987     1.0  0.93812  0.08023  0.34642  1.0000
  H   H4988     1.0  0.90585  0.11701  0.39813  1.0000
  H   H4989     1.0  0.88218  0.10860  0.40581  1.0000
  H   H4990     1.0  0.86556  0.08702  0.39484  1.0000
  C   C2819     1.0  0.87136  0.46393  0.36878  1.0000
  C   C2820     1.0  0.76836  0.24631  0.47648  1.0000
  C   C2821     1.0  0.75193  0.02061  0.62051  1.0000
  C   C2822     1.0  0.74655  0.08747  0.59286  1.0000
  C   C2823     1.0  0.74224  0.20954  0.54029  1.0000
  H   H4991     1.0  0.78302  0.46800  0.58966  1.0000
  H   H4992     1.0  0.74996  0.20578  0.52551  1.0000
  H   H4993     1.0  0.86749  0.13595  0.38077  1.0000
  H   H4994     1.0  0.87754  0.14516  0.39852  1.0000
  H   H4995     1.0  0.89123  0.14472  0.37347  1.0000
  C   C2824     1.0  0.92576  0.06660  0.32769  1.0000
  H   H4996     1.0  0.74006  0.22690  0.50025  1.0000
  H   H4997     1.0  0.96619  0.35376  0.43358  1.0000
  H   H4998     1.0  0.76562  0.08323  0.62661  1.0000
  C   C2825     1.0  0.98160  0.37636  0.43834  1.0000
  H   H4999     1.0  0.92673  0.13952  0.32770  1.0000
  H   H5000     1.0  0.92025  0.36527  0.61345  1.0000
  C   C2826     1.0  0.97999  0.34961  0.59472  1.0000
  H   H5001     1.0  0.77079  0.23028  0.47499  1.0000
  H   H5002     1.0  0.89051  0.37886  0.39576  1.0000
  H   H5003     1.0  0.80662  0.46430  0.42446  1.0000
  H   H5004     1.0  0.89632  0.33479  0.59937  1.0000
  C   C2827     1.0  0.82985  0.47206  0.61603  1.0000
  H   H5005     1.0  0.98042  0.39279  0.43412  1.0000
  H   H5006     1.0  0.89334  0.45662  0.38790  1.0000
  H   H5007     1.0  0.79142  0.07573  0.59784  1.0000
  H   H5008     1.0  0.92956  0.15001  0.51815  1.0000
  C   C2828     1.0  0.98293  0.11273  0.47732  1.0000
  H   H5009     1.0  0.97006  0.10814  0.47422  1.0000
  H   H5010     1.0  0.91875  0.42503  0.57410  1.0000
  H   H5011     1.0  0.74190  0.11044  0.56693  1.0000
  S   S635      1.0  0.75803  0.40060  0.58231  1.0000
  C   C2829     1.0  0.91407  0.40770  0.37927  1.0000
  C   C2830     1.0  0.80516  0.03799  0.48150  1.0000
  H   H5012     1.0  0.79847  0.39780  0.47984  1.0000
  N   N159      1.0  0.87175  0.26576  0.42966  1.0000
  C   C2831     1.0  0.87671  0.27799  0.40914  1.0000
  C   C2832     1.0  0.84979  0.27138  0.43756  1.0000
  C   C2833     1.0  0.88315  0.27169  0.44338  1.0000
  C   C2834     1.0  0.87753  0.24345  0.42981  1.0000
  C   C2835     1.0  0.87628  0.23562  0.41061  1.0000
  C   C2836     1.0  0.89933  0.27674  0.40055  1.0000
  C   C2837     1.0  0.87836  0.26296  0.46600  1.0000
  C   C2838     1.0  0.83492  0.26736  0.42553  1.0000
  C   C2839     1.0  0.81352  0.27649  0.43359  1.0000
  C   C2840     1.0  0.87982  0.21275  0.41396  1.0000
  C   C2841     1.0  0.90296  0.28475  0.37809  1.0000
  C   C2842     1.0  0.89308  0.26729  0.47765  1.0000
  H   H5013     1.0  0.87049  0.29413  0.40945  1.0000
  H   H5014     1.0  0.86946  0.27389  0.39803  1.0000
  H   H5015     1.0  0.84579  0.26299  0.45290  1.0000
  H   H5016     1.0  0.84632  0.28751  0.43899  1.0000
  H   H5017     1.0  0.88078  0.28827  0.44197  1.0000
  H   H5018     1.0  0.89944  0.26704  0.43877  1.0000
  H   H5019     1.0  0.89322  0.23817  0.43226  1.0000
  H   H5020     1.0  0.86846  0.23517  0.44281  1.0000
  H   H5021     1.0  0.88791  0.24052  0.39802  1.0000
  H   H5022     1.0  0.86168  0.24110  0.40566  1.0000
  H   H5023     1.0  0.90602  0.28594  0.40797  1.0000
  H   H5024     1.0  0.90745  0.26116  0.40315  1.0000
  H   H5025     1.0  0.87906  0.24651  0.46831  1.0000
  H   H5026     1.0  0.86327  0.26998  0.47267  1.0000
  H   H5027     1.0  0.83808  0.27383  0.40943  1.0000
  H   H5028     1.0  0.83536  0.25100  0.42721  1.0000
  H   H5029     1.0  0.80956  0.27102  0.44991  1.0000
  H   H5030     1.0  0.81175  0.29306  0.43098  1.0000
  H   H5031     1.0  0.80294  0.27228  0.42571  1.0000
  H   H5032     1.0  0.86851  0.20677  0.42631  1.0000
  H   H5033     1.0  0.87880  0.20755  0.40007  1.0000
  H   H5034     1.0  0.89495  0.20661  0.41766  1.0000
  H   H5035     1.0  0.89552  0.30059  0.37501  1.0000
  H   H5036     1.0  0.91926  0.28403  0.37268  1.0000
  H   H5037     1.0  0.89729  0.27558  0.36974  1.0000
  H   H5038     1.0  0.89244  0.28369  0.47611  1.0000
  H   H5039     1.0  0.88915  0.26112  0.49380  1.0000
  H   H5040     1.0  0.90855  0.26025  0.47213  1.0000
  C   C2843     1.0  0.74884  0.39826  0.42735  1.0000
  C   C2844     1.0  0.93189  0.43404  0.38161  1.0000
  S   S636      1.0  0.75050  0.30909  0.50458  1.0000
  C   C2845     1.0  0.88801  0.44902  0.37782  1.0000
  H   H5041     1.0  0.74448  0.05697  0.59348  1.0000
  C   C2846     1.0  0.78445  0.01301  0.50365  1.0000
  H   H5042     1.0  0.82702  0.43185  0.42644  1.0000
  H   H5043     1.0  0.95275  0.17899  0.47127  1.0000
  H   H5044     1.0  0.94337  0.24171  0.50105  1.0000
  S   S637      1.0  0.92500  0.41910  0.63583  1.0000
  C   C2847     1.0  0.74707  0.38465  0.57245  1.0000
  C   C2848     1.0  0.95430  0.14008  0.61403  1.0000
  H   H5045     1.0  0.75409  0.01410  0.48155  1.0000
  H   H5046     1.0  0.92846  0.41854  0.33820  1.0000
  H   H5047     1.0  0.94656  0.40660  0.35324  1.0000
  C   C2849     1.0  0.94018  0.12918  0.33057  1.0000
  H   H5048     1.0  0.80496  0.40962  0.44022  1.0000
  H   H5049     1.0  0.75826  0.36864  0.41997  1.0000
  C   C2850     1.0  0.97266  0.20550  0.47387  1.0000
  C   C2851     1.0  0.74891  0.41870  0.42043  1.0000
  C   C2852     1.0  0.75851  0.42539  0.40107  1.0000
  H   H5050     1.0  0.97055  0.15674  0.47402  1.0000
  N   N160      1.0  0.97488  0.12766  0.61366  1.0000
  H   H5051     1.0  0.85792  0.41505  0.43305  1.0000
  H   H5052     1.0  0.87787  0.39658  0.59861  1.0000
  C   C2853     1.0  0.80922  0.39999  0.42840  1.0000
  H   H5053     1.0  0.74647  0.43250  0.54510  1.0000
  Fe  Fe320     1.0  0.74235  0.35895  0.46768  1.0000
  C   C2854     1.0  0.84997  0.03695  0.64267  1.0000
  H   H5054     1.0  0.97130  0.11483  0.36498  1.0000
  S   S638      1.0  0.77902  0.42008  0.36378  1.0000
  H   H5055     1.0  0.83439  0.48196  0.58378  1.0000
  S   S639      1.0  0.77085  0.05472  0.54127  1.0000
  H   H5056     1.0  0.94933  0.17704  0.51020  1.0000
  C   C2855     1.0  0.78953  0.02504  0.48228  1.0000
  C   C2856     1.0  0.90051  0.39944  0.36875  1.0000
  H   H5057     1.0  0.96831  0.42264  0.61724  1.0000
  H   H5058     1.0  0.94649  0.44313  0.59455  1.0000
  H   H5059     1.0  0.75701  0.40150  0.52271  1.0000
  H   H5060     1.0  0.74891  0.20248  0.57075  1.0000
  H   H5061     1.0  0.93311  0.05113  0.33290  1.0000
  H   H5062     1.0  0.80324  0.41588  0.62694  1.0000
  C   C2857     1.0  0.90577  0.41744  0.57552  1.0000
  H   H5063     1.0  0.90440  0.41539  0.56036  1.0000
  H   H5064     1.0  0.93148  0.98789  0.31681  1.0000
  H   H5065     1.0  0.83928  0.41570  0.61337  1.0000
  C   C2858     1.0  0.96361  0.36484  0.59809  1.0000
  H   H5066     1.0  0.96514  0.20880  0.50587  1.0000
  C   C2859     1.0  0.87124  0.36285  0.61517  1.0000
  H   H5067     1.0  0.96570  0.10034  0.63154  1.0000
  H   H5068     1.0  0.89212  0.42718  0.58185  1.0000
  C   C2860     1.0  0.79260  0.06684  0.61297  1.0000
  H   H5069     1.0  0.87237  0.06348  0.38588  1.0000
  H   H5070     1.0  0.81864  0.47050  0.39864  1.0000
  C   C2861     1.0  0.76802  0.39115  0.39530  1.0000
  H   H5071     1.0  0.88787  0.38611  0.57677  1.0000
  H   H5072     1.0  0.91395  0.14931  0.63092  1.0000
  H   H5073     1.0  0.84057  0.38432  0.35874  1.0000
  C   C2862     1.0  0.95822  0.37150  0.61665  1.0000
  H   H5074     1.0  0.85388  0.38134  0.59228  1.0000
  H   H5075     1.0  0.95023  0.43606  0.41304  1.0000
  H   H5076     1.0  0.75841  0.44124  0.39590  1.0000
  H   H5077     1.0  0.79564  0.40931  0.50162  1.0000
  H   H5078     1.0  0.95189  0.41756  0.59037  1.0000
  C   C2863     1.0  0.96718  0.10299  0.32042  1.0000
  C   C2864     1.0  0.83391  0.41554  0.62922  1.0000
  H   H5079     1.0  0.84699  0.06164  0.41642  1.0000
  H   H5080     1.0  0.95065  0.37764  0.43605  1.0000
  H   H5081     1.0  0.96295  0.33237  0.50459  1.0000
  C   C2865     1.0  0.85515  0.36622  0.60158  1.0000
  C   C2866     1.0  0.89086  0.38624  0.59197  1.0000
  H   H5082     1.0  0.77370  0.06038  0.64180  1.0000
  C   C2867     1.0  0.80679  0.44251  0.40543  1.0000
  H   H5083     1.0  0.85875  0.35495  0.59146  1.0000
  H   H5084     1.0  0.82327  0.36700  0.60420  1.0000
  H   H5085     1.0  0.98477  0.14766  0.62873  1.0000
  C   C2868     1.0  0.75824  0.24928  0.49772  1.0000
  H   H5086     1.0  0.73974  0.99968  0.50107  1.0000
  C   C2869     1.0  0.97171  0.32260  0.47590  1.0000
  H   H5087     1.0  0.89910  0.37521  0.62962  1.0000
  C   C2870     1.0  0.90887  0.39724  0.58934  1.0000
  H   H5088     1.0  0.91067  0.40028  0.60399  1.0000
  H   H5089     1.0  0.89215  0.34262  0.64616  1.0000
  C   C2871     1.0  0.85242  0.40051  0.43676  1.0000
  H   H5090     1.0  0.79568  0.01493  0.47113  1.0000
  H   H5091     1.0  0.91665  0.15515  0.60381  1.0000
  H   H5092     1.0  0.94389  0.32896  0.56282  1.0000
  H   H5093     1.0  0.98522  0.31155  0.44848  1.0000
  H   H5094     1.0  0.75677  0.26543  0.49822  1.0000
  C   C2872     1.0  0.75676  0.41685  0.31994  1.0000
  H   H5095     1.0  0.86400  0.36969  0.44908  1.0000
  H   H5096     1.0  0.84032  0.99586  0.50275  1.0000
  H   H5097     1.0  0.81056  0.41106  0.38803  1.0000
  H   H5098     1.0  0.77898  0.03269  0.60828  1.0000
  C   C2873     1.0  0.94999  0.41959  0.38931  1.0000
  H   H5099     1.0  0.76827  0.24055  0.50818  1.0000
  H   H5100     1.0  0.79998  0.05140  0.61139  1.0000
  H   H5101     1.0  0.85621  0.46037  0.62982  1.0000
  H   H5102     1.0  0.98302  0.17904  0.50851  1.0000
  C   C2874     1.0  0.94999  0.43678  0.33884  1.0000
  C   C2875     1.0  0.75012  0.36338  0.54741  1.0000
  H   H5103     1.0  0.76137  0.42654  0.51513  1.0000
  H   H5104     1.0  0.84810  0.37935  0.41955  1.0000
  H   H5105     1.0  0.77389  0.99960  0.60435  1.0000
  C   C2876     1.0  0.75843  0.38444  0.41477  1.0000
  H   H5106     1.0  0.94146  0.14086  0.49531  1.0000
  N   N161      1.0  0.82656  0.40641  0.41291  1.0000
  H   H5107     1.0  0.94414  0.20809  0.49431  1.0000
  H   H5108     1.0  0.77944  0.02389  0.51427  1.0000
  H   H5109     1.0  0.81703  0.42942  0.56207  1.0000
  C   C2877     1.0  0.82496  0.40298  0.39243  1.0000
  C   C2878     1.0  0.74881  0.04479  0.55178  1.0000
  H   H5110     1.0  0.86081  0.46221  0.60301  1.0000
  H   H5111     1.0  0.92115  0.43737  0.39528  1.0000
  H   H5112     1.0  0.92294  0.38839  0.58296  1.0000
  H   H5113     1.0  0.91075  0.36769  0.37844  1.0000
  C   C2879     1.0  0.80708  0.43631  0.57448  1.0000
  Fe  Fe321     1.0  0.76953  0.45318  0.35445  1.0000
  H   H5114     1.0  0.81224  0.37540  0.39866  1.0000
  H   H5115     1.0  0.97180  0.11068  0.50898  1.0000
  H   H5116     1.0  0.82731  0.36347  0.36692  1.0000
  H   H5117     1.0  0.81939  0.02845  0.48489  1.0000
  H   H5118     1.0  0.74087  0.01931  0.63456  1.0000
  H   H5119     1.0  0.77526  0.38048  0.38550  1.0000
  H   H5120     1.0  0.83943  0.40168  0.44907  1.0000
  H   H5121     1.0  0.86170  0.04587  0.63738  1.0000
  C   C2880     1.0  0.76786  0.41166  0.38839  1.0000
  C   C2881     1.0  0.84737  0.41505  0.64205  1.0000
  C   C2882     1.0  0.73755  0.24251  0.50297  1.0000
  H   H5122     1.0  0.96524  0.15317  0.51011  1.0000
  C   C2883     1.0  0.84671  0.39582  0.41783  1.0000
  C   C2884     1.0  0.96919  0.36288  0.63201  1.0000
  H   H5123     1.0  0.93608  0.11660  0.62834  1.0000
  C   C2885     1.0  0.90482  0.36314  0.62035  1.0000
  C   C2886     1.0  0.82591  0.38100  0.39002  1.0000
  H   H5124     1.0  0.95514  0.37150  0.58621  1.0000
  H   H5125     1.0  0.96796  0.37458  0.41312  1.0000
  H   H5126     1.0  0.86593  0.37327  0.62630  1.0000
  H   H5127     1.0  0.96912  0.07471  0.38296  1.0000
  H   H5128     1.0  0.89121  0.35291  0.57839  1.0000
  H   H5129     1.0  0.92548  0.36096  0.57171  1.0000
  H   H5130     1.0  0.90474  0.13442  0.61739  1.0000
  H   H5131     1.0  0.86290  0.06933  0.43001  1.0000
  C   C2887     1.0  0.83460  0.36420  0.61418  1.0000
  C   C2888     1.0  0.97492  0.10254  0.33780  1.0000
  H   H5132     1.0  0.77613  0.03521  0.47760  1.0000
  H   H5133     1.0  0.76919  0.42424  0.48028  1.0000
  H   H5134     1.0  0.81357  0.38846  0.36226  1.0000
  N   N162      1.0  0.89207  0.36541  0.60446  1.0000
  H   H5135     1.0  0.79996  0.09166  0.62359  1.0000
  H   H5136     1.0  0.95058  0.14876  0.62658  1.0000
  C   C2889     1.0  0.85229  0.46977  0.61564  1.0000
  H   H5137     1.0  0.96699  0.44264  0.38990  1.0000
  H   H5138     1.0  0.83896  0.43361  0.40092  1.0000
  C   C2890     1.0  0.80604  0.46393  0.40859  1.0000
  H   H5139     1.0  0.77046  0.20514  0.55122  1.0000
  H   H5140     1.0  0.75908  0.25533  0.46537  1.0000
  C   C2891     1.0  0.98583  0.34788  0.62855  1.0000
  H   H5141     1.0  0.97263  0.10377  0.56321  1.0000
  H   H5142     1.0  0.79183  0.47338  0.40501  1.0000
  H   H5143     1.0  0.92507  0.31581  0.57878  1.0000
  C   C2892     1.0  0.96188  0.43134  0.31899  1.0000
  H   H5144     1.0  0.87321  0.38845  0.45762  1.0000
  H   H5145     1.0  0.96416  0.43648  0.57295  1.0000
  C   C2893     1.0  0.92199  0.34711  0.58186  1.0000
  H   H5146     1.0  0.91911  0.33365  0.55680  1.0000
  H   H5147     1.0  0.79977  0.04850  0.49242  1.0000
  C   C2894     1.0  0.82690  0.37931  0.36812  1.0000
  H   H5148     1.0  0.88580  0.37362  0.37279  1.0000
  H   H5149     1.0  0.94726  0.24198  0.47444  1.0000
  C   C2895     1.0  0.73986  0.02858  0.50733  1.0000
  C   C2896     1.0  0.95454  0.16437  0.50189  1.0000
  C   C2897     1.0  0.92774  0.33035  0.56932  1.0000
  H   H5150     1.0  0.93161  0.34314  0.59356  1.0000
  H   H5151     1.0  0.82223  0.47853  0.62960  1.0000
  H   H5152     1.0  0.97803  0.37251  0.45493  1.0000
  C   C2898     1.0  0.95858  0.21347  0.49197  1.0000
  Fe  Fe322     1.0  0.74444  0.41440  0.61014  1.0000
  H   H5153     1.0  0.97697  0.17058  0.59891  1.0000
  C   C2899     1.0  0.75482  0.06491  0.59801  1.0000
  H   H5154     1.0  0.83011  0.37526  0.62457  1.0000
  C   C2900     1.0  0.95405  0.23634  0.48817  1.0000
  H   H5155     1.0  0.76916  0.06151  0.58766  1.0000
  C   C2901     1.0  0.80626  0.07583  0.62217  1.0000
  H   H5156     1.0  0.86468  0.45697  0.35916  1.0000
  H   H5157     1.0  0.77292  0.02938  0.63483  1.0000
  C   C2902     1.0  0.75468  0.41497  0.51102  1.0000
  H   H5158     1.0  0.98097  0.44114  0.59989  1.0000
  H   H5159     1.0  0.85941  0.46900  0.38093  1.0000
  H   H5160     1.0  0.79304  0.46903  0.63506  1.0000
  H   H5161     1.0  0.76382  0.09178  0.56262  1.0000
  H   H5162     1.0  0.95884  0.06710  0.40908  1.0000
  H   H5163     1.0  0.73928  0.08590  0.56402  1.0000
  C   C2903     1.0  0.98654  0.36667  0.37051  1.0000
  H   H5164     1.0  0.74359  0.02593  0.60788  1.0000
  H   H5165     1.0  0.98493  0.21447  0.46880  1.0000
  H   H5166     1.0  0.97205  0.04859  0.39404  1.0000
  C   C2904     1.0  0.74801  0.09425  0.57023  1.0000
  C   C2905     1.0  0.98245  0.09317  0.57291  1.0000
  S   S640      1.0  0.98547  0.34137  0.57141  1.0000
  H   H5167     1.0  0.74107  0.42964  0.46816  1.0000
  H   H5168     1.0  0.97542  0.12980  0.58166  1.0000
  S   S641      1.0  0.93179  0.47096  0.64390  1.0000
  C   C2906     1.0  0.97790  0.09808  0.59411  1.0000
  C   C2907     1.0  0.98575  0.18247  0.43866  1.0000
  C   C2908     1.0  0.97070  0.45243  0.64359  1.0000
  H   H5169     1.0  0.75660  0.43307  0.31892  1.0000
  H   H5170     1.0  0.97995  0.19855  0.43402  1.0000
  H   H5171     1.0  0.74291  0.37714  0.35896  1.0000
  H   H5172     1.0  0.73828  0.04714  0.64718  1.0000
  C   C2909     1.0  0.73754  0.05886  0.63354  1.0000
  H   H5173     1.0  0.74140  0.42945  0.43003  1.0000
  H   H5174     1.0  0.74201  0.46620  0.46063  1.0000
  Fe  Fe323     1.0  0.74175  0.48392  0.32996  1.0000
  C   C2910     1.0  0.78050  0.47978  0.62942  1.0000
  H   H5175     1.0  0.74003  0.45077  0.49654  1.0000
  H   H5176     1.0  0.74005  0.34266  0.37523  1.0000
  H   H5177     1.0  0.73928  0.35805  0.39359  1.0000
  H   H5178     1.0  0.75045  0.98439  0.53150  1.0000
  H   H5179     1.0  0.86536  0.98483  0.61726  1.0000
  H   H5180     1.0  0.73770  0.27021  0.52723  1.0000
  S   S642      1.0  0.73766  0.46754  0.36167  1.0000
  H   H5181     1.0  0.96696  0.18069  0.82194  1.0000
  C   C2911     1.0  0.74679  0.08296  0.88379  1.0000
  C   C2912     1.0  0.88658  0.98610  0.66976  1.0000
  H   H5182     1.0  0.77359  0.98789  0.89886  1.0000
  S   S643      1.0  0.78111  0.41506  0.66760  1.0000
  H   H5183     1.0  0.94492  0.17941  0.76258  1.0000
  C   C2913     1.0  0.97278  0.19047  0.74970  1.0000
  S   S644      1.0  0.96407  0.06709  0.71669  1.0000
  Fe  Fe324     1.0  0.87512  0.01032  0.74858  1.0000
  C   C2914     1.0  0.97111  0.11712  0.65244  1.0000
  S   S645      1.0  0.89691  0.01758  0.76531  1.0000
  Fe  Fe325     1.0  0.83179  0.00489  0.75274  1.0000
  H   H5184     1.0  0.73809  0.45346  0.96425  1.0000
  S   S646      1.0  0.79986  0.00860  0.76963  1.0000
  C   C2915     1.0  0.96362  0.48282  0.72702  1.0000
  Fe  Fe326     1.0  0.85535  0.01908  0.71146  1.0000
  S   S647      1.0  0.85602  0.03795  0.68051  1.0000
  H   H5185     1.0  0.98678  0.03031  0.69661  1.0000
  S   S648      1.0  0.84761  0.03133  0.74040  1.0000
  H   H5186     1.0  0.77338  0.46963  0.92803  1.0000
  C   C2916     1.0  0.94651  0.32489  0.79889  1.0000
  C   C2917     1.0  0.81979  0.01384  0.65620  1.0000
  H   H5187     1.0  0.94965  0.47667  0.80807  1.0000
  C   C2918     1.0  0.77167  0.18316  0.97559  1.0000
  H   H5188     1.0  0.98238  0.47321  0.69128  1.0000
  Fe  Fe327     1.0  0.96281  0.20904  0.88382  1.0000
  S   S649      1.0  0.93754  0.19488  0.90386  1.0000
  S   S650      1.0  0.96477  0.22368  0.85129  1.0000
  H   H5189     1.0  0.97174  0.45093  0.82825  1.0000
  Fe  Fe328     1.0  0.90370  0.42496  0.86132  1.0000
  S   S651      1.0  0.93023  0.43749  0.84248  1.0000
  S   S652      1.0  0.87439  0.44174  0.87533  1.0000
  Fe  Fe329     1.0  0.92280  0.38168  0.85851  1.0000
  S   S653      1.0  0.95100  0.39056  0.83995  1.0000
  S   S654      1.0  0.91591  0.35003  0.86761  1.0000
  Fe  Fe330     1.0  0.94798  0.41230  0.86082  1.0000
  H   H5190     1.0  0.96560  0.18834  0.72130  1.0000
  Fe  Fe331     1.0  0.93145  0.41497  0.82279  1.0000
  S   S655      1.0  0.94387  0.42110  0.78954  1.0000
  S   S656      1.0  0.92146  0.40127  0.88120  1.0000
  S   S657      1.0  0.90313  0.40465  0.83985  1.0000
  H   H5191     1.0  0.95710  0.32165  0.78504  1.0000
  S   S658      1.0  0.90594  0.38932  0.67533  1.0000
  H   H5192     1.0  0.90699  0.45112  0.71844  1.0000
  H   H5193     1.0  0.94849  0.35624  0.81643  1.0000
  S   S659      1.0  0.93742  0.41772  0.67967  1.0000
  H   H5194     1.0  0.80552  0.23750  0.95595  1.0000
  C   C2919     1.0  0.76897  0.16299  0.98043  1.0000
  H   H5195     1.0  0.81352  0.24185  0.92899  1.0000
  Fe  Fe332     1.0  0.90612  0.41321  0.69311  1.0000
  S   S660      1.0  0.89396  0.40964  0.72642  1.0000
  H   H5196     1.0  0.93417  0.25416  0.92920  1.0000
  S   S661      1.0  0.89186  0.43820  0.67137  1.0000
  H   H5197     1.0  0.89735  0.37256  0.79214  1.0000
  H   H5198     1.0  0.98073  0.00559  0.77076  1.0000
  H   H5199     1.0  0.87279  0.38345  0.82063  1.0000
  C   C2920     1.0  0.88227  0.36843  0.82256  1.0000
  H   H5200     1.0  0.80401  0.14781  0.92197  1.0000
  C   C2921     1.0  0.93000  0.41735  0.77229  1.0000
  C   C2922     1.0  0.93925  0.41668  0.75234  1.0000
  C   C2923     1.0  0.92844  0.41407  0.73817  1.0000
  C   C2924     1.0  0.90828  0.41224  0.74384  1.0000
  C   C2925     1.0  0.89915  0.41266  0.76386  1.0000
  C   C2926     1.0  0.90994  0.41527  0.77804  1.0000
  H   H5201     1.0  0.95481  0.41813  0.74786  1.0000
  H   H5202     1.0  0.93568  0.41347  0.72288  1.0000
  H   H5203     1.0  0.88355  0.41128  0.76835  1.0000
  H   H5204     1.0  0.90260  0.41606  0.79330  1.0000
  H   H5205     1.0  0.98413  0.11605  0.89876  1.0000
  C   C2927     1.0  0.82783  0.47162  0.86281  1.0000
  C   C2928     1.0  0.93368  0.47745  0.71687  1.0000
  H   H5206     1.0  0.74663  0.42776  0.88148  1.0000
  C   C2929     1.0  0.74550  0.03013  0.84509  1.0000
  H   H5207     1.0  0.95488  0.28552  0.79003  1.0000
  H   H5208     1.0  0.95533  0.09270  0.66833  1.0000
  C   C2930     1.0  0.91927  0.21043  0.91799  1.0000
  C   C2931     1.0  0.91263  0.23021  0.90972  1.0000
  C   C2932     1.0  0.89701  0.24200  0.92064  1.0000
  C   C2933     1.0  0.88850  0.23440  0.94022  1.0000
  C   C2934     1.0  0.89543  0.21472  0.94865  1.0000
  C   C2935     1.0  0.91048  0.20262  0.93739  1.0000
  H   H5209     1.0  0.91917  0.23623  0.89466  1.0000
  H   H5210     1.0  0.89156  0.25699  0.91378  1.0000
  H   H5211     1.0  0.88929  0.20884  0.96384  1.0000
  H   H5212     1.0  0.91561  0.18730  0.94384  1.0000
  C   C2936     1.0  0.93485  0.32953  0.86263  1.0000
  C   C2937     1.0  0.93016  0.31014  0.86688  1.0000
  C   C2938     1.0  0.94497  0.29354  0.86294  1.0000
  C   C2939     1.0  0.96446  0.29637  0.85434  1.0000
  C   C2940     1.0  0.96905  0.31578  0.84992  1.0000
  C   C2941     1.0  0.95438  0.33226  0.85426  1.0000
  H   H5213     1.0  0.91502  0.30796  0.87312  1.0000
  Fe  Fe333     1.0  0.93638  0.39567  0.66019  1.0000
  H   H5214     1.0  0.97992  0.48328  0.72222  1.0000
  H   H5215     1.0  0.95823  0.34705  0.85114  1.0000
  C   C2942     1.0  0.84390  0.03124  0.66337  1.0000
  H   H5216     1.0  0.90413  0.34145  0.77639  1.0000
  C   C2943     1.0  0.82854  0.01997  0.67007  1.0000
  H   H5217     1.0  0.97866  0.16273  0.66275  1.0000
  H   H5218     1.0  0.98397  0.10990  0.84342  1.0000
  H   H5219     1.0  0.96089  0.13767  0.85033  1.0000
  S   S662      1.0  0.83740  0.99445  0.72299  1.0000
  H   H5220     1.0  0.76417  0.19311  0.96415  1.0000
  C   C2944     1.0  0.74051  0.03106  0.92987  1.0000
  C   C2945     1.0  0.80649  0.41534  0.65735  1.0000
  C   C2946     1.0  0.91461  0.03247  0.75168  1.0000
  C   C2947     1.0  0.91830  0.03584  0.73072  1.0000
  C   C2948     1.0  0.93334  0.04674  0.72021  1.0000
  C   C2949     1.0  0.94454  0.05464  0.73054  1.0000
  C   C2950     1.0  0.94059  0.05161  0.75151  1.0000
  C   C2951     1.0  0.92582  0.04036  0.76203  1.0000
  H   H5221     1.0  0.90972  0.02989  0.72260  1.0000
  H   H5222     1.0  0.93627  0.04907  0.70399  1.0000
  H   H5223     1.0  0.94905  0.05775  0.75961  1.0000
  H   H5224     1.0  0.92298  0.03785  0.77825  1.0000
  S   S663      1.0  0.98334  0.27642  0.84774  1.0000
  H   H5225     1.0  0.74435  0.43192  0.85537  1.0000
  H   H5226     1.0  0.95722  0.12825  0.65424  1.0000
  H   H5227     1.0  0.87379  0.35727  0.82039  1.0000
  H   H5228     1.0  0.96230  0.99595  0.70761  1.0000
  C   C2952     1.0  0.82715  0.45605  0.85023  1.0000
  H   H5229     1.0  0.83896  0.44287  0.85323  1.0000
  H   H5230     1.0  0.94463  0.46385  0.92640  1.0000
  H   H5231     1.0  0.78748  0.47567  0.89191  1.0000
  H   H5232     1.0  0.80119  0.14628  0.94867  1.0000
  H   H5233     1.0  0.88560  0.36485  0.83809  1.0000
  C   C2953     1.0  0.95188  0.47735  0.92287  1.0000
  H   H5234     1.0  0.94127  0.27864  0.86619  1.0000
  H   H5235     1.0  0.98059  0.22611  0.95302  1.0000
  H   H5236     1.0  0.95432  0.15294  0.89043  1.0000
  H   H5237     1.0  0.82369  0.13354  0.93505  1.0000
  C   C2954     1.0  0.81999  0.41482  0.67014  1.0000
  S   S664      1.0  0.85873  0.98475  0.76315  1.0000
  H   H5238     1.0  0.98411  0.31804  0.84325  1.0000
  C   C2955     1.0  0.97843  0.46240  0.81669  1.0000
  C   C2956     1.0  0.98633  0.17329  0.68728  1.0000
  H   H5239     1.0  0.81465  0.41441  0.68604  1.0000
  H   H5240     1.0  0.85066  0.41431  0.67252  1.0000
  Fe  Fe334     1.0  0.98277  0.08097  0.73169  1.0000
  C   C2957     1.0  0.87437  0.46179  0.88755  1.0000
  C   C2958     1.0  0.96203  0.48061  0.81367  1.0000
  C   C2959     1.0  0.77050  0.99486  0.79900  1.0000
  H   H5241     1.0  0.95233  0.16841  0.86623  1.0000
  C   C2960     1.0  0.96752  0.46841  0.69676  1.0000
  H   H5242     1.0  0.87668  0.16305  0.97905  1.0000
  C   C2961     1.0  0.98679  0.45415  0.79690  1.0000
  H   H5243     1.0  0.75419  0.02252  0.93447  1.0000
  Fe  Fe335     1.0  0.92331  0.44064  0.65644  1.0000
  H   H5244     1.0  0.96278  0.47651  0.90878  1.0000
  H   H5245     1.0  0.98171  0.00065  0.72708  1.0000
  H   H5246     1.0  0.80030  0.46415  0.92362  1.0000
  S   S665      1.0  0.97828  0.23046  0.89302  1.0000
  S   S666      1.0  0.88417  0.00011  0.71879  1.0000
  H   H5247     1.0  0.87462  0.99202  0.68144  1.0000
  H   H5248     1.0  0.98319  0.36162  0.81219  1.0000
  H   H5249     1.0  0.76397  0.47897  0.65960  1.0000
  H   H5250     1.0  0.92277  0.30862  0.79672  1.0000
  C   C2962     1.0  0.86286  0.16081  0.97459  1.0000
  C   C2963     1.0  0.85765  0.46763  0.90164  1.0000
  H   H5251     1.0  0.89081  0.01590  0.65368  1.0000
  H   H5252     1.0  0.76037  0.05244  0.89135  1.0000
  C   C2964     1.0  0.91882  0.34156  0.76648  1.0000
  C   C2965     1.0  0.81211  0.14722  0.93444  1.0000
  H   H5253     1.0  0.84569  0.45894  0.90582  1.0000
  H   H5254     1.0  0.82384  0.25338  0.94482  1.0000
  N   N163      1.0  0.93507  0.34612  0.79552  1.0000
  H   H5255     1.0  0.82117  0.16544  0.96245  1.0000
  C   C2966     1.0  0.98140  0.14734  0.78906  1.0000
  H   H5256     1.0  0.84308  0.47540  0.85873  1.0000
  C   C2967     1.0  0.89008  0.47270  0.88267  1.0000
  C   C2968     1.0  0.96851  0.09914  0.66911  1.0000
  C   C2969     1.0  0.97111  0.44637  0.70760  1.0000
  H   H5257     1.0  0.92911  0.35207  0.73472  1.0000
  H   H5258     1.0  0.89383  0.46659  0.69943  1.0000
  H   H5259     1.0  0.82341  0.01594  0.68594  1.0000
  C   C2970     1.0  0.93233  0.35270  0.77394  1.0000
  C   C2971     1.0  0.98622  0.21634  0.70271  1.0000
  C   C2972     1.0  0.93424  0.30757  0.80609  1.0000
  H   H5260     1.0  0.90570  0.34297  0.74012  1.0000
  S   S667      1.0  0.75320  0.15443  0.96746  1.0000
  C   C2973     1.0  0.89961  0.00221  0.66118  1.0000
  N   N164      1.0  0.84349  0.18313  0.94647  1.0000
  C   C2974     1.0  0.83258  0.16586  0.94850  1.0000
  C   C2975     1.0  0.91540  0.34795  0.80978  1.0000
  C   C2976     1.0  0.82823  0.20213  0.94456  1.0000
  C   C2977     1.0  0.85944  0.18470  0.92804  1.0000
  C   C2978     1.0  0.87611  0.16634  0.92592  1.0000
  C   C2979     1.0  0.82161  0.16598  0.93102  1.0000
  C   C2980     1.0  0.83527  0.22171  0.94576  1.0000
  H   H5261     1.0  0.86293  0.19202  0.96246  1.0000
  S   S668      1.0  0.97583  0.41701  0.86994  1.0000
  C   C2981     1.0  0.88958  0.16915  0.90545  1.0000
  S   S669      1.0  0.86913  0.24984  0.95355  1.0000
  C   C2982     1.0  0.84037  0.41475  0.66252  1.0000
  H   H5262     1.0  0.84264  0.15128  0.95037  1.0000
  C   C2983     1.0  0.75885  0.06352  0.87745  1.0000
  H   H5263     1.0  0.94190  0.20428  0.74767  1.0000
  H   H5264     1.0  0.82278  0.20491  0.93002  1.0000
  H   H5265     1.0  0.85258  0.18857  0.91423  1.0000
  H   H5266     1.0  0.86736  0.19730  0.92752  1.0000
  H   H5267     1.0  0.86993  0.15245  0.92746  1.0000
  H   H5268     1.0  0.88583  0.16462  0.93729  1.0000
  H   H5269     1.0  0.80932  0.17898  0.92983  1.0000
  H   H5270     1.0  0.83210  0.16645  0.91656  1.0000
  H   H5271     1.0  0.84789  0.22494  0.93360  1.0000
  H   H5272     1.0  0.98236  0.03762  0.74870  1.0000
  C   C2984     1.0  0.91489  0.35153  0.74547  1.0000
  H   H5273     1.0  0.93479  0.46309  0.72764  1.0000
  Fe  Fe336     1.0  0.89443  0.41476  0.65245  1.0000
  H   H5274     1.0  0.94307  0.44936  0.87654  1.0000
  H   H5275     1.0  0.96376  0.12233  0.87428  1.0000
  H   H5276     1.0  0.89635  0.18286  0.90323  1.0000
  H   H5277     1.0  0.90189  0.15615  0.90456  1.0000
  H   H5278     1.0  0.88100  0.17032  0.89321  1.0000
  H   H5279     1.0  0.90524  0.00629  0.67349  1.0000
  H   H5280     1.0  0.93872  0.27509  0.81183  1.0000
  H   H5281     1.0  0.78204  0.02569  0.87328  1.0000
  C   C2985     1.0  0.78716  0.47632  0.92267  1.0000
  H   H5282     1.0  0.90657  0.36702  0.74570  1.0000
  H   H5283     1.0  0.93547  0.15087  0.87681  1.0000
  H   H5284     1.0  0.92665  0.30793  0.82185  1.0000
  H   H5285     1.0  0.97807  0.44496  0.72101  1.0000
  C   C2986     1.0  0.81843  0.23965  0.94373  1.0000
  H   H5286     1.0  0.80809  0.00488  0.66152  1.0000
  N   N165      1.0  0.75992  0.03801  0.85397  1.0000
  H   H5287     1.0  0.86789  0.14995  0.96419  1.0000
  C   C2987     1.0  0.76799  0.02228  0.87034  1.0000
  H   H5288     1.0  0.92660  0.36909  0.77094  1.0000
  C   C2988     1.0  0.77666  0.04513  0.83823  1.0000
  C   C2989     1.0  0.78999  0.02945  0.82603  1.0000
  H   H5289     1.0  0.95125  0.26648  0.90969  1.0000
  H   H5290     1.0  0.96615  0.10395  0.68393  1.0000
  C   C2990     1.0  0.94771  0.28719  0.80564  1.0000
  H   H5291     1.0  0.94002  0.37567  0.79752  1.0000
  C   C2991     1.0  0.80371  0.03927  0.80819  1.0000
  C   C2992     1.0  0.94734  0.35977  0.80020  1.0000
  C   C2993     1.0  0.93975  0.26853  0.92320  1.0000
  H   H5292     1.0  0.97703  0.21118  0.69412  1.0000
  H   H5293     1.0  0.95287  0.15993  0.80461  1.0000
  H   H5294     1.0  0.98365  0.12354  0.65491  1.0000
  H   H5295     1.0  0.91388  0.29030  0.94782  1.0000
  S   S670      1.0  0.74759  0.06061  0.94729  1.0000
  H   H5296     1.0  0.89453  0.30791  0.97231  1.0000
  H   H5297     1.0  0.77073  0.05822  0.82754  1.0000
  H   H5298     1.0  0.78702  0.05083  0.84516  1.0000
  H   H5299     1.0  0.78104  0.02129  0.82002  1.0000
  H   H5300     1.0  0.79976  0.01866  0.83560  1.0000
  H   H5301     1.0  0.93724  0.99438  0.73860  1.0000
  H   H5302     1.0  0.94697  0.35071  0.76378  1.0000
  H   H5303     1.0  0.77393  0.06651  0.87012  1.0000
  H   H5304     1.0  0.78060  0.99762  0.85279  1.0000
  H   H5305     1.0  0.94830  0.20047  0.77237  1.0000
  C   C2994     1.0  0.97321  0.00085  0.74253  1.0000
  H   H5306     1.0  0.91817  0.34416  0.82555  1.0000
  C   C2995     1.0  0.90157  0.36857  0.80728  1.0000
  H   H5307     1.0  0.79481  0.04935  0.79731  1.0000
  H   H5308     1.0  0.81308  0.04790  0.81322  1.0000
  H   H5309     1.0  0.81375  0.02754  0.80034  1.0000
  C   C2996     1.0  0.97681  0.18038  0.73080  1.0000
  H   H5310     1.0  0.93018  0.46620  0.69015  1.0000
  H   H5311     1.0  0.90888  0.38045  0.80962  1.0000
  H   H5312     1.0  0.75320  0.02604  0.97859  1.0000
  H   H5313     1.0  0.81247  0.45092  0.85418  1.0000
  N   N166      1.0  0.88918  0.30564  0.93251  1.0000
  C   C2997     1.0  0.90620  0.28852  0.93588  1.0000
  C   C2998     1.0  0.87413  0.30703  0.95170  1.0000
  C   C2999     1.0  0.87864  0.30114  0.91725  1.0000
  C   C3000     1.0  0.89646  0.32526  0.92420  1.0000
  C   C3001     1.0  0.90983  0.33160  0.93635  1.0000
  C   C3002     1.0  0.92274  0.28519  0.91744  1.0000
  C   C3003     1.0  0.86003  0.31662  0.91211  1.0000
  S   S671      1.0  0.98265  0.11412  0.72498  1.0000
  H   H5314     1.0  0.92279  0.32662  0.65858  1.0000
  C   C3004     1.0  0.91790  0.35049  0.92506  1.0000
  H   H5315     1.0  0.95992  0.47729  0.93523  1.0000
  C   C3005     1.0  0.84923  0.30907  0.89868  1.0000
  H   H5316     1.0  0.90024  0.27428  0.94153  1.0000
  C   C3006     1.0  0.95107  0.15333  0.87524  1.0000
  H   H5317     1.0  0.86557  0.32252  0.95143  1.0000
  H   H5318     1.0  0.86271  0.29735  0.95295  1.0000
  H   H5319     1.0  0.87381  0.28630  0.92255  1.0000
  H   H5320     1.0  0.88882  0.30014  0.90272  1.0000
  H   H5321     1.0  0.90457  0.32526  0.90852  1.0000
  H   H5322     1.0  0.88363  0.33775  0.92294  1.0000
  H   H5323     1.0  0.92288  0.31985  0.93909  1.0000
  H   H5324     1.0  0.90099  0.33508  0.95087  1.0000
  H   H5325     1.0  0.91687  0.28060  0.90561  1.0000
  H   H5326     1.0  0.92928  0.29892  0.91099  1.0000
  H   H5327     1.0  0.86453  0.33096  0.90384  1.0000
  H   H5328     1.0  0.84918  0.31965  0.92578  1.0000
  H   H5329     1.0  0.88723  0.28397  0.97446  1.0000
  S   S672      1.0  0.97069  0.13350  0.77636  1.0000
  C   C3007     1.0  0.97676  0.17140  0.81188  1.0000
  H   H5330     1.0  0.75727  0.02259  0.88464  1.0000
  H   H5331     1.0  0.75271  0.01647  0.83870  1.0000
  H   H5332     1.0  0.90546  0.36300  0.92200  1.0000
  H   H5333     1.0  0.92708  0.35512  0.93417  1.0000
  H   H5334     1.0  0.92743  0.34766  0.91056  1.0000
  C   C3008     1.0  0.98512  0.43279  0.69399  1.0000
  H   H5335     1.0  0.98216  0.01671  0.67884  1.0000
  H   H5336     1.0  0.75365  0.08722  0.89517  1.0000
  H   H5337     1.0  0.83617  0.32047  0.89495  1.0000
  H   H5338     1.0  0.85936  0.30631  0.88447  1.0000
  H   H5339     1.0  0.84382  0.29499  0.90648  1.0000
  H   H5340     1.0  0.90302  0.46833  0.87181  1.0000
  H   H5341     1.0  0.97594  0.22183  0.71571  1.0000
  C   C3009     1.0  0.95057  0.19387  0.75853  1.0000
  H   H5342     1.0  0.90627  0.33704  0.80846  1.0000
  C   C3010     1.0  0.92147  0.47578  0.70105  1.0000
  C   C3011     1.0  0.78240  0.98642  0.88374  1.0000
  H   H5343     1.0  0.74657  0.09526  0.87069  1.0000
  H   H5344     1.0  0.81492  0.20060  0.95646  1.0000
  H   H5345     1.0  0.97427  0.44902  0.79254  1.0000
  C   C3012     1.0  0.90281  0.46676  0.71097  1.0000
  C   C3013     1.0  0.96884  0.15955  0.80211  1.0000
  H   H5346     1.0  0.95602  0.32305  0.81060  1.0000
  C   C3014     1.0  0.96545  0.13714  0.86497  1.0000
  C   C3015     1.0  0.97511  0.44263  0.86906  1.0000
  H   H5347     1.0  0.79744  0.99015  0.88274  1.0000
  H   H5348     1.0  0.96800  0.36732  0.77224  1.0000
  C   C3016     1.0  0.95682  0.45540  0.87233  1.0000
  H   H5349     1.0  0.83999  0.22079  0.96035  1.0000
  H   H5350     1.0  0.97310  0.16499  0.73592  1.0000
  C   C3017     1.0  0.98144  0.36959  0.79683  1.0000
  H   H5351     1.0  0.96247  0.46862  0.73779  1.0000
  C   C3018     1.0  0.88200  0.30043  0.97194  1.0000
  H   H5352     1.0  0.96174  0.46822  0.68297  1.0000
  H   H5353     1.0  0.75717  0.99513  0.86862  1.0000
  H   H5354     1.0  0.98590  0.14307  0.68270  1.0000
  H   H5355     1.0  0.74727  0.04899  0.81521  1.0000
  H   H5356     1.0  0.96104  0.01403  0.74134  1.0000
  H   H5357     1.0  0.92633  0.32593  0.76560  1.0000
  Fe  Fe337     1.0  0.98251  0.24355  0.86010  1.0000
  C   C3019     1.0  0.85200  0.18163  0.96529  1.0000
  H   H5358     1.0  0.98223  0.24623  0.68517  1.0000
  H   H5359     1.0  0.82545  0.46442  0.87877  1.0000
  H   H5360     1.0  0.96493  0.43862  0.64911  1.0000
  H   H5361     1.0  0.82994  0.46232  0.83399  1.0000
  H   H5362     1.0  0.98200  0.08737  0.66808  1.0000
  H   H5363     1.0  0.97679  0.34384  0.78703  1.0000
  C   C3020     1.0  0.96876  0.35929  0.78779  1.0000
  H   H5364     1.0  0.98402  0.41684  0.81132  1.0000
  H   H5365     1.0  0.95685  0.44051  0.71223  1.0000
  H   H5366     1.0  0.76030  0.00501  0.79013  1.0000
  H   H5367     1.0  0.97037  0.17568  0.69424  1.0000
  H   H5368     1.0  0.91259  0.99666  0.65022  1.0000
  H   H5369     1.0  0.92252  0.98930  0.80357  1.0000
  H   H5370     1.0  0.74443  0.06876  0.85158  1.0000
  C   C3021     1.0  0.77166  0.00007  0.86749  1.0000
  C   C3022     1.0  0.79117  0.99341  0.79228  1.0000
  H   H5371     1.0  0.97445  0.38541  0.79743  1.0000
  H   H5372     1.0  0.92214  0.35328  0.65428  1.0000
  H   H5373     1.0  0.92892  0.99021  0.70518  1.0000
  H   H5374     1.0  0.95948  0.28538  0.81491  1.0000
  C   C3023     1.0  0.95624  0.47608  0.86994  1.0000
  H   H5375     1.0  0.73891  0.07920  0.65360  1.0000
  S   S673      1.0  0.96295  0.37115  0.65535  1.0000
  H   H5376     1.0  0.97821  0.20495  0.74647  1.0000
  H   H5377     1.0  0.98056  0.18078  0.76153  1.0000
  H   H5378     1.0  0.89340  0.47565  0.72221  1.0000
  H   H5379     1.0  0.97786  0.43165  0.68148  1.0000
  C   C3024     1.0  0.74833  0.05580  0.86336  1.0000
  H   H5380     1.0  0.94743  0.99894  0.77333  1.0000
  H   H5381     1.0  0.94687  0.27241  0.93458  1.0000
  H   H5382     1.0  0.84004  0.18715  0.97732  1.0000
  S   S674      1.0  0.98540  0.07846  0.76401  1.0000
  H   H5383     1.0  0.96025  0.48277  0.76834  1.0000
  N   N167      1.0  0.95406  0.48318  0.70908  1.0000
  C   C3025     1.0  0.97393  0.48407  0.86425  1.0000
  H   H5384     1.0  0.74700  0.98435  0.82196  1.0000
  C   C3026     1.0  0.98731  0.14075  0.86155  1.0000
  H   H5385     1.0  0.86602  0.99448  0.64875  1.0000
  C   C3027     1.0  0.98744  0.56037  0.12419  1.0000
  Fe  Fe338     1.0  0.74283  0.80897  0.03942  1.0000
  C   C3028     1.0  0.77000  0.89905  0.04001  1.0000
  H   H5386     1.0  0.89130  0.49071  0.06771  1.0000
  C   C3029     1.0  0.84530  0.52243  0.01526  1.0000
  H   H5387     1.0  0.81469  0.50256  0.07095  1.0000
  S   S675      1.0  0.76017  0.77812  0.04911  1.0000
  S   S676      1.0  0.84710  0.68402  0.03912  1.0000
  S   S677      1.0  0.85290  0.63207  0.01890  1.0000
  Fe  Fe339     1.0  0.87697  0.68089  0.04855  1.0000
  S   S678      1.0  0.88069  0.67530  0.08120  1.0000
  Fe  Fe340     1.0  0.95488  0.69817  0.13902  1.0000
  H   H5388     1.0  0.77595  0.50844  0.24734  1.0000
  S   S679      1.0  0.94074  0.71510  0.11237  1.0000
  H   H5389     1.0  0.86008  0.52712  0.01303  1.0000
  C   C3030     1.0  0.98389  0.57800  0.22426  1.0000
  H   H5390     1.0  0.78065  0.84392  0.21453  1.0000
  H   H5391     1.0  0.87838  0.51168  0.05241  1.0000
  Fe  Fe341     1.0  0.95718  0.66024  0.17001  1.0000
  S   S680      1.0  0.94491  0.63182  0.18609  1.0000
  S   S681      1.0  0.74788  0.91442  0.11194  1.0000
  S   S682      1.0  0.94069  0.69172  0.17154  1.0000
  Fe  Fe342     1.0  0.83321  0.94759  0.23959  1.0000
  S   S683      1.0  0.86655  0.93790  0.23609  1.0000
  S   S684      1.0  0.82283  0.95239  0.20923  1.0000
  Fe  Fe343     1.0  0.83092  0.94999  0.28385  1.0000
  S   S685      1.0  0.86402  0.94131  0.28310  1.0000
  H   H5392     1.0  0.96291  0.49760  0.20970  1.0000
  Fe  Fe344     1.0  0.86130  0.91816  0.26581  1.0000
  S   S686      1.0  0.87707  0.88637  0.27366  1.0000
  H   H5393     1.0  0.97619  0.71733  0.04749  1.0000
  S   S687      1.0  0.82784  0.92546  0.26824  1.0000
  H   H5394     1.0  0.77004  0.91462  0.30939  1.0000
  H   H5395     1.0  0.96425  0.62454  0.09403  1.0000
  S   S688      1.0  0.97129  0.87116  0.25190  1.0000
  Fe  Fe345     1.0  0.91558  0.53633  0.16014  1.0000
  S   S689      1.0  0.88318  0.53416  0.17175  1.0000
  S   S690      1.0  0.92724  0.56488  0.14359  1.0000
  H   H5396     1.0  0.84889  0.51202  0.18869  1.0000
  H   H5397     1.0  0.97668  0.59933  0.12179  1.0000
  Fe  Fe346     1.0  0.88966  0.50451  0.16028  1.0000
  H   H5398     1.0  0.90435  0.61481  0.01103  1.0000
  Fe  Fe347     1.0  0.89402  0.51661  0.19976  1.0000
  S   S691      1.0  0.88072  0.51980  0.23190  1.0000
  S   S692      1.0  0.92148  0.50817  0.14644  1.0000
  S   S693      1.0  0.92564  0.52060  0.18876  1.0000
  H   H5399     1.0  0.84895  0.51779  0.30517  1.0000
  C   C3031     1.0  0.84020  0.59682  0.98427  1.0000
  S   S694      1.0  0.93409  0.55107  0.27961  1.0000
  C   C3032     1.0  0.76247  0.96193  0.21019  1.0000
  H   H5400     1.0  0.89001  0.54860  0.12871  1.0000
  H   H5401     1.0  0.85883  0.48535  0.09013  1.0000
  H   H5402     1.0  0.84556  0.51289  0.00405  1.0000
  C   C3033     1.0  0.89485  0.52949  0.24512  1.0000
  C   C3034     1.0  0.90933  0.54105  0.23498  1.0000
  C   C3035     1.0  0.92095  0.54794  0.24574  1.0000
  C   C3036     1.0  0.91829  0.54324  0.26673  1.0000
  C   C3037     1.0  0.90348  0.53209  0.27692  1.0000
  C   C3038     1.0  0.89170  0.52536  0.26615  1.0000
  H   H5403     1.0  0.91137  0.54498  0.21886  1.0000
  H   H5404     1.0  0.93215  0.55676  0.23771  1.0000
  H   H5405     1.0  0.90105  0.52865  0.29309  1.0000
  C   C3039     1.0  0.88993  0.61845  0.25040  1.0000
  C   C3040     1.0  0.90331  0.88279  0.26914  1.0000
  C   C3041     1.0  0.91339  0.89732  0.25647  1.0000
  C   C3042     1.0  0.93428  0.89356  0.25160  1.0000
  C   C3043     1.0  0.94525  0.87543  0.25961  1.0000
  C   C3044     1.0  0.93524  0.86114  0.27291  1.0000
  C   C3045     1.0  0.91426  0.86477  0.27754  1.0000
  H   H5406     1.0  0.90507  0.91126  0.24996  1.0000
  H   H5407     1.0  0.94195  0.90464  0.24129  1.0000
  H   H5408     1.0  0.94363  0.84724  0.27942  1.0000
  H   H5409     1.0  0.90649  0.85353  0.28746  1.0000
  H   H5410     1.0  0.77243  0.88692  0.20226  1.0000
  H   H5411     1.0  0.84731  0.50206  0.25648  1.0000
  C   C3046     1.0  0.96588  0.50909  0.21728  1.0000
  H   H5412     1.0  0.95230  0.93969  0.24187  1.0000
  H   H5413     1.0  0.90187  0.61533  0.27726  1.0000
  C   C3047     1.0  0.94007  0.61330  0.17411  1.0000
  C   C3048     1.0  0.93460  0.59546  0.18576  1.0000
  C   C3049     1.0  0.93069  0.58046  0.17669  1.0000
  C   C3050     1.0  0.93228  0.58311  0.15583  1.0000
  C   C3051     1.0  0.93781  0.60092  0.14421  1.0000
  C   C3052     1.0  0.94149  0.61599  0.15331  1.0000
  H   H5414     1.0  0.93317  0.59330  0.20189  1.0000
  H   H5415     1.0  0.92631  0.56692  0.18585  1.0000
  H   H5416     1.0  0.93882  0.60325  0.12811  1.0000
  H   H5417     1.0  0.94498  0.62992  0.14438  1.0000
  C   C3053     1.0  0.89869  0.68554  0.08884  1.0000
  C   C3054     1.0  0.90741  0.70132  0.07668  1.0000
  C   C3055     1.0  0.92050  0.71013  0.08393  1.0000
  C   C3056     1.0  0.92531  0.70294  0.10318  1.0000
  C   C3057     1.0  0.91711  0.68672  0.11506  1.0000
  C   C3058     1.0  0.90369  0.67822  0.10798  1.0000
  H   H5418     1.0  0.90364  0.70711  0.06193  1.0000
  H   H5419     1.0  0.92679  0.72268  0.07467  1.0000
  H   H5420     1.0  0.92065  0.68112  0.12994  1.0000
  H   H5421     1.0  0.89698  0.66608  0.11748  1.0000
  C   C3059     1.0  0.78238  0.76710  0.03496  1.0000
  C   C3060     1.0  0.78972  0.74671  0.04067  1.0000
  C   C3061     1.0  0.80790  0.73754  0.03053  1.0000
  C   C3062     1.0  0.81902  0.74879  0.01473  1.0000
  C   C3063     1.0  0.81158  0.76915  0.00886  1.0000
  C   C3064     1.0  0.79330  0.77829  0.01890  1.0000
  H   H5422     1.0  0.78130  0.73795  0.05303  1.0000
  H   H5423     1.0  0.81336  0.72182  0.03503  1.0000
  H   H5424     1.0  0.92425  0.59147  0.25700  1.0000
  H   H5425     1.0  0.78781  0.79401  0.01439  1.0000
  C   C3065     1.0  0.75050  0.95833  0.06055  1.0000
  H   H5426     1.0  0.78069  0.79977  0.08393  1.0000
  H   H5427     1.0  0.94706  0.78600  0.26529  1.0000
  C   C3066     1.0  0.79877  0.95709  0.20234  1.0000
  C   C3067     1.0  0.79731  0.96074  0.18184  1.0000
  C   C3068     1.0  0.77857  0.96505  0.17553  1.0000
  C   C3069     1.0  0.75188  0.94745  0.04303  1.0000
  H   H5428     1.0  0.82008  0.77793  0.99659  1.0000
  H   H5429     1.0  0.95209  0.58192  0.23135  1.0000
  H   H5430     1.0  0.87997  0.50789  0.09726  1.0000
  H   H5431     1.0  0.96368  0.51114  0.27903  1.0000
  S   S695      1.0  0.88747  0.70538  0.02473  1.0000
  N   N168      1.0  0.83869  0.75094  0.07138  1.0000
  C   C3070     1.0  0.85394  0.74631  0.05323  1.0000
  C   C3071     1.0  0.82651  0.73429  0.07856  1.0000
  C   C3072     1.0  0.82458  0.76975  0.06469  1.0000
  C   C3073     1.0  0.84798  0.75434  0.08816  1.0000
  C   C3074     1.0  0.86916  0.74233  0.09041  1.0000
  H   H5432     1.0  0.98050  0.56051  0.11101  1.0000
  C   C3075     1.0  0.80558  0.77539  0.08003  1.0000
  C   C3076     1.0  0.83799  0.71291  0.08403  1.0000
  C   C3077     1.0  0.82398  0.69751  0.08877  1.0000
  C   C3078     1.0  0.87501  0.74410  0.11006  1.0000
  H   H5433     1.0  0.83824  0.58142  0.98601  1.0000
  C   C3079     1.0  0.79496  0.79665  0.07350  1.0000
  H   H5434     1.0  0.84675  0.74151  0.04241  1.0000
  H   H5435     1.0  0.86555  0.73332  0.05718  1.0000
  H   H5436     1.0  0.81545  0.73714  0.09221  1.0000
  H   H5437     1.0  0.81765  0.73389  0.06700  1.0000
  H   H5438     1.0  0.81944  0.76854  0.05076  1.0000
  H   H5439     1.0  0.83241  0.78290  0.06064  1.0000
  H   H5440     1.0  0.84938  0.77038  0.08643  1.0000
  H   H5441     1.0  0.83795  0.75128  0.10280  1.0000
  H   H5442     1.0  0.79236  0.93125  0.13588  1.0000
  H   H5443     1.0  0.87031  0.72627  0.09008  1.0000
  H   H5444     1.0  0.76133  0.91583  0.15007  1.0000
  H   H5445     1.0  0.77295  0.86897  0.05772  1.0000
  H   H5446     1.0  0.80929  0.77444  0.09511  1.0000
  H   H5447     1.0  0.79482  0.76515  0.08110  1.0000
  H   H5448     1.0  0.84980  0.70871  0.07150  1.0000
  H   H5449     1.0  0.84458  0.71164  0.09765  1.0000
  H   H5450     1.0  0.81222  0.70042  0.10187  1.0000
  H   H5451     1.0  0.81682  0.69795  0.07565  1.0000
  H   H5452     1.0  0.83266  0.68228  0.09237  1.0000
  H   H5453     1.0  0.76256  0.96748  0.05738  1.0000
  H   H5454     1.0  0.87463  0.76001  0.11095  1.0000
  H   H5455     1.0  0.86480  0.73739  0.12308  1.0000
  S   S696      1.0  0.98417  0.81100  0.27138  1.0000
  H   H5456     1.0  0.80439  0.80779  0.07364  1.0000
  H   H5457     1.0  0.98148  0.82552  0.21816  1.0000
  H   H5458     1.0  0.86913  0.77181  0.05195  1.0000
  H   H5459     1.0  0.73943  0.87039  0.21315  1.0000
  H   H5460     1.0  0.96270  0.97500  0.29537  1.0000
  C   C3080     1.0  0.86460  0.76393  0.04157  1.0000
  N   N169      1.0  0.75472  0.89646  0.17858  1.0000
  H   H5461     1.0  0.93709  0.96325  0.27672  1.0000
  C   C3081     1.0  0.97050  0.63633  0.09828  1.0000
  H   H5462     1.0  0.77827  0.90641  0.02596  1.0000
  S   S697      1.0  0.98414  0.66656  0.17935  1.0000
  H   H5463     1.0  0.88269  0.96551  0.20081  1.0000
  C   C3082     1.0  0.95143  0.66328  0.23142  1.0000
  H   H5464     1.0  0.98676  0.85800  0.18078  1.0000
  H   H5465     1.0  0.80271  0.53930  0.25070  1.0000
  H   H5466     1.0  0.88050  0.74814  0.07800  1.0000
  H   H5467     1.0  0.87889  0.75006  0.01552  1.0000
  C   C3083     1.0  0.98220  0.51995  0.20299  1.0000
  C   C3084     1.0  0.74465  0.91386  0.18925  1.0000
  H   H5468     1.0  0.92371  0.62963  0.00043  1.0000
  Fe  Fe348     1.0  0.86661  0.96195  0.25349  1.0000
  C   C3085     1.0  0.83574  0.51153  0.22007  1.0000
  C   C3086     1.0  0.96806  0.96319  0.26154  1.0000
  C   C3087     1.0  0.75997  0.50010  0.27683  1.0000
  H   H5469     1.0  0.96328  0.63154  0.25977  1.0000
  H   H5470     1.0  0.97278  0.95159  0.27413  1.0000
  H   H5471     1.0  0.92436  0.60633  0.99194  1.0000
  H   H5472     1.0  0.75741  0.83944  0.23044  1.0000
  S   S698      1.0  0.86640  0.49704  0.14439  1.0000
  S   S699      1.0  0.96964  0.66654  0.13724  1.0000
  H   H5473     1.0  0.84885  0.50075  0.22458  1.0000
  H   H5474     1.0  0.74656  0.88975  0.02928  1.0000
  H   H5475     1.0  0.77443  0.52540  0.26443  1.0000
  C   C3088     1.0  0.78122  0.95762  0.21651  1.0000
  C   C3089     1.0  0.76102  0.96556  0.18970  1.0000
  C   C3090     1.0  0.97527  0.51667  0.24665  1.0000
  H   H5476     1.0  0.76123  0.87956  0.09361  1.0000
  H   H5477     1.0  0.92339  0.79076  0.28153  1.0000
  H   H5478     1.0  0.95139  0.67059  0.21557  1.0000
  H   H5479     1.0  0.93930  0.97363  0.25030  1.0000
  H   H5480     1.0  0.84645  0.59385  0.01418  1.0000
  C   C3091     1.0  0.84733  0.62391  0.99825  1.0000
  C   C3092     1.0  0.84488  0.60390  0.00020  1.0000
  C   C3093     1.0  0.74785  0.87331  0.15644  1.0000
  H   H5481     1.0  0.94926  0.79743  0.17789  1.0000
  H   H5482     1.0  0.75485  0.88043  0.14155  1.0000
  N   N170      1.0  0.88242  0.61044  0.10394  1.0000
  C   C3094     1.0  0.86482  0.61230  0.09355  1.0000
  C   C3095     1.0  0.88868  0.58887  0.11336  1.0000
  C   C3096     1.0  0.87584  0.62284  0.12056  1.0000
  C   C3097     1.0  0.89982  0.61840  0.08999  1.0000
  C   C3098     1.0  0.90783  0.60910  0.07079  1.0000
  C   C3099     1.0  0.85636  0.63361  0.08350  1.0000
  C   C3100     1.0  0.89114  0.62124  0.13465  1.0000
  C   C3101     1.0  0.88514  0.57213  0.10315  1.0000
  C   C3102     1.0  0.89538  0.55161  0.11233  1.0000
  C   C3103     1.0  0.92546  0.61853  0.05822  1.0000
  C   C3104     1.0  0.83835  0.63319  0.07410  1.0000
  C   C3105     1.0  0.88206  0.63245  0.15216  1.0000
  H   H5483     1.0  0.85235  0.60630  0.10447  1.0000
  H   H5484     1.0  0.86852  0.60304  0.08152  1.0000
  H   H5485     1.0  0.90475  0.58611  0.11468  1.0000
  H   H5486     1.0  0.88056  0.58572  0.12904  1.0000
  H   H5487     1.0  0.86173  0.61880  0.13006  1.0000
  H   H5488     1.0  0.87249  0.63904  0.11432  1.0000
  H   H5489     1.0  0.89607  0.63484  0.08537  1.0000
  H   H5490     1.0  0.91273  0.61619  0.09792  1.0000
  H   H5491     1.0  0.89612  0.61148  0.06133  1.0000
  H   H5492     1.0  0.91344  0.59290  0.07467  1.0000
  H   H5493     1.0  0.85117  0.64403  0.09444  1.0000
  H   H5494     1.0  0.86780  0.63973  0.07144  1.0000
  H   H5495     1.0  0.90433  0.62791  0.12638  1.0000
  H   H5496     1.0  0.89630  0.60551  0.14117  1.0000
  H   H5497     1.0  0.86890  0.57173  0.10543  1.0000
  H   H5498     1.0  0.89077  0.57436  0.08684  1.0000
  H   H5499     1.0  0.89187  0.53976  0.10563  1.0000
  H   H5500     1.0  0.91183  0.55082  0.10957  1.0000
  H   H5501     1.0  0.93014  0.61267  0.04385  1.0000
  H   H5502     1.0  0.92129  0.63506  0.05477  1.0000
  H   H5503     1.0  0.93832  0.61485  0.06639  1.0000
  H   H5504     1.0  0.84254  0.62309  0.06277  1.0000
  H   H5505     1.0  0.82607  0.62802  0.08576  1.0000
  H   H5506     1.0  0.83278  0.64843  0.06651  1.0000
  H   H5507     1.0  0.87664  0.64845  0.14664  1.0000
  H   H5508     1.0  0.86946  0.62558  0.16172  1.0000
  H   H5509     1.0  0.89358  0.63159  0.16151  1.0000
  C   C3106     1.0  0.88360  0.97712  0.18715  1.0000
  C   C3107     1.0  0.74561  0.92862  0.01113  1.0000
  H   H5510     1.0  0.95179  0.52022  0.21827  1.0000
  H   H5511     1.0  0.81183  0.92719  0.15070  1.0000
  H   H5512     1.0  0.83273  0.49383  0.19832  1.0000
  C   C3108     1.0  0.84006  0.51120  0.03657  1.0000
  H   H5513     1.0  0.83386  0.53602  0.01261  1.0000
  C   C3109     1.0  0.77701  0.50939  0.26293  1.0000
  H   H5514     1.0  0.98383  0.57440  0.20932  1.0000
  C   C3110     1.0  0.78592  0.91380  0.16575  1.0000
  H   H5515     1.0  0.89405  0.74585  0.03502  1.0000
  C   C3111     1.0  0.87987  0.51635  0.08176  1.0000
  H   H5516     1.0  0.87572  0.62753  0.25650  1.0000
  H   H5517     1.0  0.84621  0.50679  0.07646  1.0000
  C   C3112     1.0  0.88313  0.75689  0.02694  1.0000
  H   H5518     1.0  0.79618  0.87665  0.04489  1.0000
  H   H5519     1.0  0.77133  0.90592  0.05278  1.0000
  H   H5520     1.0  0.81688  0.56924  0.25186  1.0000
  S   S700      1.0  0.97050  0.71362  0.20499  1.0000
  H   H5521     1.0  0.96387  0.63763  0.11396  1.0000
  H   H5522     1.0  0.84048  0.52133  0.04692  1.0000
  C   C3113     1.0  0.87800  0.50269  0.06767  1.0000
  H   H5523     1.0  0.85435  0.77490  0.03259  1.0000
  C   C3114     1.0  0.94413  0.94174  0.25710  1.0000
  H   H5524     1.0  0.79147  0.79838  0.05817  1.0000
  H   H5525     1.0  0.96972  0.65579  0.06919  1.0000
  C   C3115     1.0  0.97601  0.83486  0.20471  1.0000
  C   C3116     1.0  0.94291  0.78990  0.19293  1.0000
  H   H5526     1.0  0.76692  0.93831  0.04076  1.0000
  H   H5527     1.0  0.77771  0.96796  0.15972  1.0000
  H   H5528     1.0  0.94113  0.79105  0.22392  1.0000
  H   H5529     1.0  0.75915  0.50251  0.29240  1.0000
  C   C3117     1.0  0.91449  0.61975  0.99703  1.0000
  H   H5530     1.0  0.79458  0.90314  0.17644  1.0000
  H   H5531     1.0  0.89408  0.52231  0.07657  1.0000
  H   H5532     1.0  0.86730  0.52916  0.08198  1.0000
  H   H5533     1.0  0.75158  0.85368  0.19627  1.0000
  N   N171      1.0  0.93871  0.83506  0.22103  1.0000
  C   C3118     1.0  0.94453  0.82332  0.24050  1.0000
  C   C3119     1.0  0.95492  0.84689  0.21021  1.0000
  C   C3120     1.0  0.92007  0.85003  0.22614  1.0000
  C   C3121     1.0  0.93448  0.82196  0.20783  1.0000
  C   C3122     1.0  0.94623  0.80016  0.20931  1.0000
  C   C3123     1.0  0.92765  0.81379  0.25537  1.0000
  C   C3124     1.0  0.91287  0.86553  0.20837  1.0000
  H   H5534     1.0  0.96561  0.66467  0.23569  1.0000
  H   H5535     1.0  0.98611  0.58917  0.15806  1.0000
  C   C3125     1.0  0.95885  0.60260  0.29405  1.0000
  H   H5536     1.0  0.76066  0.93193  0.01069  1.0000
  C   C3126     1.0  0.89224  0.87742  0.21488  1.0000
  H   H5537     1.0  0.94988  0.83311  0.24847  1.0000
  H   H5538     1.0  0.95757  0.81132  0.23785  1.0000
  H   H5539     1.0  0.95107  0.85566  0.19575  1.0000
  H   H5540     1.0  0.95623  0.85801  0.21934  1.0000
  H   H5541     1.0  0.92229  0.85869  0.23720  1.0000
  H   H5542     1.0  0.90728  0.84223  0.23351  1.0000
  H   H5543     1.0  0.91841  0.82042  0.21117  1.0000
  H   H5544     1.0  0.93702  0.82925  0.19182  1.0000
  H   H5545     1.0  0.92862  0.61483  0.29013  1.0000
  H   H5546     1.0  0.86984  0.49339  0.03284  1.0000
  H   H5547     1.0  0.91705  0.82547  0.26284  1.0000
  H   H5548     1.0  0.91909  0.80686  0.24751  1.0000
  H   H5549     1.0  0.91201  0.85808  0.19586  1.0000
  H   H5550     1.0  0.92317  0.87656  0.20279  1.0000
  H   H5551     1.0  0.96496  0.53376  0.17916  1.0000
  H   H5552     1.0  0.89038  0.76987  0.01904  1.0000
  H   H5553     1.0  0.83278  0.49623  0.28027  1.0000
  S   S701      1.0  0.74915  0.96558  0.12338  1.0000
  C   C3127     1.0  0.75420  0.86395  0.20552  1.0000
  H   H5554     1.0  0.97145  0.98232  0.22206  1.0000
  C   C3128     1.0  0.83473  0.50925  0.19875  1.0000
  Fe  Fe349     1.0  0.93087  0.54098  0.31330  1.0000
  H   H5555     1.0  0.89351  0.62395  0.23403  1.0000
  C   C3129     1.0  0.85842  0.49389  0.07468  1.0000
  H   H5556     1.0  0.96271  0.63416  0.22406  1.0000
  H   H5557     1.0  0.89260  0.88552  0.22711  1.0000
  H   H5558     1.0  0.88756  0.88864  0.20202  1.0000
  H   H5559     1.0  0.88096  0.86737  0.22021  1.0000
  N   N172      1.0  0.97037  0.50018  0.23804  1.0000
  H   H5560     1.0  0.96337  0.53014  0.24535  1.0000
  H   H5561     1.0  0.93866  0.67139  0.24081  1.0000
  H   H5562     1.0  0.75860  0.96253  0.98588  1.0000
  S   S702      1.0  0.93130  0.67538  0.99003  1.0000
  Fe  Fe350     1.0  0.85856  0.70712  0.01382  1.0000
  H   H5563     1.0  0.96182  0.60436  0.22008  1.0000
  S   S703      1.0  0.81116  0.95770  0.31254  1.0000
  H   H5564     1.0  0.88780  0.60259  0.25283  1.0000
  H   H5565     1.0  0.97545  0.56409  0.13689  1.0000
  H   H5566     1.0  0.83973  0.52986  0.27165  1.0000
  H   H5567     1.0  0.96799  0.66876  0.08999  1.0000
  S   S704      1.0  0.84256  0.73814  0.00249  1.0000
  C   C3130     1.0  0.74508  0.88222  0.09617  1.0000
  S   S705      1.0  0.74917  0.83760  0.04570  1.0000
  H   H5568     1.0  0.93952  0.50691  0.25196  1.0000
  C   C3131     1.0  0.94600  0.96192  0.26166  1.0000
  C   C3132     1.0  0.81042  0.49194  0.00618  1.0000
  C   C3133     1.0  0.73942  0.88920  0.17036  1.0000
  S   S706      1.0  0.89109  0.65687  0.03039  1.0000
  S   S707      1.0  0.79883  0.51691  0.00082  1.0000
  S   S708      1.0  0.87162  0.68507  0.99262  1.0000
  C   C3134     1.0  0.85445  0.49106  0.04010  1.0000
  H   H5569     1.0  0.83817  0.52697  0.21937  1.0000
  C   C3135     1.0  0.90661  0.62034  0.26099  1.0000
  H   H5570     1.0  0.92814  0.94116  0.25760  1.0000
  Fe  Fe351     1.0  0.86236  0.66172  0.01871  1.0000
  H   H5571     1.0  0.90798  0.63638  0.25838  1.0000
  C   C3136     1.0  0.82524  0.55985  0.26352  1.0000
  C   C3137     1.0  0.76585  0.85126  0.22155  1.0000
  C   C3138     1.0  0.92652  0.60738  0.25310  1.0000
  H   H5572     1.0  0.92861  0.61084  0.23648  1.0000
  C   C3139     1.0  0.81750  0.48779  0.08054  1.0000
  S   S709      1.0  0.89763  0.48702  0.18966  1.0000
  H   H5573     1.0  0.79036  0.48610  0.03402  1.0000
  H   H5574     1.0  0.77909  0.87181  0.18337  1.0000
  C   C3140     1.0  0.81222  0.52885  0.26084  1.0000
  H   H5575     1.0  0.74825  0.91683  0.00156  1.0000
  H   H5576     1.0  0.84076  0.53824  0.24517  1.0000
  H   H5577     1.0  0.94690  0.65893  0.08703  1.0000
  H   H5578     1.0  0.78208  0.95493  0.23231  1.0000
  S   S710      1.0  0.83360  0.97285  0.25550  1.0000
  C   C3141     1.0  0.95173  0.49374  0.25108  1.0000
  H   H5579     1.0  0.82114  0.49013  0.09474  1.0000
  H   H5580     1.0  0.97918  0.50917  0.17629  1.0000
  C   C3142     1.0  0.78037  0.87725  0.04362  1.0000
  Fe  Fe352     1.0  0.96896  0.69874  0.17836  1.0000
  H   H5581     1.0  0.74100  0.89407  0.05438  1.0000
  H   H5582     1.0  0.80382  0.52958  0.27636  1.0000
  C   C3143     1.0  0.94087  0.60390  0.28332  1.0000
  H   H5583     1.0  0.93562  0.58920  0.28778  1.0000
  N   N173      1.0  0.94475  0.60957  0.26071  1.0000
  C   C3144     1.0  0.93579  0.79784  0.27184  1.0000
  H   H5584     1.0  0.82228  0.52017  0.19292  1.0000
  H   H5585     1.0  0.96247  0.79947  0.20805  1.0000
  C   C3145     1.0  0.83098  0.53822  0.25987  1.0000
  H   H5586     1.0  0.80400  0.51899  0.22868  1.0000
  H   H5587     1.0  0.92675  0.79009  0.19364  1.0000
  H   H5588     1.0  0.83900  0.56599  0.26288  1.0000
  H   H5589     1.0  0.80816  0.90698  0.13970  1.0000
  H   H5590     1.0  0.88833  0.96952  0.17384  1.0000
  C   C3146     1.0  0.74769  0.90035  0.03901  1.0000
  Fe  Fe353     1.0  0.73907  0.85145  0.01615  1.0000
  C   C3147     1.0  0.76596  0.88015  0.19224  1.0000
  C   C3148     1.0  0.79768  0.49833  0.26804  1.0000
  H   H5591     1.0  0.75063  0.95904  0.02946  1.0000
  H   H5592     1.0  0.88037  0.51663  0.27414  1.0000
  H   H5593     1.0  0.79713  0.49706  0.28447  1.0000
  H   H5594     1.0  0.73758  0.85318  0.14192  1.0000
  H   H5595     1.0  0.97164  0.59129  0.28889  1.0000
  C   C3149     1.0  0.76940  0.90438  0.16085  1.0000
  H   H5596     1.0  0.81078  0.96041  0.17075  1.0000
  H   H5597     1.0  0.91199  0.48751  0.25511  1.0000
  H   H5598     1.0  0.89043  0.73591  0.11090  1.0000
  H   H5599     1.0  0.77743  0.89224  0.15238  1.0000
  H   H5600     1.0  0.94261  0.80473  0.28137  1.0000
  H   H5601     1.0  0.76803  0.86067  0.23193  1.0000
  C   C3150     1.0  0.94875  0.63082  0.25575  1.0000
  H   H5602     1.0  0.93743  0.64047  0.26514  1.0000
  C   C3151     1.0  0.97829  0.51156  0.26889  1.0000
  Fe  Fe354     1.0  0.89944  0.68154  0.00570  1.0000
  H   H5603     1.0  0.93576  0.64101  0.22797  1.0000
  C   C3152     1.0  0.94950  0.64128  0.23366  1.0000
  N   N174      1.0  0.81543  0.50768  0.25651  1.0000
  H   H5604     1.0  0.93977  0.87994  0.30378  1.0000
  H   H5605     1.0  0.98251  0.69217  0.06029  1.0000
  C   C3153     1.0  0.83385  0.49553  0.26412  1.0000
  H   H5606     1.0  0.78009  0.86976  0.03090  1.0000
  H   H5607     1.0  0.77935  0.92742  0.17231  1.0000
  Fe  Fe355     1.0  0.92878  0.49242  0.17658  1.0000
  S   S711      1.0  0.75448  0.87422  0.99299  1.0000
  H   H5608     1.0  0.96328  0.58018  0.26247  1.0000
  N   N175      1.0  0.97226  0.98325  0.26332  1.0000
  C   C3154     1.0  0.96346  0.65615  0.08526  1.0000
  C   C3155     1.0  0.80043  0.92014  0.14679  1.0000
  H   H5609     1.0  0.81321  0.49303  0.23236  1.0000
  H   H5610     1.0  0.95010  0.92923  0.26831  1.0000
  C   C3156     1.0  0.81620  0.50761  0.23449  1.0000
  H   H5611     1.0  0.74552  0.50734  0.27198  1.0000
  H   H5612     1.0  0.75944  0.86149  0.16258  1.0000
  H   H5613     1.0  0.82459  0.50832  0.03833  1.0000
  S   S712      1.0  0.89078  0.98077  0.23966  1.0000
  H   H5614     1.0  0.85273  0.98093  0.18491  1.0000
  H   H5615     1.0  0.75554  0.91925  0.19580  1.0000
  H   H5616     1.0  0.98535  0.60860  0.17216  1.0000
  H   H5617     1.0  0.74311  0.85677  0.08349  1.0000
  H   H5618     1.0  0.97603  0.82531  0.19364  1.0000
  H   H5619     1.0  0.74900  0.96253  0.22128  1.0000
  H   H5620     1.0  0.95047  0.77405  0.19509  1.0000
  H   H5621     1.0  0.81599  0.56054  0.27858  1.0000
  H   H5622     1.0  0.83348  0.48647  0.13146  1.0000
  H   H5623     1.0  0.98153  0.53484  0.20704  1.0000
  H   H5624     1.0  0.85908  0.86530  0.31125  1.0000
  H   H5625     1.0  0.97868  0.54257  0.27085  1.0000
  H   H5626     1.0  0.75221  0.94747  0.07458  1.0000
  H   H5627     1.0  0.78593  0.49018  0.09292  1.0000
  C   C3157     1.0  0.98041  0.73415  0.20919  1.0000
  C   C3158     1.0  0.96273  0.59516  0.25266  1.0000
  H   H5628     1.0  0.73898  0.92682  0.17828  1.0000
  H   H5629     1.0  0.95424  0.48791  0.26674  1.0000
  H   H5630     1.0  0.97730  0.95799  0.24781  1.0000
  C   C3159     1.0  0.97924  0.52353  0.18114  1.0000
  H   H5631     1.0  0.97364  0.72617  0.24135  1.0000
  H   H5632     1.0  0.97681  0.60028  0.25313  1.0000
  S   S713      1.0  0.98167  0.70770  0.14586  1.0000
  H   H5633     1.0  0.96392  0.61725  0.29135  1.0000
  C   C3160     1.0  0.98001  0.73663  0.22904  1.0000
  C   C3161     1.0  0.96388  0.59062  0.23130  1.0000
  H   H5634     1.0  0.98321  0.62423  0.13626  1.0000
  H   H5635     1.0  0.89198  0.64359  0.98757  1.0000
  H   H5636     1.0  0.98640  0.56375  0.23490  1.0000
  Fe  Fe356     1.0  0.79065  0.57807  0.49180  1.0000
  S   S714      1.0  0.82204  0.58457  0.48946  1.0000
  S   S715      1.0  0.78826  0.55050  0.48062  1.0000
  H   H5637     1.0  0.83265  0.78815  0.53563  1.0000
  H   H5638     1.0  0.90489  0.79948  0.52372  1.0000
  S   S716      1.0  0.75155  0.50979  0.33892  1.0000
  Fe  Fe357     1.0  0.76540  0.56958  0.46319  1.0000
  Fe  Fe358     1.0  0.83221  0.88095  0.46322  1.0000
  S   S717      1.0  0.81144  0.90442  0.47896  1.0000
  S   S718      1.0  0.85429  0.85503  0.47616  1.0000
  Fe  Fe359     1.0  0.82202  0.90107  0.42200  1.0000
  S   S719      1.0  0.80088  0.92648  0.43419  1.0000
  S   S720      1.0  0.82987  0.89520  0.38997  1.0000
  Fe  Fe360     1.0  0.82370  0.92632  0.45303  1.0000
  C   C3162     1.0  0.95705  0.64234  0.49529  1.0000
  Fe  Fe361     1.0  0.78989  0.90297  0.45911  1.0000
  S   S721      1.0  0.81028  0.50578  0.31761  1.0000
  S   S722      1.0  0.84606  0.90302  0.43851  1.0000
  S   S723      1.0  0.80948  0.87724  0.44569  1.0000
  H   H5639     1.0  0.85535  0.94503  0.64299  1.0000
  Fe  Fe362     1.0  0.92969  0.80601  0.60419  1.0000
  S   S724      1.0  0.90624  0.79426  0.59345  1.0000
  H   H5640     1.0  0.93359  0.80081  0.49677  1.0000
  Fe  Fe363     1.0  0.94946  0.82017  0.56208  1.0000
  S   S725      1.0  0.92814  0.80984  0.54776  1.0000
  H   H5641     1.0  0.75564  0.93529  0.32103  1.0000
  Fe  Fe364     1.0  0.90458  0.82289  0.57100  1.0000
  S   S726      1.0  0.87481  0.84076  0.56399  1.0000
  Fe  Fe365     1.0  0.93130  0.78200  0.57072  1.0000
  S   S727      1.0  0.93757  0.75330  0.55763  1.0000
  S   S728      1.0  0.92576  0.83566  0.58373  1.0000
  S   S729      1.0  0.95485  0.79132  0.58318  1.0000
  Fe  Fe366     1.0  0.88177  0.62610  0.55396  1.0000
  S   S730      1.0  0.89531  0.62099  0.58202  1.0000
  S   S731      1.0  0.85194  0.61588  0.55713  1.0000
  Fe  Fe367     1.0  0.91709  0.64449  0.52879  1.0000
  S   S732      1.0  0.93306  0.64078  0.55468  1.0000
  S   S733      1.0  0.93398  0.65805  0.49965  1.0000
  Fe  Fe368     1.0  0.92424  0.61045  0.56272  1.0000
  S   S734      1.0  0.94651  0.58192  0.56821  1.0000
  Fe  Fe369     1.0  0.90286  0.65202  0.57114  1.0000
  S   S735      1.0  0.89732  0.67580  0.59086  1.0000
  S   S736      1.0  0.91009  0.61332  0.53557  1.0000
  S   S737      1.0  0.88731  0.65795  0.54451  1.0000
  H   H5642     1.0  0.86436  0.79904  0.58405  1.0000
  N   N176      1.0  0.95084  0.59607  0.45468  1.0000
  Fe  Fe370     1.0  0.90237  0.52968  0.35153  1.0000
  S   S738      1.0  0.91092  0.55921  0.33544  1.0000
  S   S739      1.0  0.87118  0.52415  0.36675  1.0000
  Fe  Fe371     1.0  0.93688  0.55186  0.35253  1.0000
  S   S740      1.0  0.94332  0.57563  0.36829  1.0000
  C   C3163     1.0  0.75393  0.48830  0.55449  1.0000
  S   S741      1.0  0.92647  0.52373  0.37043  1.0000
  H   H5643     1.0  0.75988  0.96046  0.51288  1.0000
  C   C3164     1.0  0.75975  0.91802  0.36048  1.0000
  H   H5644     1.0  0.76833  0.93670  0.48914  1.0000
  H   H5645     1.0  0.84334  0.78678  0.59538  1.0000
  H   H5646     1.0  0.95212  0.60471  0.38820  1.0000
  H   H5647     1.0  0.90885  0.89583  0.32224  1.0000
  C   C3165     1.0  0.83598  0.97841  0.48185  1.0000
  H   H5648     1.0  0.85995  0.91394  0.51289  1.0000
  S   S742      1.0  0.76691  0.56914  0.43012  1.0000
  C   C3166     1.0  0.95593  0.83072  0.63290  1.0000
  H   H5649     1.0  0.81217  0.53121  0.54317  1.0000
  H   H5650     1.0  0.89787  0.92788  0.32898  1.0000
  C   C3167     1.0  0.87051  0.71808  0.54538  1.0000
  H   H5651     1.0  0.87353  0.95071  0.34882  1.0000
  C   C3168     1.0  0.86668  0.89512  0.55702  1.0000
  H   H5652     1.0  0.83811  0.77888  0.51238  1.0000
  C   C3169     1.0  0.93988  0.74745  0.63293  1.0000
  H   H5653     1.0  0.83591  0.81430  0.49374  1.0000
  H   H5654     1.0  0.95207  0.83100  0.51593  1.0000
  H   H5655     1.0  0.87271  0.71465  0.52997  1.0000
  H   H5656     1.0  0.82950  0.82313  0.51751  1.0000
  C   C3170     1.0  0.92557  0.73229  0.56688  1.0000
  C   C3171     1.0  0.93267  0.71509  0.55805  1.0000
  C   C3172     1.0  0.92388  0.69785  0.56506  1.0000
  C   C3173     1.0  0.90811  0.69754  0.58125  1.0000
  C   C3174     1.0  0.90086  0.71482  0.59000  1.0000
  C   C3175     1.0  0.90932  0.73228  0.58258  1.0000
  H   H5657     1.0  0.94511  0.71500  0.54581  1.0000
  H   H5658     1.0  0.92950  0.68467  0.55814  1.0000
  H   H5659     1.0  0.88845  0.71476  0.60233  1.0000
  H   H5660     1.0  0.90307  0.74572  0.58886  1.0000
  H   H5661     1.0  0.97797  0.73136  0.56432  1.0000
  H   H5662     1.0  0.89994  0.97940  0.52829  1.0000
  C   C3176     1.0  0.97327  0.56102  0.59216  1.0000
  C   C3177     1.0  0.96076  0.57927  0.58722  1.0000
  C   C3178     1.0  0.95949  0.59482  0.59777  1.0000
  C   C3179     1.0  0.90552  0.79148  0.51131  1.0000
  C   C3180     1.0  0.83454  0.96661  0.51756  1.0000
  H   H5663     1.0  0.87659  0.73942  0.56089  1.0000
  H   H5664     1.0  0.94983  0.60893  0.59409  1.0000
  H   H5665     1.0  0.78999  0.85162  0.42184  1.0000
  C   C3181     1.0  0.86007  0.85295  0.50030  1.0000
  C   C3182     1.0  0.87930  0.84381  0.50384  1.0000
  C   C3183     1.0  0.88412  0.84059  0.52315  1.0000
  C   C3184     1.0  0.86956  0.84577  0.53928  1.0000
  C   C3185     1.0  0.85038  0.85522  0.53571  1.0000
  C   C3186     1.0  0.84572  0.85908  0.51622  1.0000
  H   H5666     1.0  0.89056  0.83935  0.49151  1.0000
  H   H5667     1.0  0.89911  0.83409  0.52552  1.0000
  H   H5668     1.0  0.83905  0.85946  0.54808  1.0000
  H   H5669     1.0  0.83084  0.86610  0.51366  1.0000
  H   H5670     1.0  0.88892  0.98019  0.63980  1.0000
  H   H5671     1.0  0.78571  0.49920  0.56957  1.0000
  H   H5672     1.0  0.95536  0.83321  0.61705  1.0000
  H   H5673     1.0  0.92171  0.89857  0.34092  1.0000
  H   H5674     1.0  0.87616  0.89107  0.51653  1.0000
  C   C3187     1.0  0.79067  0.86002  0.40628  1.0000
  C   C3188     1.0  0.97248  0.81907  0.49177  1.0000
  H   H5675     1.0  0.85438  0.71971  0.55190  1.0000
  C   C3189     1.0  0.87607  0.90739  0.51185  1.0000
  H   H5676     1.0  0.77679  0.87916  0.37343  1.0000
  C   C3190     1.0  0.83076  0.94825  0.51506  1.0000
  C   C3191     1.0  0.83011  0.94478  0.49595  1.0000
  Fe  Fe372     1.0  0.94545  0.50835  0.34581  1.0000
  H   H5677     1.0  0.82862  0.93654  0.52789  1.0000
  H   H5678     1.0  0.82781  0.93038  0.49413  1.0000
  C   C3192     1.0  0.81530  0.94023  0.33432  1.0000
  C   C3193     1.0  0.82411  0.92043  0.33293  1.0000
  C   C3194     1.0  0.82764  0.90672  0.35032  1.0000
  C   C3195     1.0  0.82314  0.91278  0.36912  1.0000
  C   C3196     1.0  0.81399  0.93248  0.37064  1.0000
  H   H5679     1.0  0.78699  0.89729  0.38093  1.0000
  H   H5680     1.0  0.88127  0.95221  0.54317  1.0000
  H   H5681     1.0  0.83409  0.89136  0.34918  1.0000
  H   H5682     1.0  0.81043  0.93730  0.38508  1.0000
  C   C3197     1.0  0.77361  0.88988  0.38413  1.0000
  H   H5683     1.0  0.89482  0.73419  0.53917  1.0000
  H   H5684     1.0  0.79019  0.84956  0.39622  1.0000
  C   C3198     1.0  0.75921  0.54961  0.42222  1.0000
  C   C3199     1.0  0.85477  0.51853  0.35283  1.0000
  C   C3200     1.0  0.83680  0.51231  0.36299  1.0000
  C   C3201     1.0  0.82316  0.50824  0.35241  1.0000
  H   H5685     1.0  0.97438  0.54900  0.58401  1.0000
  S   S743      1.0  0.92069  0.51201  0.32832  1.0000
  C   C3202     1.0  0.80981  0.94612  0.35327  1.0000
  H   H5686     1.0  0.89761  0.80178  0.49982  1.0000
  H   H5687     1.0  0.87858  0.70521  0.55469  1.0000
  H   H5688     1.0  0.76902  0.98390  0.56855  1.0000
  C   C3203     1.0  0.83016  0.59310  0.50851  1.0000
  C   C3204     1.0  0.81779  0.59542  0.52686  1.0000
  C   C3205     1.0  0.82474  0.60232  0.54159  1.0000
  C   C3206     1.0  0.84405  0.60708  0.53812  1.0000
  C   C3207     1.0  0.85650  0.60459  0.51982  1.0000
  C   C3208     1.0  0.84958  0.59759  0.50512  1.0000
  H   H5689     1.0  0.80284  0.59203  0.52966  1.0000
  H   H5690     1.0  0.81502  0.60420  0.55569  1.0000
  H   H5691     1.0  0.87137  0.60819  0.51697  1.0000
  H   H5692     1.0  0.85924  0.59583  0.49097  1.0000
  C   C3209     1.0  0.88545  0.91114  0.48932  1.0000
  C   C3210     1.0  0.87858  0.89825  0.47742  1.0000
  H   H5693     1.0  0.88071  0.92703  0.48272  1.0000
  H   H5694     1.0  0.90199  0.90795  0.48730  1.0000
  H   H5695     1.0  0.88383  0.90276  0.46115  1.0000
  H   H5696     1.0  0.88494  0.88228  0.48176  1.0000
  H   H5697     1.0  0.93262  0.56514  0.62137  1.0000
  H   H5698     1.0  0.81319  0.80954  0.51049  1.0000
  C   C3211     1.0  0.75624  0.94305  0.41506  1.0000
  H   H5699     1.0  0.91122  0.87931  0.51176  1.0000
  C   C3212     1.0  0.98297  0.57368  0.61836  1.0000
  H   H5700     1.0  0.83642  0.90664  0.57068  1.0000
  H   H5701     1.0  0.91808  0.85846  0.32956  1.0000
  H   H5702     1.0  0.95263  0.69725  0.62660  1.0000
  S   S744      1.0  0.76237  0.51519  0.52067  1.0000
  H   H5703     1.0  0.85158  0.75663  0.53948  1.0000
  H   H5704     1.0  0.89714  0.59992  0.41974  1.0000
  H   H5705     1.0  0.94146  0.65913  0.45203  1.0000
  H   H5706     1.0  0.80292  0.96142  0.35442  1.0000
  H   H5707     1.0  0.93691  0.70585  0.64855  1.0000
  H   H5708     1.0  0.84126  0.54273  0.48465  1.0000
  C   C3213     1.0  0.92131  0.57401  0.50647  1.0000
  C   C3214     1.0  0.92622  0.86847  0.33429  1.0000
  H   H5709     1.0  0.89734  0.76489  0.50573  1.0000
  H   H5710     1.0  0.95645  0.75875  0.47635  1.0000
  H   H5711     1.0  0.92197  0.72729  0.62584  1.0000
  H   H5712     1.0  0.76984  0.55971  0.39097  1.0000
  H   H5713     1.0  0.93945  0.76386  0.62822  1.0000
  H   H5714     1.0  0.95396  0.88031  0.32288  1.0000
  Fe  Fe373     1.0  0.74522  0.59162  0.49797  1.0000
  H   H5715     1.0  0.78427  0.52938  0.58405  1.0000
  S   S745      1.0  0.76646  0.57369  0.51861  1.0000
  H   H5716     1.0  0.90549  0.57693  0.51395  1.0000
  H   H5717     1.0  0.89757  0.93841  0.50240  1.0000
  H   H5718     1.0  0.76047  0.96278  0.56328  1.0000
  H   H5719     1.0  0.77549  0.89493  0.34237  1.0000
  C   C3215     1.0  0.85799  0.78528  0.58525  1.0000
  H   H5720     1.0  0.91427  0.58219  0.47698  1.0000
  N   N177      1.0  0.96045  0.73630  0.62584  1.0000
  C   C3216     1.0  0.96746  0.82565  0.51030  1.0000
  N   N178      1.0  0.83662  0.56371  0.42337  1.0000
  C   C3217     1.0  0.85522  0.55785  0.40869  1.0000
  C   C3218     1.0  0.82045  0.55213  0.42265  1.0000
  C   C3219     1.0  0.82903  0.58566  0.41689  1.0000
  C   C3220     1.0  0.84070  0.56093  0.44448  1.0000
  C   C3221     1.0  0.85100  0.53990  0.45316  1.0000
  C   C3222     1.0  0.87289  0.56894  0.40732  1.0000
  C   C3223     1.0  0.81013  0.59482  0.43049  1.0000
  C   C3224     1.0  0.82725  0.53076  0.41731  1.0000
  C   C3225     1.0  0.80949  0.52012  0.41942  1.0000
  C   C3226     1.0  0.85540  0.53951  0.47405  1.0000
  C   C3227     1.0  0.89162  0.55939  0.39455  1.0000
  C   C3228     1.0  0.79994  0.61459  0.41975  1.0000
  H   H5721     1.0  0.85151  0.56023  0.39330  1.0000
  H   H5722     1.0  0.86113  0.54163  0.41208  1.0000
  H   H5723     1.0  0.80989  0.55090  0.43713  1.0000
  H   H5724     1.0  0.81099  0.56033  0.41129  1.0000
  H   H5725     1.0  0.82607  0.58827  0.40120  1.0000
  H   H5726     1.0  0.84039  0.59494  0.41668  1.0000
  H   H5727     1.0  0.84958  0.57215  0.44583  1.0000
  H   H5728     1.0  0.82649  0.56414  0.45502  1.0000
  H   H5729     1.0  0.86539  0.53520  0.44358  1.0000
  H   H5730     1.0  0.84102  0.52885  0.45482  1.0000
  H   H5731     1.0  0.86947  0.58478  0.40007  1.0000
  H   H5732     1.0  0.87654  0.56843  0.42232  1.0000
  H   H5733     1.0  0.81433  0.59778  0.44418  1.0000
  H   H5734     1.0  0.79909  0.58464  0.43540  1.0000
  H   H5735     1.0  0.83491  0.53170  0.40149  1.0000
  H   H5736     1.0  0.83770  0.52128  0.42689  1.0000
  C   C3229     1.0  0.96522  0.71719  0.64024  1.0000
  H   H5737     1.0  0.81491  0.50456  0.41657  1.0000
  H   H5738     1.0  0.85318  0.94133  0.34328  1.0000
  C   C3230     1.0  0.97484  0.75696  0.64545  1.0000
  H   H5739     1.0  0.86334  0.52446  0.47972  1.0000
  H   H5740     1.0  0.86490  0.55076  0.47364  1.0000
  H   H5741     1.0  0.90387  0.56800  0.39296  1.0000
  H   H5742     1.0  0.89658  0.54378  0.40171  1.0000
  H   H5743     1.0  0.88871  0.55933  0.37934  1.0000
  H   H5744     1.0  0.81046  0.62546  0.41476  1.0000
  H   H5745     1.0  0.79443  0.61208  0.40659  1.0000
  H   H5746     1.0  0.78694  0.62106  0.43015  1.0000
  H   H5747     1.0  0.81102  0.52659  0.57996  1.0000
  H   H5748     1.0  0.86454  0.96789  0.58939  1.0000
  H   H5749     1.0  0.79266  0.50699  0.61556  1.0000
  H   H5750     1.0  0.97041  0.70756  0.57582  1.0000
  H   H5751     1.0  0.90394  0.50718  0.61912  1.0000
  H   H5752     1.0  0.84120  0.96895  0.60651  1.0000
  H   H5753     1.0  0.95148  0.62815  0.42341  1.0000
  H   H5754     1.0  0.78193  0.92776  0.32228  1.0000
  C   C3231     1.0  0.94187  0.72584  0.49904  1.0000
  C   C3232     1.0  0.92554  0.71284  0.50493  1.0000
  H   H5755     1.0  0.94987  0.56752  0.47442  1.0000
  C   C3233     1.0  0.85043  0.89768  0.57533  1.0000
  H   H5756     1.0  0.79012  0.94049  0.49714  1.0000
  H   H5757     1.0  0.75002  0.59657  0.37170  1.0000
  H   H5758     1.0  0.88644  0.76946  0.55806  1.0000
  H   H5759     1.0  0.85164  0.85990  0.33796  1.0000
  C   C3234     1.0  0.86717  0.96821  0.62011  1.0000
  H   H5760     1.0  0.80501  0.86572  0.40184  1.0000
  C   C3235     1.0  0.76292  0.90769  0.34187  1.0000
  C   C3236     1.0  0.97248  0.64876  0.48047  1.0000
  C   C3237     1.0  0.74882  0.91803  0.39657  1.0000
  H   H5761     1.0  0.86813  0.75169  0.51736  1.0000
  H   H5762     1.0  0.94982  0.62116  0.46915  1.0000
  H   H5763     1.0  0.74381  0.61495  0.43221  1.0000
  H   H5764     1.0  0.86838  0.79172  0.50138  1.0000
  H   H5765     1.0  0.76865  0.94041  0.38464  1.0000
  H   H5766     1.0  0.90155  0.76878  0.63587  1.0000
  H   H5767     1.0  0.93881  0.73626  0.50996  1.0000
  H   H5768     1.0  0.94030  0.73431  0.48387  1.0000
  H   H5769     1.0  0.92715  0.70281  0.49381  1.0000
  H   H5770     1.0  0.92623  0.70355  0.51998  1.0000
  H   H5771     1.0  0.91064  0.72248  0.50533  1.0000
  C   C3238     1.0  0.93041  0.87198  0.53385  1.0000
  C   C3239     1.0  0.82906  0.81070  0.50975  1.0000
  H   H5772     1.0  0.80924  0.50389  0.36046  1.0000
  H   H5773     1.0  0.86419  0.80646  0.52058  1.0000
  C   C3240     1.0  0.96644  0.58022  0.37262  1.0000
  H   H5774     1.0  0.94091  0.60778  0.32301  1.0000
  C   C3241     1.0  0.86873  0.94390  0.33773  1.0000
  C   C3242     1.0  0.90993  0.58800  0.63262  1.0000
  C   C3243     1.0  0.73917  0.49675  0.58726  1.0000
  C   C3244     1.0  0.79802  0.53563  0.55330  1.0000
  H   H5775     1.0  0.91826  0.60268  0.48762  1.0000
  H   H5776     1.0  0.89809  0.93652  0.63573  1.0000
  H   H5777     1.0  0.84515  0.79639  0.55879  1.0000
  H   H5778     1.0  0.88329  0.96216  0.61720  1.0000
  H   H5779     1.0  0.96270  0.70220  0.51317  1.0000
  H   H5780     1.0  0.84730  0.88272  0.58332  1.0000
  C   C3245     1.0  0.98694  0.88149  0.54425  1.0000
  H   H5781     1.0  0.94810  0.61781  0.51759  1.0000
  H   H5782     1.0  0.87998  0.88560  0.56260  1.0000
  C   C3246     1.0  0.76454  0.93011  0.39876  1.0000
  H   H5783     1.0  0.84775  0.76951  0.56679  1.0000
  C   C3247     1.0  0.83260  0.95985  0.47930  1.0000
  C   C3248     1.0  0.95315  0.59655  0.31671  1.0000
  H   H5784     1.0  0.87858  0.92121  0.55632  1.0000
  H   H5785     1.0  0.93058  0.87421  0.54928  1.0000
  S   S746      1.0  0.97613  0.83324  0.54467  1.0000
  C   C3249     1.0  0.94452  0.61796  0.45619  1.0000
  H   H5786     1.0  0.95076  0.72389  0.60353  1.0000
  H   H5787     1.0  0.92485  0.65457  0.43696  1.0000
  H   H5788     1.0  0.83332  0.51068  0.37912  1.0000
  C   C3250     1.0  0.97058  0.59201  0.61332  1.0000
  S   S747      1.0  0.76984  0.59762  0.47209  1.0000
  C   C3251     1.0  0.75307  0.50864  0.54627  1.0000
  C   C3252     1.0  0.89302  0.94983  0.52994  1.0000
  H   H5789     1.0  0.85533  0.90517  0.58582  1.0000
  H   H5790     1.0  0.92540  0.55786  0.50535  1.0000
  H   H5791     1.0  0.97049  0.66380  0.47206  1.0000
  H   H5792     1.0  0.89881  0.87396  0.53701  1.0000
  N   N179      1.0  0.90687  0.53855  0.61433  1.0000
  C   C3253     1.0  0.92820  0.53497  0.60363  1.0000
  C   C3254     1.0  0.97547  0.74948  0.62551  1.0000
  C   C3255     1.0  0.87539  0.87800  0.32792  1.0000
  C   C3256     1.0  0.89219  0.54403  0.59987  1.0000
  C   C3257     1.0  0.89531  0.56198  0.58276  1.0000
  C   C3258     1.0  0.93379  0.51782  0.59103  1.0000
  H   H5793     1.0  0.76721  0.95252  0.41552  1.0000
  C   C3259     1.0  0.91679  0.57134  0.62000  1.0000
  C   C3260     1.0  0.94584  0.81637  0.64599  1.0000
  C   C3261     1.0  0.88060  0.56477  0.56827  1.0000
  C   C3262     1.0  0.76791  0.92228  0.32251  1.0000
  C   C3263     1.0  0.73829  0.89388  0.38122  1.0000
  H   H5794     1.0  0.93856  0.53177  0.61467  1.0000
  H   H5795     1.0  0.93217  0.54864  0.59348  1.0000
  N   N180      1.0  0.80242  0.48685  0.59389  1.0000
  H   H5796     1.0  0.74865  0.63533  0.45636  1.0000
  H   H5797     1.0  0.74214  0.95306  0.41195  1.0000
  H   H5798     1.0  0.87292  0.52504  0.32389  1.0000
  H   H5799     1.0  0.89187  0.53092  0.59299  1.0000
  H   H5800     1.0  0.87675  0.54788  0.60801  1.0000
  H   H5801     1.0  0.91049  0.55993  0.57375  1.0000
  H   H5802     1.0  0.89255  0.57600  0.58900  1.0000
  Fe  Fe374     1.0  0.76255  0.54743  0.50600  1.0000
  H   H5803     1.0  0.92335  0.51961  0.58036  1.0000
  H   H5804     1.0  0.88180  0.97880  0.51323  1.0000
  H   H5805     1.0  0.97354  0.76291  0.61364  1.0000
  H   H5806     1.0  0.86900  0.95463  0.32340  1.0000
  H   H5807     1.0  0.91618  0.57821  0.60422  1.0000
  C   C3264     1.0  0.98256  0.72148  0.59532  1.0000
  C   C3265     1.0  0.98406  0.59980  0.38715  1.0000
  H   H5808     1.0  0.91973  0.59953  0.62723  1.0000
  H   H5809     1.0  0.88333  0.57762  0.55610  1.0000
  H   H5810     1.0  0.88253  0.55123  0.56132  1.0000
  H   H5811     1.0  0.86497  0.56809  0.57612  1.0000
  C   C3266     1.0  0.95978  0.62289  0.50608  1.0000
  S   S748      1.0  0.95752  0.53596  0.32890  1.0000
  C   C3267     1.0  0.74637  0.51934  0.40851  1.0000
  H   H5812     1.0  0.87011  0.52305  0.63292  1.0000
  H   H5813     1.0  0.74314  0.65029  0.43304  1.0000
  H   H5814     1.0  0.73981  0.63134  0.39564  1.0000
  N   N181      1.0  0.89387  0.88782  0.35283  1.0000
  C   C3268     1.0  0.91254  0.88875  0.33725  1.0000
  C   C3269     1.0  0.88207  0.90867  0.35399  1.0000
  C   C3270     1.0  0.90026  0.87938  0.37296  1.0000
  C   C3271     1.0  0.88113  0.87418  0.34904  1.0000
  H   H5815     1.0  0.97872  0.59427  0.50917  1.0000
  H   H5816     1.0  0.78482  0.95211  0.47238  1.0000
  C   C3272     1.0  0.88321  0.87889  0.39148  1.0000
  H   H5817     1.0  0.81201  0.49684  0.56212  1.0000
  H   H5818     1.0  0.97420  0.85324  0.63013  1.0000
  C   C3273     1.0  0.96212  0.73260  0.60467  1.0000
  H   H5819     1.0  0.98125  0.55230  0.54596  1.0000
  C   C3274     1.0  0.89160  0.87094  0.41094  1.0000
  H   H5820     1.0  0.97146  0.87911  0.54483  1.0000
  C   C3275     1.0  0.73836  0.51711  0.57913  1.0000
  H   H5821     1.0  0.86615  0.90793  0.36050  1.0000
  H   H5822     1.0  0.88752  0.91576  0.36452  1.0000
  H   H5823     1.0  0.91118  0.88798  0.37558  1.0000
  H   H5824     1.0  0.90809  0.86366  0.37337  1.0000
  H   H5825     1.0  0.88852  0.85828  0.35212  1.0000
  H   H5826     1.0  0.86677  0.87509  0.35975  1.0000
  H   H5827     1.0  0.77827  0.92005  0.40273  1.0000
  H   H5828     1.0  0.96419  0.70336  0.48696  1.0000
  H   H5829     1.0  0.93196  0.86072  0.34818  1.0000
  S   S749      1.0  0.75672  0.90842  0.47108  1.0000
  H   H5830     1.0  0.87290  0.86888  0.39064  1.0000
  H   H5831     1.0  0.87439  0.89400  0.39270  1.0000
  H   H5832     1.0  0.77372  0.92403  0.35946  1.0000
  H   H5833     1.0  0.75960  0.87287  0.45377  1.0000
  H   H5834     1.0  0.87812  0.91877  0.32226  1.0000
  H   H5835     1.0  0.87505  0.84701  0.32601  1.0000
  H   H5836     1.0  0.96093  0.81915  0.48334  1.0000
  H   H5837     1.0  0.95500  0.58660  0.48553  1.0000
  C   C3276     1.0  0.98238  0.82562  0.52119  1.0000
  H   H5838     1.0  0.93365  0.50303  0.60089  1.0000
  S   S750      1.0  0.93194  0.80200  0.63726  1.0000
  H   H5839     1.0  0.78534  0.53330  0.54699  1.0000
  C   C3277     1.0  0.83708  0.98176  0.50096  1.0000
  H   H5840     1.0  0.90106  0.88113  0.41331  1.0000
  H   H5841     1.0  0.87912  0.86997  0.42384  1.0000
  H   H5842     1.0  0.90053  0.85572  0.41064  1.0000
  H   H5843     1.0  0.93624  0.77672  0.51264  1.0000
  H   H5844     1.0  0.75890  0.53284  0.37898  1.0000
  C   C3278     1.0  0.74506  0.91287  0.52760  1.0000
  C   C3279     1.0  0.87864  0.73707  0.54514  1.0000
  H   H5845     1.0  0.75740  0.90586  0.51690  1.0000
  C   C3280     1.0  0.76240  0.54872  0.40167  1.0000
  H   H5846     1.0  0.90719  0.94225  0.53518  1.0000
  C   C3281     1.0  0.94586  0.58376  0.47517  1.0000
  C   C3282     1.0  0.95480  0.51744  0.57882  1.0000
  C   C3283     1.0  0.82737  0.51026  0.33149  1.0000
  C   C3284     1.0  0.88260  0.92427  0.33434  1.0000
  H   H5847     1.0  0.86803  0.77212  0.59198  1.0000
  C   C3285     1.0  0.96621  0.59568  0.38321  1.0000
  C   C3286     1.0  0.85514  0.78272  0.56462  1.0000
  H   H5848     1.0  0.88049  0.79502  0.54803  1.0000
  H   H5849     1.0  0.90639  0.76198  0.52870  1.0000
  C   C3287     1.0  0.84006  0.79100  0.51983  1.0000
  C   C3288     1.0  0.95235  0.63279  0.43762  1.0000
  C   C3289     1.0  0.85915  0.52027  0.33192  1.0000
  Fe  Fe375     1.0  0.75003  0.49174  0.37003  1.0000
  H   H5850     1.0  0.94732  0.66439  0.42505  1.0000
  H   H5851     1.0  0.90763  0.54764  0.64248  1.0000
  C   C3290     1.0  0.92736  0.78673  0.50171  1.0000
  C   C3291     1.0  0.75628  0.53347  0.39484  1.0000
  H   H5852     1.0  0.92178  0.61678  0.42747  1.0000
  H   H5853     1.0  0.86202  0.90008  0.48006  1.0000
  H   H5854     1.0  0.90995  0.90677  0.54227  1.0000
  H   H5855     1.0  0.85760  0.92600  0.54395  1.0000
  H   H5856     1.0  0.92855  0.77965  0.48840  1.0000
  N   N182      1.0  0.87498  0.77496  0.53014  1.0000
  C   C3292     1.0  0.86751  0.75544  0.53245  1.0000
  C   C3293     1.0  0.86265  0.79161  0.51769  1.0000
  C   C3294     1.0  0.89625  0.77216  0.51901  1.0000
  C   C3295     1.0  0.87529  0.78045  0.55013  1.0000
  C   C3296     1.0  0.91048  0.88187  0.52728  1.0000
  H   H5857     1.0  0.87213  0.94537  0.51261  1.0000
  C   C3297     1.0  0.89589  0.97063  0.51836  1.0000
  C   C3298     1.0  0.78059  0.97701  0.53847  1.0000
  H   H5858     1.0  0.86104  0.88728  0.54746  1.0000
  N   N183      1.0  0.88544  0.91573  0.52561  1.0000
  C   C3299     1.0  0.88672  0.93737  0.51668  1.0000
  H   H5859     1.0  0.91763  0.91113  0.51600  1.0000
  C   C3300     1.0  0.90621  0.90466  0.52798  1.0000
  H   H5860     1.0  0.93261  0.85565  0.53394  1.0000
  H   H5861     1.0  0.90968  0.95246  0.64606  1.0000
  H   H5862     1.0  0.94298  0.87808  0.52338  1.0000
  C   C3301     1.0  0.87188  0.91556  0.54571  1.0000
  C   C3302     1.0  0.92379  0.58689  0.48563  1.0000
  N   N184      1.0  0.75510  0.90498  0.38060  1.0000
  H   H5863     1.0  0.95873  0.74710  0.59452  1.0000
  C   C3303     1.0  0.94072  0.65400  0.43799  1.0000
  H   H5864     1.0  0.98360  0.61189  0.39507  1.0000
  H   H5865     1.0  0.93084  0.57763  0.51593  1.0000
  C   C3304     1.0  0.86465  0.86151  0.32574  1.0000
  H   H5866     1.0  0.90993  0.60269  0.44964  1.0000
  H   H5867     1.0  0.94078  0.57358  0.44325  1.0000
  H   H5868     1.0  0.90960  0.57584  0.43046  1.0000
  H   H5869     1.0  0.95138  0.59143  0.42441  1.0000
  H   H5870     1.0  0.92805  0.62209  0.45959  1.0000
  C   C3305     1.0  0.91182  0.59111  0.42268  1.0000
  H   H5871     1.0  0.82813  0.91568  0.31844  1.0000
  C   C3306     1.0  0.92067  0.60138  0.43559  1.0000
  H   H5872     1.0  0.95567  0.53160  0.56798  1.0000
  H   H5873     1.0  0.92183  0.59004  0.40805  1.0000
  C   C3307     1.0  0.94161  0.58984  0.43935  1.0000
  S   S751      1.0  0.83774  0.96943  0.54129  1.0000
  C   C3308     1.0  0.77304  0.87726  0.40544  1.0000
  H   H5874     1.0  0.74403  0.90906  0.41146  1.0000
  C   C3309     1.0  0.74518  0.88207  0.45245  1.0000
  H   H5875     1.0  0.96821  0.63337  0.43765  1.0000
  C   C3310     1.0  0.79960  0.50083  0.57438  1.0000
  H   H5876     1.0  0.84185  0.96971  0.64326  1.0000
  H   H5877     1.0  0.98614  0.89480  0.55122  1.0000
  C   C3311     1.0  0.74022  0.90035  0.45937  1.0000
  H   H5878     1.0  0.88285  0.48764  0.64685  1.0000
  H   H5879     1.0  0.77363  0.88672  0.41642  1.0000
  H   H5880     1.0  0.74797  0.93151  0.35871  1.0000
  H   H5881     1.0  0.96948  0.60403  0.62155  1.0000
  C   C3312     1.0  0.76593  0.96583  0.49704  1.0000
  H   H5882     1.0  0.98056  0.61652  0.54186  1.0000
  H   H5883     1.0  0.88861  0.87825  0.31588  1.0000
  C   C3313     1.0  0.74967  0.53526  0.43594  1.0000
  C   C3314     1.0  0.98435  0.55819  0.60770  1.0000
  S   S752      1.0  0.83129  0.95593  0.45531  1.0000
  C   C3315     1.0  0.78723  0.49502  0.61060  1.0000
  H   H5884     1.0  0.80052  0.51960  0.43473  1.0000
  C   C3316     1.0  0.77340  0.97068  0.56085  1.0000
  H   H5885     1.0  0.85890  0.94574  0.60666  1.0000
  H   H5886     1.0  0.96596  0.51531  0.58887  1.0000
  H   H5887     1.0  0.97589  0.56290  0.43945  1.0000
  C   C3317     1.0  0.95251  0.70087  0.64153  1.0000
  C   C3318     1.0  0.85728  0.96081  0.64193  1.0000
  H   H5888     1.0  0.78570  0.96042  0.56764  1.0000
  C   C3319     1.0  0.97331  0.59219  0.44868  1.0000
  H   H5889     1.0  0.95851  0.50482  0.57029  1.0000
  H   H5890     1.0  0.79382  0.98421  0.53691  1.0000
  C   C3320     1.0  0.77812  0.94773  0.48832  1.0000
  H   H5891     1.0  0.74317  0.88228  0.37139  1.0000
  S   S753      1.0  0.73928  0.56486  0.48772  1.0000
  H   H5892     1.0  0.75339  0.93348  0.42994  1.0000
  H   H5893     1.0  0.74918  0.92672  0.53016  1.0000
  C   C3321     1.0  0.84549  0.51620  0.32132  1.0000
  H   H5894     1.0  0.97435  0.72752  0.52583  1.0000
  H   H5895     1.0  0.98542  0.55722  0.35750  1.0000
  H   H5896     1.0  0.95347  0.85700  0.31532  1.0000
  H   H5897     1.0  0.82583  0.50110  0.59832  1.0000
  H   H5898     1.0  0.96508  0.74865  0.50941  1.0000
  H   H5899     1.0  0.98314  0.75974  0.53715  1.0000
  H   H5900     1.0  0.74932  0.90211  0.34090  1.0000
  H   H5901     1.0  0.90799  0.96953  0.50518  1.0000
  C   C3322     1.0  0.97804  0.73639  0.51061  1.0000
  C   C3323     1.0  0.88231  0.51993  0.64187  1.0000
  C   C3324     1.0  0.85731  0.96227  0.60481  1.0000
  H   H5902     1.0  0.79986  0.52795  0.40824  1.0000
  H   H5903     1.0  0.95527  0.50191  0.62843  1.0000
  H   H5904     1.0  0.79358  0.97511  0.49918  1.0000
  C   C3325     1.0  0.98488  0.56910  0.36574  1.0000
  C   C3326     1.0  0.75388  0.60833  0.37835  1.0000
  Fe  Fe376     1.0  0.78284  0.49232  0.33374  1.0000
  H   H5905     1.0  0.97303  0.65278  0.54149  1.0000
  H   H5906     1.0  0.79638  0.55183  0.55378  1.0000
  H   H5907     1.0  0.92302  0.75061  0.60896  1.0000
  H   H5908     1.0  0.76456  0.60115  0.38877  1.0000
  C   C3327     1.0  0.97741  0.60958  0.50152  1.0000
  C   C3328     1.0  0.79823  0.52354  0.57443  1.0000
  C   C3329     1.0  0.92206  0.74341  0.62491  1.0000
  C   C3330     1.0  0.76873  0.49035  0.64662  1.0000
  H   H5909     1.0  0.76133  0.61877  0.36611  1.0000
  C   C3331     1.0  0.90296  0.51922  0.62795  1.0000
  H   H5910     1.0  0.88799  0.56167  0.62999  1.0000
  C   C3332     1.0  0.97255  0.75746  0.47064  1.0000
  H   H5911     1.0  0.97787  0.60038  0.43333  1.0000
  H   H5912     1.0  0.89437  0.59532  0.63118  1.0000
  H   H5913     1.0  0.75940  0.87046  0.41023  1.0000
  C   C3333     1.0  0.98175  0.71718  0.57467  1.0000
  C   C3334     1.0  0.90397  0.55449  0.62733  1.0000
  C   C3335     1.0  0.96286  0.71277  0.49863  1.0000
  C   C3336     1.0  0.97526  0.76698  0.44853  1.0000
  H   H5914     1.0  0.77306  0.50232  0.60502  1.0000
  C   C3337     1.0  0.96661  0.84206  0.64037  1.0000
  H   H5915     1.0  0.86505  0.89235  0.32550  1.0000
  H   H5916     1.0  0.96682  0.78251  0.44686  1.0000
  H   H5917     1.0  0.97862  0.76668  0.47855  1.0000
  H   H5918     1.0  0.91470  0.51383  0.63761  1.0000
  H   H5919     1.0  0.75519  0.50041  0.64202  1.0000
  C   C3338     1.0  0.94443  0.87169  0.31808  1.0000
  H   H5920     1.0  0.78530  0.96316  0.53180  1.0000
  H   H5921     1.0  0.96970  0.75837  0.43952  1.0000
  N   N185      1.0  0.98053  0.72354  0.49473  1.0000
  H   H5922     1.0  0.74341  0.90221  0.54196  1.0000
  H   H5923     1.0  0.98045  0.77598  0.51351  1.0000
  H   H5924     1.0  0.98147  0.49964  0.31821  1.0000
  H   H5925     1.0  0.94828  0.58173  0.32036  1.0000
  H   H5926     1.0  0.74719  0.53578  0.45180  1.0000
  H   H5927     1.0  0.98279  0.78610  0.63140  1.0000
  H   H5928     1.0  0.75324  0.97164  0.48874  1.0000
  C   C3339     1.0  0.98580  0.48818  0.62958  1.0000
  C   C3340     1.0  0.90213  0.75254  0.63627  1.0000
  H   H5929     1.0  0.88974  0.75069  0.62921  1.0000
  C   C3341     1.0  0.77884  0.98224  0.49491  1.0000
  H   H5930     1.0  0.96624  0.59546  0.32409  1.0000
  C   C3342     1.0  0.96529  0.48809  0.63178  1.0000
  H   H5931     1.0  0.98219  0.56139  0.46392  1.0000
  H   H5932     1.0  0.97865  0.72757  0.46317  1.0000
  C   C3343     1.0  0.98315  0.56999  0.44845  1.0000
  H   H5933     1.0  0.98127  0.71056  0.63678  1.0000
  C   C3344     1.0  0.74304  0.52035  0.42906  1.0000
  H   H5934     1.0  0.74466  0.53879  0.55234  1.0000
  C   C3345     1.0  0.74529  0.52308  0.55861  1.0000
  C   C3346     1.0  0.82346  0.48604  0.59710  1.0000
  H   H5935     1.0  0.94870  0.53000  0.64848  1.0000
  H   H5936     1.0  0.98051  0.59811  0.45876  1.0000
  C   C3347     1.0  0.98330  0.73535  0.47365  1.0000
  H   H5937     1.0  0.97587  0.67534  0.64805  1.0000
  H   H5938     1.0  0.92908  0.91844  0.64745  1.0000
  H   H5939     1.0  0.85678  0.48457  0.61423  1.0000
  H   H5940     1.0  0.98691  0.70691  0.60482  1.0000
  H   H5941     1.0  0.85985  0.94160  0.77305  1.0000
  C   C3348     1.0  0.88083  0.49984  0.65573  1.0000
  C   C3349     1.0  0.76294  0.98324  0.81707  1.0000
  C   C3350     1.0  0.87636  0.67541  0.93281  1.0000
  S   S754      1.0  0.76703  0.95491  0.85120  1.0000
  H   H5942     1.0  0.86949  0.88690  0.78820  1.0000
  H   H5943     1.0  0.93855  0.50127  0.74409  1.0000
  C   C3351     1.0  0.96213  0.69519  0.93595  1.0000
  H   H5944     1.0  0.95678  0.64280  0.94241  1.0000
  C   C3352     1.0  0.88178  0.94396  0.66462  1.0000
  H   H5945     1.0  0.87502  0.57117  0.94666  1.0000
  C   C3353     1.0  0.94753  0.70827  0.92625  1.0000
  H   H5946     1.0  0.91623  0.49090  0.69302  1.0000
  H   H5947     1.0  0.85791  0.96652  0.68998  1.0000
  N   N186      1.0  0.80976  0.50630  0.87165  1.0000
  C   C3354     1.0  0.93599  0.49614  0.92056  1.0000
  S   S755      1.0  0.96304  0.84711  0.73086  1.0000
  H   H5948     1.0  0.77812  0.49914  0.65138  1.0000
  C   C3355     1.0  0.81650  0.88065  0.82828  1.0000
  C   C3356     1.0  0.84940  0.90902  0.77019  1.0000
  H   H5949     1.0  0.86739  0.66514  0.92976  1.0000
  C   C3357     1.0  0.84509  0.63683  0.98017  1.0000
  S   S756      1.0  0.95377  0.89756  0.75491  1.0000
  C   C3358     1.0  0.94560  0.51539  0.91480  1.0000
  S   S757      1.0  0.87478  0.94539  0.72462  1.0000
  Fe  Fe377     1.0  0.82358  0.57105  0.94732  1.0000
  S   S758      1.0  0.82566  0.56127  0.91773  1.0000
  S   S759      1.0  0.83228  0.60148  0.94564  1.0000
  Fe  Fe378     1.0  0.81002  0.53237  0.96994  1.0000
  S   S760      1.0  0.81169  0.51922  0.94231  1.0000
  H   H5950     1.0  0.97743  0.69282  0.92842  1.0000
  Fe  Fe379     1.0  0.84049  0.53137  0.93196  1.0000
  S   S761      1.0  0.87017  0.51767  0.91526  1.0000
  Fe  Fe380     1.0  0.79666  0.55005  0.93044  1.0000
  S   S762      1.0  0.77162  0.55668  0.91203  1.0000
  S   S763      1.0  0.84011  0.54176  0.96086  1.0000
  S   S764      1.0  0.79315  0.56254  0.95877  1.0000
  H   H5951     1.0  0.82719  0.88214  0.79676  1.0000
  H   H5952     1.0  0.79554  0.94716  0.74986  1.0000
  H   H5953     1.0  0.83385  0.51861  0.85097  1.0000
  C   C3359     1.0  0.89979  0.55633  0.92717  1.0000
  C   C3360     1.0  0.81183  0.49050  0.85880  1.0000
  H   H5954     1.0  0.92899  0.56087  0.87009  1.0000
  C   C3361     1.0  0.90135  0.93976  0.64967  1.0000
  H   H5955     1.0  0.76684  0.51857  0.93809  1.0000
  H   H5956     1.0  0.96475  0.70990  0.82170  1.0000
  H   H5957     1.0  0.94135  0.49876  0.67093  1.0000
  H   H5958     1.0  0.76739  0.54944  0.84184  1.0000
  C   C3362     1.0  0.87727  0.88231  0.75770  1.0000
  H   H5959     1.0  0.80688  0.95840  0.83073  1.0000
  H   H5960     1.0  0.90566  0.61608  0.94275  1.0000
  C   C3363     1.0  0.90208  0.63107  0.98107  1.0000
  C   C3364     1.0  0.95255  0.50415  0.69709  1.0000
  C   C3365     1.0  0.93261  0.91125  0.74516  1.0000
  C   C3366     1.0  0.92299  0.92893  0.75228  1.0000
  C   C3367     1.0  0.90572  0.93995  0.74531  1.0000
  C   C3368     1.0  0.89760  0.93294  0.73169  1.0000
  C   C3369     1.0  0.90732  0.91541  0.72432  1.0000
  C   C3370     1.0  0.92493  0.90464  0.73092  1.0000
  H   H5961     1.0  0.92885  0.93398  0.76334  1.0000
  H   H5962     1.0  0.89845  0.95364  0.75076  1.0000
  H   H5963     1.0  0.90116  0.91003  0.71364  1.0000
  H   H5964     1.0  0.93231  0.89102  0.72534  1.0000
  Fe  Fe381     1.0  0.98595  0.71312  0.88764  1.0000
  H   H5965     1.0  0.88085  0.61900  0.89792  1.0000
  H   H5966     1.0  0.86968  0.70412  0.94337  1.0000
  C   C3371     1.0  0.95847  0.64394  0.92592  1.0000
  H   H5967     1.0  0.83153  0.94607  0.74925  1.0000
  C   C3372     1.0  0.95755  0.82463  0.67402  1.0000
  H   H5968     1.0  0.84157  0.94962  0.79324  1.0000
  H   H5969     1.0  0.81119  0.92237  0.77595  1.0000
  H   H5970     1.0  0.93912  0.80221  0.67679  1.0000
  H   H5971     1.0  0.95804  0.82224  0.68989  1.0000
  C   C3373     1.0  0.87947  0.94513  0.80153  1.0000
  C   C3374     1.0  0.93723  0.68842  0.96563  1.0000
  C   C3375     1.0  0.95696  0.68518  0.95554  1.0000
  H   H5972     1.0  0.88560  0.68141  0.91868  1.0000
  C   C3376     1.0  0.85142  0.93620  0.78806  1.0000
  H   H5973     1.0  0.86530  0.62455  0.92101  1.0000
  C   C3377     1.0  0.92263  0.70166  0.95605  1.0000
  H   H5974     1.0  0.95680  0.83552  0.78773  1.0000
  H   H5975     1.0  0.98210  0.81030  0.87306  1.0000
  H   H5976     1.0  0.88118  0.90628  0.77094  1.0000
  H   H5977     1.0  0.79755  0.48506  0.86036  1.0000
  H   H5978     1.0  0.83854  0.63987  0.95034  1.0000
  C   C3378     1.0  0.78734  0.48713  0.90102  1.0000
  H   H5979     1.0  0.98068  0.49519  0.75429  1.0000
  H   H5980     1.0  0.87739  0.89087  0.74225  1.0000
  H   H5981     1.0  0.97096  0.96928  0.71265  1.0000
  N   N187      1.0  0.96444  0.98190  0.75046  1.0000
  H   H5982     1.0  0.80953  0.93883  0.79319  1.0000
  H   H5983     1.0  0.95958  0.76381  0.65176  1.0000
  C   C3379     1.0  0.81945  0.93261  0.78023  1.0000
  H   H5984     1.0  0.95816  0.51464  0.73049  1.0000
  S   S765      1.0  0.97253  0.51009  0.86014  1.0000
  H   H5985     1.0  0.89993  0.74493  0.65213  1.0000
  C   C3380     1.0  0.93602  0.97165  0.77998  1.0000
  H   H5986     1.0  0.85254  0.70077  0.92838  1.0000
  H   H5987     1.0  0.74177  0.92207  0.93182  1.0000
  C   C3381     1.0  0.73918  0.89124  0.97743  1.0000
  H   H5988     1.0  0.91645  0.72170  0.92892  1.0000
  H   H5989     1.0  0.83103  0.94668  0.67212  1.0000
  H   H5990     1.0  0.88882  0.94721  0.78645  1.0000
  H   H5991     1.0  0.89602  0.97279  0.67697  1.0000
  C   C3382     1.0  0.93818  0.74655  0.85096  1.0000
  C   C3383     1.0  0.94457  0.80439  0.86671  1.0000
  H   H5992     1.0  0.85796  0.92755  0.81877  1.0000
  H   H5993     1.0  0.84342  0.48890  0.92132  1.0000
  Fe  Fe382     1.0  0.86557  0.97638  0.73244  1.0000
  C   C3384     1.0  0.79668  0.96850  0.82183  1.0000
  H   H5994     1.0  0.87826  0.65905  0.96194  1.0000
  H   H5995     1.0  0.92755  0.49497  0.90894  1.0000
  N   N188      1.0  0.86733  0.96275  0.65883  1.0000
  H   H5996     1.0  0.98460  0.56773  0.87291  1.0000
  H   H5997     1.0  0.83251  0.49314  0.97930  1.0000
  H   H5998     1.0  0.86751  0.87085  0.76018  1.0000
  H   H5999     1.0  0.74734  0.53509  0.85017  1.0000
  H   H6000     1.0  0.95752  0.51289  0.90170  1.0000
  H   H6001     1.0  0.85221  0.91890  0.75547  1.0000
  H   H6002     1.0  0.76365  0.89913  0.95437  1.0000
  H   H6003     1.0  0.96425  0.77201  0.83286  1.0000
  Fe  Fe383     1.0  0.97282  0.87307  0.73888  1.0000
  C   C3385     1.0  0.94776  0.52867  0.66491  1.0000
  S   S766      1.0  0.95367  0.72065  0.90155  1.0000
  C   C3386     1.0  0.93956  0.64043  0.91993  1.0000
  C   C3387     1.0  0.82156  0.95445  0.70145  1.0000
  C   C3388     1.0  0.89501  0.63237  0.91605  1.0000
  C   C3389     1.0  0.83400  0.90819  0.80632  1.0000
  H   H6004     1.0  0.91499  0.96525  0.80733  1.0000
  C   C3390     1.0  0.88919  0.66445  0.94892  1.0000
  H   H6005     1.0  0.87622  0.91514  0.80095  1.0000
  H   H6006     1.0  0.84167  0.50150  0.87193  1.0000
  C   C3391     1.0  0.94203  0.97802  0.70398  1.0000
  C   C3392     1.0  0.88876  0.48967  0.89146  1.0000
  C   C3393     1.0  0.86631  0.92946  0.80317  1.0000
  C   C3394     1.0  0.87716  0.98113  0.65324  1.0000
  C   C3395     1.0  0.74551  0.85002  0.95075  1.0000
  H   H6007     1.0  0.80547  0.90040  0.80346  1.0000
  H   H6008     1.0  0.92481  0.75423  0.84425  1.0000
  C   C3396     1.0  0.89673  0.63108  0.93836  1.0000
  H   H6009     1.0  0.96467  0.97801  0.78243  1.0000
  H   H6010     1.0  0.88166  0.63028  0.94760  1.0000
  H   H6011     1.0  0.80163  0.97202  0.74428  1.0000
  C   C3397     1.0  0.83794  0.60973  0.96619  1.0000
  H   H6012     1.0  0.93392  0.76633  0.87225  1.0000
  H   H6013     1.0  0.94827  0.97804  0.68786  1.0000
  H   H6014     1.0  0.92353  0.97809  0.77153  1.0000
  C   C3398     1.0  0.96040  0.68145  0.65463  1.0000
  H   H6015     1.0  0.85131  0.68795  0.95390  1.0000
  H   H6016     1.0  0.95845  0.50942  0.76637  1.0000
  C   C3399     1.0  0.80548  0.49811  0.89375  1.0000
  H   H6017     1.0  0.91427  0.66263  0.91303  1.0000
  H   H6018     1.0  0.84122  0.98005  0.67383  1.0000
  H   H6019     1.0  0.89273  0.87457  0.75906  1.0000
  C   C3400     1.0  0.77570  0.51961  0.85860  1.0000
  C   C3401     1.0  0.95387  0.98307  0.77178  1.0000
  C   C3402     1.0  0.84049  0.62973  0.96419  1.0000
  H   H6020     1.0  0.93347  0.52486  0.88168  1.0000
  H   H6021     1.0  0.94042  0.79342  0.88037  1.0000
  C   C3403     1.0  0.97613  0.94319  0.75339  1.0000
  H   H6022     1.0  0.96019  0.68400  0.67005  1.0000
  C   C3404     1.0  0.92518  0.81595  0.85930  1.0000
  H   H6023     1.0  0.98746  0.77246  0.85372  1.0000
  N   N189      1.0  0.96025  0.79417  0.85176  1.0000
  C   C3405     1.0  0.95683  0.81485  0.81594  1.0000
  H   H6024     1.0  0.81879  0.48785  0.89854  1.0000
  C   C3406     1.0  0.90953  0.82271  0.87672  1.0000
  C   C3407     1.0  0.90412  0.55110  0.86343  1.0000
  H   H6025     1.0  0.88583  0.94382  0.67946  1.0000
  H   H6026     1.0  0.89043  0.54509  0.87131  1.0000
  H   H6027     1.0  0.93974  0.78535  0.83646  1.0000
  H   H6028     1.0  0.94994  0.74039  0.83924  1.0000
  C   C3408     1.0  0.96737  0.83919  0.66095  1.0000
  H   H6029     1.0  0.82572  0.96292  0.76694  1.0000
  C   C3409     1.0  0.95228  0.50660  0.67432  1.0000
  H   H6030     1.0  0.95879  0.75224  0.86735  1.0000
  C   C3410     1.0  0.94958  0.98132  0.73746  1.0000
  H   H6031     1.0  0.91840  0.80670  0.85209  1.0000
  H   H6032     1.0  0.92836  0.82967  0.84862  1.0000
  H   H6033     1.0  0.82808  0.95607  0.71430  1.0000
  H   H6034     1.0  0.93920  0.51403  0.70384  1.0000
  H   H6035     1.0  0.96317  0.72039  0.65574  1.0000
  H   H6036     1.0  0.90079  0.49823  0.88726  1.0000
  H   H6037     1.0  0.95968  0.80206  0.80771  1.0000
  H   H6038     1.0  0.94051  0.81875  0.82030  1.0000
  C   C3411     1.0  0.98342  0.70180  0.79408  1.0000
  S   S767      1.0  0.98588  0.79866  0.76277  1.0000
  H   H6039     1.0  0.89242  0.49618  0.66550  1.0000
  H   H6040     1.0  0.89594  0.83138  0.87098  1.0000
  H   H6041     1.0  0.90526  0.80956  0.88776  1.0000
  H   H6042     1.0  0.91534  0.83242  0.88438  1.0000
  H   H6043     1.0  0.98029  0.74437  0.65684  1.0000
  C   C3412     1.0  0.91565  0.53702  0.92817  1.0000
  C   C3413     1.0  0.97744  0.78357  0.86247  1.0000
  H   H6044     1.0  0.96830  0.67500  0.96294  1.0000
  H   H6045     1.0  0.92573  0.49592  0.93514  1.0000
  C   C3414     1.0  0.94597  0.76097  0.86037  1.0000
  N   N190      1.0  0.83897  0.92124  0.78626  1.0000
  H   H6046     1.0  0.88953  0.64772  0.90884  1.0000
  C   C3415     1.0  0.97092  0.56955  0.88436  1.0000
  H   H6047     1.0  0.88531  0.60334  0.92136  1.0000
  N   N191      1.0  0.90544  0.64742  0.94338  1.0000
  H   H6048     1.0  0.92280  0.65068  0.96493  1.0000
  H   H6049     1.0  0.93753  0.62469  0.92562  1.0000
  C   C3416     1.0  0.74762  0.90162  0.95903  1.0000
  H   H6050     1.0  0.92566  0.66852  0.93084  1.0000
  H   H6051     1.0  0.90636  0.56529  0.88748  1.0000
  C   C3417     1.0  0.77599  0.96996  0.82853  1.0000
  C   C3418     1.0  0.96411  0.83257  0.80117  1.0000
  C   C3419     1.0  0.85634  0.48457  0.91044  1.0000
  C   C3420     1.0  0.79388  0.52396  0.86591  1.0000
  C   C3421     1.0  0.82948  0.51370  0.86742  1.0000
  H   H6052     1.0  0.83960  0.89915  0.76782  1.0000
  C   C3422     1.0  0.75454  0.52318  0.92984  1.0000
  H   H6053     1.0  0.89966  0.56559  0.85381  1.0000
  C   C3423     1.0  0.83039  0.53096  0.87830  1.0000
  H   H6054     1.0  0.76790  0.50867  0.86978  1.0000
  C   C3424     1.0  0.92784  0.97335  0.80194  1.0000
  H   H6055     1.0  0.82661  0.91786  0.81777  1.0000
  C   C3425     1.0  0.84959  0.53955  0.86988  1.0000
  H   H6056     1.0  0.94027  0.95563  0.77892  1.0000
  H   H6057     1.0  0.92408  0.48855  0.72581  1.0000
  H   H6058     1.0  0.78793  0.53236  0.87865  1.0000
  H   H6059     1.0  0.80046  0.53496  0.85346  1.0000
  C   C3426     1.0  0.95789  0.98132  0.71488  1.0000
  C   C3427     1.0  0.82086  0.95041  0.76250  1.0000
  C   C3428     1.0  0.80054  0.95855  0.75605  1.0000
  H   H6060     1.0  0.80279  0.51038  0.90271  1.0000
  C   C3429     1.0  0.92080  0.65571  0.92667  1.0000
  C   C3430     1.0  0.88079  0.61896  0.91401  1.0000
  H   H6061     1.0  0.95080  0.67013  0.65561  1.0000
  C   C3431     1.0  0.92777  0.71149  0.93632  1.0000
  H   H6062     1.0  0.83032  0.52524  0.89453  1.0000
  H   H6063     1.0  0.81766  0.54343  0.87673  1.0000
  H   H6064     1.0  0.88908  0.55543  0.91754  1.0000
  H   H6065     1.0  0.97466  0.53821  0.89615  1.0000
  C   C3432     1.0  0.83818  0.94898  0.68426  1.0000
  S   S768      1.0  0.98080  0.85417  0.66951  1.0000
  H   H6066     1.0  0.96611  0.94190  0.74326  1.0000
  H   H6067     1.0  0.90986  0.62730  0.90738  1.0000
  H   H6068     1.0  0.89573  0.67580  0.95368  1.0000
  C   C3433     1.0  0.86161  0.69313  0.94012  1.0000
  H   H6069     1.0  0.84968  0.54687  0.85402  1.0000
  H   H6070     1.0  0.85072  0.55088  0.87872  1.0000
  H   H6071     1.0  0.86283  0.52753  0.87081  1.0000
  C   C3434     1.0  0.96275  0.54990  0.89028  1.0000
  Fe  Fe384     1.0  0.98453  0.85238  0.70190  1.0000
  C   C3435     1.0  0.94684  0.81328  0.66655  1.0000
  H   H6072     1.0  0.83075  0.87217  0.83277  1.0000
  H   H6073     1.0  0.91942  0.92390  0.67235  1.0000
  C   C3436     1.0  0.74031  0.51067  0.93197  1.0000
  H   H6074     1.0  0.94224  0.64210  0.90329  1.0000
  C   C3437     1.0  0.85132  0.96558  0.67691  1.0000
  H   H6075     1.0  0.96573  0.51082  0.69773  1.0000
  H   H6076     1.0  0.96889  0.82315  0.83933  1.0000
  H   H6077     1.0  0.75573  0.54601  0.86783  1.0000
  H   H6078     1.0  0.74921  0.86473  0.94266  1.0000
  H   H6079     1.0  0.82015  0.97961  0.79911  1.0000
  H   H6080     1.0  0.91336  0.54048  0.85371  1.0000
  H   H6081     1.0  0.80660  0.86980  0.82857  1.0000
  H   H6082     1.0  0.88954  0.94011  0.81283  1.0000
  H   H6083     1.0  0.95988  0.58176  0.87776  1.0000
  H   H6084     1.0  0.93251  0.53552  0.67133  1.0000
  H   H6085     1.0  0.74181  0.49637  0.94185  1.0000
  H   H6086     1.0  0.89732  0.56198  0.95759  1.0000
  H   H6087     1.0  0.88189  0.54474  0.95528  1.0000
  C   C3438     1.0  0.91590  0.55420  0.87865  1.0000
  C   C3439     1.0  0.94357  0.55164  0.90635  1.0000
  H   H6088     1.0  0.97490  0.57378  0.89753  1.0000
  H   H6089     1.0  0.87451  0.93057  0.66691  1.0000
  H   H6090     1.0  0.84726  0.93459  0.68996  1.0000
  H   H6091     1.0  0.90743  0.70439  0.96386  1.0000
  H   H6092     1.0  0.93947  0.96670  0.81141  1.0000
  H   H6093     1.0  0.74765  0.60175  0.93546  1.0000
  H   H6094     1.0  0.96041  0.84626  0.80815  1.0000
  H   H6095     1.0  0.98363  0.80315  0.82760  1.0000
  C   C3440     1.0  0.82026  0.89282  0.80720  1.0000
  C   C3441     1.0  0.88781  0.55866  0.94797  1.0000
  H   H6096     1.0  0.75217  0.94676  0.97097  1.0000
  C   C3442     1.0  0.96419  0.49656  0.75825  1.0000
  H   H6097     1.0  0.87020  0.95971  0.80432  1.0000
  C   C3443     1.0  0.80425  0.98033  0.80387  1.0000
  C   C3444     1.0  0.86996  0.89630  0.77316  1.0000
  H   H6098     1.0  0.94222  0.96796  0.74293  1.0000
  H   H6099     1.0  0.95721  0.69069  0.81217  1.0000
  C   C3445     1.0  0.91559  0.63910  0.96144  1.0000
  H   H6100     1.0  0.95066  0.81549  0.87224  1.0000
  H   H6101     1.0  0.90674  0.52473  0.93137  1.0000
  H   H6102     1.0  0.97132  0.63260  0.92089  1.0000
  C   C3446     1.0  0.97026  0.69649  0.81435  1.0000
  H   H6103     1.0  0.84768  0.89950  0.81180  1.0000
  C   C3447     1.0  0.87179  0.49578  0.90521  1.0000
  H   H6104     1.0  0.90971  0.52607  0.89692  1.0000
  C   C3448     1.0  0.95491  0.50004  0.73934  1.0000
  H   H6105     1.0  0.98051  0.82925  0.79615  1.0000
  H   H6106     1.0  0.90638  0.57005  0.92134  1.0000
  H   H6107     1.0  0.93437  0.56633  0.90191  1.0000
  H   H6108     1.0  0.97185  0.77468  0.87715  1.0000
  H   H6109     1.0  0.80904  0.89064  0.83932  1.0000
  C   C3449     1.0  0.75308  0.54141  0.91669  1.0000
  N   N192      1.0  0.93165  0.53489  0.90993  1.0000
  H   H6110     1.0  0.81179  0.96871  0.69655  1.0000
  C   C3450     1.0  0.92272  0.53404  0.89198  1.0000
  H   H6111     1.0  0.84636  0.65237  0.97871  1.0000
  H   H6112     1.0  0.87969  0.53157  0.65147  1.0000
  H   H6113     1.0  0.94824  0.55276  0.92054  1.0000
  H   H6114     1.0  0.96813  0.49306  0.80296  1.0000
  H   H6115     1.0  0.77333  0.49810  0.90061  1.0000
  H   H6116     1.0  0.96184  0.65901  0.91861  1.0000
  H   H6117     1.0  0.78423  0.97061  0.88169  1.0000
  H   H6118     1.0  0.92272  0.53559  0.94163  1.0000
  C   C3451     1.0  0.91522  0.92139  0.65847  1.0000
  H   H6119     1.0  0.81232  0.94244  0.70648  1.0000
  H   H6120     1.0  0.95881  0.53708  0.66746  1.0000
  H   H6121     1.0  0.78056  0.51362  0.84431  1.0000
  H   H6122     1.0  0.95339  0.51601  0.92722  1.0000
  H   H6123     1.0  0.75800  0.83812  0.94623  1.0000
  H   H6124     1.0  0.78750  0.48686  0.93270  1.0000
  H   H6125     1.0  0.92788  0.62655  0.95822  1.0000
  H   H6126     1.0  0.95982  0.54589  0.87656  1.0000
  C   C3452     1.0  0.76065  0.53873  0.85437  1.0000
  C   C3453     1.0  0.95253  0.77862  0.84434  1.0000
  H   H6127     1.0  0.78920  0.96298  0.76894  1.0000
  H   H6128     1.0  0.96718  0.50031  0.66672  1.0000
  H   H6129     1.0  0.97391  0.71285  0.78446  1.0000
  H   H6130     1.0  0.91087  0.58199  0.64864  1.0000
  H   H6131     1.0  0.86593  0.50053  0.66542  1.0000
  H   H6132     1.0  0.97987  0.76516  0.79331  1.0000
  H   H6133     1.0  0.93394  0.73388  0.86271  1.0000
  H   H6134     1.0  0.93708  0.96340  0.71042  1.0000
  H   H6135     1.0  0.95585  0.48590  0.82816  1.0000
  C   C3454     1.0  0.98149  0.96443  0.74976  1.0000
  H   H6136     1.0  0.97875  0.68471  0.82439  1.0000
  H   H6137     1.0  0.81539  0.49716  0.84266  1.0000
  H   H6138     1.0  0.98741  0.77794  0.65668  1.0000
  C   C3455     1.0  0.96804  0.80915  0.83417  1.0000
  H   H6139     1.0  0.89286  0.62082  0.97842  1.0000
  H   H6140     1.0  0.93635  0.74501  0.64961  1.0000
  H   H6141     1.0  0.94200  0.48592  0.87210  1.0000
  H   H6142     1.0  0.90789  0.90794  0.66204  1.0000
  H   H6143     1.0  0.96906  0.93907  0.76916  1.0000
  H   H6144     1.0  0.74407  0.84956  0.96712  1.0000
  C   C3456     1.0  0.74607  0.95743  0.98166  1.0000
