data_image0
_chemical_formula_structural       H2SCH2CFeSCSFeS2FeS2FeSFeS3C2HC3H2C6H7C7H4C2H3CH3CH2C3H3CHCSHCH4CH2CH4CHCH2NH2NHNC9HCH7CH4CH6SH2CH2SH3C2HCHC2H2FeCH3SH3NHCH5FeH2C2H2NC8HC2H16SH10C2HCHCHFeCH8CH4CH2SC2FeSCH6SH3SH3S2CHFeS2HSH3FeC6H10CH2C2H3CHC6H4CH2C2HCHFeC5H2SC2NHC2H4SFeSH4SH4C2H3SHCFeNC2HCHCHC2HNHC4H3FeH2SCHCHCH6CH2FeH3NCHCHFeS2FeS2FeSFeS4HC2FeSH4SH4C3H2C6H4C6H6CH2CH4SHNCFeC4HFeCHCSH10C3H2CH5CH3CH7CHC2H3CH3SHC3HCHCHCHC3H4NH2C2NC10H23FeHCSC6H3CH4SH3CH4CH7CNH3CHC3HCHCHCH3FeSHSFeS2FeS2FeSFeS3HSH2CHFeSC7H4C6H9CNC3H4CH2CHNH6CHC2SH6C2H4CH3C2HFeCH6CHSH7CHC4H3CHC2H2C2HC3H4CH2C3H7C2HCH3CHC2H3C3H2CH2S2HC2HNCH3CH11CHCH4C2HCH2CHCHCH3C2H4C2NHC2H4NC2H4C2H2CH5SCS3CSCSC7H14CH3CH2C7H4C2HCH2CH2CHCHCH8CSFeSCHCHSH2CNC3S2H4CH3CH3CH7CH2C2HCH2C4H2NCH5CH3C2H3SC2HC2H3CHSFeCHCNH5CHCH2FeH3CHCH5FeCH2C2SH2CH11CH2CHCHSH4CH3C4FeS2FeS2FeCFeS3HCFeHSHCS2FeSHSHCH5C2HCSCH7C6H4C6H8C2H6CH2CH2C3HCHNCS2C2HCHFeHCH5SC2HCFeC2H2CH2CHNH2FeCH2CH2SC2H5CSCHC2HCH8FeC3H10CHCH6CFeH2SHC2H2CHC3H2CHCH4CHC2HCH11FeCH6NH4C2H3SH5SFeS2FeS2FeSFeS4H2FeSH3C3SNH2C2HC2HC6H8C7H4CH3CNC10H19CH5CHC2HCH4CH3C2HSHCHCHSHCFeC2HFeH9C2HFeHSHC2H2C2NCH5C2H3C2H5CHCH6C3HCH6CHFeCH5CHC5HCH4CH2CH2C2HFeSHSCHS2FeSNHCHSH2FeS2H6C6H5C2HCHC6H5S2HFeHC8H14C2H2CH9CHC3HCFeHNH4SH2SC2HFeHC2H2CHCH5NSHCH6SCHCH3FeHC2HCH2CH2C2HCSC3SH9CH2CH5C2H5C3H4CH3C3H4CHFeCH3CHCH3FeHSCH2SFeS2FeS2FeSFeS3FeSFeHSCHS2C6H4SHSCH6CSC6H4C3HCH2C3H7CH4C2HCH2CFeH3SH2CNCH5CNC11H26CH2CHCH2NH5CH2C2HC3H5C4H3C2H2CH6NH3C3H2FeHFeC2H3CH2CHNC3HC2H8CH2SCHCHCHCHC2H2CH12CH2C2HSH2FeSH3FeS2FeS2FeSFeS3CSH3SHC3H2FeC6H7C6H4CH4CH5SH2CHFeNHCH5FeHCH2CHNC12H19CH8CHCHCHCHCHCH3CSC2HC5HCSH6SCHFe2HNC4H2C4HCHCH5CH2SHCSH6C2H14CHCHSH3CHSH2SFeSHSHCH2C6H6CHCH4C6H4NCH2CHNC2HC7SH5CH7CH4CH5C2HC2HSCHCSH3C3H2CSCH7SH3NCH3SHC3HC2H2CHFeH6Fe2H2C3H3CH2FeH2CSNH2CSH2C2HC2H5CH2CH2CFeHCH2CH4C2H2CHCH5CH3FeS2FeS2FeSFeS3CSFeNSH2SHNH2CHCH2C6H5C2H2C7H8C3FeNC5HC4H2CH11CH9CHCH6CHC2HCHC5H3C2HSH2C3HCH12C2HCHCNC10HCH23C2H3CHC2HNHCH7C2H5NHC2H2CH2CH13CHC6SC
_chemical_formula_sum              "H1536 S192 C864 Fe96 N48"
_cell_length_a       33.9374
_cell_length_b       34.4334
_cell_length_c       71.5501
_cell_angle_alpha    89.1944
_cell_angle_beta     88.3551
_cell_angle_gamma    90.1829

_space_group_name_H-M_alt    "P 1"
_space_group_IT_number       1

loop_
  _space_group_symop_operation_xyz
  'x, y, z'

loop_
  _atom_site_type_symbol
  _atom_site_label
  _atom_site_symmetry_multiplicity
  _atom_site_fract_x
  _atom_site_fract_y
  _atom_site_fract_z
  _atom_site_occupancy
  H   H1        1.0  0.25545  0.24835  0.34238  1.0000
  H   H2        1.0  0.34486  0.49707  0.23849  1.0000
  S   S1        1.0  0.45151  0.26223  0.14747  1.0000
  C   C1        1.0  0.38629  0.32364  0.35072  1.0000
  H   H3        1.0  0.06084  0.49460  0.25202  1.0000
  H   H4        1.0  0.37201  0.35814  0.24423  1.0000
  C   C2        1.0  0.22234  0.22355  0.37510  1.0000
  Fe  Fe1       1.0  0.37804  0.19439  0.34882  1.0000
  S   S2        1.0  0.38734  0.23267  0.32320  1.0000
  C   C3        1.0  0.03295  0.49025  0.22469  1.0000
  S   S3        1.0  0.40468  0.13529  0.35208  1.0000
  Fe  Fe2       1.0  0.27481  0.33600  0.21296  1.0000
  S   S4        1.0  0.28362  0.33797  0.24387  1.0000
  S   S5        1.0  0.32477  0.35850  0.19402  1.0000
  Fe  Fe3       1.0  0.18524  0.32139  0.21842  1.0000
  S   S6        1.0  0.18779  0.32199  0.24970  1.0000
  S   S7        1.0  0.12880  0.32306  0.20223  1.0000
  Fe  Fe4       1.0  0.22824  0.37301  0.24538  1.0000
  S   S8        1.0  0.22569  0.42721  0.26258  1.0000
  Fe  Fe5       1.0  0.24289  0.28663  0.24540  1.0000
  S   S9        1.0  0.25292  0.23403  0.26380  1.0000
  S   S10       1.0  0.22227  0.37499  0.21442  1.0000
  S   S11       1.0  0.23757  0.28179  0.21410  1.0000
  C   C4        1.0  0.20724  0.46649  0.24966  1.0000
  C   C5        1.0  0.06385  0.42791  0.21478  1.0000
  H   H5        1.0  0.41550  0.19317  0.28483  1.0000
  C   C6        1.0  0.32579  0.48849  0.18042  1.0000
  C   C7        1.0  0.18515  0.45973  0.23385  1.0000
  C   C8        1.0  0.24749  0.27369  0.35130  1.0000
  H   H6        1.0  0.27316  0.19130  0.21954  1.0000
  H   H7        1.0  0.17593  0.43063  0.23070  1.0000
  C   C9        1.0  0.34808  0.23453  0.30774  1.0000
  C   C10       1.0  0.31859  0.20609  0.30833  1.0000
  C   C11       1.0  0.28904  0.20668  0.29498  1.0000
  C   C12       1.0  0.28826  0.23619  0.28130  1.0000
  C   C13       1.0  0.31676  0.26562  0.28127  1.0000
  C   C14       1.0  0.34699  0.26442  0.29426  1.0000
  H   H8        1.0  0.31938  0.18276  0.31859  1.0000
  H   H9        1.0  0.26704  0.18384  0.29509  1.0000
  H   H10       1.0  0.31650  0.28842  0.27082  1.0000
  H   H11       1.0  0.36974  0.28652  0.29378  1.0000
  H   H12       1.0  0.48984  0.28185  0.37626  1.0000
  H   H13       1.0  0.15919  0.48514  0.20951  1.0000
  H   H14       1.0  0.10636  0.39528  0.18373  1.0000
  C   C15       1.0  0.30906  0.46055  0.22091  1.0000
  C   C16       1.0  0.41606  0.28844  0.16056  1.0000
  C   C17       1.0  0.42226  0.32764  0.16433  1.0000
  C   C18       1.0  0.39385  0.34854  0.17458  1.0000
  C   C19       1.0  0.35925  0.33036  0.18140  1.0000
  C   C20       1.0  0.35285  0.29108  0.17770  1.0000
  C   C21       1.0  0.38115  0.27022  0.16716  1.0000
  H   H15       1.0  0.44883  0.34210  0.15920  1.0000
  H   H16       1.0  0.39892  0.37896  0.17733  1.0000
  H   H17       1.0  0.32598  0.27701  0.18277  1.0000
  H   H18       1.0  0.37613  0.23991  0.16420  1.0000
  C   C22       1.0  0.08266  0.28839  0.23033  1.0000
  C   C23       1.0  0.08367  0.30858  0.21323  1.0000
  H   H19       1.0  0.30222  0.21056  0.20006  1.0000
  H   H20       1.0  0.10987  0.28152  0.23713  1.0000
  H   H21       1.0  0.39713  0.29327  0.35072  1.0000
  C   C24       1.0  0.39949  0.17396  0.27523  1.0000
  H   H22       1.0  0.09542  0.48801  0.23291  1.0000
  H   H23       1.0  0.28842  0.43574  0.22336  1.0000
  H   H24       1.0  0.04080  0.43325  0.25103  1.0000
  C   C25       1.0  0.32222  0.47381  0.24004  1.0000
  H   H25       1.0  0.26070  0.41129  0.37786  1.0000
  H   H26       1.0  0.06110  0.44973  0.18565  1.0000
  C   C26       1.0  0.44836  0.22664  0.09646  1.0000
  C   C27       1.0  0.31598  0.29725  0.34914  1.0000
  C   C28       1.0  0.06753  0.50234  0.23715  1.0000
  H   H27       1.0  0.20926  0.29610  0.31911  1.0000
  H   H28       1.0  0.19729  0.34217  0.29348  1.0000
  H   H29       1.0  0.13263  0.43938  0.17765  1.0000
  C   C29       1.0  0.11726  0.42320  0.18925  1.0000
  H   H30       1.0  0.27786  0.25279  0.37629  1.0000
  C   C30       1.0  0.26947  0.31522  0.32522  1.0000
  S   S12       1.0  0.31901  0.17718  0.36123  1.0000
  H   H31       1.0  0.31230  0.36062  0.37288  1.0000
  C   C31       1.0  0.34700  0.32665  0.34095  1.0000
  H   H32       1.0  0.33657  0.35704  0.34211  1.0000
  H   H33       1.0  0.33424  0.30486  0.06901  1.0000
  H   H34       1.0  0.40858  0.34234  0.34331  1.0000
  H   H35       1.0  0.08674  0.42597  0.22561  1.0000
  C   C32       1.0  0.26095  0.34389  0.35653  1.0000
  H   H36       1.0  0.28107  0.28998  0.31720  1.0000
  H   H37       1.0  0.03527  0.36873  0.23858  1.0000
  C   C33       1.0  0.22716  0.32317  0.31845  1.0000
  H   H38       1.0  0.47326  0.08892  0.36127  1.0000
  H   H39       1.0  0.50380  0.21775  0.19931  1.0000
  H   H40       1.0  0.44080  0.30104  0.37998  1.0000
  H   H41       1.0  0.51761  0.47147  0.06182  1.0000
  C   C34       1.0  0.17478  0.49066  0.22213  1.0000
  H   H42       1.0  0.22845  0.34340  0.35925  1.0000
  C   C35       1.0  0.08272  0.44713  0.19691  1.0000
  H   H43       1.0  0.13876  0.41696  0.20031  1.0000
  H   H44       1.0  0.32265  0.26855  0.34284  1.0000
  N   N1        1.0  0.28470  0.48817  0.18925  1.0000
  H   H45       1.0  0.33506  0.44884  0.24772  1.0000
  H   H46       1.0  0.38287  0.33364  0.36534  1.0000
  N   N2        1.0  0.02693  0.44711  0.22239  1.0000
  H   H47       1.0  0.24441  0.36502  0.29637  1.0000
  N   N3        1.0  0.40029  0.24212  0.23098  1.0000
  C   C36       1.0  0.38773  0.28413  0.23003  1.0000
  C   C37       1.0  0.37269  0.21867  0.21937  1.0000
  C   C38       1.0  0.39851  0.22881  0.25116  1.0000
  C   C39       1.0  0.44182  0.23692  0.22342  1.0000
  C   C40       1.0  0.44994  0.25174  0.20311  1.0000
  C   C41       1.0  0.41661  0.31421  0.23808  1.0000
  C   C42       1.0  0.40834  0.18542  0.25483  1.0000
  C   C43       1.0  0.32964  0.21487  0.22717  1.0000
  C   C44       1.0  0.30357  0.19391  0.21344  1.0000
  H   H48       1.0  0.33543  0.44986  0.21307  1.0000
  C   C45       1.0  0.40034  0.35540  0.23621  1.0000
  H   H49       1.0  0.47757  0.30774  0.05066  1.0000
  H   H50       1.0  0.35911  0.28806  0.23774  1.0000
  H   H51       1.0  0.38189  0.29314  0.21539  1.0000
  H   H52       1.0  0.37097  0.23173  0.20511  1.0000
  H   H53       1.0  0.38434  0.18891  0.21702  1.0000
  H   H54       1.0  0.36900  0.23480  0.25751  1.0000
  H   H55       1.0  0.41936  0.24582  0.25955  1.0000
  C   C46       1.0  0.21650  0.50472  0.25445  1.0000
  H   H56       1.0  0.44970  0.20558  0.22337  1.0000
  H   H57       1.0  0.44150  0.28259  0.20123  1.0000
  H   H58       1.0  0.43325  0.23403  0.19317  1.0000
  H   H59       1.0  0.42135  0.30841  0.25313  1.0000
  C   C47       1.0  0.33042  0.50363  0.15991  1.0000
  H   H60       1.0  0.44016  0.18003  0.25195  1.0000
  H   H61       1.0  0.39096  0.16584  0.24606  1.0000
  H   H62       1.0  0.32839  0.19794  0.24049  1.0000
  H   H63       1.0  0.31640  0.24375  0.22975  1.0000
  H   H64       1.0  0.31495  0.16427  0.21068  1.0000
  H   H65       1.0  0.05765  0.39713  0.21130  1.0000
  S   S13       1.0  0.51319  0.34373  0.12140  1.0000
  H   H66       1.0  0.03693  0.50499  0.21081  1.0000
  H   H67       1.0  0.39554  0.36292  0.22128  1.0000
  C   C48       1.0  0.28806  0.49367  0.21008  1.0000
  H   H68       1.0  0.42166  0.37651  0.24179  1.0000
  H   H69       1.0  0.28762  0.34066  0.32048  1.0000
  S   S14       1.0  0.32122  0.06124  0.35770  1.0000
  H   H70       1.0  0.34604  0.50679  0.18861  1.0000
  H   H71       1.0  0.46336  0.25067  0.23276  1.0000
  H   H72       1.0  0.09393  0.47659  0.19991  1.0000
  C   C49       1.0  0.26436  0.44972  0.18648  1.0000
  C   C50       1.0  0.28120  0.35151  0.37542  1.0000
  H   H73       1.0  0.04862  0.33220  0.19116  1.0000
  C   C51       1.0  0.49363  0.24820  0.19764  1.0000
  H   H74       1.0  0.21221  0.34557  0.32707  1.0000
  C   C52       1.0  0.25829  0.43724  0.16606  1.0000
  C   C53       1.0  0.23365  0.40004  0.16540  1.0000
  H   H75       1.0  0.25837  0.49702  0.21679  1.0000
  H   H76       1.0  0.26644  0.37055  0.34781  1.0000
  Fe  Fe6       1.0  0.34735  0.11881  0.36657  1.0000
  C   C54       1.0  0.51345  0.19615  0.37016  1.0000
  H   H77       1.0  0.28128  0.42577  0.19282  1.0000
  H   H78       1.0  0.23506  0.44957  0.19398  1.0000
  H   H79       1.0  0.40882  0.14354  0.27783  1.0000
  S   S15       1.0  0.51664  0.43460  0.15129  1.0000
  H   H80       1.0  0.35250  0.32071  0.32587  1.0000
  H   H81       1.0  0.33865  0.45873  0.18107  1.0000
  H   H82       1.0  0.51655  0.30719  0.07968  1.0000
  N   N4        1.0  0.27357  0.30797  0.34599  1.0000
  H   H83       1.0  0.36734  0.17592  0.27840  1.0000
  C   C55       1.0  0.22789  0.33721  0.29806  1.0000
  H   H84       1.0  0.24278  0.45975  0.15791  1.0000
  H   H85       1.0  0.28723  0.43086  0.15918  1.0000
  H   H86       1.0  0.24904  0.37561  0.17238  1.0000
  H   H87       1.0  0.20433  0.40415  0.17240  1.0000
  H   H88       1.0  0.22902  0.39207  0.15064  1.0000
  Fe  Fe7       1.0  0.50878  0.29517  0.14251  1.0000
  H   H89       1.0  0.24172  0.31509  0.28882  1.0000
  H   H90       1.0  0.42720  0.20920  0.08847  1.0000
  C   C56       1.0  0.04806  0.31692  0.20447  1.0000
  C   C57       1.0  0.37246  0.49745  0.15227  1.0000
  H   H91       1.0  0.04596  0.25935  0.25136  1.0000
  H   H92       1.0  0.31000  0.48897  0.15051  1.0000
  N   N5        1.0  0.38524  0.32151  0.09980  1.0000
  C   C58       1.0  0.34328  0.32523  0.10708  1.0000
  C   C59       1.0  0.38720  0.33375  0.07944  1.0000
  C   C60       1.0  0.39803  0.27991  0.10239  1.0000
  C   C61       1.0  0.41273  0.34736  0.11027  1.0000
  C   C62       1.0  0.39973  0.39028  0.11253  1.0000
  C   C63       1.0  0.33656  0.31707  0.12836  1.0000
  C   C64       1.0  0.43967  0.26995  0.09435  1.0000
  C   C65       1.0  0.36632  0.30659  0.06568  1.0000
  H   H93       1.0  0.48404  0.20329  0.36593  1.0000
  C   C66       1.0  0.43098  0.41383  0.12244  1.0000
  C   C67       1.0  0.29477  0.32781  0.13484  1.0000
  H   H94       1.0  0.44652  0.21755  0.11143  1.0000
  H   H95       1.0  0.32380  0.30455  0.09986  1.0000
  H   H96       1.0  0.33145  0.35452  0.10367  1.0000
  H   H97       1.0  0.37388  0.36298  0.07762  1.0000
  H   H98       1.0  0.41840  0.33731  0.07438  1.0000
  H   H99       1.0  0.37619  0.25957  0.09652  1.0000
  H   H100      1.0  0.39842  0.27215  0.11751  1.0000
  H   H101      1.0  0.41850  0.33506  0.12440  1.0000
  H   H102      1.0  0.44205  0.34829  0.10297  1.0000
  H   H103      1.0  0.37199  0.39237  0.12103  1.0000
  H   H104      1.0  0.39516  0.40430  0.09873  1.0000
  H   H105      1.0  0.34070  0.28573  0.13156  1.0000
  H   H106      1.0  0.35711  0.33383  0.13690  1.0000
  H   H107      1.0  0.46252  0.28584  0.10198  1.0000
  H   H108      1.0  0.44284  0.27751  0.07928  1.0000
  H   H109      1.0  0.37864  0.27681  0.06611  1.0000
  S   S16       1.0  0.40137  0.21631  0.37575  1.0000
  H   H110      1.0  0.39397  0.51339  0.16078  1.0000
  H   H111      1.0  0.44557  0.31383  0.23050  1.0000
  H   H112      1.0  0.45936  0.41395  0.11430  1.0000
  H   H113      1.0  0.42119  0.44438  0.12390  1.0000
  H   H114      1.0  0.43591  0.40160  0.13664  1.0000
  H   H115      1.0  0.29083  0.32120  0.15004  1.0000
  H   H116      1.0  0.28956  0.35934  0.13262  1.0000
  H   H117      1.0  0.27264  0.31084  0.12720  1.0000
  H   H118      1.0  0.48250  0.33346  0.37875  1.0000
  H   H119      1.0  0.37519  0.50857  0.13765  1.0000
  C   C68       1.0  0.49812  0.07141  0.35564  1.0000
  C   C69       1.0  0.24771  0.25996  0.37196  1.0000
  H   H120      1.0  0.47868  0.22063  0.09101  1.0000
  C   C70       1.0  0.04640  0.27581  0.23836  1.0000
  H   H121      1.0  0.51173  0.26754  0.20629  1.0000
  C   C71       1.0  0.50818  0.31656  0.05006  1.0000
  H   H122      1.0  0.37996  0.46605  0.15243  1.0000
  Fe  Fe8       1.0  0.42196  0.15545  0.38031  1.0000
  C   C72       1.0  0.48496  0.02824  0.35437  1.0000
  H   H123      1.0  0.29673  0.48474  0.24846  1.0000
  H   H124      1.0  0.45707  0.02954  0.34648  1.0000
  H   H125      1.0  0.22766  0.51553  0.18729  1.0000
  H   H126      1.0  0.21613  0.28033  0.34861  1.0000
  H   H127      1.0  0.48454  0.08672  0.32686  1.0000
  H   H128      1.0  0.49830  0.25688  0.18275  1.0000
  H   H129      1.0  0.19106  0.22973  0.37203  1.0000
  H   H130      1.0  0.23322  0.51014  0.26681  1.0000
  C   C73       1.0  0.50967  0.08850  0.33643  1.0000
  H   H131      1.0  0.32158  0.29263  0.36418  1.0000
  H   H132      1.0  0.49515  0.51405  0.14763  1.0000
  H   H133      1.0  0.51779  0.11959  0.33792  1.0000
  H   H134      1.0  0.23304  0.19956  0.36609  1.0000
  C   C74       1.0  0.32964  0.01709  0.36986  1.0000
  H   H135      1.0  0.23504  0.28261  0.38118  1.0000
  H   H136      1.0  0.47510  0.45766  0.64436  1.0000
  S   S17       1.0  0.47942  0.14027  0.39322  1.0000
  C   C75       1.0  0.46300  0.03229  0.38770  1.0000
  C   C76       1.0  0.47660  0.30040  0.40475  1.0000
  Fe  Fe9       1.0  0.34894  0.46274  0.66202  1.0000
  S   S18       1.0  0.37648  0.40943  0.67524  1.0000
  C   C77       1.0  0.45478  0.47317  0.53168  1.0000
  H   H137      1.0  0.43443  0.02998  0.43507  1.0000
  H   H138      1.0  0.42980  0.32879  0.47587  1.0000
  H   H139      1.0  0.50839  0.30309  0.40757  1.0000
  H   H140      1.0  0.35273  0.04334  0.39437  1.0000
  H   H141      1.0  0.43075  0.20525  0.66713  1.0000
  H   H142      1.0  0.47381  0.45463  0.54038  1.0000
  S   S19       1.0  0.36658  0.13509  0.39518  1.0000
  H   H143      1.0  0.37386  0.28003  0.70335  1.0000
  H   H144      1.0  0.39611  0.20941  0.41914  1.0000
  H   H145      1.0  0.50873  0.42144  0.51444  1.0000
  S   S20       1.0  0.31297  0.23154  0.41080  1.0000
  H   H146      1.0  0.22989  0.37553  0.39015  1.0000
  H   H147      1.0  0.45638  0.36556  0.65969  1.0000
  H   H148      1.0  0.35661  0.16523  0.43893  1.0000
  S   S21       1.0  0.38809  0.45096  0.47807  1.0000
  S   S22       1.0  0.32119  0.43599  0.52100  1.0000
  C   C78       1.0  0.43993  0.23517  0.67075  1.0000
  H   H149      1.0  0.23617  0.47171  0.70326  1.0000
  Fe  Fe10      1.0  0.35483  0.44232  0.45169  1.0000
  S   S23       1.0  0.37535  0.40155  0.42850  1.0000
  S   S24       1.0  0.36057  0.50525  0.44325  1.0000
  H   H150      1.0  0.49395  0.43118  0.49087  1.0000
  S   S25       1.0  0.29532  0.45004  0.46585  1.0000
  H   H151      1.0  0.39836  0.46559  0.58997  1.0000
  H   H152      1.0  0.45775  0.45818  0.57029  1.0000
  H   H153      1.0  0.28153  0.32550  0.38465  1.0000
  Fe  Fe11      1.0  0.34430  0.19528  0.38861  1.0000
  C   C79       1.0  0.32943  0.27928  0.41550  1.0000
  C   C80       1.0  0.31508  0.29850  0.43149  1.0000
  C   C81       1.0  0.32835  0.33622  0.43565  1.0000
  C   C82       1.0  0.35611  0.35495  0.42380  1.0000
  C   C83       1.0  0.37011  0.33584  0.40775  1.0000
  C   C84       1.0  0.35667  0.29838  0.40356  1.0000
  H   H154      1.0  0.29376  0.28411  0.44077  1.0000
  H   H155      1.0  0.31729  0.35068  0.44807  1.0000
  H   H156      1.0  0.39146  0.35024  0.39851  1.0000
  H   H157      1.0  0.41192  0.05666  0.41635  1.0000
  H   H158      1.0  0.48149  0.33264  0.43979  1.0000
  H   H159      1.0  0.46186  0.18980  0.42680  1.0000
  H   H160      1.0  0.48451  0.03827  0.70083  1.0000
  H   H161      1.0  0.45906  0.36931  0.46711  1.0000
  H   H162      1.0  0.49203  0.30649  0.46096  1.0000
  H   H163      1.0  0.38650  0.23022  0.44169  1.0000
  C   C85       1.0  0.46831  0.23325  0.68693  1.0000
  H   H164      1.0  0.39349  0.30927  0.62853  1.0000
  H   H165      1.0  0.47539  0.47653  0.69521  1.0000
  C   C86       1.0  0.32200  0.44255  0.55930  1.0000
  C   C87       1.0  0.32207  0.46274  0.57632  1.0000
  H   H166      1.0  0.43508  0.04622  0.38321  1.0000
  H   H167      1.0  0.46199  0.06753  0.42260  1.0000
  H   H168      1.0  0.32232  0.41113  0.55948  1.0000
  C   C88       1.0  0.48181  0.49522  0.46053  1.0000
  H   H169      1.0  0.42566  0.45788  0.53193  1.0000
  C   C89       1.0  0.35330  0.36469  0.68054  1.0000
  C   C90       1.0  0.37429  0.33704  0.69076  1.0000
  C   C91       1.0  0.35746  0.30080  0.69538  1.0000
  C   C92       1.0  0.31950  0.29168  0.68974  1.0000
  C   C93       1.0  0.29865  0.31921  0.67925  1.0000
  C   C94       1.0  0.31540  0.35576  0.67473  1.0000
  H   H170      1.0  0.40355  0.34391  0.69532  1.0000
  H   H171      1.0  0.49615  0.49222  0.50872  1.0000
  H   H172      1.0  0.26930  0.31233  0.67474  1.0000
  H   H173      1.0  0.29911  0.37686  0.66671  1.0000
  C   C95       1.0  0.47216  0.30433  0.38363  1.0000
  H   H174      1.0  0.47637  0.50455  0.57789  1.0000
  H   H175      1.0  0.39300  0.16535  0.45680  1.0000
  C   C96       1.0  0.43998  0.04387  0.42114  1.0000
  C   C97       1.0  0.50909  0.24997  0.43653  1.0000
  H   H176      1.0  0.49918  0.37895  0.61281  1.0000
  C   C98       1.0  0.45696  0.38017  0.64569  1.0000
  H   H177      1.0  0.45885  0.41047  0.50757  1.0000
  Fe  Fe12      1.0  0.32925  0.46343  0.49195  1.0000
  C   C99       1.0  0.49694  0.43795  0.65097  1.0000
  C   C100      1.0  0.50292  0.40591  0.62084  1.0000
  C   C101      1.0  0.48334  0.47814  0.68006  1.0000
  C   C102      1.0  0.44124  0.35081  0.63137  1.0000
  C   C103      1.0  0.40388  0.33038  0.63892  1.0000
  H   H178      1.0  0.42712  0.26300  0.40956  1.0000
  H   H179      1.0  0.46086  0.42101  0.67622  1.0000
  S   S26       1.0  0.34807  0.51340  0.68140  1.0000
  C   C104      1.0  0.51721  0.47530  0.45735  1.0000
  C   C105      1.0  0.40337  0.20750  0.43413  1.0000
  N   N6        1.0  0.49689  0.39877  0.64160  1.0000
  H   H180      1.0  0.43374  0.40298  0.64646  1.0000
  C   C106      1.0  0.50447  0.02096  0.70974  1.0000
  C   C107      1.0  0.32120  0.46267  0.54206  1.0000
  H   H181      1.0  0.46312  0.32828  0.62770  1.0000
  H   H182      1.0  0.41301  0.25166  0.67479  1.0000
  H   H183      1.0  0.47004  0.23759  0.40295  1.0000
  H   H184      1.0  0.40440  0.14413  0.43423  1.0000
  S   S27       1.0  0.45386  0.13084  0.70805  1.0000
  Fe  Fe13      1.0  0.32790  0.51326  0.62782  1.0000
  S   S28       1.0  0.29688  0.24692  0.69612  1.0000
  H   H185      1.0  0.39931  0.49513  0.55659  1.0000
  H   H186      1.0  0.43332  0.36644  0.61830  1.0000
  H   H187      1.0  0.22398  0.21384  0.38993  1.0000
  H   H188      1.0  0.38003  0.35186  0.64149  1.0000
  S   S29       1.0  0.29101  0.47795  0.64891  1.0000
  H   H189      1.0  0.40958  0.31443  0.65216  1.0000
  H   H190      1.0  0.36737  0.28433  0.39106  1.0000
  H   H191      1.0  0.41720  0.29108  0.43843  1.0000
  H   H192      1.0  0.45567  0.29257  0.69422  1.0000
  C   C108      1.0  0.44962  0.48816  0.57424  1.0000
  C   C109      1.0  0.46807  0.31595  0.45168  1.0000
  H   H193      1.0  0.51716  0.44793  0.45012  1.0000
  H   H194      1.0  0.46034  0.32489  0.41125  1.0000
  H   H195      1.0  0.45433  0.24906  0.65822  1.0000
  S   S30       1.0  0.38539  0.49375  0.63962  1.0000
  H   H196      1.0  0.32251  0.44692  0.58948  1.0000
  C   C110      1.0  0.48816  0.43726  0.67242  1.0000
  Fe  Fe14      1.0  0.30355  0.51395  0.45897  1.0000
  N   N7        1.0  0.50731  0.27634  0.70946  1.0000
  C   C111      1.0  0.47096  0.47206  0.51118  1.0000
  C   C112      1.0  0.32037  0.50329  0.54201  1.0000
  H   H197      1.0  0.29622  0.38260  0.71191  1.0000
  C   C113      1.0  0.26071  0.38394  0.38628  1.0000
  H   H198      1.0  0.45575  0.20200  0.45081  1.0000
  C   C114      1.0  0.48390  0.43118  0.50577  1.0000
  H   H199      1.0  0.43389  0.26535  0.45828  1.0000
  C   C115      1.0  0.44177  0.34350  0.46299  1.0000
  C   C116      1.0  0.38863  0.16805  0.44151  1.0000
  H   H200      1.0  0.47975  0.42596  0.61580  1.0000
  N   N8        1.0  0.46574  0.25161  0.43236  1.0000
  H   H201      1.0  0.41681  0.35371  0.45457  1.0000
  C   C117      1.0  0.44445  0.28013  0.44508  1.0000
  C   C118      1.0  0.44860  0.21166  0.43635  1.0000
  C   C119      1.0  0.45915  0.26140  0.41211  1.0000
  C   C120      1.0  0.32133  0.50336  0.57624  1.0000
  H   H202      1.0  0.49851  0.28738  0.67992  1.0000
  H   H203      1.0  0.45454  0.48332  0.45562  1.0000
  H   H204      1.0  0.44083  0.47450  0.60380  1.0000
  Fe  Fe15      1.0  0.32735  0.20405  0.71528  1.0000
  H   H205      1.0  0.51299  0.42373  0.67978  1.0000
  H   H206      1.0  0.25233  0.32880  0.71153  1.0000
  S   S31       1.0  0.33948  0.14108  0.70898  1.0000
  C   C121      1.0  0.48254  0.27442  0.69230  1.0000
  H   H207      1.0  0.49346  0.21470  0.68249  1.0000
  C   C122      1.0  0.42352  0.48558  0.59198  1.0000
  H   H208      1.0  0.44756  0.48101  0.50154  1.0000
  C   C123      1.0  0.51942  0.16562  0.38286  1.0000
  H   H209      1.0  0.27668  0.38931  0.39936  1.0000
  H   H210      1.0  0.48360  0.05667  0.38994  1.0000
  H   H211      1.0  0.47939  0.35480  0.69939  1.0000
  H   H212      1.0  0.51278  0.24143  0.45147  1.0000
  H   H213      1.0  0.51146  0.49445  0.67826  1.0000
  H   H214      1.0  0.41201  0.51465  0.59586  1.0000
  C   C124      1.0  0.42829  0.50969  0.55840  1.0000
  H   H215      1.0  0.45281  0.21849  0.69885  1.0000
  H   H216      1.0  0.52029  0.48688  0.55682  1.0000
  Fe  Fe16      1.0  0.38774  0.51441  0.47075  1.0000
  H   H217      1.0  0.21408  0.26836  0.70738  1.0000
  H   H218      1.0  0.27774  0.44396  0.69484  1.0000
  H   H219      1.0  0.51229  0.31426  0.64625  1.0000
  N   N9        1.0  0.45018  0.51320  0.53976  1.0000
  C   C125      1.0  0.49492  0.35012  0.71270  1.0000
  H   H220      1.0  0.45941  0.49381  0.67284  1.0000
  C   C126      1.0  0.26136  0.45352  0.70764  1.0000
  H   H221      1.0  0.22547  0.40262  0.71012  1.0000
  Fe  Fe17      1.0  0.25662  0.31648  0.89011  1.0000
  S   S32       1.0  0.27739  0.35246  0.86531  1.0000
  S   S33       1.0  0.29729  0.29100  0.91176  1.0000
  Fe  Fe18      1.0  0.16832  0.33259  0.88295  1.0000
  S   S34       1.0  0.18294  0.37101  0.85822  1.0000
  S   S35       1.0  0.10648  0.32126  0.89499  1.0000
  Fe  Fe19      1.0  0.22711  0.32485  0.85050  1.0000
  S   S36       1.0  0.22592  0.30605  0.82042  1.0000
  Fe  Fe20      1.0  0.23161  0.39449  0.87535  1.0000
  S   S37       1.0  0.24776  0.45630  0.88068  1.0000
  S   S38       1.0  0.20982  0.28466  0.87444  1.0000
  S   S39       1.0  0.21333  0.36035  0.90090  1.0000
  S   S40       1.0  0.37871  0.13621  0.75091  1.0000
  H   H222      1.0  0.11443  0.42509  0.87624  1.0000
  C   C127      1.0  0.39104  0.44485  0.88432  1.0000
  C   C128      1.0  0.30626  0.33237  0.74014  1.0000
  Fe  Fe21      1.0  0.36154  0.19873  0.75393  1.0000
  S   S41       1.0  0.37537  0.23308  0.77962  1.0000
  H   H223      1.0  0.15218  0.07383  0.80538  1.0000
  H   H224      1.0  0.42606  0.38775  0.00703  1.0000
  H   H225      1.0  0.41245  0.43198  0.85619  1.0000
  H   H226      1.0  0.11451  0.48223  0.84276  1.0000
  S   S42       1.0  0.47268  0.35487  0.91724  1.0000
  H   H227      1.0  0.40539  0.45874  0.94986  1.0000
  H   H228      1.0  0.37332  0.50361  0.93248  1.0000
  H   H229      1.0  0.21234  0.34780  0.72517  1.0000
  H   H230      1.0  0.45978  0.16661  0.74401  1.0000
  C   C129      1.0  0.06291  0.33625  0.88390  1.0000
  C   C130      1.0  0.48133  0.26703  0.72644  1.0000
  C   C131      1.0  0.06417  0.35823  0.86732  1.0000
  H   H231      1.0  0.49576  0.40640  0.00670  1.0000
  H   H232      1.0  0.09224  0.36500  0.86052  1.0000
  C   C132      1.0  0.34631  0.30824  0.91311  1.0000
  C   C133      1.0  0.36759  0.30097  0.92936  1.0000
  C   C134      1.0  0.40666  0.31444  0.93080  1.0000
  C   C135      1.0  0.42477  0.33501  0.91588  1.0000
  C   C136      1.0  0.40376  0.34155  0.89953  1.0000
  C   C137      1.0  0.36464  0.32854  0.89819  1.0000
  H   H233      1.0  0.35372  0.28497  0.94090  1.0000
  H   H234      1.0  0.42263  0.30905  0.94343  1.0000
  H   H235      1.0  0.41785  0.35673  0.88781  1.0000
  H   H236      1.0  0.34895  0.33360  0.88547  1.0000
  C   C138      1.0  0.26857  0.28756  0.80941  1.0000
  C   C139      1.0  0.26638  0.27584  0.79083  1.0000
  C   C140      1.0  0.29928  0.25976  0.78162  1.0000
  C   C141      1.0  0.33456  0.25496  0.79092  1.0000
  C   C142      1.0  0.33709  0.26736  0.80945  1.0000
  C   C143      1.0  0.30407  0.28365  0.81872  1.0000
  H   H237      1.0  0.23897  0.27888  0.78362  1.0000
  H   H238      1.0  0.29730  0.25125  0.76729  1.0000
  H   H239      1.0  0.36440  0.26389  0.81672  1.0000
  H   H240      1.0  0.30596  0.29278  0.83307  1.0000
  H   H241      1.0  0.29933  0.37555  0.77381  1.0000
  H   H242      1.0  0.50618  0.30654  0.74725  1.0000
  C   C144      1.0  0.47043  0.26407  0.76171  1.0000
  H   H243      1.0  0.23945  0.06607  0.79327  1.0000
  H   H244      1.0  0.40858  0.40599  0.97275  1.0000
  C   C145      1.0  0.21902  0.47556  0.84618  1.0000
  H   H245      1.0  0.23320  0.43252  0.92497  1.0000
  H   H246      1.0  0.26733  0.42160  0.79520  1.0000
  H   H247      1.0  0.21814  0.44483  0.84336  1.0000
  H   H248      1.0  0.44345  0.38823  0.03052  1.0000
  S   S43       1.0  0.38734  0.21640  0.72597  1.0000
  H   H249      1.0  0.16141  0.48774  0.93201  1.0000
  N   N10       1.0  0.35507  0.45423  0.91651  1.0000
  C   C146      1.0  0.31373  0.45514  0.92489  1.0000
  Fe  Fe22      1.0  0.31922  0.12825  0.73868  1.0000
  C   C147      1.0  0.35261  0.44136  0.89650  1.0000
  C   C148      1.0  0.38057  0.42591  0.92689  1.0000
  C   C149      1.0  0.38507  0.43378  0.94804  1.0000
  C   C150      1.0  0.29403  0.41497  0.92888  1.0000
  H   H250      1.0  0.19266  0.49225  0.82014  1.0000
  Fe  Fe23      1.0  0.51265  0.34756  0.94190  1.0000
  C   C151      1.0  0.25148  0.41955  0.93604  1.0000
  H   H251      1.0  0.46333  0.51200  0.00447  1.0000
  C   C152      1.0  0.28815  0.03263  0.74103  1.0000
  S   S44       1.0  0.28294  0.07867  0.75141  1.0000
  H   H252      1.0  0.17459  0.03474  0.79243  1.0000
  H   H253      1.0  0.32941  0.45777  0.88912  1.0000
  H   H254      1.0  0.34295  0.41048  0.89603  1.0000
  H   H255      1.0  0.36972  0.39570  0.92515  1.0000
  H   H256      1.0  0.41106  0.42574  0.92078  1.0000
  H   H257      1.0  0.35657  0.44049  0.95517  1.0000
  H   H258      1.0  0.07524  0.44806  0.84896  1.0000
  H   H259      1.0  0.29365  0.39721  0.91606  1.0000
  H   H260      1.0  0.30989  0.39848  0.93975  1.0000
  H   H261      1.0  0.41316  0.42774  0.02204  1.0000
  C   C153      1.0  0.24918  0.40431  0.78564  1.0000
  C   C154      1.0  0.15015  0.50172  0.90246  1.0000
  C   C155      1.0  0.09712  0.48603  0.88128  1.0000
  H   H262      1.0  0.23902  0.39052  0.93984  1.0000
  H   H263      1.0  0.25004  0.43806  0.94863  1.0000
  C   C156      1.0  0.11979  0.45443  0.87013  1.0000
  H   H264      1.0  0.47245  0.34426  0.72393  1.0000
  H   H265      1.0  0.46112  0.23324  0.76075  1.0000
  H   H266      1.0  0.23818  0.37813  0.79347  1.0000
  H   H267      1.0  0.49444  0.41226  0.71742  1.0000
  H   H268      1.0  0.19695  0.24046  0.72742  1.0000
  C   C157      1.0  0.48915  0.16094  0.73852  1.0000
  H   H269      1.0  0.48779  0.48481  0.92268  1.0000
  H   H270      1.0  0.03024  0.38841  0.84664  1.0000
  H   H271      1.0  0.40335  0.32230  0.04122  1.0000
  C   C158      1.0  0.10731  0.45400  0.84978  1.0000
  H   H272      1.0  0.51042  0.24915  0.99515  1.0000
  H   H273      1.0  0.38138  0.37386  0.95810  1.0000
  H   H274      1.0  0.46739  0.47547  0.03080  1.0000
  H   H275      1.0  0.22958  0.42955  0.73149  1.0000
  H   H276      1.0  0.36133  0.44628  0.85766  1.0000
  H   H277      1.0  0.45267  0.28255  0.72581  1.0000
  H   H278      1.0  0.03646  0.45105  0.91221  1.0000
  C   C159      1.0  0.24111  0.33261  0.72617  1.0000
  H   H279      1.0  0.43039  0.38974  0.95097  1.0000
  C   C160      1.0  0.49451  0.14221  0.72145  1.0000
  C   C161      1.0  0.49068  0.45442  0.02653  1.0000
  H   H280      1.0  0.34463  0.37875  0.75125  1.0000
  H   H281      1.0  0.22142  0.38218  0.75279  1.0000
  H   H282      1.0  0.44381  0.28263  0.76145  1.0000
  C   C162      1.0  0.47388  0.42838  0.01111  1.0000
  H   H283      1.0  0.31116  0.31167  0.72848  1.0000
  H   H284      1.0  0.49445  0.43519  0.03899  1.0000
  H   H285      1.0  0.48467  0.26798  0.77534  1.0000
  S   S45       1.0  0.50955  0.38804  0.96628  1.0000
  H   H286      1.0  0.08039  0.37653  0.92272  1.0000
  C   C163      1.0  0.23345  0.48868  0.86314  1.0000
  C   C164      1.0  0.02607  0.32699  0.89234  1.0000
  C   C165      1.0  0.30580  0.02892  0.72326  1.0000
  H   H287      1.0  0.40708  0.34242  0.74823  1.0000
  C   C166      1.0  0.02897  0.37144  0.85948  1.0000
  H   H288      1.0  0.12351  0.43081  0.84218  1.0000
  C   C167      1.0  0.37161  0.32161  0.04553  1.0000
  H   H289      1.0  0.37139  0.31604  0.76263  1.0000
  C   C168      1.0  0.40243  0.39865  0.95806  1.0000
  H   H290      1.0  0.20392  0.09710  0.78251  1.0000
  C   C169      1.0  0.38466  0.42940  0.86470  1.0000
  C   C170      1.0  0.23138  0.29137  0.73424  1.0000
  C   C171      1.0  0.27417  0.39259  0.76852  1.0000
  H   H291      1.0  0.29389  0.47130  0.91541  1.0000
  H   H292      1.0  0.02483  0.30985  0.90514  1.0000
  H   H293      1.0  0.05886  0.41877  0.89573  1.0000
  H   H294      1.0  0.40472  0.49377  0.91307  1.0000
  N   N11       1.0  0.26992  0.35669  0.73690  1.0000
  H   H295      1.0  0.22656  0.49908  0.91612  1.0000
  H   H296      1.0  0.31270  0.47184  0.93809  1.0000
  C   C172      1.0  0.51586  0.38792  0.71745  1.0000
  C   C173      1.0  0.20217  0.27042  0.72196  1.0000
  N   N12       1.0  0.25344  0.14508  0.80498  1.0000
  C   C174      1.0  0.29234  0.12404  0.80386  1.0000
  C   C175      1.0  0.22162  0.11613  0.81057  1.0000
  C   C176      1.0  0.24588  0.16328  0.78615  1.0000
  C   C177      1.0  0.25384  0.17686  0.81930  1.0000
  C   C178      1.0  0.26782  0.16491  0.83901  1.0000
  C   C179      1.0  0.32922  0.14985  0.79992  1.0000
  C   C180      1.0  0.20504  0.18276  0.78407  1.0000
  C   C181      1.0  0.26610  0.19942  0.85222  1.0000
  C   C182      1.0  0.36705  0.12619  0.80131  1.0000
  C   C183      1.0  0.20049  0.19904  0.76429  1.0000
  H   H297      1.0  0.29238  0.10256  0.79238  1.0000
  H   H298      1.0  0.29690  0.10658  0.81682  1.0000
  H   H299      1.0  0.22947  0.10053  0.82365  1.0000
  H   H300      1.0  0.19347  0.13122  0.81409  1.0000
  H   H301      1.0  0.25015  0.14175  0.77482  1.0000
  H   H302      1.0  0.26813  0.18625  0.78291  1.0000
  H   H303      1.0  0.27230  0.20181  0.81420  1.0000
  H   H304      1.0  0.22380  0.18926  0.82136  1.0000
  H   H305      1.0  0.29872  0.15451  0.83847  1.0000
  H   H306      1.0  0.24879  0.14162  0.84524  1.0000
  H   H307      1.0  0.32846  0.16220  0.78555  1.0000
  H   H308      1.0  0.33121  0.17407  0.80988  1.0000
  H   H309      1.0  0.20150  0.20735  0.79383  1.0000
  H   H310      1.0  0.18063  0.16182  0.78683  1.0000
  H   H311      1.0  0.27572  0.19029  0.86632  1.0000
  H   H312      1.0  0.28593  0.22313  0.84697  1.0000
  H   H313      1.0  0.23555  0.21074  0.85356  1.0000
  H   H314      1.0  0.37036  0.11482  0.81578  1.0000
  H   H315      1.0  0.36686  0.10155  0.79144  1.0000
  H   H316      1.0  0.39282  0.14508  0.79763  1.0000
  H   H317      1.0  0.17108  0.21275  0.76310  1.0000
  H   H318      1.0  0.22339  0.22142  0.76109  1.0000
  H   H319      1.0  0.20311  0.17548  0.75387  1.0000
  Fe  Fe24      1.0  0.39795  0.15289  0.72171  1.0000
  H   H320      1.0  0.35910  0.35123  0.04402  1.0000
  C   C184      1.0  0.20489  0.50237  0.83300  1.0000
  S   S46       1.0  0.30057  0.18991  0.74363  1.0000
  C   C185      1.0  0.17989  0.05728  0.80305  1.0000
  C   C186      1.0  0.24999  0.36748  0.75522  1.0000
  C   C187      1.0  0.34626  0.35407  0.74154  1.0000
  C   C188      1.0  0.16476  0.51259  0.92207  1.0000
  C   C189      1.0  0.37846  0.32673  0.74819  1.0000
  C   C190      1.0  0.10209  0.45127  0.91186  1.0000
  H   H321      1.0  0.38144  0.30148  0.73878  1.0000
  H   H322      1.0  0.25813  0.27304  0.73491  1.0000
  H   H323      1.0  0.40065  0.47557  0.88275  1.0000
  C   C191      1.0  0.06144  0.43099  0.90991  1.0000
  H   H324      1.0  0.12528  0.43012  0.90745  1.0000
  H   H325      1.0  0.41538  0.42802  0.89045  1.0000
  H   H326      1.0  0.22368  0.42224  0.78143  1.0000
  H   H327      1.0  0.24203  0.34093  0.76351  1.0000
  S   S47       1.0  0.49856  0.32438  0.01225  1.0000
  H   H328      1.0  0.05545  0.40920  0.93864  1.0000
  H   H329      1.0  0.47316  0.23577  0.72664  1.0000
  H   H330      1.0  0.49573  0.19903  0.99693  1.0000
  C   C192      1.0  0.21307  0.08429  0.79601  1.0000
  H   H331      1.0  0.10641  0.45528  0.92705  1.0000
  H   H332      1.0  0.37581  0.39829  0.86538  1.0000
  H   H333      1.0  0.46589  0.44565  0.99859  1.0000
  H   H334      1.0  0.35578  0.36573  0.72757  1.0000
  C   C193      1.0  0.05606  0.39785  0.92419  1.0000
  H   H335      1.0  0.30183  0.31396  0.75290  1.0000
  H   H336      1.0  0.35609  0.30199  0.03596  1.0000
  H   H337      1.0  0.06498  0.48061  0.87997  1.0000
  H   H338      1.0  0.21778  0.29281  0.74847  1.0000
  H   H339      1.0  0.28514  0.41959  0.76152  1.0000
  H   H340      1.0  0.15193  0.46000  0.86994  1.0000
  H   H341      1.0  0.16972  0.47785  0.89755  1.0000
  C   C194      1.0  0.28061  0.39200  0.72500  1.0000
  N   N13       1.0  0.10746  0.48956  0.90154  1.0000
  H   H342      1.0  0.18799  0.04250  0.81629  1.0000
  H   H343      1.0  0.30181  0.41102  0.73205  1.0000
  H   H344      1.0  0.04913  0.51132  0.90854  1.0000
  C   C195      1.0  0.24608  0.41844  0.71909  1.0000
  H   H345      1.0  0.02774  0.38263  0.92192  1.0000
  C   C196      1.0  0.43681  0.40686  0.01820  1.0000
  C   C197      1.0  0.37307  0.49417  0.91768  1.0000
  C   C198      1.0  0.51237  0.49681  0.93002  1.0000
  H   H346      1.0  0.17356  0.28599  0.72189  1.0000
  C   C199      1.0  0.49926  0.27528  0.74572  1.0000
  H   H347      1.0  0.51768  0.18845  0.76139  1.0000
  C   C200      1.0  0.52115  0.21886  0.99412  1.0000
  H   H348      1.0  0.51817  0.04104  0.71972  1.0000
  C   C201      1.0  0.52190  0.17346  0.74831  1.0000
  H   H349      1.0  0.10327  0.51390  0.87366  1.0000
  H   H350      1.0  0.31701  0.05437  0.71583  1.0000
  H   H351      1.0  0.28108  0.47175  0.71604  1.0000
  Fe  Fe25      1.0  0.48969  0.65444  0.13909  1.0000
  S   S48       1.0  0.43511  0.62729  0.15297  1.0000
  H   H352      1.0  0.30536  0.88840  0.33127  1.0000
  S   S49       1.0  0.50880  0.63848  0.10997  1.0000
  Fe  Fe26      1.0  0.23362  0.67930  0.24668  1.0000
  S   S50       1.0  0.22096  0.73156  0.22879  1.0000
  S   S51       1.0  0.27537  0.68215  0.27068  1.0000
  Fe  Fe27      1.0  0.19492  0.62462  0.21965  1.0000
  S   S52       1.0  0.18089  0.67263  0.19953  1.0000
  S   S53       1.0  0.17385  0.56608  0.21086  1.0000
  Fe  Fe28      1.0  0.24198  0.69450  0.20483  1.0000
  S   S54       1.0  0.28385  0.71910  0.18220  1.0000
  Fe  Fe29      1.0  0.16113  0.70390  0.22539  1.0000
  S   S55       1.0  0.10279  0.73611  0.22609  1.0000
  S   S56       1.0  0.25753  0.64357  0.22283  1.0000
  S   S57       1.0  0.17216  0.65455  0.24538  1.0000
  H   H353      1.0  0.26952  0.91824  0.29004  1.0000
  S   S58       1.0  0.34492  0.82872  0.35762  1.0000
  H   H354      1.0  0.21348  0.56531  0.24634  1.0000
  H   H355      1.0  0.43863  0.78259  0.11032  1.0000
  C   C202      1.0  0.47733  0.80133  0.35928  1.0000
  H   H356      1.0  0.47708  0.81725  0.17599  1.0000
  Fe  Fe30      1.0  0.29611  0.78524  0.36329  1.0000
  S   S59       1.0  0.24481  0.78062  0.34394  1.0000
  C   C203      1.0  0.29136  0.83913  0.27032  1.0000
  C   C204      1.0  0.26575  0.70977  0.29085  1.0000
  C   C205      1.0  0.29519  0.71257  0.30413  1.0000
  C   C206      1.0  0.28890  0.73413  0.32044  1.0000
  C   C207      1.0  0.25301  0.75303  0.32363  1.0000
  C   C208      1.0  0.22362  0.75065  0.31026  1.0000
  C   C209      1.0  0.22997  0.72911  0.29386  1.0000
  H   H357      1.0  0.32294  0.69774  0.30185  1.0000
  H   H358      1.0  0.31179  0.73587  0.33058  1.0000
  H   H359      1.0  0.19583  0.76532  0.31264  1.0000
  H   H360      1.0  0.20717  0.72716  0.28365  1.0000
  C   C210      1.0  0.39460  0.65417  0.16172  1.0000
  C   C211      1.0  0.38898  0.69310  0.15672  1.0000
  C   C212      1.0  0.35493  0.71274  0.16309  1.0000
  C   C213      1.0  0.32706  0.69405  0.17506  1.0000
  C   C214      1.0  0.33387  0.65572  0.18078  1.0000
  C   C215      1.0  0.36706  0.63564  0.17385  1.0000
  H   H361      1.0  0.41055  0.70785  0.14775  1.0000
  H   H362      1.0  0.35018  0.74258  0.15880  1.0000
  H   H363      1.0  0.31347  0.64144  0.19047  1.0000
  H   H364      1.0  0.37158  0.60570  0.17803  1.0000
  H   H365      1.0  0.08008  0.65213  0.13399  1.0000
  H   H366      1.0  0.41808  0.98957  0.36729  1.0000
  H   H367      1.0  0.30238  0.56682  0.18517  1.0000
  H   H368      1.0  0.42719  0.89796  0.33992  1.0000
  H   H369      1.0  0.08593  0.65319  0.22452  1.0000
  C   C216      1.0  0.39598  0.80643  0.30962  1.0000
  N   N14       1.0  0.30234  0.87080  0.30235  1.0000
  C   C217      1.0  0.03686  0.67325  0.28551  1.0000
  C   C218      1.0  0.51567  0.98511  0.37811  1.0000
  C   C219      1.0  0.46225  0.76243  0.18979  1.0000
  H   H370      1.0  0.20118  0.89815  0.34750  1.0000
  H   H371      1.0  0.08942  0.57616  0.18200  1.0000
  H   H372      1.0  0.27821  0.80448  0.24611  1.0000
  H   H373      1.0  0.27957  0.77727  0.26769  1.0000
  C   C220      1.0  0.27813  0.84322  0.29115  1.0000
  H   H374      1.0  0.45762  0.63538  0.21575  1.0000
  H   H375      1.0  0.34322  0.79666  0.29463  1.0000
  C   C221      1.0  0.48401  0.70857  0.22404  1.0000
  H   H376      1.0  0.40021  0.77489  0.31237  1.0000
  N   N15       1.0  0.46200  0.69593  0.20705  1.0000
  H   H377      1.0  0.33565  0.80401  0.31915  1.0000
  H   H378      1.0  0.32349  0.83413  0.26866  1.0000
  H   H379      1.0  0.44163  0.71251  0.10766  1.0000
  H   H380      1.0  0.39404  0.72610  0.11702  1.0000
  H   H381      1.0  0.04472  0.63219  0.18353  1.0000
  H   H382      1.0  0.07538  0.65318  0.26271  1.0000
  C   C222      1.0  0.41830  0.70223  0.21058  1.0000
  H   H383      1.0  0.28406  0.86601  0.26240  1.0000
  C   C223      1.0  0.34660  0.67045  0.10830  1.0000
  C   C224      1.0  0.27034  0.80521  0.26127  1.0000
  S   S60       1.0  0.51146  0.73142  0.07946  1.0000
  H   H384      1.0  0.34267  0.67222  0.24197  1.0000
  H   H385      1.0  0.35896  0.72141  0.23773  1.0000
  H   H386      1.0  0.23782  0.80806  0.26292  1.0000
  H   H387      1.0  0.31759  0.91918  0.36432  1.0000
  H   H388      1.0  0.05564  0.77012  0.16575  1.0000
  H   H389      1.0  0.23931  0.86498  0.35428  1.0000
  C   C225      1.0  0.35236  0.81448  0.30657  1.0000
  C   C226      1.0  0.48484  0.78607  0.17476  1.0000
  H   H390      1.0  0.44849  0.57924  0.11858  1.0000
  H   H391      1.0  0.31689  0.91148  0.27989  1.0000
  H   H392      1.0  0.42372  0.53953  0.10795  1.0000
  H   H393      1.0  0.48447  0.68445  0.23457  1.0000
  C   C227      1.0  0.51222  0.59730  0.19367  1.0000
  H   H394      1.0  0.23687  0.91156  0.31730  1.0000
  H   H395      1.0  0.04086  0.70930  0.10698  1.0000
  H   H396      1.0  0.37863  0.59412  0.11549  1.0000
  C   C228      1.0  0.41853  0.66363  0.35946  1.0000
  C   C229      1.0  0.32532  0.94614  0.37086  1.0000
  H   H397      1.0  0.42239  0.64932  0.11145  1.0000
  Fe  Fe31      1.0  0.38366  0.78007  0.36694  1.0000
  C   C230      1.0  0.28787  0.64616  0.12795  1.0000
  H   H398      1.0  0.40860  0.62460  0.06063  1.0000
  H   H399      1.0  0.10618  0.82008  0.17306  1.0000
  H   H400      1.0  0.30712  0.98231  0.34778  1.0000
  H   H401      1.0  0.34756  0.93822  0.30953  1.0000
  H   H402      1.0  0.25033  0.91613  0.35086  1.0000
  H   H403      1.0  0.02526  0.64350  0.28814  1.0000
  C   C231      1.0  0.05890  0.67596  0.13145  1.0000
  H   H404      1.0  0.05397  0.73727  0.13779  1.0000
  S   S61       1.0  0.50364  0.71761  0.13506  1.0000
  H   H405      1.0  0.11654  0.67622  0.16574  1.0000
  H   H406      1.0  0.04088  0.68729  0.29920  1.0000
  H   H407      1.0  0.29843  0.94845  0.31823  1.0000
  H   H408      1.0  0.06180  0.62368  0.16012  1.0000
  H   H409      1.0  0.12850  0.75845  0.15872  1.0000
  H   H410      1.0  0.45427  0.57164  0.09363  1.0000
  H   H411      1.0  0.38141  0.58307  0.09079  1.0000
  C   C232      1.0  0.12086  0.79739  0.18154  1.0000
  H   H412      1.0  0.46782  0.77549  0.20355  1.0000
  C   C233      1.0  0.40528  0.65263  0.37945  1.0000
  C   C234      1.0  0.30036  0.91082  0.29357  1.0000
  C   C235      1.0  0.42131  0.76900  0.09919  1.0000
  C   C236      1.0  0.51698  0.79602  0.35406  1.0000
  H   H413      1.0  0.10111  0.71698  0.14056  1.0000
  H   H414      1.0  0.34143  0.62352  0.07759  1.0000
  H   H415      1.0  0.09962  0.55397  0.24503  1.0000
  C   C237      1.0  0.10155  0.60616  0.18141  1.0000
  H   H416      1.0  0.08258  0.55548  0.22148  1.0000
  C   C238      1.0  0.11529  0.75732  0.17305  1.0000
  C   C239      1.0  0.31960  0.98185  0.36151  1.0000
  H   H417      1.0  0.32445  0.53525  0.15907  1.0000
  H   H418      1.0  0.22255  0.86139  0.32021  1.0000
  C   C240      1.0  0.07090  0.74591  0.17298  1.0000
  C   C241      1.0  0.07467  0.54620  0.23605  1.0000
  H   H419      1.0  0.33375  0.67238  0.07096  1.0000
  C   C242      1.0  0.46637  0.83320  0.37014  1.0000
  C   C243      1.0  0.23300  0.89126  0.34570  1.0000
  C   C244      1.0  0.27015  0.56194  0.18677  1.0000
  H   H420      1.0  0.43030  0.76552  0.18707  1.0000
  H   H421      1.0  0.39436  0.64668  0.22138  1.0000
  H   H422      1.0  0.21653  0.58572  0.17491  1.0000
  H   H423      1.0  0.50589  0.71682  0.18643  1.0000
  C   C245      1.0  0.50532  0.66307  0.05990  1.0000
  H   H424      1.0  0.24683  0.85270  0.29100  1.0000
  H   H425      1.0  0.09062  0.69853  0.27277  1.0000
  C   C246      1.0  0.46808  0.65319  0.20352  1.0000
  C   C247      1.0  0.28627  0.87081  0.32222  1.0000
  C   C248      1.0  0.24292  0.88426  0.32504  1.0000
  H   H426      1.0  0.41183  0.90458  0.36396  1.0000
  H   H427      1.0  0.28741  0.84118  0.32832  1.0000
  H   H428      1.0  0.27703  0.81393  0.29794  1.0000
  H   H429      1.0  0.43406  0.63924  0.08785  1.0000
  H   H430      1.0  0.36083  0.86600  0.28928  1.0000
  H   H431      1.0  0.33352  0.70014  0.10782  1.0000
  H   H432      1.0  0.40186  0.69715  0.19758  1.0000
  C   C249      1.0  0.34502  0.85836  0.30268  1.0000
  C   C250      1.0  0.41323  0.72638  0.10426  1.0000
  H   H433      1.0  0.46005  0.70585  0.17713  1.0000
  C   C251      1.0  0.31692  0.94431  0.30538  1.0000
  H   H434      1.0  0.41244  0.73300  0.21430  1.0000
  H   H435      1.0  0.43578  0.83803  0.37384  1.0000
  H   H436      1.0  0.36082  0.87474  0.31352  1.0000
  C   C252      1.0  0.35713  0.69211  0.23150  1.0000
  H   H437      1.0  0.41407  0.81501  0.29705  1.0000
  C   C253      1.0  0.47379  0.71878  0.18957  1.0000
  C   C254      1.0  0.35710  0.65143  0.07503  1.0000
  H   H438      1.0  0.51719  0.78312  0.17635  1.0000
  H   H439      1.0  0.40642  0.82244  0.32193  1.0000
  H   H440      1.0  0.49608  0.59357  0.18051  1.0000
  C   C255      1.0  0.06233  0.68628  0.11060  1.0000
  C   C256      1.0  0.43326  0.57019  0.10582  1.0000
  C   C257      1.0  0.07084  0.63418  0.17386  1.0000
  H   H441      1.0  0.26002  0.58956  0.15974  1.0000
  H   H442      1.0  0.10856  0.79788  0.19610  1.0000
  C   C258      1.0  0.39822  0.67691  0.22626  1.0000
  H   H443      1.0  0.33842  0.69365  0.21902  1.0000
  H   H444      1.0  0.13235  0.73644  0.18151  1.0000
  S   S62       1.0  0.33579  0.73526  0.37033  1.0000
  S   S63       1.0  0.44184  0.76747  0.35271  1.0000
  H   H445      1.0  0.41592  0.67638  0.23907  1.0000
  C   C259      1.0  0.24880  0.59132  0.17442  1.0000
  C   C260      1.0  0.20548  0.53590  0.24285  1.0000
  H   H446      1.0  0.46815  0.73259  0.23130  1.0000
  N   N16       1.0  0.37667  0.66536  0.09243  1.0000
  C   C261      1.0  0.31057  0.64256  0.10927  1.0000
  H   H447      1.0  0.25360  0.62125  0.17942  1.0000
  H   H448      1.0  0.42090  0.63738  0.35066  1.0000
  H   H449      1.0  0.44997  0.64402  0.19161  1.0000
  C   C262      1.0  0.45492  0.94714  0.35308  1.0000
  H   H450      1.0  0.29010  0.65012  0.09793  1.0000
  H   H451      1.0  0.41864  0.70245  0.07702  1.0000
  H   H452      1.0  0.44745  0.67886  0.35935  1.0000
  H   H453      1.0  0.05987  0.74634  0.18779  1.0000
  H   H454      1.0  0.33650  0.98109  0.28178  1.0000
  H   H455      1.0  0.39379  0.93678  0.34596  1.0000
  H   H456      1.0  0.47679  0.77640  0.16066  1.0000
  H   H457      1.0  0.26142  0.56766  0.20156  1.0000
  H   H458      1.0  0.39316  0.78505  0.09789  1.0000
  H   H459      1.0  0.37188  0.72415  0.08164  1.0000
  H   H460      1.0  0.10937  0.61433  0.19580  1.0000
  C   C263      1.0  0.06926  0.71132  0.14349  1.0000
  H   H461      1.0  0.39670  0.68346  0.35316  1.0000
  C   C264      1.0  0.05852  0.70947  0.22413  1.0000
  H   H462      1.0  0.27832  0.67662  0.13023  1.0000
  H   H463      1.0  0.46019  0.96301  0.33965  1.0000
  H   H464      1.0  0.37567  0.63907  0.37875  1.0000
  H   H465      1.0  0.51958  0.64904  0.07144  1.0000
  C   C265      1.0  0.51099  0.63971  0.19977  1.0000
  C   C266      1.0  0.41972  0.92001  0.35062  1.0000
  H   H466      1.0  0.31910  0.61180  0.10767  1.0000
  C   C267      1.0  0.05853  0.66892  0.22333  1.0000
  H   H467      1.0  0.36127  0.66842  0.12201  1.0000
  H   H468      1.0  0.15282  0.80435  0.18193  1.0000
  C   C268      1.0  0.49862  0.70309  0.06011  1.0000
  H   H469      1.0  0.49885  0.57798  0.20469  1.0000
  C   C269      1.0  0.39453  0.70475  0.08780  1.0000
  H   H470      1.0  0.28675  0.99060  0.29042  1.0000
  C   C270      1.0  0.08696  0.67653  0.17291  1.0000
  H   H471      1.0  0.12866  0.60639  0.17233  1.0000
  H   H472      1.0  0.43843  0.77172  0.08577  1.0000
  H   H473      1.0  0.26128  0.62728  0.12804  1.0000
  C   C271      1.0  0.40928  0.63863  0.09839  1.0000
  C   C272      1.0  0.38466  0.64540  0.05758  1.0000
  H   H474      1.0  0.30663  0.63696  0.13970  1.0000
  H   H475      1.0  0.48098  0.92875  0.35573  1.0000
  H   H476      1.0  0.32835  0.00627  0.30348  1.0000
  H   H477      1.0  0.09761  0.65335  0.28525  1.0000
  C   C273      1.0  0.07752  0.66945  0.27594  1.0000
  C   C274      1.0  0.39734  0.59582  0.10253  1.0000
  N   N17       1.0  0.47846  0.00570  0.37257  1.0000
  H   H478      1.0  0.09260  0.68367  0.18775  1.0000
  C   C275      1.0  0.49509  0.85894  0.37632  1.0000
  C   C276      1.0  0.31709  0.98282  0.29451  1.0000
  H   H479      1.0  0.39806  0.67322  0.05258  1.0000
  H   H480      1.0  0.43914  0.59905  0.37920  1.0000
  H   H481      1.0  0.09263  0.69647  0.10675  1.0000
  H   H482      1.0  0.04805  0.56217  0.24099  1.0000
  N   N18       1.0  0.06114  0.70737  0.16427  1.0000
  C   C277      1.0  0.18511  0.52865  0.22654  1.0000
  C   C278      1.0  0.44707  0.97530  0.36956  1.0000
  H   H483      1.0  0.02844  0.66542  0.13431  1.0000
  H   H484      1.0  0.02351  0.61734  0.21961  1.0000
  H   H485      1.0  0.05583  0.66019  0.10225  1.0000
  H   H486      1.0  0.50662  0.01297  0.34510  1.0000
  C   C279      1.0  0.02312  0.64865  0.22062  1.0000
  C   C280      1.0  0.02272  0.72947  0.22258  1.0000
  H   H487      1.0  0.02255  0.76087  0.22301  1.0000
  H   H488      1.0  0.02254  0.72741  0.27247  1.0000
  C   C281      1.0  0.25853  0.51983  0.18183  1.0000
  H   H489      1.0  0.25636  0.51831  0.16644  1.0000
  H   H490      1.0  0.30407  0.52114  0.21291  1.0000
  H   H491      1.0  0.44277  0.95637  0.38218  1.0000
  H   H492      1.0  0.50418  0.61696  0.42143  1.0000
  H   H493      1.0  0.36728  0.69721  0.62013  1.0000
  S   S64       1.0  0.33145  0.52766  0.48621  1.0000
  C   C282      1.0  0.32919  0.55486  0.39819  1.0000
  S   S65       1.0  0.24152  0.55404  0.68396  1.0000
  S   S66       1.0  0.43200  0.58215  0.66384  1.0000
  S   S67       1.0  0.32492  0.56739  0.64517  1.0000
  C   C283      1.0  0.31586  0.70503  0.65604  1.0000
  S   S68       1.0  0.33494  0.72105  0.42663  1.0000
  C   C284      1.0  0.44129  0.77824  0.64340  1.0000
  S   S69       1.0  0.26186  0.55388  0.44384  1.0000
  C   C285      1.0  0.34061  0.94549  0.38879  1.0000
  C   C286      1.0  0.31383  0.67474  0.43078  1.0000
  C   C287      1.0  0.32523  0.65360  0.44660  1.0000
  C   C288      1.0  0.31006  0.61628  0.45038  1.0000
  C   C289      1.0  0.28182  0.60043  0.43885  1.0000
  C   C290      1.0  0.26950  0.62198  0.42325  1.0000
  C   C291      1.0  0.28600  0.65881  0.41901  1.0000
  H   H494      1.0  0.34594  0.66603  0.45603  1.0000
  H   H495      1.0  0.31949  0.60013  0.46251  1.0000
  H   H496      1.0  0.24757  0.60986  0.41430  1.0000
  H   H497      1.0  0.27674  0.67500  0.40685  1.0000
  H   H498      1.0  0.35323  0.84640  0.43592  1.0000
  H   H499      1.0  0.29445  0.73172  0.68234  1.0000
  H   H500      1.0  0.40379  0.62276  0.44699  1.0000
  H   H501      1.0  0.49694  0.55094  0.52855  1.0000
  H   H502      1.0  0.51735  0.57382  0.48303  1.0000
  H   H503      1.0  0.42631  0.71462  0.68297  1.0000
  H   H504      1.0  0.33211  0.65915  0.62522  1.0000
  H   H505      1.0  0.49674  0.86481  0.70656  1.0000
  H   H506      1.0  0.37030  0.78437  0.46608  1.0000
  H   H507      1.0  0.43646  0.59347  0.53923  1.0000
  C   C292      1.0  0.37346  0.56293  0.39747  1.0000
  H   H508      1.0  0.44161  0.71956  0.65368  1.0000
  H   H509      1.0  0.45723  0.82123  0.41454  1.0000
  H   H510      1.0  0.37070  0.93521  0.69537  1.0000
  C   C293      1.0  0.42271  0.73777  0.64484  1.0000
  H   H511      1.0  0.42388  0.72517  0.63065  1.0000
  H   H512      1.0  0.48618  0.55669  0.55266  1.0000
  C   C294      1.0  0.46094  0.96127  0.70712  1.0000
  C   C295      1.0  0.45590  0.77679  0.70948  1.0000
  C   C296      1.0  0.20262  0.61971  0.69412  1.0000
  C   C297      1.0  0.23971  0.60289  0.69124  1.0000
  C   C298      1.0  0.27361  0.62451  0.69518  1.0000
  C   C299      1.0  0.26996  0.66269  0.70211  1.0000
  C   C300      1.0  0.48196  0.53080  0.46972  1.0000
  H   H513      1.0  0.17632  0.60320  0.69126  1.0000
  H   H514      1.0  0.30235  0.61143  0.69330  1.0000
  H   H515      1.0  0.50842  0.59779  0.39821  1.0000
  H   H516      1.0  0.42022  0.64550  0.61631  1.0000
  C   C301      1.0  0.36348  0.66789  0.62654  1.0000
  C   C302      1.0  0.43425  0.67582  0.45304  1.0000
  H   H517      1.0  0.36231  0.64014  0.65385  1.0000
  C   C303      1.0  0.39489  0.92068  0.68749  1.0000
  H   H518      1.0  0.31265  0.58074  0.39337  1.0000
  H   H519      1.0  0.44025  0.54125  0.51308  1.0000
  C   C304      1.0  0.43093  0.63822  0.44207  1.0000
  H   H520      1.0  0.46427  0.63991  0.38748  1.0000
  H   H521      1.0  0.42160  0.53881  0.56414  1.0000
  C   C305      1.0  0.25921  0.77020  0.45957  1.0000
  H   H522      1.0  0.42404  0.79739  0.63408  1.0000
  C   C306      1.0  0.25110  0.74039  0.66184  1.0000
  H   H523      1.0  0.36859  0.58588  0.51181  1.0000
  C   C307      1.0  0.32030  0.52344  0.55901  1.0000
  H   H524      1.0  0.40677  0.66415  0.64832  1.0000
  H   H525      1.0  0.45114  0.55499  0.40403  1.0000
  H   H526      1.0  0.40111  0.79745  0.44614  1.0000
  H   H527      1.0  0.39233  0.83250  0.46431  1.0000
  H   H528      1.0  0.21425  0.89739  0.43612  1.0000
  H   H529      1.0  0.43991  0.67998  0.71117  1.0000
  H   H530      1.0  0.24642  0.72671  0.43863  1.0000
  H   H531      1.0  0.38194  0.60917  0.62014  1.0000
  C   C308      1.0  0.35039  0.98071  0.39721  1.0000
  S   S70       1.0  0.32261  0.53070  0.59706  1.0000
  Fe  Fe32      1.0  0.32958  0.75611  0.39982  1.0000
  S   S71       1.0  0.34748  0.90142  0.40122  1.0000
  C   C309      1.0  0.25124  0.90117  0.47309  1.0000
  H   H532      1.0  0.26852  0.79571  0.43215  1.0000
  C   C310      1.0  0.31103  0.83940  0.45957  1.0000
  H   H533      1.0  0.28025  0.90311  0.47977  1.0000
  S   S72       1.0  0.38082  0.79699  0.39688  1.0000
  H   H534      1.0  0.24335  0.70914  0.46242  1.0000
  H   H535      1.0  0.30934  0.71084  0.64112  1.0000
  C   C311      1.0  0.23698  0.73432  0.45311  1.0000
  N   N19       1.0  0.42602  0.61195  0.40834  1.0000
  C   C312      1.0  0.19911  0.65778  0.70058  1.0000
  C   C313      1.0  0.45406  0.57995  0.41360  1.0000
  C   C314      1.0  0.25458  0.80471  0.44563  1.0000
  S   S73       1.0  0.43806  0.55569  0.47378  1.0000
  S   S74       1.0  0.29273  0.91473  0.71202  1.0000
  H   H536      1.0  0.39731  0.51969  0.52358  1.0000
  H   H537      1.0  0.32238  0.53021  0.38896  1.0000
  H   H538      1.0  0.31985  0.99013  0.70068  1.0000
  H   H539      1.0  0.25093  0.92222  0.46123  1.0000
  C   C315      1.0  0.46932  0.56718  0.64829  1.0000
  H   H540      1.0  0.30105  0.67688  0.65985  1.0000
  H   H541      1.0  0.45744  0.66355  0.41687  1.0000
  H   H542      1.0  0.34881  0.66777  0.68367  1.0000
  C   C316      1.0  0.47103  0.79615  0.42174  1.0000
  H   H543      1.0  0.37854  0.58583  0.42512  1.0000
  H   H544      1.0  0.35535  0.90498  0.66550  1.0000
  H   H545      1.0  0.35492  0.71857  0.68760  1.0000
  C   C317      1.0  0.23260  0.67945  0.70467  1.0000
  H   H546      1.0  0.22264  0.80702  0.44267  1.0000
  H   H547      1.0  0.48582  0.54674  0.60242  1.0000
  H   H548      1.0  0.49177  0.79113  0.68513  1.0000
  H   H549      1.0  0.31927  0.55484  0.55881  1.0000
  H   H550      1.0  0.52020  0.63488  0.67239  1.0000
  H   H551      1.0  0.31908  0.54690  0.41261  1.0000
  H   H552      1.0  0.38794  0.57407  0.54468  1.0000
  C   C318      1.0  0.36603  0.69397  0.67907  1.0000
  H   H553      1.0  0.24771  0.77742  0.47375  1.0000
  H   H554      1.0  0.47186  0.77614  0.63756  1.0000
  C   C319      1.0  0.29434  0.73759  0.66710  1.0000
  C   C320      1.0  0.43026  0.64678  0.42073  1.0000
  H   H555      1.0  0.38044  0.64126  0.60022  1.0000
  C   C321      1.0  0.49155  0.78055  0.69942  1.0000
  H   H556      1.0  0.43274  0.99028  0.40694  1.0000
  H   H557      1.0  0.41665  0.60690  0.50652  1.0000
  C   C322      1.0  0.37439  0.66755  0.64749  1.0000
  C   C323      1.0  0.22004  0.91419  0.48749  1.0000
  C   C324      1.0  0.37929  0.73974  0.65234  1.0000
  C   C325      1.0  0.24031  0.90792  0.40887  1.0000
  H   H558      1.0  0.29073  0.76206  0.46055  1.0000
  H   H559      1.0  0.25757  0.89252  0.39783  1.0000
  N   N20       1.0  0.35990  0.70193  0.65856  1.0000
  C   C326      1.0  0.38437  0.59671  0.41058  1.0000
  H   H560      1.0  0.28945  0.89758  0.43820  1.0000
  H   H561      1.0  0.32250  0.86807  0.46388  1.0000
  H   H562      1.0  0.37785  0.76092  0.66398  1.0000
  H   H563      1.0  0.35965  0.86865  0.68362  1.0000
  H   H564      1.0  0.29148  0.85700  0.42363  1.0000
  C   C327      1.0  0.34311  0.82320  0.44593  1.0000
  H   H565      1.0  0.33200  0.79893  0.43765  1.0000
  H   H566      1.0  0.44956  0.89152  0.69133  1.0000
  H   H567      1.0  0.21769  0.85532  0.42149  1.0000
  C   C328      1.0  0.23357  0.88158  0.42607  1.0000
  C   C329      1.0  0.49842  0.59123  0.41282  1.0000
  H   H568      1.0  0.20469  0.73952  0.45355  1.0000
  H   H569      1.0  0.30980  0.82140  0.47263  1.0000
  H   H570      1.0  0.21181  0.85781  0.46212  1.0000
  S   S75       1.0  0.30487  0.81030  0.70238  1.0000
  C   C330      1.0  0.50693  0.55988  0.65483  1.0000
  C   C331      1.0  0.41138  0.57704  0.53360  1.0000
  H   H571      1.0  0.40970  0.69586  0.44978  1.0000
  C   C332      1.0  0.24291  0.85911  0.46666  1.0000
  C   C333      1.0  0.42453  0.53635  0.52675  1.0000
  H   H572      1.0  0.24853  0.74842  0.64684  1.0000
  H   H573      1.0  0.45657  0.62005  0.44572  1.0000
  H   H574      1.0  0.38365  0.62952  0.52324  1.0000
  C   C334      1.0  0.37889  0.80861  0.45637  1.0000
  H   H575      1.0  0.19033  0.91420  0.48135  1.0000
  S   S76       1.0  0.28591  0.80311  0.39324  1.0000
  Fe  Fe33      1.0  0.37955  0.54528  0.65809  1.0000
  C   C335      1.0  0.27325  0.87045  0.43491  1.0000
  H   H576      1.0  0.30835  0.76630  0.66424  1.0000
  C   C336      1.0  0.40882  0.68779  0.68529  1.0000
  N   N21       1.0  0.27050  0.84348  0.45169  1.0000
  H   H577      1.0  0.44244  0.79147  0.65745  1.0000
  H   H578      1.0  0.48651  0.88308  0.38504  1.0000
  H   H579      1.0  0.17014  0.67037  0.70256  1.0000
  H   H580      1.0  0.39716  0.64906  0.70917  1.0000
  H   H581      1.0  0.51758  0.55274  0.43506  1.0000
  C   C337      1.0  0.39405  0.60122  0.51778  1.0000
  H   H582      1.0  0.42340  0.66355  0.67783  1.0000
  C   C338      1.0  0.40934  0.67857  0.70625  1.0000
  H   H583      1.0  0.36253  0.75379  0.64093  1.0000
  H   H584      1.0  0.46274  0.69058  0.44962  1.0000
  Fe  Fe34      1.0  0.33815  0.84262  0.38801  1.0000
  H   H585      1.0  0.40559  0.66747  0.41850  1.0000
  H   H586      1.0  0.25647  0.93473  0.41259  1.0000
  H   H587      1.0  0.43281  0.66892  0.46826  1.0000
  C   C339      1.0  0.51732  0.54645  0.47579  1.0000
  H   H588      1.0  0.29578  0.67914  0.70556  1.0000
  C   C340      1.0  0.38825  0.63924  0.61517  1.0000
  H   H589      1.0  0.21154  0.91640  0.40307  1.0000
  H   H590      1.0  0.50933  0.96416  0.38983  1.0000
  H   H591      1.0  0.23620  0.76299  0.67041  1.0000
  H   H592      1.0  0.51257  0.56306  0.66949  1.0000
  H   H593      1.0  0.36162  0.98044  0.41120  1.0000
  Fe  Fe35      1.0  0.29336  0.53125  0.66699  1.0000
  C   C341      1.0  0.49167  0.54986  0.61707  1.0000
  H   H594      1.0  0.47523  0.80395  0.43656  1.0000
  H   H595      1.0  0.23572  0.71228  0.66470  1.0000
  C   C342      1.0  0.42501  0.90145  0.70067  1.0000
  C   C343      1.0  0.49215  0.61570  0.70781  1.0000
  S   S77       1.0  0.41249  0.78885  0.69824  1.0000
  H   H596      1.0  0.51852  0.53104  0.41220  1.0000
  H   H597      1.0  0.43219  0.56614  0.62441  1.0000
  C   C344      1.0  0.46145  0.56143  0.62947  1.0000
  H   H598      1.0  0.44618  0.56771  0.42775  1.0000
  H   H599      1.0  0.46892  0.61294  0.69730  1.0000
  H   H600      1.0  0.51043  0.72734  0.42070  1.0000
  H   H601      1.0  0.39928  0.87550  0.66641  1.0000
  H   H602      1.0  0.22679  0.94417  0.49201  1.0000
  H   H603      1.0  0.40980  0.94271  0.67825  1.0000
  H   H604      1.0  0.36273  0.62060  0.40878  1.0000
  H   H605      1.0  0.21975  0.89470  0.50001  1.0000
  H   H606      1.0  0.24357  0.84030  0.47942  1.0000
  H   H607      1.0  0.48298  0.95170  0.69634  1.0000
  H   H608      1.0  0.45083  0.77075  0.42113  1.0000
  C   C345      1.0  0.37631  0.89050  0.67497  1.0000
  H   H609      1.0  0.50698  0.58721  0.70953  1.0000
  H   H610      1.0  0.41122  0.87455  0.70685  1.0000
  C   C346      1.0  0.51055  0.78712  0.41209  1.0000
  H   H611      1.0  0.43975  0.97950  0.69931  1.0000
  C   C347      1.0  0.48908  0.53427  0.54162  1.0000
  H   H612      1.0  0.50593  0.67501  0.70014  1.0000
  S   S78       1.0  0.22544  0.72691  0.71322  1.0000
  H   H613      1.0  0.38176  0.56934  0.38268  1.0000
  H   H614      1.0  0.31922  0.51915  0.52890  1.0000
  H   H615      1.0  0.50483  0.78025  0.39731  1.0000
  H   H616      1.0  0.48273  0.00121  0.41287  1.0000
  C   C348      1.0  0.45522  0.01358  0.40730  1.0000
  H   H617      1.0  0.38850  0.53580  0.40181  1.0000
  H   H618      1.0  0.39201  0.70028  0.71431  1.0000
  H   H619      1.0  0.40251  0.67979  0.38755  1.0000
  C   C349      1.0  0.43532  0.62463  0.38842  1.0000
  C   C350      1.0  0.52192  0.64718  0.70175  1.0000
  C   C351      1.0  0.34535  0.01637  0.38772  1.0000
  C   C352      1.0  0.30748  0.99243  0.71472  1.0000
  Fe  Fe36      1.0  0.15895  0.70903  0.84961  1.0000
  S   S79       1.0  0.13112  0.69919  0.87845  1.0000
  S   S80       1.0  0.16971  0.76720  0.83534  1.0000
  Fe  Fe37      1.0  0.16483  0.62390  0.84118  1.0000
  S   S81       1.0  0.13830  0.60686  0.86888  1.0000
  S   S82       1.0  0.18281  0.57582  0.82200  1.0000
  Fe  Fe38      1.0  0.09454  0.65418  0.86419  1.0000
  C   C353      1.0  0.48141  0.72098  0.04458  1.0000
  Fe  Fe39      1.0  0.17716  0.65232  0.88095  1.0000
  S   S83       1.0  0.21202  0.63011  0.90543  1.0000
  S   S84       1.0  0.11856  0.66792  0.83528  1.0000
  S   S85       1.0  0.20721  0.66557  0.85337  1.0000
  H   H620      1.0  0.04612  0.71170  0.82581  1.0000
  C   C354      1.0  0.22012  0.60931  0.76539  1.0000
  Fe  Fe40      1.0  0.31750  0.79494  0.75491  1.0000
  H   H621      1.0  0.24065  0.73091  0.76544  1.0000
  S   S86       1.0  0.32610  0.77839  0.78498  1.0000
  H   H622      1.0  0.27103  0.59333  0.79422  1.0000
  C   C355      1.0  0.23512  0.52840  0.86661  1.0000
  S   S87       1.0  0.32863  0.74689  0.73455  1.0000
  S   S88       1.0  0.35439  0.83895  0.73878  1.0000
  Fe  Fe41      1.0  0.41273  0.68689  0.94856  1.0000
  S   S89       1.0  0.35670  0.71799  0.94056  1.0000
  H   H623      1.0  0.07675  0.79662  0.81192  1.0000
  S   S90       1.0  0.41782  0.62673  0.96076  1.0000
  H   H624      1.0  0.39486  0.77563  0.82117  1.0000
  C   C356      1.0  0.47133  0.69905  0.02893  1.0000
  H   H625      1.0  0.05494  0.79475  0.87584  1.0000
  H   H626      1.0  0.39240  0.71921  0.90258  1.0000
  H   H627      1.0  0.17556  0.66876  0.77301  1.0000
  H   H628      1.0  0.05726  0.73631  0.85576  1.0000
  H   H629      1.0  0.42787  0.75997  0.73578  1.0000
  C   C357      1.0  0.08045  0.51901  0.91064  1.0000
  C   C358      1.0  0.29964  0.62638  0.75118  1.0000
  H   H630      1.0  0.28616  0.60941  0.73993  1.0000
  C   C359      1.0  0.49239  0.52556  0.00120  1.0000
  S   S91       1.0  0.46099  0.67856  0.92691  1.0000
  C   C360      1.0  0.22081  0.55498  0.85358  1.0000
  H   H631      1.0  0.21340  0.54863  0.91130  1.0000
  H   H632      1.0  0.22158  0.58548  0.85666  1.0000
  H   H633      1.0  0.38218  0.62564  0.02898  1.0000
  H   H634      1.0  0.32148  0.53118  0.91274  1.0000
  H   H635      1.0  0.05827  0.82078  0.78038  1.0000
  H   H636      1.0  0.30119  0.81234  0.88333  1.0000
  H   H637      1.0  0.18579  0.77805  0.76813  1.0000
  C   C361      1.0  0.25290  0.65498  0.91430  1.0000
  C   C362      1.0  0.28486  0.63359  0.92103  1.0000
  C   C363      1.0  0.31714  0.65251  0.92891  1.0000
  C   C364      1.0  0.31710  0.69293  0.93061  1.0000
  C   C365      1.0  0.28484  0.71421  0.92418  1.0000
  C   C366      1.0  0.25303  0.69537  0.91588  1.0000
  H   H638      1.0  0.28462  0.60225  0.92012  1.0000
  H   H639      1.0  0.34170  0.63585  0.93396  1.0000
  H   H640      1.0  0.28441  0.74544  0.92565  1.0000
  H   H641      1.0  0.22811  0.71199  0.91115  1.0000
  C   C367      1.0  0.21317  0.77063  0.82125  1.0000
  C   C368      1.0  0.24451  0.74513  0.82398  1.0000
  C   C369      1.0  0.27879  0.74776  0.81267  1.0000
  C   C370      1.0  0.28216  0.77592  0.79851  1.0000
  C   C371      1.0  0.25101  0.80167  0.79565  1.0000
  C   C372      1.0  0.21664  0.79919  0.80712  1.0000
  H   H642      1.0  0.24276  0.72373  0.83495  1.0000
  H   H643      1.0  0.30253  0.72744  0.81459  1.0000
  H   H644      1.0  0.25361  0.82389  0.78486  1.0000
  H   H645      1.0  0.19268  0.81925  0.80495  1.0000
  H   H646      1.0  0.18033  0.74796  0.74800  1.0000
  H   H647      1.0  0.19686  0.67872  0.75037  1.0000
  H   H648      1.0  0.42986  0.80030  0.89696  1.0000
  H   H649      1.0  0.45068  0.87652  0.73361  1.0000
  C   C373      1.0  0.29260  0.95915  0.72406  1.0000
  C   C374      1.0  0.20504  0.54210  0.83691  1.0000
  H   H650      1.0  0.35000  0.78332  0.85031  1.0000
  H   H651      1.0  0.43599  0.96502  0.75161  1.0000
  H   H652      1.0  0.35421  0.61872  0.86880  1.0000
  H   H653      1.0  0.19599  0.60148  0.77572  1.0000
  H   H654      1.0  0.26393  0.93717  0.74928  1.0000
  H   H655      1.0  0.21774  0.64602  0.79857  1.0000
  C   C375      1.0  0.45553  0.76303  0.72798  1.0000
  H   H656      1.0  0.36692  0.99198  0.75184  1.0000
  H   H657      1.0  0.10463  0.78255  0.86854  1.0000
  C   C376      1.0  0.20120  0.56160  0.74014  1.0000
  H   H658      1.0  0.43171  0.73803  0.82160  1.0000
  H   H659      1.0  0.49098  0.74208  0.75059  1.0000
  C   C377      1.0  0.41061  0.94580  0.74902  1.0000
  C   C378      1.0  0.50462  0.80834  0.98029  1.0000
  C   C379      1.0  0.37390  0.56540  0.90831  1.0000
  H   H660      1.0  0.38098  0.72558  0.81778  1.0000
  C   C380      1.0  0.39396  0.73973  0.84665  1.0000
  H   H661      1.0  0.30811  0.62314  0.88210  1.0000
  N   N22       1.0  0.23599  0.64930  0.76934  1.0000
  C   C381      1.0  0.07011  0.79105  0.78254  1.0000
  S   S92       1.0  0.45277  0.71408  0.96945  1.0000
  S   S93       1.0  0.51383  0.64216  0.96088  1.0000
  C   C382      1.0  0.06123  0.77666  0.80253  1.0000
  C   C383      1.0  0.36015  0.76299  0.88655  1.0000
  H   H662      1.0  0.46586  0.56280  0.98041  1.0000
  C   C384      1.0  0.24506  0.65150  0.78985  1.0000
  H   H663      1.0  0.21046  0.72355  0.78642  1.0000
  Fe  Fe42      1.0  0.46159  0.65309  0.98008  1.0000
  H   H664      1.0  0.23442  0.83371  0.87528  1.0000
  C   C385      1.0  0.05740  0.58871  0.91418  1.0000
  H   H665      1.0  0.27716  0.73768  0.86319  1.0000
  H   H666      1.0  0.40034  0.70899  0.85014  1.0000
  H   H667      1.0  0.06423  0.58841  0.92927  1.0000
  H   H668      1.0  0.51186  0.66106  0.78244  1.0000
  H   H669      1.0  0.05944  0.52507  0.83097  1.0000
  S   S94       1.0  0.03090  0.63447  0.86790  1.0000
  C   C386      1.0  0.49117  0.75285  0.73632  1.0000
  C   C387      1.0  0.42152  0.77406  0.90538  1.0000
  H   H670      1.0  0.28218  0.74025  0.88768  1.0000
  C   C388      1.0  0.27773  0.62422  0.79695  1.0000
  Fe  Fe43      1.0  0.46967  0.62071  0.94079  1.0000
  C   C389      1.0  0.46726  0.90204  0.72759  1.0000
  C   C390      1.0  0.21147  0.72073  0.77099  1.0000
  H   H671      1.0  0.07383  0.74714  0.80383  1.0000
  H   H672      1.0  0.24269  0.58665  0.76752  1.0000
  C   C391      1.0  0.24100  0.80224  0.87661  1.0000
  H   H673      1.0  0.28823  0.67700  0.86143  1.0000
  H   H674      1.0  0.25965  0.00201  0.76420  1.0000
  C   C392      1.0  0.20331  0.60429  0.74560  1.0000
  H   H675      1.0  0.47795  0.79997  0.98879  1.0000
  N   N23       1.0  0.33780  0.74051  0.87218  1.0000
  H   H676      1.0  0.24653  0.53870  0.87962  1.0000
  H   H677      1.0  0.34147  0.76668  0.89951  1.0000
  Fe  Fe44      1.0  0.29803  0.85465  0.72495  1.0000
  C   C393      1.0  0.49102  0.54243  0.98141  1.0000
  H   H678      1.0  0.51820  0.74951  0.00474  1.0000
  H   H679      1.0  0.40320  0.78277  0.91774  1.0000
  C   C394      1.0  0.20342  0.67802  0.76555  1.0000
  H   H680      1.0  0.39212  0.96714  0.72195  1.0000
  H   H681      1.0  0.21824  0.53225  0.93512  1.0000
  S   S95       1.0  0.46479  0.62986  0.00990  1.0000
  C   C395      1.0  0.48140  0.98926  0.72056  1.0000
  C   C396      1.0  0.08486  0.56141  0.90336  1.0000
  H   H682      1.0  0.28927  0.65843  0.82166  1.0000
  H   H683      1.0  0.37789  0.57302  0.92318  1.0000
  H   H684      1.0  0.23205  0.79219  0.89094  1.0000
  H   H685      1.0  0.44889  0.76043  0.91049  1.0000
  H   H686      1.0  0.30566  0.60582  0.76273  1.0000
  C   C397      1.0  0.32290  0.62782  0.86819  1.0000
  S   S96       1.0  0.26013  0.81420  0.74299  1.0000
  C   C398      1.0  0.17992  0.74796  0.76353  1.0000
  H   H687      1.0  0.41903  0.73577  0.88207  1.0000
  C   C399      1.0  0.28502  0.79542  0.87291  1.0000
  C   C400      1.0  0.36185  0.62918  0.04129  1.0000
  H   H688      1.0  0.35696  0.58900  0.90161  1.0000
  C   C401      1.0  0.20840  0.52376  0.92109  1.0000
  H   H689      1.0  0.45787  0.71297  0.01706  1.0000
  H   H690      1.0  0.35459  0.65839  0.75436  1.0000
  H   H691      1.0  0.37178  0.68756  0.87623  1.0000
  H   H692      1.0  0.36679  0.79292  0.88121  1.0000
  H   H693      1.0  0.17298  0.61635  0.74525  1.0000
  H   H694      1.0  0.08038  0.82266  0.85744  1.0000
  H   H695      1.0  0.15026  0.73896  0.76896  1.0000
  H   H696      1.0  0.07681  0.56346  0.88848  1.0000
  Fe  Fe45      1.0  0.35919  0.79303  0.71714  1.0000
  C   C402      1.0  0.07579  0.79317  0.86362  1.0000
  C   C403      1.0  0.37410  0.96355  0.75845  1.0000
  C   C404      1.0  0.34072  0.69735  0.87606  1.0000
  H   H697      1.0  0.32858  0.69058  0.89038  1.0000
  H   H698      1.0  0.33105  0.73905  0.84239  1.0000
  H   H699      1.0  0.33498  0.66054  0.73112  1.0000
  H   H700      1.0  0.11535  0.57231  0.90484  1.0000
  H   H701      1.0  0.10253  0.79209  0.77992  1.0000
  H   H702      1.0  0.29239  0.80728  0.85873  1.0000
  H   H703      1.0  0.22330  0.78649  0.86630  1.0000
  H   H704      1.0  0.41536  0.75885  0.85354  1.0000
  H   H705      1.0  0.26301  0.67468  0.74402  1.0000
  H   H706      1.0  0.18291  0.54478  0.75054  1.0000
  C   C405      1.0  0.47783  0.65896  0.02887  1.0000
  H   H707      1.0  0.33366  0.67353  0.84796  1.0000
  C   C406      1.0  0.31994  0.67044  0.86217  1.0000
  H   H708      1.0  0.30777  0.60920  0.85806  1.0000
  H   H709      1.0  0.05365  0.55403  0.85164  1.0000
  H   H710      1.0  0.51548  0.84078  0.73815  1.0000
  H   H711      1.0  0.08267  0.76319  0.83770  1.0000
  H   H712      1.0  0.04320  0.64554  0.81261  1.0000
  H   H713      1.0  0.05709  0.77111  0.77230  1.0000
  C   C407      1.0  0.40069  0.74510  0.82553  1.0000
  Fe  Fe46      1.0  0.50154  0.70073  0.94855  1.0000
  H   H714      1.0  0.35827  0.61691  0.73928  1.0000
  H   H715      1.0  0.50226  0.83949  0.97626  1.0000
  S   S97       1.0  0.47900  0.56736  0.92339  1.0000
  H   H716      1.0  0.48710  0.51904  0.97108  1.0000
  C   C408      1.0  0.29474  0.75142  0.87416  1.0000
  C   C409      1.0  0.27594  0.96258  0.74208  1.0000
  H   H717      1.0  0.06150  0.61885  0.90866  1.0000
  H   H718      1.0  0.22144  0.62000  0.73482  1.0000
  C   C410      1.0  0.27184  0.66010  0.75726  1.0000
  H   H719      1.0  0.37997  0.91833  0.72720  1.0000
  C   C411      1.0  0.35152  0.75136  0.85258  1.0000
  C   C412      1.0  0.28254  0.62798  0.81801  1.0000
  C   C413      1.0  0.33929  0.64165  0.74355  1.0000
  H   H720      1.0  0.25528  0.68110  0.79333  1.0000
  H   H721      1.0  0.28968  0.68246  0.76437  1.0000
  C   C414      1.0  0.27342  0.99933  0.75047  1.0000
  H   H722      1.0  0.40330  0.56359  0.90115  1.0000
  C   C415      1.0  0.39909  0.74512  0.89360  1.0000
  H   H723      1.0  0.30651  0.63243  0.79028  1.0000
  H   H724      1.0  0.25527  0.61858  0.82570  1.0000
  H   H725      1.0  0.30704  0.60912  0.82258  1.0000
  H   H726      1.0  0.51139  0.52451  0.03815  1.0000
  C   C416      1.0  0.03808  0.54221  0.83949  1.0000
  H   H727      1.0  0.49639  0.55018  0.01079  1.0000
  C   C417      1.0  0.06015  0.76548  0.84905  1.0000
  C   C418      1.0  0.35175  0.52689  0.90684  1.0000
  H   H728      1.0  0.50562  0.79107  0.96730  1.0000
  C   C419      1.0  0.49445  0.64105  0.04449  1.0000
  H   H729      1.0  0.34853  0.94357  0.75743  1.0000
  H   H730      1.0  0.47575  0.75188  0.04468  1.0000
  H   H731      1.0  0.41580  0.91736  0.75605  1.0000
  H   H732      1.0  0.33800  0.64940  0.03727  1.0000
  H   H733      1.0  0.23125  0.54895  0.73914  1.0000
  H   H734      1.0  0.18775  0.55923  0.72622  1.0000
  H   H735      1.0  0.49965  0.61007  0.04452  1.0000
  H   H736      1.0  0.14836  0.53772  0.92785  1.0000
  H   H737      1.0  0.02610  0.58032  0.91242  1.0000
  H   H738      1.0  0.02758  0.56675  0.83074  1.0000
  H   H739      1.0  0.15679  0.52649  0.89265  1.0000
  Fe  Fe47      1.0  0.27348  0.76817  0.72165  1.0000
  C   C420      1.0  0.40458  0.93978  0.72781  1.0000
  H   H740      1.0  0.47788  0.91816  0.73977  1.0000
  H   H741      1.0  0.34895  0.60033  0.04505  1.0000
  H   H742      1.0  0.47793  0.62340  0.72143  1.0000
  H   H743      1.0  0.03007  0.71026  0.88565  1.0000
  H   H744      1.0  0.50250  0.97381  0.72955  1.0000
  H   H745      1.0  0.34956  0.52020  0.89179  1.0000
  N   N24       1.0  0.43999  0.92672  0.71606  1.0000
  H   H746      1.0  0.45898  0.00415  0.72944  1.0000
  H   H747      1.0  0.37948  0.96830  0.77348  1.0000
  H   H748      1.0  0.08391  0.51883  0.92607  1.0000
  H   H749      1.0  0.52182  0.65953  0.80719  1.0000
  C   C421      1.0  0.51611  0.53701  0.93182  1.0000
  C   C422      1.0  0.50468  0.88615  0.71730  1.0000
  H   H750      1.0  0.51856  0.55877  0.97796  1.0000
  H   H751      1.0  0.57451  0.40894  0.18112  1.0000
  H   H752      1.0  0.60392  0.19136  0.07160  1.0000
  S   S98       1.0  0.82004  0.24845  0.35900  1.0000
  H   H753      1.0  0.62050  0.25353  0.05471  1.0000
  H   H754      1.0  0.71647  0.18859  0.29839  1.0000
  H   H755      1.0  0.55691  0.19017  0.06012  1.0000
  H   H756      1.0  0.83029  0.19409  0.26607  1.0000
  H   H757      1.0  0.77479  0.17224  0.28718  1.0000
  S   S99       1.0  0.72454  0.18506  0.36764  1.0000
  Fe  Fe48      1.0  0.82655  0.30179  0.25468  1.0000
  S   S100      1.0  0.85026  0.27104  0.22926  1.0000
  S   S101      1.0  0.77913  0.27782  0.27440  1.0000
  Fe  Fe49      1.0  0.87199  0.37614  0.24539  1.0000
  S   S102      1.0  0.89946  0.35221  0.21914  1.0000
  S   S103      1.0  0.88812  0.43526  0.25586  1.0000
  Fe  Fe50      1.0  0.83894  0.32764  0.21426  1.0000
  S   S104      1.0  0.81057  0.33615  0.18624  1.0000
  Fe  Fe51      1.0  0.90864  0.29817  0.23627  1.0000
  S   S105      1.0  0.96613  0.26619  0.23980  1.0000
  S   S106      1.0  0.81115  0.35640  0.23918  1.0000
  S   S107      1.0  0.88535  0.32400  0.26298  1.0000
  S   S108      1.0  0.60339  0.35872  0.13593  1.0000
  H   H758      1.0  0.87779  0.17133  0.26806  1.0000
  H   H759      1.0  0.82741  0.12535  0.27911  1.0000
  Fe  Fe52      1.0  0.59267  0.30842  0.15579  1.0000
  S   S109      1.0  0.63086  0.28783  0.17943  1.0000
  H   H760      1.0  0.53545  0.07290  0.33031  1.0000
  H   H761      1.0  0.83011  0.49293  0.30204  1.0000
  H   H762      1.0  0.75389  0.05749  0.32410  1.0000
  C   C423      1.0  0.99451  0.44117  0.20864  1.0000
  C   C424      1.0  0.85498  0.47236  0.25025  1.0000
  C   C425      1.0  0.81435  0.46538  0.25012  1.0000
  S   S110      1.0  0.60004  0.32163  0.08526  1.0000
  N   N25       1.0  0.77570  0.13521  0.31191  1.0000
  H   H763      1.0  0.61021  0.38446  0.20804  1.0000
  H   H764      1.0  0.80299  0.43659  0.25310  1.0000
  C   C426      1.0  0.68585  0.32188  0.25446  1.0000
  C   C427      1.0  0.01080  0.28413  0.22963  1.0000
  H   H765      1.0  0.68026  0.51336  0.24770  1.0000
  C   C428      1.0  0.54066  0.47345  0.13982  1.0000
  C   C429      1.0  0.58392  0.20916  0.36863  1.0000
  H   H766      1.0  0.98448  0.31126  0.20579  1.0000
  C   C430      1.0  0.76102  0.32151  0.18414  1.0000
  C   C431      1.0  0.74018  0.33314  0.16834  1.0000
  C   C432      1.0  0.70032  0.32273  0.16657  1.0000
  C   C433      1.0  0.68124  0.30022  0.18054  1.0000
  C   C434      1.0  0.70230  0.28809  0.19618  1.0000
  C   C435      1.0  0.74191  0.29906  0.19810  1.0000
  H   H767      1.0  0.75488  0.35040  0.15747  1.0000
  H   H768      1.0  0.68442  0.33203  0.15442  1.0000
  H   H769      1.0  0.68776  0.27050  0.20698  1.0000
  H   H770      1.0  0.75776  0.28983  0.21029  1.0000
  H   H771      1.0  0.70962  0.08306  0.31844  1.0000
  H   H772      1.0  0.68182  0.34578  0.21923  1.0000
  H   H773      1.0  0.80165  0.19161  0.30559  1.0000
  H   H774      1.0  0.86213  0.20665  0.28493  1.0000
  C   C436      1.0  0.83364  0.15008  0.28836  1.0000
  C   C437      1.0  0.80853  0.25914  0.33574  1.0000
  C   C438      1.0  0.83892  0.26570  0.32240  1.0000
  C   C439      1.0  0.83016  0.27246  0.30358  1.0000
  C   C440      1.0  0.79098  0.27222  0.29802  1.0000
  C   C441      1.0  0.76058  0.26632  0.31143  1.0000
  C   C442      1.0  0.76932  0.26008  0.33028  1.0000
  H   H775      1.0  0.86929  0.26487  0.32659  1.0000
  H   H776      1.0  0.85378  0.27663  0.29332  1.0000
  H   H777      1.0  0.73021  0.26633  0.30721  1.0000
  H   H778      1.0  0.74570  0.25540  0.34054  1.0000
  C   C443      1.0  0.79521  0.16394  0.29844  1.0000
  H   H779      1.0  0.85610  0.14094  0.29845  1.0000
  H   H780      1.0  0.90087  0.51533  0.24661  1.0000
  H   H781      1.0  0.74525  0.11006  0.28876  1.0000
  C   C444      1.0  0.85190  0.18256  0.27612  1.0000
  N   N26       1.0  0.85292  0.41259  0.31270  1.0000
  C   C445      1.0  0.87913  0.38042  0.30555  1.0000
  C   C446      1.0  0.81664  0.41464  0.30097  1.0000
  C   C447      1.0  0.87532  0.45033  0.30969  1.0000
  C   C448      1.0  0.84171  0.40797  0.33325  1.0000
  C   C449      1.0  0.83760  0.36577  0.34121  1.0000
  C   C450      1.0  0.92097  0.37891  0.31374  1.0000
  C   C451      1.0  0.78996  0.37818  0.30104  1.0000
  C   C452      1.0  0.75595  0.38349  0.28774  1.0000
  C   C453      1.0  0.78827  0.49610  0.24669  1.0000
  C   C454      1.0  0.94071  0.33975  0.31021  1.0000
  H   H782      1.0  0.88339  0.38344  0.29011  1.0000
  H   H783      1.0  0.86515  0.35153  0.30777  1.0000
  H   H784      1.0  0.79694  0.43848  0.30572  1.0000
  H   H785      1.0  0.82540  0.42158  0.28615  1.0000
  H   H786      1.0  0.88766  0.45235  0.29509  1.0000
  H   H787      1.0  0.90119  0.45130  0.31890  1.0000
  H   H788      1.0  0.86382  0.42236  0.34209  1.0000
  H   H789      1.0  0.81363  0.42356  0.33640  1.0000
  H   H790      1.0  0.86709  0.35252  0.34281  1.0000
  H   H791      1.0  0.82090  0.34649  0.33209  1.0000
  H   H792      1.0  0.93994  0.40170  0.30692  1.0000
  H   H793      1.0  0.92010  0.38412  0.32901  1.0000
  H   H794      1.0  0.61549  0.37884  0.17418  1.0000
  H   H795      1.0  0.80656  0.35227  0.29644  1.0000
  H   H796      1.0  0.77647  0.37298  0.31514  1.0000
  H   H797      1.0  0.73713  0.35705  0.28836  1.0000
  H   H798      1.0  0.73760  0.40884  0.29177  1.0000
  H   H799      1.0  0.76739  0.38760  0.27318  1.0000
  H   H800      1.0  0.69822  0.37334  0.37391  1.0000
  C   C455      1.0  0.53009  0.31634  0.06649  1.0000
  H   H801      1.0  0.74652  0.42731  0.37789  1.0000
  H   H802      1.0  0.97085  0.33991  0.31585  1.0000
  H   H803      1.0  0.92358  0.31591  0.31726  1.0000
  H   H804      1.0  0.94313  0.33402  0.29498  1.0000
  H   H805      1.0  0.80031  0.45969  0.21026  1.0000
  C   C456      1.0  0.62329  0.40935  0.20007  1.0000
  H   H806      1.0  0.80340  0.17152  0.34521  1.0000
  C   C457      1.0  0.01627  0.42932  0.24125  1.0000
  C   C458      1.0  0.70671  0.16718  0.30931  1.0000
  H   H807      1.0  0.72958  0.13667  0.33350  1.0000
  C   C459      1.0  0.76210  0.10056  0.30113  1.0000
  H   H808      1.0  0.80871  0.44631  0.18619  1.0000
  H   H809      1.0  0.61876  0.43108  0.17131  1.0000
  H   H810      1.0  0.64436  0.43949  0.23399  1.0000
  H   H811      1.0  0.78809  0.10330  0.33732  1.0000
  C   C460      1.0  0.74151  0.15503  0.32170  1.0000
  H   H812      1.0  0.78798  0.08460  0.29526  1.0000
  H   H813      1.0  0.82673  0.10197  0.32026  1.0000
  H   H814      1.0  0.66980  0.48562  0.20744  1.0000
  C   C461      1.0  0.73698  0.07008  0.31247  1.0000
  C   C462      1.0  0.80393  0.12143  0.32651  1.0000
  H   H815      1.0  0.75174  0.18214  0.32825  1.0000
  S   S111      1.0  0.62363  0.23865  0.36095  1.0000
  H   H816      1.0  0.59380  0.31290  0.35041  1.0000
  C   C463      1.0  0.79553  0.43666  0.19986  1.0000
  H   H817      1.0  0.74764  0.41066  0.18537  1.0000
  C   C464      1.0  0.82513  0.15370  0.33736  1.0000
  H   H818      1.0  0.59039  0.44015  0.12985  1.0000
  S   S112      1.0  0.53333  0.32966  0.16566  1.0000
  H   H819      1.0  0.84289  0.17307  0.32787  1.0000
  C   C465      1.0  0.57699  0.46848  0.13043  1.0000
  Fe  Fe53      1.0  0.67811  0.22693  0.37713  1.0000
  C   C466      1.0  0.85302  0.13636  0.35161  1.0000
  C   C467      1.0  0.75145  0.42900  0.19786  1.0000
  H   H820      1.0  0.81108  0.41000  0.20438  1.0000
  Fe  Fe54      1.0  0.76670  0.23115  0.37663  1.0000
  H   H821      1.0  0.73744  0.45727  0.19501  1.0000
  H   H822      1.0  0.56807  0.22898  0.07580  1.0000
  H   H823      1.0  0.00003  0.45939  0.19587  1.0000
  H   H824      1.0  0.96257  0.38583  0.26382  1.0000
  H   H825      1.0  0.69361  0.14181  0.30239  1.0000
  H   H826      1.0  0.64426  0.37106  0.23171  1.0000
  H   H827      1.0  0.74772  0.41908  0.22797  1.0000
  H   H828      1.0  0.78591  0.37516  0.35933  1.0000
  H   H829      1.0  0.94247  0.42820  0.22632  1.0000
  C   C468      1.0  0.73332  0.40760  0.21538  1.0000
  C   C469      1.0  0.54406  0.48736  0.05631  1.0000
  H   H830      1.0  0.87645  0.11909  0.34450  1.0000
  Fe  Fe55      1.0  0.57374  0.32148  0.11476  1.0000
  H   H831      1.0  0.66236  0.16602  0.33212  1.0000
  S   S113      1.0  0.56742  0.26930  0.13407  1.0000
  H   H832      1.0  0.56213  0.02753  0.37099  1.0000
  C   C470      1.0  0.86948  0.50985  0.24658  1.0000
  C   C471      1.0  0.75172  0.06508  0.37594  1.0000
  H   H833      1.0  0.54094  0.24208  0.35357  1.0000
  H   H834      1.0  0.68514  0.21295  0.32777  1.0000
  C   C472      1.0  0.67399  0.18631  0.32106  1.0000
  C   C473      1.0  0.68368  0.48278  0.22120  1.0000
  N   N27       1.0  0.68884  0.40815  0.21810  1.0000
  C   C474      1.0  0.59647  0.50056  0.12206  1.0000
  H   H835      1.0  0.69900  0.31671  0.26829  1.0000
  H   H836      1.0  0.72858  0.36478  0.24602  1.0000
  H   H837      1.0  0.74408  0.37716  0.21405  1.0000
  H   H838      1.0  0.64931  0.19477  0.31201  1.0000
  H   H839      1.0  0.52325  0.07552  0.36491  1.0000
  C   C475      1.0  0.57844  0.33445  0.37827  1.0000
  C   C476      1.0  0.52334  0.51017  0.14045  1.0000
  H   H840      1.0  0.77027  0.09052  0.37410  1.0000
  H   H841      1.0  0.70657  0.04715  0.28852  1.0000
  H   H842      1.0  0.54180  0.31871  0.35509  1.0000
  C   C477      1.0  0.67639  0.37121  0.22836  1.0000
  C   C478      1.0  0.57009  0.32629  0.06564  1.0000
  H   H843      1.0  0.99061  0.44462  0.24780  1.0000
  H   H844      1.0  0.95026  0.47930  0.22250  1.0000
  H   H845      1.0  0.71578  0.48844  0.21959  1.0000
  H   H846      1.0  0.67860  0.43288  0.19042  1.0000
  H   H847      1.0  0.92945  0.47355  0.18976  1.0000
  C   C479      1.0  0.66904  0.40803  0.19944  1.0000
  H   H848      1.0  0.69796  0.29981  0.24468  1.0000
  C   C480      1.0  0.67619  0.44202  0.22993  1.0000
  H   H849      1.0  0.75686  0.49088  0.24713  1.0000
  H   H850      1.0  0.98614  0.33961  0.26047  1.0000
  H   H851      1.0  0.67831  0.38177  0.19154  1.0000
  H   H852      1.0  0.61258  0.43678  0.20636  1.0000
  H   H853      1.0  0.65341  0.31801  0.25602  1.0000
  H   H854      1.0  0.69193  0.44156  0.24336  1.0000
  C   C481      1.0  0.99118  0.37149  0.26057  1.0000
  C   C482      1.0  0.60719  0.40707  0.18043  1.0000
  C   C483      1.0  0.81682  0.36512  0.36045  1.0000
  H   H855      1.0  0.55734  0.50668  0.08422  1.0000
  C   C484      1.0  0.95213  0.45046  0.21587  1.0000
  H   H856      1.0  0.63423  0.51142  0.23544  1.0000
  H   H857      1.0  0.83656  0.11764  0.36193  1.0000
  H   H858      1.0  0.89244  0.45445  0.20602  1.0000
  H   H859      1.0  0.86720  0.16024  0.35930  1.0000
  H   H860      1.0  0.57245  0.36087  0.35063  1.0000
  H   H861      1.0  0.56936  0.46706  0.05625  1.0000
  C   C485      1.0  0.85170  0.48817  0.31322  1.0000
  H   H862      1.0  0.99427  0.41069  0.20358  1.0000
  Fe  Fe56      1.0  0.54176  0.37652  0.14408  1.0000
  C   C486      1.0  0.69613  0.36283  0.24728  1.0000
  H   H863      1.0  0.68572  0.38371  0.25800  1.0000
  H   H864      1.0  0.98601  0.37696  0.23088  1.0000
  H   H865      1.0  0.81620  0.33496  0.36618  1.0000
  H   H866      1.0  0.75130  0.02145  0.29428  1.0000
  H   H867      1.0  0.63222  0.36452  0.36976  1.0000
  C   C487      1.0  0.57130  0.33157  0.35731  1.0000
  H   H868      1.0  0.92340  0.42153  0.19292  1.0000
  C   C488      1.0  0.01170  0.30516  0.21274  1.0000
  C   C489      1.0  0.00764  0.38505  0.24146  1.0000
  C   C490      1.0  0.58079  0.20930  0.06503  1.0000
  C   C491      1.0  0.72486  0.03644  0.30013  1.0000
  C   C492      1.0  0.54568  0.21804  0.36313  1.0000
  H   H869      1.0  0.83574  0.48689  0.32698  1.0000
  C   C493      1.0  0.75877  0.03186  0.36506  1.0000
  H   H870      1.0  0.78275  0.03192  0.35478  1.0000
  H   H871      1.0  0.01232  0.37796  0.27168  1.0000
  H   H872      1.0  0.63015  0.49986  0.16288  1.0000
  H   H873      1.0  0.62488  0.49689  0.11508  1.0000
  C   C494      1.0  0.92270  0.44994  0.20010  1.0000
  H   H874      1.0  0.83259  0.38381  0.37035  1.0000
  H   H875      1.0  0.67523  0.41911  0.37862  1.0000
  C   C495      1.0  0.58994  0.17743  0.38061  1.0000
  H   H876      1.0  0.00610  0.50367  0.23106  1.0000
  H   H877      1.0  0.61700  0.51601  0.18628  1.0000
  C   C496      1.0  0.66673  0.51453  0.23374  1.0000
  C   C497      1.0  0.62142  0.34732  0.38217  1.0000
  H   H878      1.0  0.63987  0.32053  0.38227  1.0000
  Fe  Fe57      1.0  0.66108  0.44428  0.64459  1.0000
  S   S114      1.0  0.63894  0.39633  0.66450  1.0000
  H   H879      1.0  0.75252  0.38796  0.39436  1.0000
  S   S115      1.0  0.64486  0.44876  0.61436  1.0000
  C   C498      1.0  0.56883  0.25040  0.69136  1.0000
  H   H880      1.0  0.74107  0.44637  0.51389  1.0000
  S   S116      1.0  0.73436  0.24348  0.68439  1.0000
  S   S117      1.0  0.67509  0.20434  0.40649  1.0000
  Fe  Fe58      1.0  0.72096  0.24909  0.41220  1.0000
  S   S118      1.0  0.70763  0.28481  0.43785  1.0000
  N   N28       1.0  0.62692  0.37015  0.39982  1.0000
  H   H881      1.0  0.53829  0.40461  0.58525  1.0000
  C   C499      1.0  0.80479  0.04745  0.42265  1.0000
  H   H882      1.0  0.65145  0.42832  0.50778  1.0000
  S   S119      1.0  0.78031  0.45390  0.44361  1.0000
  H   H883      1.0  0.67176  0.45914  0.52544  1.0000
  H   H884      1.0  0.77206  0.41999  0.68344  1.0000
  Fe  Fe59      1.0  0.72470  0.16525  0.39755  1.0000
  S   S120      1.0  0.69729  0.48978  0.47883  1.0000
  S   S121      1.0  0.72003  0.27514  0.38335  1.0000
  H   H885      1.0  0.73715  0.09452  0.68253  1.0000
  H   H886      1.0  0.82548  0.15327  0.66993  1.0000
  H   H887      1.0  0.69059  0.37241  0.51985  1.0000
  H   H888      1.0  0.71328  0.11583  0.59909  1.0000
  H   H889      1.0  0.77517  0.03467  0.64313  1.0000
  H   H890      1.0  0.61941  0.16926  0.38427  1.0000
  C   C500      1.0  0.72886  0.33132  0.43925  1.0000
  C   C501      1.0  0.71097  0.35851  0.45108  1.0000
  C   C502      1.0  0.72577  0.39649  0.45190  1.0000
  C   C503      1.0  0.76015  0.40689  0.44181  1.0000
  C   C504      1.0  0.77919  0.37914  0.43060  1.0000
  C   C505      1.0  0.76303  0.34166  0.42894  1.0000
  H   H891      1.0  0.68508  0.35041  0.45941  1.0000
  H   H892      1.0  0.71083  0.41750  0.46057  1.0000
  H   H893      1.0  0.80600  0.38691  0.42287  1.0000
  H   H894      1.0  0.77732  0.32065  0.41993  1.0000
  H   H895      1.0  0.56254  0.13198  0.39747  1.0000
  C   C506      1.0  0.55266  0.49106  0.46331  1.0000
  C   C507      1.0  0.81102  0.45247  0.49826  1.0000
  H   H896      1.0  0.59477  0.20233  0.42151  1.0000
  C   C508      1.0  0.74604  0.42451  0.69293  1.0000
  H   H897      1.0  0.78367  0.41265  0.47964  1.0000
  C   C509      1.0  0.66679  0.35479  0.67016  1.0000
  C   C510      1.0  0.65280  0.32986  0.68458  1.0000
  C   C511      1.0  0.67332  0.29573  0.68913  1.0000
  C   C512      1.0  0.70816  0.28643  0.67933  1.0000
  C   C513      1.0  0.72240  0.31159  0.66504  1.0000
  C   C514      1.0  0.70185  0.34574  0.66048  1.0000
  H   H898      1.0  0.62598  0.33705  0.69227  1.0000
  H   H899      1.0  0.65802  0.11625  0.65901  1.0000
  H   H900      1.0  0.74936  0.30457  0.65741  1.0000
  H   H901      1.0  0.71291  0.36481  0.64937  1.0000
  H   H902      1.0  0.62777  0.43632  0.42347  1.0000
  S   S122      1.0  0.67552  0.15717  0.71070  1.0000
  S   S123      1.0  0.63374  0.50152  0.65205  1.0000
  H   H903      1.0  0.78804  0.41585  0.53348  1.0000
  Fe  Fe60      1.0  0.70249  0.47995  0.60960  1.0000
  H   H904      1.0  0.52418  0.36955  0.66485  1.0000
  C   C515      1.0  0.73268  0.41187  0.39012  1.0000
  C   C516      1.0  0.53466  0.22225  0.42436  1.0000
  C   C517      1.0  0.75578  0.35217  0.50038  1.0000
  C   C518      1.0  0.78641  0.38714  0.52659  1.0000
  C   C519      1.0  0.82748  0.36800  0.52744  1.0000
  C   C520      1.0  0.78492  0.32969  0.48738  1.0000
  C   C521      1.0  0.76950  0.28893  0.48347  1.0000
  C   C522      1.0  0.84209  0.36730  0.54746  1.0000
  H   H905      1.0  0.82423  0.39293  0.49121  1.0000
  H   H906      1.0  0.74680  0.33252  0.51226  1.0000
  H   H907      1.0  0.76653  0.36947  0.53600  1.0000
  H   H908      1.0  0.84975  0.38418  0.51874  1.0000
  H   H909      1.0  0.82595  0.33751  0.52278  1.0000
  H   H910      1.0  0.78845  0.34513  0.47367  1.0000
  H   H911      1.0  0.81439  0.32676  0.49343  1.0000
  H   H912      1.0  0.78956  0.27448  0.47320  1.0000
  H   H913      1.0  0.76799  0.27108  0.49653  1.0000
  H   H914      1.0  0.73973  0.29036  0.47744  1.0000
  H   H915      1.0  0.87149  0.35325  0.54778  1.0000
  H   H916      1.0  0.84496  0.39733  0.55278  1.0000
  H   H917      1.0  0.82144  0.35058  0.55687  1.0000
  H   H918      1.0  0.57427  0.44222  0.58884  1.0000
  C   C523      1.0  0.54370  0.42228  0.61431  1.0000
  C   C524      1.0  0.54030  0.24712  0.70865  1.0000
  H   H919      1.0  0.57282  0.30535  0.38480  1.0000
  H   H920      1.0  0.85509  0.49527  0.48946  1.0000
  C   C525      1.0  0.73288  0.10793  0.66853  1.0000
  H   H921      1.0  0.56936  0.32337  0.44892  1.0000
  H   H922      1.0  0.60395  0.50205  0.41644  1.0000
  H   H923      1.0  0.84153  0.46251  0.47133  1.0000
  H   H924      1.0  0.52281  0.45397  0.59003  1.0000
  H   H925      1.0  0.74894  0.08668  0.63184  1.0000
  H   H926      1.0  0.67137  0.08286  0.69125  1.0000
  H   H927      1.0  0.60025  0.07556  0.69889  1.0000
  H   H928      1.0  0.55794  0.39135  0.64868  1.0000
  H   H929      1.0  0.55297  0.24991  0.67805  1.0000
  C   C526      1.0  0.69885  0.03094  0.39259  1.0000
  H   H930      1.0  0.55627  0.35478  0.38415  1.0000
  C   C527      1.0  0.59114  0.47684  0.40919  1.0000
  C   C528      1.0  0.59828  0.21703  0.69108  1.0000
  C   C529      1.0  0.61150  0.34542  0.41606  1.0000
  H   H931      1.0  0.80162  0.12364  0.68792  1.0000
  C   C530      1.0  0.71720  0.08826  0.63582  1.0000
  Fe  Fe61      1.0  0.73677  0.49916  0.45357  1.0000
  H   H932      1.0  0.53699  0.33503  0.62571  1.0000
  N   N29       1.0  0.71028  0.08038  0.65645  1.0000
  H   H933      1.0  0.72010  0.42061  0.49521  1.0000
  H   H934      1.0  0.70644  0.16646  0.60442  1.0000
  H   H935      1.0  0.53335  0.23028  0.40932  1.0000
  H   H936      1.0  0.64077  0.41849  0.53224  1.0000
  S   S124      1.0  0.77107  0.20803  0.40614  1.0000
  H   H937      1.0  0.57710  0.31714  0.66282  1.0000
  H   H938      1.0  0.60040  0.33378  0.64116  1.0000
  S   S125      1.0  0.72148  0.47012  0.63934  1.0000
  C   C531      1.0  0.77381  0.12224  0.66083  1.0000
  C   C532      1.0  0.72867  0.49669  0.56330  1.0000
  H   H939      1.0  0.73898  0.45600  0.69296  1.0000
  Fe  Fe62      1.0  0.64890  0.50669  0.45996  1.0000
  H   H940      1.0  0.59053  0.25338  0.42632  1.0000
  C   C533      1.0  0.65173  0.07192  0.68039  1.0000
  C   C534      1.0  0.54465  0.43114  0.59330  1.0000
  H   H941      1.0  0.58674  0.38807  0.43561  1.0000
  H   H942      1.0  0.63821  0.37849  0.43870  1.0000
  C   C535      1.0  0.79740  0.41071  0.49355  1.0000
  H   H943      1.0  0.70735  0.15162  0.63838  1.0000
  C   C536      1.0  0.60970  0.36513  0.43536  1.0000
  H   H944      1.0  0.78102  0.47922  0.54797  1.0000
  H   H945      1.0  0.72872  0.35532  0.49199  1.0000
  H   H946      1.0  0.86013  0.24919  0.71491  1.0000
  H   H947      1.0  0.52517  0.19159  0.42627  1.0000
  H   H948      1.0  0.56373  0.46796  0.41699  1.0000
  N   N30       1.0  0.76910  0.39132  0.50748  1.0000
  S   S126      1.0  0.71765  0.10206  0.40644  1.0000
  H   H949      1.0  0.81851  0.45517  0.51315  1.0000
  C   C537      1.0  0.66384  0.42875  0.52200  1.0000
  H   H950      1.0  0.58284  0.18897  0.68912  1.0000
  H   H951      1.0  0.66879  0.12593  0.62709  1.0000
  H   H952      1.0  0.77981  0.16919  0.68059  1.0000
  H   H953      1.0  0.62014  0.22141  0.67938  1.0000
  H   H954      1.0  0.54001  0.39459  0.70707  1.0000
  H   H955      1.0  0.79604  0.36620  0.70558  1.0000
  S   S127      1.0  0.74116  0.47055  0.58371  1.0000
  C   C538      1.0  0.67067  0.37617  0.40198  1.0000
  H   H956      1.0  0.58089  0.33543  0.41379  1.0000
  C   C539      1.0  0.57520  0.31686  0.64737  1.0000
  H   H957      1.0  0.62115  0.31224  0.45144  1.0000
  H   H958      1.0  0.58122  0.21751  0.44475  1.0000
  H   H959      1.0  0.58393  0.48608  0.39476  1.0000
  Fe  Fe63      1.0  0.71892  0.20659  0.71005  1.0000
  H   H960      1.0  0.87295  0.44600  0.48983  1.0000
  C   C540      1.0  0.59901  0.33595  0.45099  1.0000
  C   C541      1.0  0.75423  0.49606  0.54753  1.0000
  H   H961      1.0  0.77020  0.14303  0.64902  1.0000
  C   C542      1.0  0.73315  0.41684  0.50919  1.0000
  H   H962      1.0  0.67677  0.39329  0.41460  1.0000
  H   H963      1.0  0.56723  0.40082  0.61708  1.0000
  C   C543      1.0  0.62075  0.44348  0.40886  1.0000
  H   H964      1.0  0.62946  0.31840  0.41723  1.0000
  H   H965      1.0  0.78727  0.47349  0.49509  1.0000
  C   C544      1.0  0.55772  0.15594  0.38787  1.0000
  C   C545      1.0  0.57788  0.22422  0.42964  1.0000
  H   H966      1.0  0.57778  0.28640  0.64260  1.0000
  C   C546      1.0  0.70126  0.12778  0.62857  1.0000
  S   S128      1.0  0.68775  0.51205  0.43439  1.0000
  C   C547      1.0  0.69998  0.40245  0.52300  1.0000
  C   C548      1.0  0.52962  0.37484  0.64964  1.0000
  C   C549      1.0  0.76693  0.36718  0.71307  1.0000
  S   S129      1.0  0.59677  0.46662  0.45869  1.0000
  H   H967      1.0  0.82977  0.31303  0.70926  1.0000
  H   H968      1.0  0.71011  0.40317  0.53761  1.0000
  H   H969      1.0  0.75177  0.14282  0.61032  1.0000
  H   H970      1.0  0.59867  0.35096  0.46464  1.0000
  H   H971      1.0  0.68548  0.34782  0.40461  1.0000
  H   H972      1.0  0.64903  0.06885  0.65038  1.0000
  H   H973      1.0  0.65076  0.03969  0.68133  1.0000
  H   H974      1.0  0.67616  0.03021  0.40352  1.0000
  H   H975      1.0  0.58911  0.07518  0.67441  1.0000
  C   C550      1.0  0.66660  0.08521  0.66063  1.0000
  H   H976      1.0  0.72939  0.43283  0.40175  1.0000
  H   H977      1.0  0.74680  0.35052  0.70406  1.0000
  C   C551      1.0  0.79646  0.14332  0.67579  1.0000
  H   H978      1.0  0.54204  0.03203  0.39458  1.0000
  H   H979      1.0  0.66218  0.27655  0.70017  1.0000
  H   H980      1.0  0.64826  0.45460  0.40194  1.0000
  H   H981      1.0  0.60919  0.11852  0.68471  1.0000
  H   H982      1.0  0.58654  0.51567  0.55436  1.0000
  C   C552      1.0  0.71939  0.13873  0.60941  1.0000
  C   C553      1.0  0.60999  0.08628  0.68477  1.0000
  H   H983      1.0  0.77889  0.05212  0.43221  1.0000
  H   H984      1.0  0.70311  0.06510  0.62752  1.0000
  H   H985      1.0  0.71557  0.13474  0.67143  1.0000
  H   H986      1.0  0.53671  0.11969  0.70144  1.0000
  H   H987      1.0  0.72034  0.40872  0.68745  1.0000
  C   C554      1.0  0.72231  0.06433  0.39007  1.0000
  C   C555      1.0  0.84739  0.46465  0.48648  1.0000
  C   C556      1.0  0.75446  0.41054  0.71280  1.0000
  H   H988      1.0  0.61431  0.21592  0.70440  1.0000
  H   H989      1.0  0.79254  0.09827  0.65569  1.0000
  H   H990      1.0  0.55093  0.44952  0.62146  1.0000
  H   H991      1.0  0.58609  0.27766  0.69185  1.0000
  C   C557      1.0  0.53618  0.33420  0.64119  1.0000
  H   H992      1.0  0.80457  0.07045  0.41160  1.0000
  H   H993      1.0  0.83234  0.05032  0.43053  1.0000
  H   H994      1.0  0.80951  0.24386  0.70847  1.0000
  C   C558      1.0  0.52492  0.31645  0.71053  1.0000
  C   C559      1.0  0.72057  0.03859  0.66081  1.0000
  C   C560      1.0  0.60442  0.40794  0.39830  1.0000
  H   H995      1.0  0.53605  0.49351  0.53308  1.0000
  H   H996      1.0  0.52828  0.21707  0.70943  1.0000
  H   H997      1.0  0.54259  0.32350  0.69758  1.0000
  H   H998      1.0  0.57324  0.40347  0.40316  1.0000
  C   C561      1.0  0.69272  0.39539  0.38488  1.0000
  H   H999      1.0  0.52596  0.45273  0.64905  1.0000
  Fe  Fe64      1.0  0.62188  0.50774  0.62152  1.0000
  C   C562      1.0  0.52598  0.50911  0.54579  1.0000
  H   H1000     1.0  0.78276  0.03958  0.66796  1.0000
  H   H1001     1.0  0.60260  0.41761  0.38342  1.0000
  H   H1002     1.0  0.71473  0.03170  0.67587  1.0000
  C   C563      1.0  0.76394  0.02631  0.65730  1.0000
  H   H1003     1.0  0.70124  0.01876  0.65292  1.0000
  C   C564      1.0  0.53267  0.13447  0.71458  1.0000
  H   H1004     1.0  0.78723  0.51298  0.61456  1.0000
  H   H1005     1.0  0.52308  0.27895  0.43487  1.0000
  H   H1006     1.0  0.72487  0.37991  0.74823  1.0000
  Fe  Fe65      1.0  0.58920  0.31070  0.95484  1.0000
  H   H1007     1.0  0.55707  0.42640  0.00783  1.0000
  S   S130      1.0  0.63405  0.26259  0.95213  1.0000
  C   C565      1.0  0.91757  0.49468  0.85014  1.0000
  H   H1008     1.0  0.72760  0.41570  0.72156  1.0000
  H   H1009     1.0  0.66870  0.41244  0.93964  1.0000
  S   S131      1.0  0.59235  0.34896  0.97989  1.0000
  Fe  Fe66      1.0  0.81593  0.32335  0.88619  1.0000
  S   S132      1.0  0.77135  0.36346  0.87447  1.0000
  S   S133      1.0  0.79524  0.27380  0.90502  1.0000
  Fe  Fe67      1.0  0.88574  0.36450  0.86612  1.0000
  S   S134      1.0  0.84515  0.40688  0.85233  1.0000
  S   S135      1.0  0.94898  0.38069  0.85776  1.0000
  Fe  Fe68      1.0  0.81487  0.41004  0.88036  1.0000
  S   S136      1.0  0.79610  0.46483  0.89453  1.0000
  Fe  Fe69      1.0  0.80536  0.35637  0.84742  1.0000
  S   S137      1.0  0.76710  0.35219  0.82219  1.0000
  S   S138      1.0  0.85726  0.37077  0.89471  1.0000
  S   S139      1.0  0.84818  0.31294  0.85866  1.0000
  Fe  Fe70      1.0  0.66005  0.17862  0.73958  1.0000
  S   S140      1.0  0.59980  0.18880  0.75220  1.0000
  Fe  Fe71      1.0  0.74449  0.19050  0.75004  1.0000
  H   H1010     1.0  0.70297  0.41533  0.96800  1.0000
  S   S141      1.0  0.79028  0.20562  0.77088  1.0000
  C   C566      1.0  0.84163  0.37198  0.77209  1.0000
  H   H1011     1.0  0.99063  0.50349  0.83349  1.0000
  S   S142      1.0  0.70009  0.23065  0.73779  1.0000
  S   S143      1.0  0.70294  0.14025  0.75435  1.0000
  C   C567      1.0  0.77336  0.31105  0.80822  1.0000
  C   C568      1.0  0.80741  0.28857  0.80918  1.0000
  C   C569      1.0  0.81220  0.25625  0.79764  1.0000
  C   C570      1.0  0.78302  0.24630  0.78508  1.0000
  C   C571      1.0  0.74879  0.26869  0.78416  1.0000
  C   C572      1.0  0.74400  0.30106  0.79572  1.0000
  H   H1012     1.0  0.83037  0.29635  0.81861  1.0000
  H   H1013     1.0  0.83873  0.23899  0.79837  1.0000
  H   H1014     1.0  0.72598  0.26090  0.77466  1.0000
  H   H1015     1.0  0.71755  0.31840  0.79500  1.0000
  S   S144      1.0  0.60098  0.45583  0.96109  1.0000
  H   H1016     1.0  0.74500  0.41635  0.91558  1.0000
  S   S145      1.0  0.52523  0.29520  0.95986  1.0000
  C   C573      1.0  0.76644  0.35546  0.96477  1.0000
  H   H1017     1.0  0.78064  0.35644  0.77217  1.0000
  H   H1018     1.0  0.63123  0.32610  0.73618  1.0000
  H   H1019     1.0  0.80035  0.47241  0.85410  1.0000
  H   H1020     1.0  0.57965  0.34680  0.01896  1.0000
  H   H1021     1.0  0.89013  0.48075  0.85591  1.0000
  H   H1022     1.0  0.86939  0.36720  0.76385  1.0000
  C   C574      1.0  0.79984  0.36903  0.74318  1.0000
  S   S146      1.0  0.74468  0.06269  0.71819  1.0000
  C   C575      1.0  0.67748  0.26725  0.93812  1.0000
  C   C576      1.0  0.70573  0.23796  0.93940  1.0000
  C   C577      1.0  0.74118  0.24045  0.92895  1.0000
  C   C578      1.0  0.74906  0.27232  0.91707  1.0000
  C   C579      1.0  0.72047  0.30149  0.91538  1.0000
  C   C580      1.0  0.68459  0.29887  0.92591  1.0000
  H   H1023     1.0  0.70034  0.21325  0.94864  1.0000
  H   H1024     1.0  0.76290  0.21769  0.93026  1.0000
  H   H1025     1.0  0.72599  0.32594  0.90605  1.0000
  H   H1026     1.0  0.66224  0.32089  0.92452  1.0000
  C   C581      1.0  0.56568  0.33829  0.03209  1.0000
  C   C582      1.0  0.56002  0.16751  0.74102  1.0000
  C   C583      1.0  0.79834  0.50084  0.86008  1.0000
  H   H1027     1.0  0.64771  0.51238  0.89142  1.0000
  C   C584      1.0  0.99216  0.36230  0.86795  1.0000
  H   H1028     1.0  0.78281  0.48899  0.93260  1.0000
  H   H1029     1.0  0.96266  0.33265  0.89106  1.0000
  C   C585      1.0  0.58914  0.23863  0.00508  1.0000
  C   C586      1.0  0.77117  0.04999  0.77130  1.0000
  C   C587      1.0  0.68503  0.41343  0.92599  1.0000
  H   H1030     1.0  0.62967  0.41114  0.00439  1.0000
  H   H1031     1.0  0.70489  0.32577  0.01616  1.0000
  H   H1032     1.0  0.59519  0.24131  0.98972  1.0000
  H   H1033     1.0  0.83614  0.40365  0.77331  1.0000
  H   H1034     1.0  0.67717  0.44029  0.89857  1.0000
  H   H1035     1.0  0.77205  0.29676  0.95418  1.0000
  H   H1036     1.0  0.68722  0.36000  0.72068  1.0000
  C   C588      1.0  0.80705  0.35190  0.76297  1.0000
  H   H1037     1.0  0.82839  0.37081  0.73515  1.0000
  H   H1038     1.0  0.85892  0.47860  0.82470  1.0000
  H   H1039     1.0  0.82312  0.23763  0.73268  1.0000
  H   H1040     1.0  0.79105  0.39975  0.74542  1.0000
  C   C589      1.0  0.63388  0.42847  0.01716  1.0000
  C   C590      1.0  0.69378  0.49177  0.97880  1.0000
  H   H1041     1.0  0.72604  0.30583  0.96674  1.0000
  C   C591      1.0  0.57040  0.48708  0.94856  1.0000
  H   H1042     1.0  0.65571  0.34394  0.01245  1.0000
  H   H1043     1.0  0.67172  0.47179  0.98549  1.0000
  C   C592      1.0  0.84341  0.48126  0.93916  1.0000
  Fe  Fe72      1.0  0.57414  0.39637  0.96038  1.0000
  H   H1044     1.0  0.84525  0.35970  0.78640  1.0000
  H   H1045     1.0  0.63207  0.42531  0.91070  1.0000
  H   H1046     1.0  0.68266  0.47384  0.95099  1.0000
  S   S147      1.0  0.57684  0.35952  0.93489  1.0000
  H   H1047     1.0  0.53939  0.21597  0.02246  1.0000
  H   H1048     1.0  0.57465  0.25151  0.04289  1.0000
  C   C593      1.0  0.74661  0.37362  0.94741  1.0000
  N   N31       1.0  0.62651  0.22774  0.01496  1.0000
  C   C594      1.0  0.79962  0.47360  0.94344  1.0000
  H   H1049     1.0  0.95454  0.45763  0.91581  1.0000
  H   H1050     1.0  0.60050  0.18122  0.03222  1.0000
  H   H1051     1.0  0.90223  0.44704  0.88177  1.0000
  H   H1052     1.0  0.60983  0.16695  0.98790  1.0000
  H   H1053     1.0  0.69836  0.30991  0.72499  1.0000
  C   C595      1.0  0.88588  0.49259  0.81850  1.0000
  N   N32       1.0  0.70468  0.23850  0.85454  1.0000
  C   C596      1.0  0.67121  0.22059  0.86605  1.0000
  C   C597      1.0  0.69796  0.23092  0.83415  1.0000
  C   C598      1.0  0.74284  0.22071  0.86076  1.0000
  C   C599      1.0  0.70694  0.28183  0.85727  1.0000
  C   C600      1.0  0.66856  0.30484  0.85359  1.0000
  C   C601      1.0  0.66991  0.23065  0.88714  1.0000
  C   C602      1.0  0.77976  0.22973  0.84814  1.0000
  C   C603      1.0  0.69746  0.18755  0.82850  1.0000
  C   C604      1.0  0.69417  0.18347  0.80735  1.0000
  C   C605      1.0  0.67301  0.34749  0.85878  1.0000
  C   C606      1.0  0.63502  0.21069  0.89732  1.0000
  H   H1054     1.0  0.67256  0.18835  0.86539  1.0000
  H   H1055     1.0  0.64227  0.22832  0.86009  1.0000
  H   H1056     1.0  0.66909  0.24295  0.82999  1.0000
  H   H1057     1.0  0.72019  0.24669  0.82513  1.0000
  H   H1058     1.0  0.74011  0.18858  0.86218  1.0000
  H   H1059     1.0  0.74980  0.23077  0.87503  1.0000
  H   H1060     1.0  0.71681  0.28851  0.87160  1.0000
  H   H1061     1.0  0.72998  0.29489  0.84776  1.0000
  H   H1062     1.0  0.64303  0.29306  0.86187  1.0000
  H   H1063     1.0  0.66154  0.30403  0.83855  1.0000
  H   H1064     1.0  0.69717  0.22091  0.89395  1.0000
  H   H1065     1.0  0.66661  0.26231  0.88924  1.0000
  H   H1066     1.0  0.78463  0.26143  0.84674  1.0000
  H   H1067     1.0  0.77675  0.21774  0.83394  1.0000
  H   H1068     1.0  0.72461  0.17227  0.83265  1.0000
  H   H1069     1.0  0.67171  0.17237  0.83517  1.0000
  H   H1070     1.0  0.72075  0.19566  0.80001  1.0000
  H   H1071     1.0  0.69194  0.15229  0.80375  1.0000
  H   H1072     1.0  0.66758  0.19861  0.80226  1.0000
  H   H1073     1.0  0.69724  0.36137  0.85028  1.0000
  H   H1074     1.0  0.64525  0.36323  0.85596  1.0000
  H   H1075     1.0  0.67922  0.35015  0.87387  1.0000
  H   H1076     1.0  0.63472  0.21834  0.91235  1.0000
  H   H1077     1.0  0.60676  0.22044  0.89138  1.0000
  H   H1078     1.0  0.63737  0.17863  0.89627  1.0000
  H   H1079     1.0  0.81386  0.17983  0.85747  1.0000
  C   C607      1.0  0.65226  0.20207  0.00282  1.0000
  H   H1080     1.0  0.67506  0.25757  0.02783  1.0000
  H   H1081     1.0  0.76011  0.29235  0.71932  1.0000
  C   C608      1.0  0.57624  0.48485  0.88552  1.0000
  H   H1082     1.0  0.66116  0.31168  0.75545  1.0000
  C   C609      1.0  0.55292  0.21125  0.00838  1.0000
  H   H1083     1.0  0.65200  0.11023  0.98259  1.0000
  H   H1084     1.0  0.80486  0.41600  0.93157  1.0000
  N   N33       1.0  0.52890  0.47512  0.02153  1.0000
  H   H1085     1.0  0.73079  0.33117  0.75548  1.0000
  H   H1086     1.0  0.80698  0.41862  0.95633  1.0000
  H   H1087     1.0  0.80382  0.05126  0.76975  1.0000
  H   H1088     1.0  0.69105  0.34281  0.99327  1.0000
  H   H1089     1.0  0.84270  0.21898  0.84705  1.0000
  C   C610      1.0  0.81677  0.21192  0.85633  1.0000
  H   H1090     1.0  0.01580  0.49245  0.85463  1.0000
  H   H1091     1.0  0.91373  0.42448  0.91411  1.0000
  C   C611      1.0  0.73021  0.35021  0.74277  1.0000
  C   C612      1.0  0.82274  0.29772  0.72267  1.0000
  H   H1092     1.0  0.72852  0.46023  0.92530  1.0000
  C   C613      1.0  0.72733  0.43473  0.96271  1.0000
  C   C614      1.0  0.53681  0.50440  0.03649  1.0000
  C   C615      1.0  0.60394  0.46147  0.01810  1.0000
  H   H1093     1.0  0.56073  0.18020  0.00754  1.0000
  H   H1094     1.0  0.67578  0.15385  0.97373  1.0000
  H   H1095     1.0  0.55894  0.24948  0.72113  1.0000
  H   H1096     1.0  0.79264  0.48652  0.95727  1.0000
  H   H1097     1.0  0.65767  0.46791  0.91819  1.0000
  C   C616      1.0  0.79059  0.42948  0.94415  1.0000
  C   C617      1.0  0.72802  0.42835  0.92774  1.0000
  C   C618      1.0  0.65689  0.33450  0.74455  1.0000
  C   C619      1.0  0.52610  0.32696  0.03277  1.0000
  H   H1098     1.0  0.76069  0.36037  0.93473  1.0000
  H   H1099     1.0  0.57292  0.47413  0.90020  1.0000
  H   H1100     1.0  0.63113  0.28519  0.02651  1.0000
  C   C620      1.0  0.53945  0.47190  0.93839  1.0000
  C   C621      1.0  0.63478  0.16241  0.99738  1.0000
  H   H1101     1.0  0.59898  0.46728  0.87807  1.0000
  H   H1102     1.0  0.63079  0.40930  0.02973  1.0000
  C   C622      1.0  0.61856  0.20780  0.03364  1.0000
  H   H1103     1.0  0.68090  0.19675  0.00967  1.0000
  H   H1104     1.0  0.72897  0.49682  0.95363  1.0000
  H   H1105     1.0  0.62475  0.14514  0.00981  1.0000
  H   H1106     1.0  0.82211  0.22389  0.87038  1.0000
  H   H1107     1.0  0.75546  0.36901  0.97787  1.0000
  H   H1108     1.0  0.65957  0.21677  0.98919  1.0000
  N   N34       1.0  0.74772  0.41746  0.94570  1.0000
  H   H1109     1.0  0.52669  0.25848  0.74765  1.0000
  H   H1110     1.0  0.66424  0.44061  0.01663  1.0000
  H   H1111     1.0  0.55992  0.42503  0.03244  1.0000
  C   C623      1.0  0.95164  0.48864  0.87972  1.0000
  C   C624      1.0  0.66690  0.28633  0.00122  1.0000
  C   C625      1.0  0.70838  0.47547  0.96013  1.0000
  H   H1112     1.0  0.61150  0.47969  0.03014  1.0000
  H   H1113     1.0  0.53282  0.21369  0.97970  1.0000
  Fe  Fe73      1.0  0.52780  0.33692  0.98381  1.0000
  H   H1114     1.0  0.68574  0.38352  0.92047  1.0000
  Fe  Fe74      1.0  0.72178  0.12258  0.72540  1.0000
  C   C626      1.0  0.66169  0.43838  0.91246  1.0000
  C   C627      1.0  0.77980  0.30593  0.72958  1.0000
  H   H1115     1.0  0.93641  0.47008  0.84533  1.0000
  H   H1116     1.0  0.69291  0.27077  0.99528  1.0000
  H   H1117     1.0  0.86175  0.46837  0.95025  1.0000
  C   C628      1.0  0.52674  0.49619  0.00295  1.0000
  H   H1118     1.0  0.77101  0.29986  0.97927  1.0000
  H   H1119     1.0  0.79895  0.35875  0.96372  1.0000
  C   C629      1.0  0.79418  0.50505  0.87943  1.0000
  H   H1120     1.0  0.81348  0.32037  0.76265  1.0000
  N   N35       1.0  0.76923  0.34819  0.73216  1.0000
  C   C630      1.0  0.75822  0.31185  0.96630  1.0000
  C   C631      1.0  0.56547  0.14703  0.72441  1.0000
  C   C632      1.0  0.56129  0.44525  0.02014  1.0000
  H   H1121     1.0  0.76214  0.05653  0.78596  1.0000
  C   C633      1.0  0.82910  0.25441  0.71951  1.0000
  C   C634      1.0  0.93739  0.44004  0.90599  1.0000
  H   H1122     1.0  0.64465  0.28877  0.99029  1.0000
  H   H1123     1.0  0.84897  0.51306  0.93842  1.0000
  H   H1124     1.0  0.77453  0.28889  0.74278  1.0000
  H   H1125     1.0  0.53593  0.44088  0.93710  1.0000
  H   H1126     1.0  0.57882  0.26807  0.00921  1.0000
  H   H1127     1.0  0.89814  0.48579  0.89824  1.0000
  H   H1128     1.0  0.74826  0.43640  0.97438  1.0000
  H   H1129     1.0  0.97038  0.46598  0.87300  1.0000
  C   C635      1.0  0.69357  0.33818  0.73175  1.0000
  H   H1130     1.0  0.71559  0.36299  0.94799  1.0000
  H   H1131     1.0  0.60779  0.47918  0.00510  1.0000
  S   S148      1.0  0.76677  0.17014  0.72218  1.0000
  C   C636      1.0  0.58762  0.33773  0.04844  1.0000
  H   H1132     1.0  0.84427  0.30689  0.73313  1.0000
  C   C637      1.0  0.68050  0.32721  0.00615  1.0000
  H   H1133     1.0  0.69105  0.13186  0.99552  1.0000
  C   C638      1.0  0.99080  0.33990  0.88441  1.0000
  H   H1134     1.0  0.65035  0.36260  0.75140  1.0000
  C   C639      1.0  0.91914  0.46602  0.89106  1.0000
  H   H1135     1.0  0.95703  0.41808  0.89935  1.0000
  C   C640      1.0  0.66541  0.13822  0.98667  1.0000
  C   C641      1.0  0.64982  0.26420  0.01866  1.0000
  H   H1136     1.0  0.75888  0.07273  0.76200  1.0000
  H   H1137     1.0  0.65991  0.05274  0.72463  1.0000
  C   C642      1.0  0.67243  0.02537  0.72023  1.0000
  H   H1138     1.0  0.97109  0.50338  0.88970  1.0000
  H   H1139     1.0  0.54644  0.31770  0.72198  1.0000
  H   H1140     1.0  0.52530  0.47517  0.99127  1.0000
  H   H1141     1.0  0.90668  0.46969  0.81370  1.0000
  H   H1142     1.0  0.85240  0.46873  0.92548  1.0000
  H   H1143     1.0  0.54763  0.48072  0.87863  1.0000
  H   H1144     1.0  0.64670  0.19720  0.03953  1.0000
  H   H1145     1.0  0.77856  0.42897  0.71804  1.0000
  H   H1146     1.0  0.71870  0.49595  0.98830  1.0000
  H   H1147     1.0  0.59481  0.14168  0.71895  1.0000
  H   H1148     1.0  0.87729  0.51031  0.80619  1.0000
  H   H1149     1.0  0.55425  0.51308  0.99995  1.0000
  C   C643      1.0  0.59843  0.23353  0.04881  1.0000
  H   H1150     1.0  0.52851  0.38565  0.73158  1.0000
  H   H1151     1.0  0.61856  0.34548  0.04776  1.0000
  C   C644      1.0  0.00356  0.51632  0.84606  1.0000
  C   C645      1.0  0.71302  0.02235  0.71670  1.0000
  H   H1152     1.0  0.85512  0.56888  0.23939  1.0000
  S   S149      1.0  0.66144  0.88398  0.34415  1.0000
  H   H1153     1.0  0.94430  0.77506  0.32574  1.0000
  H   H1154     1.0  0.71956  0.64807  0.16345  1.0000
  Fe  Fe75      1.0  0.68628  0.82356  0.34517  1.0000
  S   S150      1.0  0.68121  0.78354  0.32069  1.0000
  H   H1155     1.0  0.86112  0.55039  0.31490  1.0000
  H   H1156     1.0  0.65467  0.63849  0.13081  1.0000
  H   H1157     1.0  0.99219  0.75727  0.16906  1.0000
  Fe  Fe76      1.0  0.80263  0.62814  0.23256  1.0000
  S   S151      1.0  0.83196  0.63697  0.20444  1.0000
  S   S152      1.0  0.77005  0.57196  0.23872  1.0000
  Fe  Fe77      1.0  0.82615  0.70822  0.24547  1.0000
  S   S153      1.0  0.85720  0.72357  0.21807  1.0000
  S   S154      1.0  0.83170  0.74860  0.26984  1.0000
  Fe  Fe78      1.0  0.80412  0.69601  0.20522  1.0000
  S   S155      1.0  0.77633  0.71739  0.17856  1.0000
  Fe  Fe79      1.0  0.88213  0.66335  0.21982  1.0000
  S   S156      1.0  0.94457  0.64230  0.21336  1.0000
  S   S157      1.0  0.77123  0.68551  0.23247  1.0000
  S   S158      1.0  0.85457  0.64986  0.24809  1.0000
  C   C646      1.0  0.66743  0.62004  0.20172  1.0000
  S   S159      1.0  0.58930  0.69154  0.11609  1.0000
  H   H1158     1.0  0.89959  0.79080  0.25677  1.0000
  H   H1159     1.0  0.94080  0.64435  0.25343  1.0000
  H   H1160     1.0  0.94926  0.57831  0.28239  1.0000
  S   S160      1.0  0.59057  0.72976  0.17049  1.0000
  H   H1161     1.0  0.57849  0.73922  0.23623  1.0000
  C   C647      1.0  0.57934  0.53741  0.12297  1.0000
  C   C648      1.0  0.98732  0.70917  0.21984  1.0000
  C   C649      1.0  0.98743  0.66866  0.21876  1.0000
  H   H1162     1.0  0.62771  0.58503  0.17506  1.0000
  H   H1163     1.0  0.96018  0.72486  0.21791  1.0000
  Fe  Fe80      1.0  0.52724  0.70050  0.10646  1.0000
  C   C650      1.0  0.72472  0.72258  0.17676  1.0000
  C   C651      1.0  0.70848  0.72433  0.15895  1.0000
  C   C652      1.0  0.66739  0.72555  0.15691  1.0000
  C   C653      1.0  0.64224  0.72684  0.17270  1.0000
  C   C654      1.0  0.65850  0.72672  0.19054  1.0000
  C   C655      1.0  0.69960  0.72408  0.19258  1.0000
  H   H1164     1.0  0.72778  0.72376  0.14665  1.0000
  H   H1165     1.0  0.65523  0.72631  0.14310  1.0000
  H   H1166     1.0  0.63925  0.72820  0.20282  1.0000
  H   H1167     1.0  0.71189  0.72378  0.20633  1.0000
  H   H1168     1.0  0.69909  0.58094  0.13739  1.0000
  H   H1169     1.0  0.93905  0.68785  0.16012  1.0000
  H   H1170     1.0  0.68537  0.53873  0.18732  1.0000
  C   C656      1.0  0.72431  0.77033  0.30813  1.0000
  C   C657      1.0  0.72132  0.74506  0.29303  1.0000
  C   C658      1.0  0.75448  0.73703  0.28156  1.0000
  C   C659      1.0  0.79068  0.75458  0.28505  1.0000
  C   C660      1.0  0.79390  0.77913  0.30041  1.0000
  C   C661      1.0  0.76083  0.78684  0.31200  1.0000
  H   H1171     1.0  0.69313  0.73217  0.29001  1.0000
  H   H1172     1.0  0.75179  0.71793  0.26982  1.0000
  H   H1173     1.0  0.82188  0.79271  0.30318  1.0000
  H   H1174     1.0  0.76340  0.80637  0.32358  1.0000
  C   C662      1.0  0.54570  0.82214  0.36001  1.0000
  H   H1175     1.0  0.92448  0.73788  0.16241  1.0000
  H   H1176     1.0  0.82502  0.85133  0.37163  1.0000
  H   H1177     1.0  0.69835  0.66858  0.12821  1.0000
  H   H1178     1.0  0.52787  0.64154  0.21279  1.0000
  C   C663      1.0  0.84353  0.54027  0.24259  1.0000
  H   H1179     1.0  0.52797  0.54037  0.07117  1.0000
  H   H1180     1.0  0.68146  0.61693  0.23134  1.0000
  H   H1181     1.0  0.93726  0.72699  0.33601  1.0000
  H   H1182     1.0  0.91008  0.75377  0.29728  1.0000
  H   H1183     1.0  0.98600  0.62685  0.26274  1.0000
  S   S161      1.0  0.74068  0.84077  0.36018  1.0000
  H   H1184     1.0  0.94081  0.81597  0.24589  1.0000
  H   H1185     1.0  0.95814  0.78184  0.27543  1.0000
  C   C664      1.0  0.70143  0.62179  0.16107  1.0000
  H   H1186     1.0  0.77315  0.60624  0.17062  1.0000
  Fe  Fe81      1.0  0.56881  0.63029  0.12128  1.0000
  N   N36       1.0  0.71157  0.59062  0.17512  1.0000
  H   H1187     1.0  0.58531  0.82688  0.27939  1.0000
  C   C665      1.0  0.68671  0.63856  0.12720  1.0000
  H   H1188     1.0  0.52605  0.65739  0.18869  1.0000
  H   H1189     1.0  0.69067  0.62894  0.11252  1.0000
  H   H1190     1.0  0.98634  0.76617  0.25531  1.0000
  H   H1191     1.0  0.54330  0.58835  0.19107  1.0000
  H   H1192     1.0  0.95986  0.64539  0.29543  1.0000
  Fe  Fe82      1.0  0.71286  0.90024  0.36154  1.0000
  H   H1193     1.0  0.92439  0.77071  0.23644  1.0000
  C   C666      1.0  0.94580  0.71562  0.16709  1.0000
  H   H1194     1.0  0.89527  0.75682  0.33090  1.0000
  H   H1195     1.0  0.81231  0.90101  0.36635  1.0000
  C   C667      1.0  0.80285  0.53361  0.24289  1.0000
  H   H1196     1.0  0.68828  0.66428  0.22065  1.0000
  N   N37       1.0  0.70342  0.86793  0.27419  1.0000
  C   C668      1.0  0.71961  0.87764  0.29302  1.0000
  C   C669      1.0  0.66530  0.84556  0.27712  1.0000
  C   C670      1.0  0.73252  0.84122  0.26445  1.0000
  C   C671      1.0  0.69761  0.90344  0.26188  1.0000
  C   C672      1.0  0.68681  0.94199  0.27181  1.0000
  C   C673      1.0  0.76282  0.89252  0.29273  1.0000
  C   C674      1.0  0.71879  0.82273  0.24605  1.0000
  C   C675      1.0  0.63195  0.86545  0.28864  1.0000
  C   C676      1.0  0.59758  0.83741  0.29263  1.0000
  C   C677      1.0  0.67546  0.97346  0.25771  1.0000
  C   C678      1.0  0.77282  0.91122  0.31125  1.0000
  C   C679      1.0  0.75287  0.80258  0.23568  1.0000
  H   H1197     1.0  0.71827  0.85168  0.30241  1.0000
  H   H1198     1.0  0.70105  0.89924  0.30045  1.0000
  H   H1199     1.0  0.65218  0.83866  0.26349  1.0000
  H   H1200     1.0  0.67136  0.81699  0.28396  1.0000
  H   H1201     1.0  0.74062  0.81699  0.27399  1.0000
  H   H1202     1.0  0.76061  0.85682  0.26095  1.0000
  H   H1203     1.0  0.72487  0.91003  0.25333  1.0000
  H   H1204     1.0  0.67466  0.89754  0.25145  1.0000
  H   H1205     1.0  0.71244  0.95307  0.27947  1.0000
  H   H1206     1.0  0.66203  0.93837  0.28206  1.0000
  H   H1207     1.0  0.78337  0.86778  0.29058  1.0000
  H   H1208     1.0  0.76832  0.91407  0.28127  1.0000
  H   H1209     1.0  0.70647  0.84499  0.23652  1.0000
  H   H1210     1.0  0.69594  0.80019  0.24916  1.0000
  H   H1211     1.0  0.64202  0.87537  0.30236  1.0000
  H   H1212     1.0  0.62015  0.89039  0.28062  1.0000
  H   H1213     1.0  0.60738  0.81212  0.30111  1.0000
  H   H1214     1.0  0.57386  0.85244  0.30071  1.0000
  H   H1215     1.0  0.62384  0.68288  0.35930  1.0000
  C   C680      1.0  0.66935  0.63799  0.22110  1.0000
  H   H1216     1.0  0.90311  0.59597  0.27346  1.0000
  H   H1217     1.0  0.75314  0.52604  0.18876  1.0000
  H   H1218     1.0  0.80430  0.92016  0.31096  1.0000
  H   H1219     1.0  0.75443  0.93741  0.31367  1.0000
  H   H1220     1.0  0.76778  0.89032  0.32306  1.0000
  H   H1221     1.0  0.76561  0.77945  0.24461  1.0000
  H   H1222     1.0  0.74204  0.78892  0.22280  1.0000
  H   H1223     1.0  0.77640  0.82377  0.23156  1.0000
  C   C681      1.0  0.95440  0.63221  0.26607  1.0000
  H   H1224     1.0  0.83269  0.56074  0.17466  1.0000
  C   C682      1.0  0.81253  0.53615  0.17839  1.0000
  H   H1225     1.0  0.64890  0.96455  0.25009  1.0000
  C   C683      1.0  0.52708  0.72339  0.22067  1.0000
  H   H1226     1.0  0.66863  0.00084  0.26515  1.0000
  C   C684      1.0  0.68597  0.55479  0.17374  1.0000
  H   H1227     1.0  0.97852  0.70107  0.30974  1.0000
  C   C685      1.0  0.61792  0.52422  0.17122  1.0000
  H   H1228     1.0  0.72916  0.63287  0.19543  1.0000
  C   C686      1.0  0.87890  0.52368  0.31281  1.0000
  H   H1229     1.0  0.70013  0.97919  0.24748  1.0000
  H   H1230     1.0  0.64163  0.56790  0.15257  1.0000
  H   H1231     1.0  0.99024  0.73337  0.14677  1.0000
  C   C687      1.0  0.64261  0.56092  0.16773  1.0000
  S   S162      1.0  0.74766  0.95566  0.35534  1.0000
  C   C688      1.0  0.70881  0.60744  0.19452  1.0000
  C   C689      1.0  0.98791  0.72900  0.16215  1.0000
  H   H1232     1.0  0.58017  0.53558  0.06574  1.0000
  C   C690      1.0  0.73585  0.99812  0.36793  1.0000
  C   C691      1.0  0.82723  0.88173  0.37650  1.0000
  C   C692      1.0  0.59986  0.78726  0.05964  1.0000
  C   C693      1.0  0.75417  0.57965  0.17131  1.0000
  C   C694      1.0  0.54251  0.54201  0.13191  1.0000
  H   H1233     1.0  0.69903  0.53405  0.16348  1.0000
  C   C695      1.0  0.77271  0.55126  0.18560  1.0000
  S   S163      1.0  0.65225  0.80581  0.37125  1.0000
  H   H1234     1.0  0.94168  0.71146  0.18246  1.0000
  H   H1235     1.0  0.90364  0.70593  0.30731  1.0000
  H   H1236     1.0  0.57220  0.67502  0.36484  1.0000
  H   H1237     1.0  0.74049  0.61341  0.13647  1.0000
  H   H1238     1.0  0.77839  0.56647  0.19880  1.0000
  H   H1239     1.0  0.67050  0.63159  0.16301  1.0000
  S   S164      1.0  0.60428  0.57799  0.11351  1.0000
  C   C696      1.0  0.54825  0.72772  0.23909  1.0000
  H   H1240     1.0  0.53220  0.74824  0.24840  1.0000
  Fe  Fe83      1.0  0.63193  0.86748  0.37152  1.0000
  Fe  Fe84      1.0  0.56418  0.70221  0.14508  1.0000
  H   H1241     1.0  0.57617  0.81812  0.35576  1.0000
  N   N38       1.0  0.96669  0.70017  0.28022  1.0000
  C   C697      1.0  0.94861  0.66021  0.28274  1.0000
  C   C698      1.0  0.96531  0.72008  0.29888  1.0000
  C   C699      1.0  0.94348  0.72253  0.26599  1.0000
  C   C700      1.0  0.01827  0.69865  0.16883  1.0000
  H   H1242     1.0  0.52724  0.75231  0.21362  1.0000
  H   H1243     1.0  0.67347  0.54343  0.22735  1.0000
  C   C701      1.0  0.95678  0.76527  0.26231  1.0000
  C   C702      1.0  0.92360  0.73150  0.30643  1.0000
  C   C703      1.0  0.92543  0.74862  0.32597  1.0000
  C   C704      1.0  0.70855  0.61108  0.14022  1.0000
  H   H1244     1.0  0.71863  0.58595  0.20511  1.0000
  C   C705      1.0  0.92861  0.78680  0.24955  1.0000
  H   H1245     1.0  0.91619  0.66254  0.28533  1.0000
  C   C706      1.0  0.59677  0.69632  0.36542  1.0000
  H   H1246     1.0  0.63931  0.64654  0.22600  1.0000
  H   H1247     1.0  0.65411  0.64175  0.19226  1.0000
  H   H1248     1.0  0.91151  0.72215  0.26984  1.0000
  H   H1249     1.0  0.94506  0.70791  0.25229  1.0000
  H   H1250     1.0  0.75758  0.56583  0.15739  1.0000
  C   C707      1.0  0.93518  0.59273  0.27032  1.0000
  H   H1251     1.0  0.93887  0.57388  0.25792  1.0000
  H   H1252     1.0  0.98407  0.74668  0.29847  1.0000
  S   S165      1.0  0.54854  0.63998  0.15078  1.0000
  H   H1253     1.0  0.64778  0.59435  0.20330  1.0000
  C   C708      1.0  0.53479  0.85333  0.37135  1.0000
  S   S166      1.0  0.57030  0.88526  0.37966  1.0000
  H   H1254     1.0  0.52553  0.77161  0.34551  1.0000
  H   H1255     1.0  0.56876  0.79063  0.06460  1.0000
  H   H1256     1.0  0.58724  0.52949  0.16685  1.0000
  H   H1257     1.0  0.59679  0.96799  0.37956  1.0000
  H   H1258     1.0  0.61722  0.77633  0.07154  1.0000
  H   H1259     1.0  0.82641  0.51850  0.18951  1.0000
  C   C709      1.0  0.00903  0.69794  0.27332  1.0000
  C   C710      1.0  0.70507  0.99825  0.38133  1.0000
  H   H1260     1.0  0.58970  0.72242  0.35684  1.0000
  H   H1261     1.0  0.61178  0.81608  0.05513  1.0000
  H   H1262     1.0  0.54497  0.70390  0.21171  1.0000
  H   H1263     1.0  0.89486  0.52622  0.29905  1.0000
  H   H1264     1.0  0.00912  0.67031  0.16319  1.0000
  H   H1265     1.0  0.90056  0.52161  0.32412  1.0000
  H   H1266     1.0  0.01072  0.68718  0.25874  1.0000
  H   H1267     1.0  0.52872  0.57010  0.13242  1.0000
  H   H1268     1.0  0.80875  0.51769  0.16595  1.0000
  H   H1269     1.0  0.85893  0.88973  0.37681  1.0000
  H   H1270     1.0  0.52711  0.96679  0.36649  1.0000
  H   H1271     1.0  0.70727  0.01502  0.30865  1.0000
  H   H1272     1.0  0.55070  0.69910  0.24633  1.0000
  H   H1273     1.0  0.01399  0.69540  0.18421  1.0000
  C   C711      1.0  0.55288  0.51958  0.07011  1.0000
  H   H1274     1.0  0.59337  0.72967  0.04932  1.0000
  C   C712      1.0  0.79496  0.58707  0.59753  1.0000
  H   H1275     1.0  0.65276  0.83452  0.42092  1.0000
  S   S167      1.0  0.69322  0.75258  0.66233  1.0000
  H   H1276     1.0  0.75365  0.75299  0.60764  1.0000
  H   H1277     1.0  0.58847  0.79743  0.40142  1.0000
  H   H1278     1.0  0.64407  0.63624  0.56534  1.0000
  C   C713      1.0  0.81293  0.92639  0.40376  1.0000
  H   H1279     1.0  0.62779  0.63873  0.62325  1.0000
  S   S168      1.0  0.72059  0.57011  0.66440  1.0000
  H   H1280     1.0  0.62643  0.65887  0.65748  1.0000
  H   H1281     1.0  0.76679  0.64768  0.61719  1.0000
  S   S169      1.0  0.65198  0.57031  0.46621  1.0000
  Fe  Fe85      1.0  0.69573  0.57463  0.44210  1.0000
  S   S170      1.0  0.68936  0.61587  0.41726  1.0000
  H   H1282     1.0  0.61920  0.64026  0.43761  1.0000
  S   S171      1.0  0.72604  0.79718  0.41249  1.0000
  H   H1283     1.0  0.56571  0.54170  0.64772  1.0000
  C   C714      1.0  0.79336  0.59751  0.55694  1.0000
  H   H1284     1.0  0.76544  0.70353  0.58338  1.0000
  H   H1285     1.0  0.79966  0.59661  0.62775  1.0000
  C   C715      1.0  0.70073  0.66603  0.41658  1.0000
  C   C716      1.0  0.69890  0.68598  0.39940  1.0000
  C   C717      1.0  0.70668  0.72604  0.39809  1.0000
  C   C718      1.0  0.71642  0.74667  0.41399  1.0000
  C   C719      1.0  0.71841  0.72680  0.43124  1.0000
  C   C720      1.0  0.71048  0.68657  0.43257  1.0000
  H   H1286     1.0  0.55565  0.56600  0.41821  1.0000
  H   H1287     1.0  0.63099  0.68696  0.68628  1.0000
  H   H1288     1.0  0.72609  0.74252  0.44361  1.0000
  H   H1289     1.0  0.71198  0.67146  0.44589  1.0000
  H   H1290     1.0  0.81874  0.57856  0.56029  1.0000
  H   H1291     1.0  0.59919  0.61270  0.70640  1.0000
  C   C721      1.0  0.77002  0.72600  0.61097  1.0000
  H   H1292     1.0  0.55419  0.60595  0.68455  1.0000
  C   C722      1.0  0.59794  0.64407  0.66036  1.0000
  H   H1293     1.0  0.65067  0.63920  0.59019  1.0000
  H   H1294     1.0  0.59191  0.68836  0.70294  1.0000
  H   H1295     1.0  0.76306  0.71783  0.62579  1.0000
  H   H1296     1.0  0.77489  0.65582  0.56410  1.0000
  C   C723      1.0  0.70354  0.70226  0.66239  1.0000
  C   C724      1.0  0.71716  0.68359  0.67840  1.0000
  C   C725      1.0  0.72297  0.64322  0.67862  1.0000
  C   C726      1.0  0.71457  0.62096  0.66296  1.0000
  C   C727      1.0  0.70195  0.63963  0.64671  1.0000
  C   C728      1.0  0.69709  0.68031  0.64633  1.0000
  H   H1297     1.0  0.72367  0.70029  0.69060  1.0000
  H   H1298     1.0  0.73349  0.62908  0.69112  1.0000
  H   H1299     1.0  0.69558  0.62265  0.63460  1.0000
  H   H1300     1.0  0.68676  0.69460  0.63385  1.0000
  N   N39       1.0  0.77259  0.62146  0.58984  1.0000
  C   C729      1.0  0.56775  0.67318  0.42915  1.0000
  H   H1301     1.0  0.80259  0.58688  0.52732  1.0000
  H   H1302     1.0  0.77318  0.62893  0.53236  1.0000
  C   C730      1.0  0.70487  0.63105  0.57368  1.0000
  H   H1303     1.0  0.82738  0.59237  0.59626  1.0000
  N   N40       1.0  0.79107  0.93496  0.42197  1.0000
  C   C731      1.0  0.80510  0.97414  0.42836  1.0000
  C   C732      1.0  0.80246  0.90421  0.43607  1.0000
  H   H1304     1.0  0.59002  0.78817  0.64885  1.0000
  C   C733      1.0  0.74721  0.93372  0.41877  1.0000
  C   C734      1.0  0.72049  0.95978  0.43139  1.0000
  C   C735      1.0  0.60048  0.62199  0.62669  1.0000
  C   C736      1.0  0.66073  0.62433  0.57726  1.0000
  C   C737      1.0  0.78492  0.90801  0.45615  1.0000
  C   C738      1.0  0.80247  0.87761  0.46927  1.0000
  C   C739      1.0  0.67689  0.94955  0.42971  1.0000
  S   S172      1.0  0.62392  0.80988  0.69596  1.0000
  H   H1305     1.0  0.56850  0.55617  0.54090  1.0000
  H   H1306     1.0  0.83653  0.97246  0.43241  1.0000
  H   H1307     1.0  0.78900  0.98333  0.44123  1.0000
  H   H1308     1.0  0.79269  0.87497  0.43158  1.0000
  H   H1309     1.0  0.71260  0.61926  0.55969  1.0000
  C   C740      1.0  0.57587  0.64277  0.64169  1.0000
  H   H1310     1.0  0.59162  0.72456  0.44131  1.0000
  H   H1311     1.0  0.74090  0.94258  0.40414  1.0000
  H   H1312     1.0  0.73620  0.90323  0.42010  1.0000
  H   H1313     1.0  0.75343  0.57571  0.62139  1.0000
  H   H1314     1.0  0.72759  0.95732  0.44632  1.0000
  H   H1315     1.0  0.83390  0.53446  0.62058  1.0000
  H   H1316     1.0  0.60780  0.71954  0.65121  1.0000
  C   C741      1.0  0.56041  0.53424  0.55190  1.0000
  H   H1317     1.0  0.78930  0.56069  0.58913  1.0000
  H   H1318     1.0  0.79082  0.93691  0.46210  1.0000
  H   H1319     1.0  0.75267  0.90256  0.45619  1.0000
  H   H1320     1.0  0.79652  0.84781  0.46423  1.0000
  C   C742      1.0  0.62257  0.63265  0.70093  1.0000
  H   H1321     1.0  0.78887  0.88034  0.48349  1.0000
  H   H1322     1.0  0.68666  0.97285  0.38333  1.0000
  H   H1323     1.0  0.66731  0.95430  0.41517  1.0000
  H   H1324     1.0  0.67134  0.91879  0.43392  1.0000
  H   H1325     1.0  0.56621  0.65830  0.41555  1.0000
  C   C743      1.0  0.53097  0.75239  0.42186  1.0000
  C   C744      1.0  0.58974  0.71265  0.42699  1.0000
  H   H1326     1.0  0.62850  0.76875  0.40856  1.0000
  C   C745      1.0  0.69443  0.51916  0.56274  1.0000
  C   C746      1.0  0.71271  0.54213  0.53123  1.0000
  H   H1327     1.0  0.60582  0.85783  0.41747  1.0000
  S   S173      1.0  0.67822  0.53935  0.61480  1.0000
  C   C747      1.0  0.79925  0.61204  0.53678  1.0000
  H   H1328     1.0  0.70570  0.74080  0.38468  1.0000
  C   C748      1.0  0.52934  0.54242  0.62361  1.0000
  S   S174      1.0  0.68136  0.88798  0.38889  1.0000
  H   H1329     1.0  0.57527  0.96909  0.40300  1.0000
  H   H1330     1.0  0.70995  0.66274  0.57289  1.0000
  H   H1331     1.0  0.60604  0.61363  0.66405  1.0000
  C   C749      1.0  0.77841  0.65502  0.60288  1.0000
  C   C750      1.0  0.80779  0.88492  0.39596  1.0000
  C   C751      1.0  0.62297  0.83942  0.42716  1.0000
  H   H1332     1.0  0.82137  0.64282  0.57241  1.0000
  H   H1333     1.0  0.54726  0.62752  0.64354  1.0000
  C   C752      1.0  0.56671  0.72617  0.39474  1.0000
  S   S175      1.0  0.71623  0.83153  0.70234  1.0000
  C   C753      1.0  0.79078  0.63162  0.57089  1.0000
  H   H1334     1.0  0.61953  0.78402  0.44121  1.0000
  H   H1335     1.0  0.58961  0.65892  0.45683  1.0000
  H   H1336     1.0  0.83521  0.90292  0.43688  1.0000
  H   H1337     1.0  0.77455  0.00589  0.40602  1.0000
  H   H1338     1.0  0.66085  0.56034  0.54670  1.0000
  H   H1339     1.0  0.83481  0.88189  0.47022  1.0000
  H   H1340     1.0  0.79997  0.97429  0.65741  1.0000
  S   S176      1.0  0.74872  0.56227  0.45955  1.0000
  H   H1341     1.0  0.80210  0.73213  0.60933  1.0000
  H   H1342     1.0  0.65396  0.59282  0.57871  1.0000
  H   H1343     1.0  0.71679  0.92695  0.70424  1.0000
  N   N41       1.0  0.57137  0.74208  0.41411  1.0000
  C   C754      1.0  0.75788  0.69366  0.59784  1.0000
  H   H1344     1.0  0.60798  0.74201  0.67362  1.0000
  H   H1345     1.0  0.75144  0.96722  0.64840  1.0000
  H   H1346     1.0  0.72418  0.99078  0.42723  1.0000
  S   S177      1.0  0.56657  0.52771  0.60786  1.0000
  H   H1347     1.0  0.60891  0.00678  0.39498  1.0000
  C   C755      1.0  0.58869  0.73163  0.66249  1.0000
  C   C756      1.0  0.52695  0.77122  0.70787  1.0000
  C   C757      1.0  0.59796  0.77731  0.41275  1.0000
  H   H1348     1.0  0.64113  0.61670  0.69058  1.0000
  C   C758      1.0  0.60523  0.66982  0.69180  1.0000
  C   C759      1.0  0.60197  0.80072  0.43101  1.0000
  H   H1349     1.0  0.52858  0.81400  0.41234  1.0000
  H   H1350     1.0  0.67414  0.51937  0.57465  1.0000
  C   C760      1.0  0.55266  0.52642  0.47268  1.0000
  H   H1351     1.0  0.81054  0.66087  0.60428  1.0000
  Fe  Fe86      1.0  0.68249  0.78136  0.69049  1.0000
  H   H1352     1.0  0.76641  0.57929  0.55780  1.0000
  H   H1353     1.0  0.53735  0.67726  0.43485  1.0000
  H   H1354     1.0  0.62091  0.70686  0.42254  1.0000
  H   H1355     1.0  0.61277  0.68105  0.39333  1.0000
  H   H1356     1.0  0.71448  0.61547  0.60272  1.0000
  H   H1357     1.0  0.62618  0.85522  0.44046  1.0000
  Fe  Fe87      1.0  0.65700  0.85650  0.71049  1.0000
  Fe  Fe88      1.0  0.69266  0.52792  0.64470  1.0000
  H   H1358     1.0  0.72543  0.69020  0.59956  1.0000
  H   H1359     1.0  0.54268  0.70409  0.39464  1.0000
  C   C761      1.0  0.55887  0.70126  0.67075  1.0000
  C   C762      1.0  0.55062  0.01131  0.38348  1.0000
  C   C763      1.0  0.72948  0.61062  0.58893  1.0000
  H   H1360     1.0  0.57002  0.67237  0.63617  1.0000
  H   H1361     1.0  0.82612  0.63044  0.53527  1.0000
  H   H1362     1.0  0.75785  0.97194  0.67326  1.0000
  C   C764      1.0  0.52398  0.55812  0.41998  1.0000
  H   H1363     1.0  0.72609  0.57897  0.58636  1.0000
  H   H1364     1.0  0.58327  0.61928  0.61379  1.0000
  Fe  Fe89      1.0  0.70412  0.55346  0.48335  1.0000
  H   H1365     1.0  0.53490  0.69694  0.66068  1.0000
  H   H1366     1.0  0.80350  0.94674  0.39249  1.0000
  C   C765      1.0  0.76841  0.98225  0.65922  1.0000
  S   S178      1.0  0.70614  0.57609  0.51289  1.0000
  N   N42       1.0  0.57634  0.66292  0.67653  1.0000
  H   H1367     1.0  0.57265  0.61786  0.44393  1.0000
  H   H1368     1.0  0.52826  0.00804  0.70086  1.0000
  C   C766      1.0  0.80238  0.00757  0.41365  1.0000
  S   S179      1.0  0.63236  0.91748  0.70868  1.0000
  H   H1369     1.0  0.69166  0.67026  0.38695  1.0000
  H   H1370     1.0  0.84520  0.93135  0.40520  1.0000
  C   C767      1.0  0.58862  0.64603  0.44270  1.0000
  C   C768      1.0  0.68674  0.54212  0.54684  1.0000
  H   H1371     1.0  0.57304  0.80759  0.43767  1.0000
  C   C769      1.0  0.78557  0.57573  0.61828  1.0000
  C   C770      1.0  0.53681  0.54704  0.64255  1.0000
  H   H1372     1.0  0.67368  0.66092  0.71253  1.0000
  H   H1373     1.0  0.82232  0.86303  0.40495  1.0000
  H   H1374     1.0  0.57975  0.53803  0.47780  1.0000
  H   H1375     1.0  0.65882  0.96848  0.43900  1.0000
  H   H1376     1.0  0.53185  0.75802  0.43712  1.0000
  C   C771      1.0  0.54331  0.63626  0.68310  1.0000
  H   H1377     1.0  0.60863  0.59238  0.63150  1.0000
  H   H1378     1.0  0.55723  0.74967  0.38503  1.0000
  C   C772      1.0  0.56771  0.76688  0.65432  1.0000
  H   H1379     1.0  0.54265  0.65028  0.71332  1.0000
  H   H1380     1.0  0.82714  0.00550  0.40320  1.0000
  C   C773      1.0  0.60398  0.70765  0.38561  1.0000
  Fe  Fe90      1.0  0.70462  0.82725  0.38635  1.0000
  H   H1381     1.0  0.54406  0.71507  0.68294  1.0000
  C   C774      1.0  0.58486  0.98717  0.39071  1.0000
  H   H1382     1.0  0.55413  0.77383  0.69994  1.0000
  H   H1383     1.0  0.79495  0.52872  0.63810  1.0000
  C   C775      1.0  0.80148  0.53548  0.62309  1.0000
  H   H1384     1.0  0.54933  0.78131  0.66521  1.0000
  H   H1385     1.0  0.54890  0.75813  0.64264  1.0000
  H   H1386     1.0  0.76042  0.98415  0.70850  1.0000
  H   H1387     1.0  0.77611  0.87727  0.39508  1.0000
  C   C776      1.0  0.72900  0.98662  0.71120  1.0000
  C   C777      1.0  0.66384  0.95738  0.71199  1.0000
  H   H1388     1.0  0.62905  0.72819  0.38529  1.0000
  H   H1389     1.0  0.55266  0.54923  0.56516  1.0000
  C   C778      1.0  0.70449  0.95420  0.70886  1.0000
  H   H1390     1.0  0.76688  0.51925  0.51975  1.0000
  C   C779      1.0  0.74618  0.51854  0.53151  1.0000
  H   H1391     1.0  0.52227  0.90990  0.71051  1.0000
  H   H1392     1.0  0.82827  0.88538  0.81731  1.0000
  H   H1393     1.0  0.78609  0.85389  0.81483  1.0000
  H   H1394     1.0  0.94493  0.74913  0.81411  1.0000
  H   H1395     1.0  0.78655  0.94307  0.81230  1.0000
  C   C780      1.0  0.55610  0.64804  0.89962  1.0000
  H   H1396     1.0  0.75967  0.98346  0.79255  1.0000
  H   H1397     1.0  0.64223  0.95344  0.77279  1.0000
  H   H1398     1.0  0.78751  0.88686  0.83403  1.0000
  Fe  Fe91      1.0  0.75840  0.74787  0.85371  1.0000
  S   S180      1.0  0.77538  0.76336  0.88295  1.0000
  S   S181      1.0  0.72407  0.78910  0.83540  1.0000
  Fe  Fe92      1.0  0.79170  0.66689  0.85690  1.0000
  S   S182      1.0  0.81195  0.67556  0.88604  1.0000
  S   S183      1.0  0.79893  0.61153  0.84107  1.0000
  Fe  Fe93      1.0  0.75286  0.70363  0.89093  1.0000
  S   S184      1.0  0.71827  0.68140  0.91649  1.0000
  Fe  Fe94      1.0  0.83275  0.73361  0.87544  1.0000
  S   S185      1.0  0.89345  0.75567  0.88226  1.0000
  S   S186      1.0  0.73130  0.69057  0.86238  1.0000
  S   S187      1.0  0.81737  0.72279  0.84572  1.0000
  C   C781      1.0  0.99306  0.66807  0.87273  1.0000
  S   S188      1.0  0.57177  0.74560  0.73662  1.0000
  Fe  Fe95      1.0  0.70949  0.79831  0.72961  1.0000
  N   N43       1.0  0.93741  0.51714  0.86521  1.0000
  S   S189      1.0  0.76098  0.78761  0.74819  1.0000
  H   H1399     1.0  0.60058  0.59346  0.91424  1.0000
  H   H1400     1.0  0.56217  0.52350  0.03225  1.0000
  S   S190      1.0  0.65278  0.82654  0.73858  1.0000
  H   H1401     1.0  0.97567  0.75747  0.89102  1.0000
  N   N44       1.0  0.00295  0.75826  0.82540  1.0000
  H   H1402     1.0  0.75385  0.87242  0.74934  1.0000
  H   H1403     1.0  0.65987  0.61570  0.72374  1.0000
  C   C782      1.0  0.79561  0.57071  0.85586  1.0000
  H   H1404     1.0  0.73817  0.55239  0.93009  1.0000
  C   C783      1.0  0.78924  0.57471  0.87513  1.0000
  H   H1405     1.0  0.70201  0.55153  0.89958  1.0000
  H   H1406     1.0  0.78432  0.60290  0.88099  1.0000
  C   C784      1.0  0.73553  0.78939  0.81125  1.0000
  C   C785      1.0  0.76609  0.76674  0.80379  1.0000
  C   C786      1.0  0.77449  0.76733  0.78447  1.0000
  C   C787      1.0  0.75163  0.78967  0.77244  1.0000
  C   C788      1.0  0.72126  0.81259  0.77986  1.0000
  C   C789      1.0  0.71353  0.81281  0.79926  1.0000
  H   H1407     1.0  0.78317  0.74855  0.81283  1.0000
  H   H1408     1.0  0.79802  0.74950  0.77879  1.0000
  H   H1409     1.0  0.70359  0.82990  0.77064  1.0000
  H   H1410     1.0  0.69006  0.83061  0.80499  1.0000
  H   H1411     1.0  0.74348  0.91263  0.81018  1.0000
  C   C790      1.0  0.95843  0.76072  0.82687  1.0000
  C   C791      1.0  0.78898  0.54196  0.88694  1.0000
  H   H1412     1.0  0.95052  0.81507  0.84276  1.0000
  H   H1413     1.0  0.59307  0.64682  0.79965  1.0000
  C   C792      1.0  0.62586  0.53492  0.89555  1.0000
  C   C793      1.0  0.67097  0.69925  0.92230  1.0000
  C   C794      1.0  0.65590  0.73252  0.91370  1.0000
  C   C795      1.0  0.61828  0.74624  0.91908  1.0000
  C   C796      1.0  0.59505  0.72597  0.93254  1.0000
  C   C797      1.0  0.60985  0.69221  0.94081  1.0000
  C   C798      1.0  0.64803  0.67950  0.93604  1.0000
  H   H1414     1.0  0.67353  0.74809  0.90319  1.0000
  H   H1415     1.0  0.60707  0.77249  0.91270  1.0000
  H   H1416     1.0  0.59238  0.67656  0.95128  1.0000
  H   H1417     1.0  0.65985  0.65422  0.94299  1.0000
  H   H1418     1.0  0.98850  0.55369  0.86897  1.0000
  H   H1419     1.0  0.88546  0.78194  0.84274  1.0000
  H   H1420     1.0  0.55253  0.58327  0.94168  1.0000
  H   H1421     1.0  0.59995  0.53922  0.95694  1.0000
  C   C799      1.0  0.93141  0.72147  0.87887  1.0000
  C   C800      1.0  0.68173  0.57482  0.90441  1.0000
  C   C801      1.0  0.96980  0.73012  0.88436  1.0000
  Fe  Fe96      1.0  0.62369  0.77810  0.72348  1.0000
  N   N45       1.0  0.58078  0.74883  0.00926  1.0000
  C   C802      1.0  0.54607  0.75859  0.99730  1.0000
  C   C803      1.0  0.58077  0.70590  0.01416  1.0000
  C   C804      1.0  0.57593  0.77118  0.02726  1.0000
  C   C805      1.0  0.61946  0.76126  0.00004  1.0000
  C   C806      1.0  0.62948  0.74407  0.98064  1.0000
  H   H1422     1.0  0.79648  0.85337  0.72226  1.0000
  C   C807      1.0  0.58679  0.62458  0.88861  1.0000
  C   C808      1.0  0.56671  0.67735  0.99912  1.0000
  C   C809      1.0  0.57564  0.63524  0.00455  1.0000
  C   C810      1.0  0.66541  0.76419  0.97142  1.0000
  H   H1423     1.0  0.53456  0.66087  0.88993  1.0000
  H   H1424     1.0  0.94779  0.58484  0.88804  1.0000
  C   C811      1.0  0.90795  0.54528  0.87352  1.0000
  H   H1425     1.0  0.54660  0.74193  0.98413  1.0000
  H   H1426     1.0  0.61059  0.69675  0.01860  1.0000
  H   H1427     1.0  0.56050  0.69990  0.02641  1.0000
  H   H1428     1.0  0.63084  0.65864  0.72818  1.0000
  H   H1429     1.0  0.58157  0.80268  0.02471  1.0000
  H   H1430     1.0  0.62092  0.79348  0.99867  1.0000
  H   H1431     1.0  0.64450  0.75336  0.00898  1.0000
  H   H1432     1.0  0.60484  0.74762  0.97101  1.0000
  H   H1433     1.0  0.63691  0.71286  0.98213  1.0000
  H   H1434     1.0  0.76431  0.00640  0.75079  1.0000
  H   H1435     1.0  0.56745  0.81124  0.98237  1.0000
  C   C812      1.0  0.53152  0.86511  0.73092  1.0000
  H   H1436     1.0  0.57049  0.67204  0.90703  1.0000
  H   H1437     1.0  0.02144  0.81098  0.83892  1.0000
  H   H1438     1.0  0.58036  0.68323  0.98518  1.0000
  H   H1439     1.0  0.60796  0.63061  0.00502  1.0000
  H   H1440     1.0  0.56184  0.62778  0.01840  1.0000
  H   H1441     1.0  0.56341  0.61540  0.99406  1.0000
  H   H1442     1.0  0.67254  0.75049  0.95777  1.0000
  H   H1443     1.0  0.65921  0.79541  0.96875  1.0000
  H   H1444     1.0  0.69150  0.76143  0.98037  1.0000
  C   C813      1.0  0.95465  0.65940  0.86733  1.0000
  H   H1445     1.0  0.54259  0.88554  0.74146  1.0000
  C   C814      1.0  0.78567  0.90978  0.78616  1.0000
  H   H1446     1.0  0.88079  0.61548  0.88704  1.0000
  H   H1447     1.0  0.80329  0.53041  0.83335  1.0000
  H   H1448     1.0  0.94925  0.82167  0.81778  1.0000
  H   H1449     1.0  0.80523  0.87053  0.75481  1.0000
  H   H1450     1.0  0.53431  0.67995  0.99776  1.0000
  H   H1451     1.0  0.70024  0.96377  0.75103  1.0000
  C   C815      1.0  0.78277  0.88699  0.74699  1.0000
  H   H1452     1.0  0.00813  0.80847  0.80699  1.0000
  C   C816      1.0  0.77224  0.97756  0.77836  1.0000
  C   C817      1.0  0.54190  0.80188  0.99140  1.0000
  H   H1453     1.0  0.90062  0.56816  0.86305  1.0000
  C   C818      1.0  0.78106  0.92977  0.75342  1.0000
  H   H1454     1.0  0.89455  0.67928  0.86587  1.0000
  C   C819      1.0  0.94073  0.80195  0.82959  1.0000
  C   C820      1.0  0.88866  0.59435  0.89819  1.0000
  C   C821      1.0  0.69501  0.93469  0.75731  1.0000
  C   C822      1.0  0.67689  0.56848  0.92592  1.0000
  C   C823      1.0  0.92107  0.56703  0.89116  1.0000
  H   H1455     1.0  0.64408  0.90182  0.76813  1.0000
  H   H1456     1.0  0.81818  0.91347  0.78408  1.0000
  H   H1457     1.0  0.71552  0.89593  0.77843  1.0000
  C   C824      1.0  0.72038  0.92707  0.77469  1.0000
  C   C825      1.0  0.71626  0.57371  0.93543  1.0000
  H   H1458     1.0  0.71210  0.56933  0.95076  1.0000
  S   S191      1.0  0.54844  0.74423  0.93944  1.0000
  H   H1459     1.0  0.60238  0.64490  0.87867  1.0000
  H   H1460     1.0  0.77260  0.89889  0.71751  1.0000
  C   C826      1.0  0.68213  0.55573  0.86288  1.0000
  C   C827      1.0  0.57570  0.52733  0.94934  1.0000
  C   C828      1.0  0.92395  0.68603  0.87033  1.0000
  H   H1461     1.0  0.87934  0.53048  0.87691  1.0000
  C   C829      1.0  0.77574  0.91469  0.80732  1.0000
  H   H1462     1.0  0.53977  0.62923  0.90995  1.0000
  H   H1463     1.0  0.86190  0.57763  0.90266  1.0000
  H   H1464     1.0  0.93088  0.53303  0.82566  1.0000
  H   H1465     1.0  0.67013  0.61401  0.87283  1.0000
  H   H1466     1.0  0.63348  0.93587  0.74972  1.0000
  H   H1467     1.0  0.88350  0.54133  0.83672  1.0000
  H   H1468     1.0  0.77923  0.87876  0.78318  1.0000
  H   H1469     1.0  0.63405  0.75666  0.03901  1.0000
  H   H1470     1.0  0.70689  0.94325  0.78662  1.0000
  H   H1471     1.0  0.99923  0.77598  0.85438  1.0000
  H   H1472     1.0  0.94699  0.74221  0.83879  1.0000
  H   H1473     1.0  0.76467  0.94631  0.74278  1.0000
  C   C830      1.0  0.52701  0.75738  0.72627  1.0000
  C   C831      1.0  0.99744  0.68980  0.81064  1.0000
  H   H1474     1.0  0.88363  0.82994  0.83262  1.0000
  C   C832      1.0  0.54858  0.55228  0.94091  1.0000
  H   H1475     1.0  0.92760  0.54659  0.90275  1.0000
  C   C833      1.0  0.00061  0.70350  0.88128  1.0000
  N   N46       1.0  0.62157  0.71911  0.78845  1.0000
  C   C834      1.0  0.57961  0.70471  0.78767  1.0000
  C   C835      1.0  0.62249  0.76171  0.78318  1.0000
  C   C836      1.0  0.64557  0.69788  0.77367  1.0000
  C   C837      1.0  0.63983  0.71219  0.80728  1.0000
  C   C838      1.0  0.61170  0.71274  0.82481  1.0000
  C   C839      1.0  0.57429  0.65996  0.78883  1.0000
  C   C840      1.0  0.68857  0.71234  0.77032  1.0000
  C   C841      1.0  0.59918  0.78960  0.79610  1.0000
  C   C842      1.0  0.59837  0.83052  0.78755  1.0000
  C   C843      1.0  0.63472  0.71001  0.84282  1.0000
  H   H1476     1.0  0.67932  0.52024  0.97641  1.0000
  C   C844      1.0  0.71334  0.68330  0.75916  1.0000
  H   H1477     1.0  0.56620  0.71453  0.77437  1.0000
  H   H1478     1.0  0.56286  0.54389  0.89181  1.0000
  H   H1479     1.0  0.65307  0.77287  0.78293  1.0000
  H   H1480     1.0  0.61209  0.76589  0.76869  1.0000
  H   H1481     1.0  0.63086  0.69962  0.75993  1.0000
  H   H1482     1.0  0.64742  0.66644  0.77732  1.0000
  H   H1483     1.0  0.65491  0.68349  0.80773  1.0000
  H   H1484     1.0  0.66379  0.73380  0.80946  1.0000
  H   H1485     1.0  0.59122  0.68758  0.82486  1.0000
  H   H1486     1.0  0.59368  0.73940  0.82539  1.0000
  H   H1487     1.0  0.58277  0.64701  0.77515  1.0000
  H   H1488     1.0  0.53972  0.82099  0.00371  1.0000
  H   H1489     1.0  0.70330  0.71738  0.78371  1.0000
  H   H1490     1.0  0.68857  0.73988  0.76206  1.0000
  H   H1491     1.0  0.56818  0.78024  0.79846  1.0000
  H   H1492     1.0  0.61389  0.79175  0.80971  1.0000
  H   H1493     1.0  0.62884  0.84176  0.78522  1.0000
  H   H1494     1.0  0.58314  0.83044  0.77399  1.0000
  H   H1495     1.0  0.58230  0.85035  0.79719  1.0000
  H   H1496     1.0  0.65207  0.68273  0.84324  1.0000
  H   H1497     1.0  0.65502  0.73523  0.84388  1.0000
  H   H1498     1.0  0.61402  0.71016  0.85513  1.0000
  H   H1499     1.0  0.70171  0.91303  0.74633  1.0000
  C   C845      1.0  0.61705  0.60541  0.90176  1.0000
  C   C846      1.0  0.79570  0.88327  0.81901  1.0000
  H   H1500     1.0  0.69999  0.67767  0.74549  1.0000
  H   H1501     1.0  0.74337  0.69550  0.75648  1.0000
  H   H1502     1.0  0.71612  0.65554  0.76710  1.0000
  C   C847      1.0  0.79947  0.53368  0.84831  1.0000
  H   H1503     1.0  0.81177  0.94136  0.75230  1.0000
  C   C848      1.0  0.65106  0.93121  0.76239  1.0000
  C   C849      1.0  0.69233  0.57047  0.84307  1.0000
  H   H1504     1.0  0.71038  0.55126  0.86990  1.0000
  N   N47       1.0  0.76398  0.93616  0.77286  1.0000
  H   H1505     1.0  0.88380  0.78827  0.81763  1.0000
  C   C850      1.0  0.79469  0.88437  0.72630  1.0000
  H   H1506     1.0  0.57077  0.60313  0.88034  1.0000
  H   H1507     1.0  0.72800  0.60351  0.93286  1.0000
  H   H1508     1.0  0.82400  0.89805  0.72355  1.0000
  H   H1509     1.0  0.89914  0.61090  0.91031  1.0000
  H   H1510     1.0  0.78515  0.54535  0.90188  1.0000
  H   H1511     1.0  0.66528  0.57387  0.83484  1.0000
  H   H1512     1.0  0.94867  0.63235  0.86046  1.0000
  C   C851      1.0  0.89568  0.80028  0.83066  1.0000
  C   C852      1.0  0.53137  0.64874  0.79322  1.0000
  H   H1513     1.0  0.62884  0.58828  0.86482  1.0000
  H   H1514     1.0  0.65572  0.58922  0.93227  1.0000
  H   H1515     1.0  0.55734  0.85297  0.72311  1.0000
  H   H1516     1.0  0.96273  0.56465  0.84854  1.0000
  H   H1517     1.0  0.63465  0.63020  0.90693  1.0000
  N   N48       1.0  0.64413  0.57478  0.89353  1.0000
  H   H1518     1.0  0.80471  0.98217  0.77916  1.0000
  C   C853      1.0  0.97244  0.53989  0.85745  1.0000
  C   C854      1.0  0.65523  0.58502  0.87345  1.0000
  H   H1519     1.0  0.00062  0.76445  0.79530  1.0000
  H   H1520     1.0  0.69801  0.60274  0.90188  1.0000
  C   C855      1.0  0.60266  0.75852  0.04357  1.0000
  H   H1521     1.0  0.56072  0.71778  0.79877  1.0000
  H   H1522     1.0  0.70807  0.59880  0.84349  1.0000
  C   C856      1.0  0.58754  0.52788  0.88494  1.0000
  H   H1523     1.0  0.54495  0.76904  0.03279  1.0000
  H   H1524     1.0  0.66637  0.53860  0.92930  1.0000
  H   H1525     1.0  0.71211  0.54939  0.83590  1.0000
  H   H1526     1.0  0.61790  0.52844  0.91046  1.0000
  H   H1527     1.0  0.52828  0.61661  0.79330  1.0000
  H   H1528     1.0  0.59053  0.53699  0.87005  1.0000
  H   H1529     1.0  0.66717  0.52720  0.86171  1.0000
  H   H1530     1.0  0.00347  0.70312  0.83981  1.0000
  H   H1531     1.0  0.96476  0.68956  0.81098  1.0000
  H   H1532     1.0  0.61635  0.99561  0.72012  1.0000
  H   H1533     1.0  0.99841  0.62947  0.80214  1.0000
  H   H1534     1.0  0.99949  0.63604  0.82707  1.0000
  H   H1535     1.0  0.00836  0.69985  0.79663  1.0000
  C   C857      1.0  0.75572  0.01018  0.76569  1.0000
  H   H1536     1.0  0.72313  0.01121  0.76723  1.0000
  C   C858      1.0  0.90519  0.51865  0.83276  1.0000
  C   C859      1.0  0.64824  0.64276  0.71736  1.0000
  C   C860      1.0  0.64784  0.99304  0.71764  1.0000
  C   C861      1.0  0.01378  0.71579  0.82618  1.0000
  C   C862      1.0  0.01053  0.64768  0.81332  1.0000
  C   C863      1.0  0.01638  0.77728  0.80718  1.0000
  S   S192      1.0  0.67996  0.74670  0.71722  1.0000
  C   C864      1.0  0.01956  0.77918  0.84193  1.0000
