data_image0
_chemical_formula_structural       HS2H3C2FeH2C2HSH4CH4SHSHCH4SH2FeH2CHCH3CHC2HCHFeCFeSC5S2H4CH6CHCFe2H4FeHCH2CH2CH2CHC2H2NSCH2SCHCHCHCNCH2C3H2SCSCH3FeHSCHCHC2NH2CH2CHC2HC2HCH2CHC2HC2HCH3C3H6CHC2HC3SC2HC3H2CHNH2C2HCHCHCHC2H8C2HFeHCH2CH2CHSH3CHNHC2HSH5FeSCNSHC2SFeCH8C2H11CH3C2HCHSH2SCH2CH2CH2C2HCH3CH3CHSCH2FeH4CHC2HSCH3CH2SHS2H3NH2NSC4HC2H3CHFeHC4H5CHCHSFeNHC2H3FeSHSH8CHSCH2CFeH7C2H7C2H5CH2C2HCHFeHCH3C2H3CHCH2CHCH4CHFeH3CH5CH4C3HSH2SH3CH7CHCH2FeCH2CH2S2H2CH2CFeH2CSCNHCH3SHCH3CHCH3C2S2HNFeC2SCHC3HC5H2CHC3HCSCH2CH3CH4CH5SFeSH4CH3C2H2C4H2CSH5CHFeCFeCSHC3H2C2H3C2HC2HCHC2H2NCH2CHCH2C3H3SCH2CHSH4CHCHC2SH3C2HSC2FeCH5NHCHCH2CH4C2SC5H2CH9CHCH2CH3CH6CHCH2SCHNHSC2H2CS2FeH2C2HCHSHCH3CH3FeC2H4CH2CFeC2NSC2H2C2HCH9SH2SH2CSHSHCHCHCHSH3Fe2H3SHFeCHCFeS2HCHFeH2C2H2CHC2H2CH2C2SH3C2H4CHC3H2CH2CH3C2H2C2H4SCH4FeHC2HSH2CSHCH2CHCHC2H2NH2CH7CH19C2H2CHCH2SHCHSCHCH2SFeH5NH3SH2C2SCHCHCH2C2NSH2CHC2H2CFeH5CHC2FeHC3HSNC2HCH2CHC2HC2SNH2CH3S2H2SHFeH2CH5CHC2HC2HCH2FeHCSH3C2HNCFeH2CHC2HCNHFeHCH2CHCH2C2H4FeH2CH3CH6C4H6CH5FeH2C2HC2H3CHSHFeC2SH2C2H3CH3SH2C4H3FeCS2H2CH2CH4CHCH3CHCH6SCH2CH2CH3S2HSC2NHC4HCHCH4CHC2H2NHCSCH2SHCHCHSH2SHCH2SCHFeHSH2C2HSH3CFeH2C2HSHCHSHC2HCH5CHC2HCHC2H3CH2CH3CHCNC3SFeHC3H2NH3CHC2HC2H5CH5CSCH2CH4CHFeHCSCSHCH3CNCHCFeCSH3C2H6CHSCH2CH3CH4CH2CHSHC2H3CH4CFeCH2CNHCH6CH2CH4SCHCH2S2H2CH2CHSC4H2C2H2CH2CH2CHC2H4C3HCH2CH6SCHCH4CH6C2HSHCH3CSHFeC2HCSCHSFeC2HCSC2H3CHNC3SFeCH3C2HSHCH3CHSFeH2CH4CHFeH4CH2CHC2HSHCFeHC2HC2H3C3H8CH2C3H7CSFeHCH2CH3CH3C2H4FeCH3C3H2C2HCHCSH2C2HCHSHC2H3FeH3SH2C3H6SHSH2CH2C3H8CHFeCHCHCHCH3SCHCH2S2H2CHCH2CH2CH2CH6CHC2HCH3CHCH2NCH2CFeS2HCSC2H2CNHCH2SH4FeCH2C3HCH3CHCHC2H2CH6C3H4CHCNH12NC3HNC2SCH3CHFeH6CHC2HC2H2C2HSCH3CHSHCHC2H3NFeHCHC2HSHFeCH3CHCHCH2NH2SH10CH3CH7FeHC2HC3SHCHCH3CH3C3H5CHSH2CH2C2H3FeSH3CH3C2H2NH3CHCH2C4H2SH2SH4CHFe2H3CHCHCH2CH7C2HCH2CFeH2SC3HCFeC3HSH2CH3FeC4H3CH2SHCH4C2HCH3CHSHSC4HFeCH2CFeCHSH4NHC2NCHCHC2SCHCS2H2CHCHCSHC2H3C2HCHS2HSH2C3SHCH6CHC3H6SH3SC2HCHCHCSCH5FeCH4NH3FeHC2H2C2HC2H2C3H5FeHC2HC2H2FeCH4FeHC2H2
_chemical_formula_sum              "H1280 S160 C720 Fe80 N40"
_cell_length_a       16.8331
_cell_length_b       39.2479
_cell_length_c       42.2797
_cell_angle_alpha    91.1251
_cell_angle_beta     82.3353
_cell_angle_gamma    100.375

_space_group_name_H-M_alt    "P 1"
_space_group_IT_number       1

loop_
  _space_group_symop_operation_xyz
  'x, y, z'

loop_
  _atom_site_type_symbol
  _atom_site_label
  _atom_site_symmetry_multiplicity
  _atom_site_fract_x
  _atom_site_fract_y
  _atom_site_fract_z
  _atom_site_occupancy
  H   H1        1.0  0.68365  0.47271  0.35682  1.0000
  S   S1        1.0  0.40129  0.34314  0.30174  1.0000
  S   S2        1.0  0.89724  0.56809  0.27382  1.0000
  H   H2        1.0  0.14904  0.56449  0.30889  1.0000
  H   H3        1.0  0.63582  0.27672  0.26704  1.0000
  H   H4        1.0  0.31003  0.48805  0.31666  1.0000
  C   C1        1.0  0.00890  0.45955  0.27721  1.0000
  C   C2        1.0  0.33141  0.38315  0.34773  1.0000
  Fe  Fe1       1.0  0.67830  0.51665  0.27533  1.0000
  H   H5        1.0  0.52027  0.70554  0.32864  1.0000
  H   H6        1.0  0.32675  0.46823  0.39991  1.0000
  C   C3        1.0  0.61763  0.24847  0.27153  1.0000
  C   C4        1.0  0.64322  0.67157  0.35998  1.0000
  H   H7        1.0  0.15079  0.42394  0.19106  1.0000
  S   S3        1.0  0.74231  0.54849  0.23307  1.0000
  H   H8        1.0  0.51338  0.35698  0.34724  1.0000
  H   H9        1.0  0.84702  0.58017  0.41274  1.0000
  H   H10       1.0  0.09200  0.60685  0.22723  1.0000
  H   H11       1.0  0.09634  0.48722  0.35007  1.0000
  C   C5        1.0  0.48251  0.48125  0.38494  1.0000
  H   H12       1.0  0.16646  0.33851  0.39793  1.0000
  H   H13       1.0  0.13200  0.44672  0.35022  1.0000
  H   H14       1.0  0.21060  0.45670  0.26399  1.0000
  H   H15       1.0  0.15642  0.47871  0.38028  1.0000
  S   S4        1.0  0.78327  0.49056  0.28139  1.0000
  H   H16       1.0  0.94229  0.26840  0.22883  1.0000
  S   S5        1.0  0.59003  0.68096  0.39650  1.0000
  H   H17       1.0  0.38895  0.66708  0.28961  1.0000
  C   C6        1.0  0.02188  0.42736  0.26508  1.0000
  H   H18       1.0  0.42845  0.58905  0.33447  1.0000
  H   H19       1.0  0.81222  0.45601  0.37873  1.0000
  H   H20       1.0  0.47521  0.64999  0.30010  1.0000
  H   H21       1.0  0.57988  0.33310  0.28007  1.0000
  S   S6        1.0  0.25093  0.57081  0.35771  1.0000
  H   H22       1.0  0.92946  0.40742  0.42641  1.0000
  H   H23       1.0  0.84134  0.37841  0.42014  1.0000
  Fe  Fe2       1.0  0.17036  0.29962  0.23712  1.0000
  H   H24       1.0  0.45938  0.65190  0.25899  1.0000
  H   H25       1.0  0.34347  0.45699  0.28828  1.0000
  C   C7        1.0  0.45228  0.56651  0.32315  1.0000
  H   H26       1.0  0.97188  0.69335  0.21975  1.0000
  C   C8        1.0  0.48882  0.42952  0.25149  1.0000
  H   H27       1.0  0.26839  0.40631  0.38804  1.0000
  H   H28       1.0  0.23352  0.22938  0.40305  1.0000
  H   H29       1.0  0.12016  0.29930  0.37966  1.0000
  C   C9        1.0  0.60823  0.35799  0.19973  1.0000
  H   H30       1.0  0.36641  0.51298  0.35990  1.0000
  C   C10       1.0  0.84681  0.39334  0.35640  1.0000
  C   C11       1.0  0.32252  0.39610  0.37899  1.0000
  H   H31       1.0  0.85086  0.67637  0.39339  1.0000
  C   C12       1.0  0.28930  0.46668  0.30053  1.0000
  H   H32       1.0  0.89211  0.37860  0.34371  1.0000
  Fe  Fe3       1.0  0.45364  0.66523  0.40135  1.0000
  C   C13       1.0  0.96558  0.66864  0.20626  1.0000
  Fe  Fe4       1.0  0.82420  0.53455  0.31352  1.0000
  S   S7        1.0  0.26809  0.39139  0.25875  1.0000
  C   C14       1.0  0.89397  0.66595  0.18703  1.0000
  C   C15       1.0  0.20389  0.54424  0.24519  1.0000
  C   C16       1.0  0.26410  0.27438  0.36002  1.0000
  C   C17       1.0  0.64329  0.64628  0.21097  1.0000
  C   C18       1.0  0.60779  0.64651  0.33970  1.0000
  S   S8        1.0  0.71246  0.55747  0.31131  1.0000
  S   S9        1.0  0.79159  0.64509  0.26805  1.0000
  H   H33       1.0  0.00868  0.32527  0.41340  1.0000
  H   H34       1.0  0.02311  0.66805  0.19026  1.0000
  H   H35       1.0  0.35786  0.22851  0.19862  1.0000
  H   H36       1.0  0.59783  0.51658  0.36657  1.0000
  C   C19       1.0  0.25180  0.46692  0.19219  1.0000
  H   H37       1.0  0.02817  0.60180  0.42549  1.0000
  H   H38       1.0  0.00097  0.54575  0.30934  1.0000
  H   H39       1.0  0.14937  0.25090  0.29044  1.0000
  H   H40       1.0  0.44254  0.55230  0.43072  1.0000
  H   H41       1.0  0.49213  0.41760  0.27405  1.0000
  H   H42       1.0  0.94568  0.46291  0.35699  1.0000
  C   C20       1.0  0.10867  0.46692  0.36564  1.0000
  H   H43       1.0  0.23385  0.29061  0.40949  1.0000
  C   C21       1.0  0.97560  0.53939  0.36010  1.0000
  Fe  Fe5       1.0  0.29755  0.61570  0.38810  1.0000
  Fe  Fe6       1.0  0.85054  0.52559  0.24141  1.0000
  H   H44       1.0  0.26123  0.22750  0.22253  1.0000
  H   H45       1.0  0.77359  0.40401  0.28404  1.0000
  H   H46       1.0  0.17039  0.61203  0.25312  1.0000
  H   H47       1.0  0.20736  0.57933  0.20415  1.0000
  Fe  Fe7       1.0  0.13729  0.36741  0.26495  1.0000
  H   H48       1.0  0.53434  0.50769  0.21391  1.0000
  C   C22       1.0  0.12366  0.59292  0.24288  1.0000
  H   H49       1.0  0.50314  0.57610  0.30417  1.0000
  H   H50       1.0  0.30236  0.32259  0.38555  1.0000
  C   C23       1.0  0.17665  0.31898  0.37918  1.0000
  H   H51       1.0  0.87603  0.23740  0.34403  1.0000
  H   H52       1.0  0.40346  0.54987  0.31179  1.0000
  C   C24       1.0  0.32504  0.54171  0.20482  1.0000
  H   H53       1.0  0.56422  0.30936  0.37639  1.0000
  H   H54       1.0  0.47098  0.45802  0.40060  1.0000
  C   C25       1.0  0.14472  0.56021  0.35952  1.0000
  H   H55       1.0  0.24509  0.64548  0.19624  1.0000
  C   C26       1.0  0.50615  0.70167  0.27887  1.0000
  C   C27       1.0  0.01238  0.41921  0.23327  1.0000
  H   H56       1.0  0.67397  0.36888  0.19988  1.0000
  H   H57       1.0  0.20485  0.25694  0.35812  1.0000
  N   N1        1.0  0.32778  0.25334  0.36578  1.0000
  S   S10       1.0  0.93396  0.50353  0.20406  1.0000
  C   C28       1.0  0.47741  0.53177  0.42222  1.0000
  H   H58       1.0  0.33105  0.52545  0.26692  1.0000
  H   H59       1.0  0.12115  0.55244  0.41042  1.0000
  S   S11       1.0  0.16070  0.31972  0.28729  1.0000
  C   C29       1.0  0.57697  0.49180  0.37952  1.0000
  H   H60       1.0  0.76395  0.71673  0.41932  1.0000
  C   C30       1.0  0.48524  0.26145  0.36504  1.0000
  H   H61       1.0  0.06532  0.66016  0.40275  1.0000
  C   C31       1.0  0.08804  0.65450  0.35198  1.0000
  H   H62       1.0  0.82884  0.69572  0.31571  1.0000
  C   C32       1.0  0.78236  0.27853  0.41528  1.0000
  N   N2        1.0  0.83403  0.22941  0.28044  1.0000
  C   C33       1.0  0.03155  0.66079  0.38210  1.0000
  H   H63       1.0  0.65672  0.58713  0.41747  1.0000
  H   H64       1.0  0.28433  0.38348  0.33270  1.0000
  C   C34       1.0  0.48279  0.54589  0.34785  1.0000
  C   C35       1.0  0.39848  0.36755  0.33686  1.0000
  C   C36       1.0  0.03122  0.45063  0.38710  1.0000
  H   H65       1.0  0.14316  0.67507  0.34934  1.0000
  H   H66       1.0  0.60484  0.63178  0.23150  1.0000
  S   S12       1.0  0.04751  0.39740  0.29032  1.0000
  C   C37       1.0  0.09459  0.55153  0.38842  1.0000
  S   S13       1.0  0.54824  0.48982  0.27925  1.0000
  C   C38       1.0  0.79708  0.38941  0.30191  1.0000
  H   H67       1.0  0.40654  0.29500  0.38688  1.0000
  H   H68       1.0  0.38462  0.22452  0.25670  1.0000
  H   H69       1.0  0.95531  0.28777  0.36626  1.0000
  Fe  Fe8       1.0  0.78317  0.58785  0.26944  1.0000
  H   H70       1.0  0.41812  0.29563  0.34505  1.0000
  S   S14       1.0  0.21675  0.64372  0.42129  1.0000
  C   C39       1.0  0.88948  0.26136  0.32947  1.0000
  H   H71       1.0  0.25050  0.44516  0.31500  1.0000
  C   C40       1.0  0.61648  0.46416  0.36073  1.0000
  H   H72       1.0  0.11453  0.54835  0.21261  1.0000
  C   C41       1.0  0.24807  0.30207  0.38545  1.0000
  C   C42       1.0  0.69542  0.62277  0.19216  1.0000
  N   N3        1.0  0.25842  0.52130  0.22808  1.0000
  H   H73       1.0  0.73821  0.61619  0.20780  1.0000
  H   H74       1.0  0.05697  0.65484  0.33042  1.0000
  C   C43       1.0  0.01014  0.54066  0.38859  1.0000
  H   H75       1.0  0.85336  0.38087  0.29027  1.0000
  H   H76       1.0  0.71012  0.23211  0.23786  1.0000
  C   C44       1.0  0.88744  0.25070  0.22259  1.0000
  H   H77       1.0  0.57741  0.38061  0.20454  1.0000
  C   C45       1.0  0.60543  0.35042  0.25934  1.0000
  C   C46       1.0  0.96036  0.43904  0.36686  1.0000
  H   H78       1.0  0.01751  0.46636  0.30153  1.0000
  C   C47       1.0  0.56233  0.28889  0.35782  1.0000
  C   C48       1.0  0.51225  0.48024  0.21760  1.0000
  H   H79       1.0  0.75031  0.36638  0.30981  1.0000
  C   C49       1.0  0.69201  0.58034  0.39485  1.0000
  H   H80       1.0  0.60105  0.30894  0.22571  1.0000
  H   H81       1.0  0.91509  0.69059  0.42247  1.0000
  C   C50       1.0  0.90316  0.25325  0.29328  1.0000
  H   H82       1.0  0.86127  0.43573  0.32119  1.0000
  C   C51       1.0  0.95204  0.63361  0.38532  1.0000
  C   C52       1.0  0.72288  0.68925  0.35131  1.0000
  H   H83       1.0  0.65533  0.58194  0.37523  1.0000
  C   C53       1.0  0.69122  0.23049  0.26404  1.0000
  C   C54       1.0  0.77178  0.60581  0.38807  1.0000
  H   H84       1.0  0.01722  0.68701  0.38023  1.0000
  C   C55       1.0  0.82449  0.60516  0.41540  1.0000
  H   H85       1.0  0.96809  0.60740  0.38199  1.0000
  H   H86       1.0  0.01606  0.46987  0.40525  1.0000
  H   H87       1.0  0.56969  0.69834  0.27075  1.0000
  C   C56       1.0  0.95092  0.36450  0.39482  1.0000
  C   C57       1.0  0.16322  0.56565  0.22356  1.0000
  C   C58       1.0  0.50100  0.72186  0.31086  1.0000
  H   H88       1.0  0.49802  0.37974  0.40215  1.0000
  H   H89       1.0  0.28121  0.28878  0.33704  1.0000
  H   H90       1.0  0.07811  0.58045  0.26254  1.0000
  H   H91       1.0  0.38333  0.55083  0.38362  1.0000
  H   H92       1.0  0.68317  0.66862  0.22059  1.0000
  H   H93       1.0  0.61716  0.27676  0.35744  1.0000
  C   C59       1.0  0.38090  0.39343  0.39912  1.0000
  H   H94       1.0  0.52931  0.56377  0.35915  1.0000
  C   C60       1.0  0.47131  0.46058  0.19444  1.0000
  C   C61       1.0  0.29823  0.50505  0.25240  1.0000
  H   H95       1.0  0.50992  0.32745  0.23250  1.0000
  C   C62       1.0  0.11037  0.55797  0.33111  1.0000
  C   C63       1.0  0.35456  0.48844  0.41606  1.0000
  C   C64       1.0  0.81566  0.41285  0.33027  1.0000
  S   S15       1.0  0.37023  0.66385  0.36410  1.0000
  C   C65       1.0  0.76230  0.24785  0.28219  1.0000
  C   C66       1.0  0.70562  0.28798  0.41966  1.0000
  H   H96       1.0  0.01896  0.27075  0.33458  1.0000
  C   C67       1.0  0.86537  0.66935  0.41710  1.0000
  C   C68       1.0  0.63566  0.26241  0.42147  1.0000
  C   C69       1.0  0.76716  0.68209  0.32233  1.0000
  H   H97       1.0  0.62646  0.61888  0.29542  1.0000
  H   H98       1.0  0.83644  0.29807  0.41467  1.0000
  C   C70       1.0  0.40801  0.27778  0.36566  1.0000
  H   H99       1.0  0.80460  0.59841  0.36512  1.0000
  N   N4        1.0  0.89441  0.63506  0.41565  1.0000
  H   H100      1.0  0.57631  0.26976  0.42555  1.0000
  H   H101      1.0  0.60216  0.43921  0.37404  1.0000
  C   C71       1.0  0.45403  0.66546  0.28228  1.0000
  C   C72       1.0  0.43736  0.42560  0.20040  1.0000
  H   H102      1.0  0.18948  0.33208  0.35560  1.0000
  C   C73       1.0  0.97352  0.47493  0.22629  1.0000
  H   H103      1.0  0.60347  0.65598  0.19561  1.0000
  C   C74       1.0  0.73260  0.65646  0.30240  1.0000
  H   H104      1.0  0.19308  0.49188  0.29023  1.0000
  C   C75       1.0  0.45117  0.38060  0.38718  1.0000
  H   H105      1.0  0.51093  0.52563  0.33461  1.0000
  C   C76       1.0  0.46018  0.36792  0.35602  1.0000
  C   C77       1.0  0.51846  0.46481  0.24662  1.0000
  H   H106      1.0  0.59460  0.46008  0.33705  1.0000
  H   H107      1.0  0.92158  0.63743  0.36417  1.0000
  H   H108      1.0  0.40462  0.56914  0.23835  1.0000
  H   H109      1.0  0.97848  0.30944  0.32797  1.0000
  H   H110      1.0  0.54640  0.63279  0.34649  1.0000
  H   H111      1.0  0.91196  0.34338  0.38324  1.0000
  H   H112      1.0  0.67292  0.35520  0.25753  1.0000
  H   H113      1.0  0.58342  0.37533  0.26375  1.0000
  C   C78       1.0  0.57760  0.33352  0.22886  1.0000
  C   C79       1.0  0.24091  0.47949  0.27646  1.0000
  H   H114      1.0  0.97162  0.53324  0.41075  1.0000
  Fe  Fe9       1.0  0.29360  0.34187  0.27575  1.0000
  H   H115      1.0  0.10793  0.62920  0.35358  1.0000
  C   C80       1.0  0.90880  0.23754  0.18887  1.0000
  H   H116      1.0  0.27652  0.45180  0.20919  1.0000
  H   H117      1.0  0.70395  0.55353  0.39631  1.0000
  C   C81       1.0  0.98448  0.48314  0.25789  1.0000
  H   H118      1.0  0.97338  0.50768  0.26756  1.0000
  H   H119      1.0  0.56461  0.30098  0.33410  1.0000
  C   C82       1.0  0.98378  0.34863  0.42195  1.0000
  H   H120      1.0  0.83899  0.66739  0.20419  1.0000
  S   S16       1.0  0.86929  0.52810  0.36081  1.0000
  H   H121      1.0  0.98778  0.42592  0.34581  1.0000
  H   H122      1.0  0.57044  0.23784  0.25617  1.0000
  H   H123      1.0  0.23765  0.56205  0.26165  1.0000
  C   C83       1.0  0.65295  0.63866  0.31099  1.0000
  H   H124      1.0  0.43576  0.72236  0.31933  1.0000
  N   N5        1.0  0.43379  0.50812  0.39913  1.0000
  H   H125      1.0  0.75023  0.70865  0.36681  1.0000
  C   C84       1.0  0.02623  0.54772  0.33141  1.0000
  C   C85       1.0  0.89974  0.39233  0.40736  1.0000
  H   H126      1.0  0.75840  0.42179  0.34006  1.0000
  S   S17       1.0  0.38784  0.61457  0.42231  1.0000
  H   H127      1.0  0.00303  0.37528  0.37675  1.0000
  H   H128      1.0  0.78204  0.27493  0.27315  1.0000
  H   H129      1.0  0.83824  0.26592  0.22211  1.0000
  H   H130      1.0  0.79480  0.37343  0.36713  1.0000
  H   H131      1.0  0.53423  0.54683  0.40964  1.0000
  Fe  Fe10      1.0  0.29455  0.69225  0.39920  1.0000
  S   S18       1.0  0.10483  0.24623  0.22629  1.0000
  C   C86       1.0  0.45042  0.40986  0.22812  1.0000
  N   N6        1.0  0.88357  0.41585  0.38216  1.0000
  S   S19       1.0  0.69867  0.33189  0.42141  1.0000
  H   H132      1.0  0.96094  0.24299  0.28791  1.0000
  C   C87       1.0  0.41237  0.52923  0.37308  1.0000
  C   C88       1.0  0.64286  0.22746  0.41725  1.0000
  S   S20       1.0  0.38297  0.69709  0.43492  1.0000
  Fe  Fe11      1.0  0.27773  0.36738  0.21037  1.0000
  C   C89       1.0  0.96532  0.28377  0.34006  1.0000
  H   H133      1.0  0.75616  0.63156  0.38476  1.0000
  H   H134      1.0  0.18016  0.50677  0.19166  1.0000
  H   H135      1.0  0.04779  0.42879  0.39938  1.0000
  H   H136      1.0  0.37099  0.52543  0.19581  1.0000
  H   H137      1.0  0.84904  0.23672  0.41011  1.0000
  H   H138      1.0  0.26324  0.51988  0.40788  1.0000
  H   H139      1.0  0.75990  0.41923  0.40173  1.0000
  H   H140      1.0  0.48897  0.24129  0.34654  1.0000
  C   C90       1.0  0.20701  0.49425  0.21003  1.0000
  C   C91       1.0  0.82035  0.43665  0.39634  1.0000
  H   H141      1.0  0.91616  0.27874  0.28079  1.0000
  H   H142      1.0  0.46088  0.47123  0.36209  1.0000
  H   H143      1.0  0.60160  0.49466  0.40266  1.0000
  H   H144      1.0  0.83794  0.27552  0.33512  1.0000
  H   H145      1.0  0.59078  0.24411  0.29687  1.0000
  H   H146      1.0  0.15255  0.52844  0.26078  1.0000
  H   H147      1.0  0.95485  0.64693  0.22370  1.0000
  H   H148      1.0  0.34611  0.49117  0.24044  1.0000
  H   H149      1.0  0.73622  0.25054  0.30756  1.0000
  H   H150      1.0  0.33331  0.59391  0.22637  1.0000
  H   H151      1.0  0.42707  0.38265  0.23250  1.0000
  C   C92       1.0  0.78948  0.24365  0.41260  1.0000
  H   H152      1.0  0.97972  0.43659  0.18933  1.0000
  H   H153      1.0  0.02128  0.39416  0.22393  1.0000
  H   H154      1.0  0.41278  0.26117  0.30300  1.0000
  C   C93       1.0  0.35544  0.24190  0.30498  1.0000
  C   C94       1.0  0.98880  0.44316  0.21372  1.0000
  H   H155      1.0  0.30682  0.25438  0.29742  1.0000
  C   C95       1.0  0.37356  0.57514  0.21813  1.0000
  H   H156      1.0  0.15391  0.48039  0.22614  1.0000
  S   S21       1.0  0.30565  0.31776  0.22745  1.0000
  H   H157      1.0  0.48622  0.25006  0.38869  1.0000
  H   H158      1.0  0.32040  0.25361  0.41747  1.0000
  S   S22       1.0  0.14241  0.34713  0.21496  1.0000
  C   C96       1.0  0.33048  0.22697  0.33937  1.0000
  H   H159      1.0  0.47014  0.61794  0.20193  1.0000
  H   H160      1.0  0.48399  0.71522  0.25994  1.0000
  C   C97       1.0  0.30141  0.23564  0.39798  1.0000
  H   H161      1.0  0.19002  0.46477  0.43494  1.0000
  H   H162      1.0  0.29883  0.68893  0.18810  1.0000
  C   C98       1.0  0.43874  0.59336  0.19242  1.0000
  H   H163      1.0  0.76591  0.49678  0.41914  1.0000
  H   H164      1.0  0.73293  0.32285  0.18987  1.0000
  C   C99       1.0  0.28769  0.50991  0.42827  1.0000
  C   C100      1.0  0.12449  0.22447  0.28576  1.0000
  H   H165      1.0  0.89413  0.47537  0.42355  1.0000
  C   C101      1.0  0.83618  0.45681  0.42731  1.0000
  H   H166      1.0  0.03330  0.36754  0.43057  1.0000
  H   H167      1.0  0.87326  0.61044  0.18602  1.0000
  H   H168      1.0  0.65439  0.59848  0.18665  1.0000
  C   C102      1.0  0.35126  0.25811  0.64796  1.0000
  H   H169      1.0  0.87317  0.23051  0.51222  1.0000
  H   H170      1.0  0.78058  0.49194  0.46007  1.0000
  H   H171      1.0  0.28596  0.25968  0.64848  1.0000
  C   C103      1.0  0.80077  0.36632  0.58045  1.0000
  H   H172      1.0  0.33623  0.50143  0.55641  1.0000
  S   S23       1.0  0.58170  0.39861  0.46461  1.0000
  C   C104      1.0  0.76945  0.70780  0.44342  1.0000
  H   H173      1.0  0.45351  0.27905  0.67085  1.0000
  H   H174      1.0  0.09338  0.42312  0.57197  1.0000
  Fe  Fe12      1.0  0.00957  0.29604  0.64786  1.0000
  H   H175      1.0  0.38384  0.26453  0.62361  1.0000
  H   H176      1.0  0.78605  0.46573  0.56148  1.0000
  H   H177      1.0  0.84614  0.26678  0.53380  1.0000
  H   H178      1.0  0.73442  0.27332  0.55935  1.0000
  C   C105      1.0  0.94207  0.57433  0.64469  1.0000
  H   H179      1.0  0.26540  0.41802  0.59934  1.0000
  C   C106      1.0  0.82390  0.37267  0.52293  1.0000
  C   C107      1.0  0.17381  0.37696  0.53690  1.0000
  H   H180      1.0  0.97196  0.59899  0.49762  1.0000
  S   S24       1.0  0.36210  0.26777  0.52391  1.0000
  C   C108      1.0  0.86336  0.50855  0.53453  1.0000
  H   H181      1.0  0.59017  0.39967  0.67680  1.0000
  H   H182      1.0  0.44984  0.38725  0.64807  1.0000
  H   H183      1.0  0.10272  0.24408  0.66476  1.0000
  C   C109      1.0  0.38964  0.28250  0.67260  1.0000
  H   H184      1.0  0.81668  0.35699  0.60219  1.0000
  H   H185      1.0  0.33630  0.66326  0.62010  1.0000
  S   S25       1.0  0.52381  0.48733  0.68147  1.0000
  H   H186      1.0  0.53974  0.34660  0.65232  1.0000
  S   S26       1.0  0.92069  0.33052  0.64094  1.0000
  S   S27       1.0  0.62294  0.41237  0.55463  1.0000
  H   H187      1.0  0.31007  0.40469  0.56220  1.0000
  H   H188      1.0  0.66910  0.62029  0.65146  1.0000
  H   H189      1.0  0.83739  0.43885  0.44713  1.0000
  N   N7        1.0  0.80641  0.50818  0.59481  1.0000
  H   H190      1.0  0.91451  0.53011  0.53720  1.0000
  H   H191      1.0  0.10617  0.40331  0.46800  1.0000
  N   N8        1.0  0.69085  0.22948  0.53028  1.0000
  S   S28       1.0  0.27053  0.58866  0.67462  1.0000
  C   C110      1.0  0.19524  0.63160  0.52307  1.0000
  C   C111      1.0  0.56459  0.65920  0.57823  1.0000
  C   C112      1.0  0.84552  0.36079  0.55101  1.0000
  C   C113      1.0  0.22240  0.23508  0.50138  1.0000
  H   H192      1.0  0.19869  0.38758  0.47144  1.0000
  C   C114      1.0  0.15110  0.60288  0.54053  1.0000
  C   C115      1.0  0.73432  0.38360  0.58177  1.0000
  H   H193      1.0  0.09131  0.69532  0.63785  1.0000
  H   H194      1.0  0.47064  0.50880  0.50298  1.0000
  H   H195      1.0  0.01527  0.43315  0.65674  1.0000
  C   C116      1.0  0.79010  0.67157  0.44218  1.0000
  H   H196      1.0  0.91346  0.50036  0.48550  1.0000
  Fe  Fe13      1.0  0.92265  0.30658  0.59250  1.0000
  H   H197      1.0  0.49600  0.48551  0.44846  1.0000
  C   C117      1.0  0.60066  0.28630  0.59854  1.0000
  C   C118      1.0  0.26004  0.45034  0.55878  1.0000
  C   C119      1.0  0.25611  0.33701  0.57769  1.0000
  C   C120      1.0  0.45171  0.51498  0.68028  1.0000
  H   H198      1.0  0.63156  0.54872  0.55146  1.0000
  H   H199      1.0  0.35538  0.23101  0.65358  1.0000
  H   H200      1.0  0.90024  0.55345  0.58433  1.0000
  H   H201      1.0  0.86923  0.30158  0.48391  1.0000
  H   H202      1.0  0.65878  0.30029  0.60590  1.0000
  C   C121      1.0  0.18514  0.35626  0.59010  1.0000
  H   H203      1.0  0.83058  0.53829  0.65471  1.0000
  C   C122      1.0  0.75613  0.38904  0.52417  1.0000
  H   H204      1.0  0.57679  0.30346  0.58295  1.0000
  S   S29       1.0  0.11898  0.31855  0.67071  1.0000
  Fe  Fe14      1.0  0.55942  0.38358  0.51627  1.0000
  N   N9        1.0  0.17954  0.38789  0.57126  1.0000
  H   H205      1.0  0.04918  0.57766  0.47625  1.0000
  C   C123      1.0  0.38256  0.32059  0.66665  1.0000
  C   C124      1.0  0.41996  0.38298  0.67322  1.0000
  H   H206      1.0  0.33162  0.54044  0.62945  1.0000
  H   H207      1.0  0.73838  0.26410  0.49050  1.0000
  H   H208      1.0  0.09191  0.38811  0.63655  1.0000
  Fe  Fe15      1.0  0.91171  0.23321  0.61889  1.0000
  S   S30       1.0  0.93699  0.63271  0.57040  1.0000
  H   H209      1.0  0.06299  0.39444  0.52612  1.0000
  S   S31       1.0  0.91328  0.25282  0.66890  1.0000
  H   H210      1.0  0.93472  0.34084  0.44207  1.0000
  H   H211      1.0  0.95792  0.28538  0.49186  1.0000
  H   H212      1.0  0.72549  0.46155  0.61330  1.0000
  H   H213      1.0  0.98194  0.55591  0.64961  1.0000
  H   H214      1.0  0.82486  0.57452  0.63022  1.0000
  H   H215      1.0  0.31625  0.32118  0.67177  1.0000
  H   H216      1.0  0.26521  0.42958  0.66503  1.0000
  H   H217      1.0  0.34942  0.71382  0.51548  1.0000
  C   C125      1.0  0.01846  0.60044  0.47618  1.0000
  H   H218      1.0  0.53863  0.25396  0.52264  1.0000
  S   S32       1.0  0.29427  0.63041  0.50529  1.0000
  C   C126      1.0  0.33948  0.56006  0.67707  1.0000
  H   H219      1.0  0.94582  0.47435  0.51428  1.0000
  H   H220      1.0  0.17198  0.71205  0.66123  1.0000
  C   C127      1.0  0.64471  0.24171  0.67869  1.0000
  Fe  Fe16      1.0  0.44647  0.31587  0.50447  1.0000
  H   H221      1.0  0.53236  0.72075  0.56450  1.0000
  H   H222      1.0  0.71914  0.54125  0.60963  1.0000
  H   H223      1.0  0.14038  0.34971  0.53593  1.0000
  H   H224      1.0  0.78967  0.62559  0.67951  1.0000
  H   H225      1.0  0.18999  0.31873  0.46151  1.0000
  H   H226      1.0  0.43450  0.64860  0.58502  1.0000
  H   H227      1.0  0.48072  0.67830  0.61344  1.0000
  C   C128      1.0  0.86247  0.55493  0.63444  1.0000
  C   C129      1.0  0.75507  0.24190  0.50253  1.0000
  H   H228      1.0  0.10095  0.35922  0.48063  1.0000
  H   H229      1.0  0.31559  0.35332  0.58076  1.0000
  H   H230      1.0  0.69074  0.35919  0.67422  1.0000
  H   H231      1.0  0.45441  0.54902  0.48735  1.0000
  H   H232      1.0  0.23569  0.37685  0.52373  1.0000
  H   H233      1.0  0.96524  0.40882  0.62624  1.0000
  H   H234      1.0  0.70945  0.70718  0.45810  1.0000
  C   C130      1.0  0.77083  0.48293  0.62170  1.0000
  C   C131      1.0  0.74177  0.52792  0.58776  1.0000
  H   H235      1.0  0.70333  0.56808  0.66900  1.0000
  H   H236      1.0  0.02497  0.45158  0.61745  1.0000
  H   H237      1.0  0.48054  0.71239  0.67307  1.0000
  H   H238      1.0  0.66128  0.28095  0.53672  1.0000
  H   H239      1.0  0.26964  0.44831  0.53238  1.0000
  C   C132      1.0  0.27527  0.26640  0.50486  1.0000
  H   H240      1.0  0.32529  0.48011  0.59448  1.0000
  H   H241      1.0  0.60638  0.25588  0.48586  1.0000
  C   C133      1.0  0.25537  0.41437  0.57391  1.0000
  C   C134      1.0  0.12881  0.39816  0.51675  1.0000
  H   H242      1.0  0.12713  0.33731  0.59117  1.0000
  C   C135      1.0  0.21673  0.64730  0.60742  1.0000
  H   H243      1.0  0.17831  0.58021  0.54268  1.0000
  Fe  Fe17      1.0  0.44794  0.37939  0.46481  1.0000
  H   H244      1.0  0.47089  0.68987  0.54251  1.0000
  C   C136      1.0  0.07177  0.60338  0.55516  1.0000
  H   H245      1.0  0.43083  0.50097  0.63222  1.0000
  H   H246      1.0  0.31137  0.53224  0.44288  1.0000
  H   H247      1.0  0.19495  0.28482  0.59224  1.0000
  C   C137      1.0  0.88638  0.66911  0.67989  1.0000
  C   C138      1.0  0.08159  0.66186  0.53567  1.0000
  H   H248      1.0  0.63459  0.23636  0.59831  1.0000
  H   H249      1.0  0.93051  0.65175  0.68236  1.0000
  H   H250      1.0  0.85796  0.36820  0.50012  1.0000
  C   C139      1.0  0.16065  0.66112  0.52051  1.0000
  H   H251      1.0  0.06508  0.62416  0.47724  1.0000
  C   C140      1.0  0.89334  0.48515  0.50793  1.0000
  H   H252      1.0  0.88650  0.47560  0.57097  1.0000
  H   H253      1.0  0.73795  0.39707  0.50229  1.0000
  C   C141      1.0  0.21612  0.48752  0.44869  1.0000
  H   H254      1.0  0.05491  0.68468  0.53374  1.0000
  C   C142      1.0  0.48335  0.67114  0.58794  1.0000
  H   H255      1.0  0.07782  0.68667  0.68016  1.0000
  H   H256      1.0  0.15347  0.42618  0.51696  1.0000
  H   H257      1.0  0.55603  0.28006  0.62035  1.0000
  H   H258      1.0  0.19505  0.68339  0.50707  1.0000
  C   C143      1.0  0.19797  0.29542  0.47298  1.0000
  H   H259      1.0  0.19294  0.36311  0.61528  1.0000
  Fe  Fe18      1.0  0.90980  0.68623  0.56819  1.0000
  H   H260      1.0  0.32811  0.67449  0.55927  1.0000
  H   H261      1.0  0.23626  0.47823  0.47045  1.0000
  H   H262      1.0  0.56484  0.52439  0.45415  1.0000
  C   C144      1.0  0.61371  0.25280  0.58118  1.0000
  H   H263      1.0  0.92854  0.58901  0.66688  1.0000
  H   H264      1.0  0.57064  0.65130  0.55275  1.0000
  H   H265      1.0  0.68210  0.49265  0.55303  1.0000
  H   H266      1.0  0.76792  0.54916  0.57026  1.0000
  H   H267      1.0  0.74710  0.41845  0.65138  1.0000
  C   C145      1.0  0.25044  0.30352  0.59622  1.0000
  H   H268      1.0  0.61501  0.55499  0.64860  1.0000
  H   H269      1.0  0.93529  0.57603  0.44531  1.0000
  H   H270      1.0  0.75510  0.45180  0.68159  1.0000
  H   H271      1.0  0.58208  0.54112  0.59215  1.0000
  C   C146      1.0  0.09693  0.41109  0.62101  1.0000
  C   C147      1.0  0.15893  0.23375  0.48262  1.0000
  C   C148      1.0  0.14771  0.26394  0.46801  1.0000
  H   H272      1.0  0.55048  0.51213  0.56084  1.0000
  S   S33       1.0  0.81912  0.26394  0.60809  1.0000
  H   H273      1.0  0.87675  0.48456  0.64799  1.0000
  H   H274      1.0  0.61570  0.68049  0.58173  1.0000
  S   S34       1.0  0.36537  0.40474  0.43950  1.0000
  H   H275      1.0  0.73404  0.67379  0.66042  1.0000
  H   H276      1.0  0.39050  0.46651  0.56078  1.0000
  H   H277      1.0  0.55416  0.23944  0.57506  1.0000
  C   C149      1.0  0.35910  0.53907  0.65100  1.0000
  H   H278      1.0  0.63397  0.48602  0.59362  1.0000
  H   H279      1.0  0.16876  0.65793  0.59722  1.0000
  H   H280      1.0  0.97977  0.65582  0.44847  1.0000
  H   H281      1.0  0.30081  0.37296  0.65547  1.0000
  H   H282      1.0  0.40001  0.32595  0.64059  1.0000
  H   H283      1.0  0.41157  0.71879  0.62748  1.0000
  H   H284      1.0  0.16782  0.50305  0.45610  1.0000
  C   C150      1.0  0.56571  0.23816  0.50352  1.0000
  H   H285      1.0  0.15063  0.43045  0.62569  1.0000
  C   C151      1.0  0.52014  0.34662  0.67859  1.0000
  H   H286      1.0  0.27146  0.69410  0.62856  1.0000
  H   H287      1.0  0.25596  0.33002  0.55221  1.0000
  Fe  Fe19      1.0  0.31246  0.64619  0.45398  1.0000
  C   C152      1.0  0.26215  0.29656  0.49095  1.0000
  H   H288      1.0  0.27413  0.70788  0.57226  1.0000
  H   H289      1.0  0.46891  0.23721  0.47446  1.0000
  C   C153      1.0  0.83287  0.46535  0.63649  1.0000
  H   H290      1.0  0.80074  0.66503  0.46648  1.0000
  H   H291      1.0  0.59376  0.66810  0.66299  1.0000
  S   S35       1.0  0.01635  0.27394  0.59849  1.0000
  S   S36       1.0  0.07667  0.26284  0.44114  1.0000
  H   H292      1.0  0.84363  0.46342  0.50374  1.0000
  H   H293      1.0  0.89923  0.26490  0.46170  1.0000
  C   C154      1.0  0.84344  0.25330  0.51072  1.0000
  H   H294      1.0  0.56847  0.63676  0.59319  1.0000
  H   H295      1.0  0.04888  0.38001  0.58289  1.0000
  C   C155      1.0  0.50012  0.51388  0.45153  1.0000
  Fe  Fe20      1.0  0.82406  0.28488  0.65730  1.0000
  H   H296      1.0  0.81291  0.51944  0.52656  1.0000
  H   H297      1.0  0.30420  0.29143  0.58794  1.0000
  C   C156      1.0  0.29051  0.67554  0.61043  1.0000
  S   S37       1.0  0.58024  0.32928  0.50730  1.0000
  C   C157      1.0  0.02096  0.42714  0.63085  1.0000
  N   N10       1.0  0.40344  0.71962  0.57669  1.0000
  H   H298      1.0  0.20462  0.46147  0.56640  1.0000
  C   C158      1.0  0.32822  0.42661  0.66759  1.0000
  H   H299      1.0  0.83505  0.42679  0.67230  1.0000
  H   H300      1.0  0.73518  0.49543  0.64127  1.0000
  H   H301      1.0  0.88954  0.63001  0.46683  1.0000
  S   S38       1.0  0.92764  0.33862  0.54876  1.0000
  H   H302      1.0  0.23547  0.62615  0.59198  1.0000
  C   C159      1.0  0.83465  0.48783  0.56614  1.0000
  H   H303      1.0  0.19092  0.63614  0.63133  1.0000
  H   H304      1.0  0.03791  0.58104  0.56849  1.0000
  H   H305      1.0  0.89118  0.67647  0.65436  1.0000
  C   C160      1.0  0.10285  0.40053  0.58537  1.0000
  H   H306      1.0  0.38373  0.50925  0.48266  1.0000
  C   C161      1.0  0.44880  0.52073  0.48293  1.0000
  H   H307      1.0  0.93099  0.52062  0.60529  1.0000
  H   H308      1.0  0.97505  0.59298  0.62590  1.0000
  H   H309      1.0  0.05950  0.71148  0.44970  1.0000
  C   C162      1.0  0.93500  0.63199  0.44498  1.0000
  C   C163      1.0  0.32349  0.69452  0.57811  1.0000
  S   S39       1.0  0.42419  0.36930  0.51751  1.0000
  S   S40       1.0  0.46200  0.32502  0.45169  1.0000
  H   H310      1.0  0.30217  0.32086  0.49345  1.0000
  N   N11       1.0  0.43058  0.34830  0.68544  1.0000
  Fe  Fe21      1.0  0.59379  0.34322  0.45563  1.0000
  C   C164      1.0  0.03698  0.63283  0.55275  1.0000
  C   C165      1.0  0.60391  0.52853  0.56969  1.0000
  S   S41       1.0  0.90261  0.71434  0.52323  1.0000
  C   C166      1.0  0.89541  0.27773  0.48533  1.0000
  H   H311      1.0  0.24949  0.30886  0.62207  1.0000
  C   C167      1.0  0.66549  0.50592  0.57571  1.0000
  C   C168      1.0  0.33070  0.38869  0.67416  1.0000
  C   C169      1.0  0.87837  0.53378  0.60355  1.0000
  H   H312      1.0  0.86734  0.45125  0.61809  1.0000
  C   C170      1.0  0.63759  0.56862  0.66976  1.0000
  C   C171      1.0  0.13429  0.38625  0.48208  1.0000
  C   C172      1.0  0.67744  0.26033  0.55095  1.0000
  C   C173      1.0  0.71133  0.39449  0.55358  1.0000
  C   C174      1.0  0.97897  0.60070  0.44581  1.0000
  H   H313      1.0  0.36820  0.43575  0.64520  1.0000
  H   H314      1.0  0.78462  0.60298  0.43878  1.0000
  C   C175      1.0  0.10515  0.70627  0.66134  1.0000
  H   H315      1.0  0.69867  0.38715  0.60444  1.0000
  C   C176      1.0  0.33257  0.47607  0.56824  1.0000
  C   C177      1.0  0.41508  0.51668  0.65259  1.0000
  C   C178      1.0  0.47452  0.70149  0.56657  1.0000
  H   H316      1.0  0.56224  0.60593  0.66319  1.0000
  C   C179      1.0  0.78961  0.43904  0.66200  1.0000
  S   S42       1.0  0.78839  0.69480  0.59235  1.0000
  C   C180      1.0  0.62376  0.60584  0.67011  1.0000
  H   H317      1.0  0.73526  0.65369  0.43618  1.0000
  H   H318      1.0  0.70861  0.46019  0.44240  1.0000
  C   C181      1.0  0.76863  0.47765  0.43781  1.0000
  H   H319      1.0  0.36586  0.47393  0.43670  1.0000
  H   H320      1.0  0.04010  0.48481  0.88030  1.0000
  H   H321      1.0  0.58089  0.69607  0.89836  1.0000
  C   C182      1.0  0.17923  0.29714  0.72188  1.0000
  H   H322      1.0  0.56552  0.54890  0.84349  1.0000
  H   H323      1.0  0.64738  0.26528  0.84758  1.0000
  H   H324      1.0  0.64932  0.34463  0.71435  1.0000
  H   H325      1.0  0.69647  0.66111  0.74970  1.0000
  C   C183      1.0  0.71347  0.27417  0.84740  1.0000
  H   H326      1.0  0.38604  0.50319  0.77426  1.0000
  H   H327      1.0  0.20396  0.51794  0.90611  1.0000
  H   H328      1.0  0.46956  0.33704  0.87389  1.0000
  H   H329      1.0  0.12238  0.38521  0.70729  1.0000
  H   H330      1.0  0.02255  0.72252  0.84448  1.0000
  S   S43       1.0  0.56264  0.52292  0.76741  1.0000
  Fe  Fe22      1.0  0.99841  0.27194  0.83297  1.0000
  S   S44       1.0  0.73039  0.52131  0.71882  1.0000
  H   H331      1.0  0.87711  0.28824  0.76550  1.0000
  H   H332      1.0  0.40940  0.58258  0.92777  1.0000
  H   H333      1.0  0.50535  0.25910  0.75681  1.0000
  H   H334      1.0  0.56632  0.61300  0.71711  1.0000
  C   C184      1.0  0.61344  0.68405  0.91415  1.0000
  H   H335      1.0  0.90224  0.69250  0.69447  1.0000
  H   H336      1.0  0.18664  0.32395  0.72892  1.0000
  H   H337      1.0  0.29383  0.68530  0.90979  1.0000
  C   C185      1.0  0.67747  0.32953  0.81095  1.0000
  C   C186      1.0  0.30284  0.38805  0.82607  1.0000
  H   H338      1.0  0.11393  0.67702  0.83829  1.0000
  H   H339      1.0  0.76348  0.33807  0.75080  1.0000
  C   C187      1.0  0.00966  0.71787  0.87078  1.0000
  C   C188      1.0  0.31220  0.23108  0.86403  1.0000
  C   C189      1.0  0.39899  0.34578  0.72072  1.0000
  C   C190      1.0  0.85329  0.42747  0.77982  1.0000
  H   H340      1.0  0.61861  0.38889  0.83176  1.0000
  H   H341      1.0  0.66869  0.60961  0.71687  1.0000
  C   C191      1.0  0.89111  0.68008  0.79054  1.0000
  S   S45       1.0  0.62065  0.44934  0.74946  1.0000
  H   H342      1.0  0.03549  0.40656  0.71106  1.0000
  H   H343      1.0  0.41984  0.51879  0.91685  1.0000
  H   H344      1.0  0.41929  0.29448  0.73519  1.0000
  H   H345      1.0  0.39318  0.35881  0.89452  1.0000
  H   H346      1.0  0.35671  0.27369  0.69628  1.0000
  C   C192      1.0  0.13138  0.25202  0.68572  1.0000
  H   H347      1.0  0.34057  0.42201  0.75103  1.0000
  Fe  Fe23      1.0  0.10698  0.30711  0.88178  1.0000
  C   C193      1.0  0.11167  0.58079  0.88099  1.0000
  Fe  Fe24      1.0  0.12088  0.34010  0.81632  1.0000
  C   C194      1.0  0.19512  0.23810  0.73097  1.0000
  S   S46       1.0  0.86752  0.37174  0.87212  1.0000
  H   H348      1.0  0.14158  0.48137  0.71763  1.0000
  C   C195      1.0  0.79729  0.41091  0.83456  1.0000
  C   C196      1.0  0.57589  0.57493  0.85459  1.0000
  C   C197      1.0  0.40560  0.32578  0.77695  1.0000
  H   H349      1.0  0.29650  0.66153  0.87279  1.0000
  H   H350      1.0  0.13475  0.54142  0.78401  1.0000
  C   C198      1.0  0.19486  0.53938  0.89215  1.0000
  C   C199      1.0  0.68426  0.67161  0.90191  1.0000
  H   H351      1.0  0.40899  0.37186  0.73184  1.0000
  H   H352      1.0  0.96450  0.54165  0.72097  1.0000
  H   H353      1.0  0.61858  0.70134  0.79710  1.0000
  C   C200      1.0  0.81183  0.54822  0.87054  1.0000
  C   C201      1.0  0.65908  0.36664  0.69740  1.0000
  H   H354      1.0  0.33824  0.31848  0.78174  1.0000
  C   C202      1.0  0.43570  0.32201  0.74156  1.0000
  C   C203      1.0  0.37554  0.55812  0.70475  1.0000
  H   H355      1.0  0.33927  0.49308  0.81489  1.0000
  C   C204      1.0  0.53036  0.23977  0.76944  1.0000
  H   H356      1.0  0.75304  0.59319  0.87132  1.0000
  C   C205      1.0  0.02909  0.47236  0.85710  1.0000
  C   C206      1.0  0.66154  0.48660  0.90575  1.0000
  H   H357      1.0  0.49833  0.38068  0.88883  1.0000
  H   H358      1.0  0.79883  0.64528  0.71784  1.0000
  N   N12       1.0  0.13403  0.48836  0.76873  1.0000
  C   C207      1.0  0.10304  0.41088  0.70879  1.0000
  H   H359      1.0  0.29435  0.38142  0.69772  1.0000
  H   H360      1.0  0.76110  0.66927  0.80212  1.0000
  C   C208      1.0  0.45744  0.35524  0.89358  1.0000
  H   H361      1.0  0.71785  0.58525  0.92809  1.0000
  C   C209      1.0  0.65245  0.67295  0.73845  1.0000
  H   H362      1.0  0.53086  0.35716  0.82426  1.0000
  H   H363      1.0  0.96732  0.47529  0.85234  1.0000
  C   C210      1.0  0.14386  0.28696  0.69446  1.0000
  C   C211      1.0  0.55812  0.33555  0.92637  1.0000
  C   C212      1.0  0.20389  0.27275  0.74037  1.0000
  H   H364      1.0  0.46361  0.27017  0.90737  1.0000
  H   H365      1.0  0.90006  0.59489  0.85571  1.0000
  H   H366      1.0  0.70564  0.67344  0.87663  1.0000
  S   S47       1.0  0.72115  0.50532  0.79582  1.0000
  C   C213      1.0  0.91931  0.32823  0.73051  1.0000
  H   H367      1.0  0.86992  0.58604  0.75813  1.0000
  H   H368      1.0  0.30518  0.56317  0.93060  1.0000
  C   C214      1.0  0.57776  0.37674  0.69293  1.0000
  H   H369      1.0  0.72423  0.33621  0.91422  1.0000
  S   S48       1.0  0.82458  0.64818  0.90793  1.0000
  H   H370      1.0  0.30899  0.23780  0.88968  1.0000
  H   H371      1.0  0.41062  0.27437  0.85076  1.0000
  H   H372      1.0  0.65854  0.43111  0.90724  1.0000
  H   H373      1.0  0.15398  0.48623  0.83720  1.0000
  C   C215      1.0  0.57023  0.66599  0.76076  1.0000
  H   H374      1.0  0.38721  0.53681  0.80390  1.0000
  C   C216      1.0  0.08638  0.70670  0.88113  1.0000
  H   H375      1.0  0.93862  0.55498  0.84941  1.0000
  C   C217      1.0  0.68362  0.55843  0.92650  1.0000
  C   C218      1.0  0.35072  0.51274  0.79550  1.0000
  S   S49       1.0  0.05417  0.69475  0.77536  1.0000
  H   H376      1.0  0.61365  0.65592  0.80537  1.0000
  H   H377      1.0  0.81872  0.28591  0.73277  1.0000
  H   H378      1.0  0.60247  0.34022  0.77438  1.0000
  C   C219      1.0  0.43140  0.53580  0.70629  1.0000
  C   C220      1.0  0.46834  0.33991  0.92519  1.0000
  H   H379      1.0  0.37528  0.40437  0.86382  1.0000
  S   S50       1.0  0.98930  0.32258  0.81252  1.0000
  C   C221      1.0  0.62780  0.51390  0.88768  1.0000
  C   C222      1.0  0.79140  0.42675  0.80562  1.0000
  Fe  Fe25      1.0  0.26231  0.62577  0.71594  1.0000
  C   C223      1.0  0.22311  0.48837  0.77076  1.0000
  H   H380      1.0  0.38870  0.67446  0.89033  1.0000
  H   H381      1.0  0.80056  0.52099  0.86224  1.0000
  H   H382      1.0  0.98523  0.50600  0.76502  1.0000
  H   H383      1.0  0.95467  0.34583  0.74657  1.0000
  H   H384      1.0  0.98390  0.38954  0.81551  1.0000
  N   N13       1.0  0.72091  0.30385  0.79177  1.0000
  H   H385      1.0  0.15542  0.66535  0.87296  1.0000
  C   C224      1.0  0.34872  0.41763  0.77549  1.0000
  H   H386      1.0  0.63707  0.50800  0.86175  1.0000
  C   C225      1.0  0.50024  0.59109  0.85396  1.0000
  H   H387      1.0  0.10697  0.41467  0.75891  1.0000
  H   H388      1.0  0.69863  0.38872  0.70755  1.0000
  C   C226      1.0  0.88470  0.56740  0.84833  1.0000
  H   H389      1.0  0.36016  0.57367  0.72517  1.0000
  H   H390      1.0  0.31084  0.54339  0.86286  1.0000
  H   H391      1.0  0.58653  0.33074  0.90173  1.0000
  H   H392      1.0  0.82508  0.34500  0.78228  1.0000
  C   C227      1.0  0.12026  0.52466  0.76343  1.0000
  C   C228      1.0  0.92035  0.41229  0.78319  1.0000
  S   S51       1.0  0.05938  0.53998  0.93455  1.0000
  C   C229      1.0  0.74693  0.24588  0.86300  1.0000
  C   C230      1.0  0.66501  0.28025  0.77244  1.0000
  C   C231      1.0  0.24393  0.58175  0.84986  1.0000
  C   C232      1.0  0.17046  0.59407  0.85537  1.0000
  C   C233      1.0  0.41601  0.43621  0.78817  1.0000
  H   H393      1.0  0.72036  0.34573  0.82543  1.0000
  H   H394      1.0  0.28401  0.54267  0.77045  1.0000
  C   C234      1.0  0.96028  0.66717  0.77763  1.0000
  H   H395      1.0  0.22998  0.46436  0.78304  1.0000
  H   H396      1.0  0.04467  0.46400  0.73889  1.0000
  H   H397      1.0  0.16475  0.53690  0.74308  1.0000
  H   H398      1.0  0.26125  0.36849  0.84045  1.0000
  H   H399      1.0  0.90194  0.71431  0.92207  1.0000
  H   H400      1.0  0.33183  0.33729  0.72446  1.0000
  H   H401      1.0  0.53291  0.32187  0.68706  1.0000
  H   H402      1.0  0.50831  0.61731  0.86480  1.0000
  H   H403      1.0  0.52696  0.66441  0.69930  1.0000
  C   C235      1.0  0.59719  0.57300  0.88891  1.0000
  H   H404      1.0  0.96737  0.41221  0.76336  1.0000
  C   C236      1.0  0.02737  0.53786  0.72319  1.0000
  H   H405      1.0  0.54025  0.63848  0.76080  1.0000
  H   H406      1.0  0.65248  0.44772  0.86836  1.0000
  C   C237      1.0  0.87606  0.61213  0.76744  1.0000
  H   H407      1.0  0.72885  0.49121  0.90276  1.0000
  H   H408      1.0  0.77116  0.25850  0.80142  1.0000
  H   H409      1.0  0.72061  0.56011  0.84448  1.0000
  C   C238      1.0  0.92824  0.39820  0.81250  1.0000
  H   H410      1.0  0.96143  0.31293  0.71672  1.0000
  H   H411      1.0  0.56489  0.44319  0.89890  1.0000
  H   H412      1.0  0.01623  0.46956  0.79560  1.0000
  H   H413      1.0  0.31060  0.28394  0.84913  1.0000
  H   H414      1.0  0.64494  0.29508  0.75381  1.0000
  H   H415      1.0  0.89557  0.34395  0.71361  1.0000
  C   C239      1.0  0.64048  0.35445  0.79141  1.0000
  H   H416      1.0  0.43332  0.30884  0.79125  1.0000
  C   C240      1.0  0.27039  0.52006  0.78688  1.0000
  H   H417      1.0  0.23053  0.28086  0.76177  1.0000
  H   H418      1.0  0.07966  0.70219  0.90717  1.0000
  S   S52       1.0  0.93040  0.22780  0.80703  1.0000
  C   C241      1.0  0.58902  0.25798  0.79153  1.0000
  H   H419      1.0  0.74847  0.40935  0.85412  1.0000
  N   N14       1.0  0.66138  0.55166  0.89326  1.0000
  H   H420      1.0  0.68933  0.37343  0.77782  1.0000
  S   S53       1.0  0.17765  0.61294  0.76150  1.0000
  C   C242      1.0  0.08145  0.47183  0.79813  1.0000
  C   C243      1.0  0.25517  0.55376  0.86770  1.0000
  H   H421      1.0  0.20094  0.43197  0.73479  1.0000
  H   H422      1.0  0.56044  0.50814  0.89429  1.0000
  C   C244      1.0  0.09411  0.48943  0.83057  1.0000
  S   S54       1.0  0.09968  0.36070  0.86582  1.0000
  S   S55       1.0  0.23354  0.67931  0.71324  1.0000
  Fe  Fe26      1.0  0.96766  0.34017  0.86299  1.0000
  H   H423      1.0  0.75940  0.69985  0.69308  1.0000
  H   H424      1.0  0.61345  0.27771  0.90952  1.0000
  C   C245      1.0  0.36852  0.40770  0.83911  1.0000
  C   C246      1.0  0.32191  0.66527  0.89578  1.0000
  H   H425      1.0  0.05613  0.59119  0.88616  1.0000
  C   C247      1.0  0.03260  0.52884  0.75783  1.0000
  H   H426      1.0  0.82995  0.54905  0.89479  1.0000
  S   S56       1.0  0.50958  0.45501  0.83579  1.0000
  H   H427      1.0  0.31606  0.50071  0.93251  1.0000
  C   C248      1.0  0.12525  0.55409  0.89992  1.0000
  H   H428      1.0  0.08663  0.23787  0.89391  1.0000
  H   H429      1.0  0.67606  0.70130  0.73926  1.0000
  H   H430      1.0  0.07016  0.56222  0.71573  1.0000
  C   C249      1.0  0.30400  0.63098  0.91416  1.0000
  H   H431      1.0  0.72603  0.54167  0.93222  1.0000
  H   H432      1.0  0.19034  0.23603  0.85710  1.0000
  H   H433      1.0  0.53924  0.56282  0.90425  1.0000
  Fe  Fe27      1.0  0.59881  0.49492  0.72275  1.0000
  C   C250      1.0  0.95330  0.63316  0.76621  1.0000
  C   C251      1.0  0.72911  0.65802  0.92255  1.0000
  H   H434      1.0  0.35461  0.25756  0.81852  1.0000
  H   H435      1.0  0.03117  0.44434  0.85914  1.0000
  H   H436      1.0  0.62772  0.31651  0.82877  1.0000
  H   H437      1.0  0.96006  0.69481  0.87409  1.0000
  C   C252      1.0  0.56036  0.23499  0.68748  1.0000
  H   H438      1.0  0.52838  0.68217  0.75332  1.0000
  H   H439      1.0  0.32826  0.61168  0.89802  1.0000
  C   C253      1.0  0.48926  0.25441  0.92345  1.0000
  Fe  Fe28      1.0  0.59265  0.47949  0.79375  1.0000
  C   C254      1.0  0.58220  0.67496  0.79537  1.0000
  C   C255      1.0  0.13393  0.43052  0.73754  1.0000
  N   N15       1.0  0.65123  0.66075  0.70440  1.0000
  S   S57       1.0  0.13324  0.28775  0.83158  1.0000
  C   C256      1.0  0.63240  0.44991  0.89432  1.0000
  C   C257      1.0  0.10180  0.67326  0.86455  1.0000
  H   H440      1.0  0.87111  0.56648  0.82329  1.0000
  H   H441      1.0  0.50281  0.32880  0.73919  1.0000
  C   C258      1.0  0.81452  0.65912  0.79205  1.0000
  C   C259      1.0  0.29209  0.39354  0.79445  1.0000
  H   H442      1.0  0.64006  0.48724  0.93170  1.0000
  C   C260      1.0  0.73519  0.56458  0.86925  1.0000
  H   H443      1.0  0.61639  0.60019  0.89675  1.0000
  H   H444      1.0  0.55411  0.27370  0.80818  1.0000
  H   H445      1.0  0.04835  0.65216  0.87017  1.0000
  H   H446      1.0  0.44585  0.57443  0.86688  1.0000
  H   H447      1.0  0.85131  0.70839  0.85813  1.0000
  H   H448      1.0  0.16059  0.61465  0.84061  1.0000
  H   H449      1.0  0.00695  0.62328  0.75601  1.0000
  H   H450      1.0  0.54995  0.38476  0.71651  1.0000
  H   H451      1.0  0.62635  0.59197  0.83997  1.0000
  S   S58       1.0  0.20861  0.37050  0.77826  1.0000
  H   H452      1.0  0.45852  0.53489  0.72771  1.0000
  H   H453      1.0  0.04173  0.51669  0.70688  1.0000
  S   S59       1.0  0.37258  0.64434  0.73986  1.0000
  H   H454      1.0  0.81307  0.25415  0.86417  1.0000
  H   H455      1.0  0.53094  0.25434  0.70028  1.0000
  C   C261      1.0  0.86517  0.39595  0.83780  1.0000
  S   S60       1.0  0.20653  0.29457  0.90860  1.0000
  H   H456      1.0  0.69877  0.26188  0.75849  1.0000
  S   S61       1.0  0.32465  0.60244  0.82251  1.0000
  H   H457      1.0  0.09028  0.51730  0.83021  1.0000
  C   C262      1.0  0.58578  0.37478  0.81300  1.0000
  H   H458      1.0  0.56515  0.39395  0.79853  1.0000
  C   C263      1.0  0.84947  0.30375  0.74979  1.0000
  H   H459      1.0  0.45901  0.45486  0.77338  1.0000
  C   C264      1.0  0.42544  0.43159  0.82009  1.0000
  H   H460      1.0  0.49003  0.59366  0.82877  1.0000
  S   S62       1.0  0.84994  0.44819  0.74363  1.0000
  H   H461      1.0  0.52188  0.67379  0.81006  1.0000
  H   H462      1.0  0.42390  0.35291  0.78475  1.0000
  H   H463      1.0  0.89675  0.70631  0.79936  1.0000
  Fe  Fe29      1.0  0.15977  0.66821  0.76108  1.0000
  Fe  Fe30      1.0  0.28724  0.63348  0.78530  1.0000
  H   H464      1.0  0.09117  0.44490  0.80108  1.0000
  H   H465      1.0  0.23527  0.52768  0.80878  1.0000
  H   H466      1.0  0.73764  0.43719  0.80305  1.0000
  S   S63       1.0  0.26208  0.68751  0.78908  1.0000
  H   H467      1.0  0.42608  0.72115  0.79035  1.0000
  Fe  Fe31      1.0  0.74768  0.47793  0.74970  1.0000
  C   C265      1.0  0.80683  0.62533  0.78024  1.0000
  H   H468      1.0  0.82004  0.29734  0.81769  1.0000
  C   C266      1.0  0.78864  0.32444  0.76896  1.0000
  Fe  Fe32      1.0  0.69397  0.54633  0.76538  1.0000
  S   S64       1.0  0.70912  0.60169  0.77940  1.0000
  S   S65       1.0  0.97095  0.28802  0.88392  1.0000
  H   H469      1.0  0.72203  0.29771  0.86254  1.0000
  C   C267      1.0  0.75916  0.28300  0.81337  1.0000
  H   H470      1.0  0.01463  0.55047  0.77292  1.0000
  Fe  Fe33      1.0  0.33658  0.69652  0.74133  1.0000
  H   H471      1.0  0.53638  0.22685  0.88174  1.0000
  H   H472      1.0  0.25792  0.48772  0.74643  1.0000
  C   C268      1.0  0.34915  0.26374  0.84440  1.0000
  C   C269      1.0  0.11130  0.46728  0.73993  1.0000
  H   H473      1.0  0.23694  0.62324  0.91970  1.0000
  H   H474      1.0  0.60457  0.55488  0.69159  1.0000
  C   C270      1.0  0.15827  0.22759  0.70371  1.0000
  H   H475      1.0  0.34849  0.44306  0.68773  1.0000
  C   C271      1.0  0.59897  0.71537  0.68952  1.0000
  C   C272      1.0  0.80049  0.65070  0.69216  1.0000
  H   H476      1.0  0.12868  0.42555  0.68658  1.0000
  H   H477      1.0  0.71541  0.24063  0.88766  1.0000
  C   C273      1.0  0.62790  0.62188  0.70386  1.0000
  H   H478      1.0  0.60795  0.23752  0.80503  1.0000
  H   H479      1.0  0.45130  0.40454  0.68715  1.0000
  C   C274      1.0  0.59006  0.67560  0.68861  1.0000
  C   C275      1.0  0.73548  0.67268  0.68658  1.0000
  S   S66       1.0  0.70206  0.28206  0.68693  1.0000
  H   H480      1.0  0.73473  0.29360  0.92656  1.0000
  H   H481      1.0  0.86090  0.33292  0.93096  1.0000
  H   H482      1.0  0.59122  0.36169  0.93215  1.0000
  C   C276      1.0  0.57156  0.27411  0.93227  1.0000
  C   C277      1.0  0.72887  0.32012  0.93496  1.0000
  H   H483      1.0  0.42431  0.31539  0.92824  1.0000
  H   H484      1.0  0.52911  0.36077  0.98647  1.0000
  H   H485      1.0  0.46194  0.47287  0.17291  1.0000
  H   H486      1.0  0.30260  0.62847  0.03005  1.0000
  C   C278      1.0  0.87796  0.68041  0.11169  1.0000
  H   H487      1.0  0.48466  0.57678  0.18455  1.0000
  C   C279      1.0  0.55853  0.57905  0.09863  1.0000
  C   C280      1.0  0.21590  0.72147  0.97222  1.0000
  C   C281      1.0  0.26056  0.69237  0.12519  1.0000
  H   H488      1.0  0.26752  0.56347  0.01946  1.0000
  H   H489      1.0  0.87501  0.57329  0.10214  1.0000
  C   C282      1.0  0.65348  0.31913  0.96056  1.0000
  H   H490      1.0  0.19021  0.52414  0.97694  1.0000
  H   H491      1.0  0.15925  0.51577  0.01902  1.0000
  C   C283      1.0  0.74184  0.64006  0.16068  1.0000
  H   H492      1.0  0.40410  0.31378  0.03382  1.0000
  H   H493      1.0  0.44509  0.24711  0.94519  1.0000
  H   H494      1.0  0.41228  0.64229  0.93666  1.0000
  C   C284      1.0  0.88315  0.63157  0.16787  1.0000
  C   C285      1.0  0.27031  0.27500  0.95945  1.0000
  H   H495      1.0  0.94272  0.63001  0.15345  1.0000
  H   H496      1.0  0.60533  0.66277  0.99230  1.0000
  C   C286      1.0  0.19412  0.44157  0.17408  1.0000
  C   C287      1.0  0.38209  0.31002  0.13737  1.0000
  H   H497      1.0  0.45072  0.62002  0.98013  1.0000
  H   H498      1.0  0.93824  0.22909  0.11551  1.0000
  H   H499      1.0  0.20384  0.58567  0.96015  1.0000
  H   H500      1.0  0.51760  0.28204  0.99346  1.0000
  S   S67       1.0  0.47580  0.71613  0.16192  1.0000
  C   C288      1.0  0.68749  0.58335  0.06415  1.0000
  H   H501      1.0  0.32653  0.65674  0.95819  1.0000
  H   H502      1.0  0.19351  0.64214  0.14483  1.0000
  H   H503      1.0  0.16520  0.64569  0.05616  1.0000
  H   H504      1.0  0.34812  0.32979  0.14879  1.0000
  Fe  Fe34      1.0  0.00981  0.65005  0.99376  1.0000
  H   H505      1.0  0.22092  0.61949  0.98722  1.0000
  C   C289      1.0  0.21760  0.66831  0.15354  1.0000
  C   C290      1.0  0.25609  0.70984  0.06988  1.0000
  H   H506      1.0  0.69689  0.63734  0.14323  1.0000
  S   S68       1.0  0.48019  0.63362  0.11302  1.0000
  H   H507      1.0  0.12168  0.31167  0.02343  1.0000
  H   H508      1.0  0.47684  0.31000  0.18320  1.0000
  C   C291      1.0  0.16318  0.30142  0.00555  1.0000
  S   S69       1.0  0.87596  0.64980  0.99781  1.0000
  H   H509      1.0  0.85559  0.26977  0.09916  1.0000
  C   C292      1.0  0.27663  0.27150  0.99185  1.0000
  H   H510      1.0  0.32925  0.53234  0.98269  1.0000
  H   H511      1.0  0.55423  0.33597  0.01760  1.0000
  C   C293      1.0  0.62365  0.56385  0.08443  1.0000
  H   H512      1.0  0.53020  0.39804  0.14274  1.0000
  C   C294      1.0  0.22351  0.28483  0.01503  1.0000
  H   H513      1.0  0.81227  0.32045  0.97048  1.0000
  C   C295      1.0  0.88835  0.69326  0.07724  1.0000
  C   C296      1.0  0.13333  0.67578  0.09880  1.0000
  H   H514      1.0  0.16756  0.25329  0.12517  1.0000
  H   H515      1.0  0.16603  0.67840  0.16702  1.0000
  N   N16       1.0  0.59301  0.34261  0.16765  1.0000
  H   H516      1.0  0.07136  0.71444  0.14778  1.0000
  H   H517      1.0  0.93900  0.68619  0.11980  1.0000
  C   C297      1.0  0.24193  0.59494  0.97927  1.0000
  H   H518      1.0  0.79567  0.63473  0.09871  1.0000
  H   H519      1.0  0.40365  0.66123  0.05993  1.0000
  H   H520      1.0  0.30706  0.67839  0.11214  1.0000
  H   H521      1.0  0.39071  0.58742  0.00493  1.0000
  H   H522      1.0  0.62820  0.35745  0.11797  1.0000
  H   H523      1.0  0.58661  0.55197  0.00551  1.0000
  H   H524      1.0  0.73374  0.63311  0.04186  1.0000
  C   C298      1.0  0.59680  0.40314  0.14328  1.0000
  H   H525      1.0  0.15985  0.45546  0.15946  1.0000
  H   H526      1.0  0.09586  0.66884  0.12211  1.0000
  H   H527      1.0  0.27176  0.23633  0.18041  1.0000
  H   H528      1.0  0.39905  0.48976  0.95067  1.0000
  H   H529      1.0  0.96134  0.28392  0.08382  1.0000
  H   H530      1.0  0.31162  0.26455  0.94175  1.0000
  H   H531      1.0  0.60942  0.41800  0.16521  1.0000
  H   H532      1.0  0.50461  0.30291  0.12230  1.0000
  H   H533      1.0  0.38150  0.34038  0.00303  1.0000
  H   H534      1.0  0.20511  0.63351  0.09072  1.0000
  H   H535      1.0  0.07024  0.26009  0.11626  1.0000
  H   H536      1.0  0.50989  0.56402  0.11464  1.0000
  H   H537      1.0  0.59531  0.28868  0.17704  1.0000
  H   H538      1.0  0.09327  0.58828  0.07686  1.0000
  H   H539      1.0  0.69782  0.37697  0.14371  1.0000
  H   H540      1.0  0.82852  0.68929  0.06802  1.0000
  H   H541      1.0  0.30263  0.47935  0.17440  1.0000
  H   H542      1.0  0.81639  0.28300  0.16056  1.0000
  H   H543      1.0  0.68151  0.57901  0.99028  1.0000
  C   C299      1.0  0.07850  0.61227  0.08870  1.0000
  C   C300      1.0  0.92456  0.22809  0.09068  1.0000
  H   H544      1.0  0.65891  0.34541  0.97139  1.0000
  H   H545      1.0  0.44632  0.29564  0.97253  1.0000
  C   C301      1.0  0.38676  0.61072  0.99134  1.0000
  H   H546      1.0  0.08728  0.23670  0.95443  1.0000
  C   C302      1.0  0.68508  0.61791  0.05752  1.0000
  H   H547      1.0  0.10161  0.53901  0.99724  1.0000
  H   H548      1.0  0.48733  0.34629  0.11817  1.0000
  S   S70       1.0  0.77173  0.56448  0.04923  1.0000
  H   H549      1.0  0.47065  0.35369  0.17754  1.0000
  C   C303      1.0  0.84545  0.64091  0.11390  1.0000
  H   H550      1.0  0.36300  0.30425  0.11339  1.0000
  S   S71       1.0  0.65935  0.70564  0.12990  1.0000
  C   C304      1.0  0.72123  0.31397  0.16559  1.0000
  H   H551      1.0  0.89004  0.26316  0.05772  1.0000
  C   C305      1.0  0.90703  0.26345  0.08226  1.0000
  H   H552      1.0  0.98957  0.23739  0.94195  1.0000
  H   H553      1.0  0.57829  0.57647  0.95330  1.0000
  S   S72       1.0  0.02245  0.63663  0.94184  1.0000
  Fe  Fe35      1.0  0.99733  0.58143  0.95824  1.0000
  H   H554      1.0  0.36213  0.66289  0.00538  1.0000
  H   H555      1.0  0.36572  0.28588  0.15185  1.0000
  H   H556      1.0  0.48499  0.65714  0.02878  1.0000
  H   H557      1.0  0.32939  0.65313  0.16461  1.0000
  H   H558      1.0  0.76504  0.57442  0.16615  1.0000
  N   N17       1.0  0.20696  0.70313  0.10254  1.0000
  H   H559      1.0  0.17885  0.58143  0.02706  1.0000
  H   H560      1.0  0.59668  0.25633  0.94684  1.0000
  H   H561      1.0  0.62043  0.66038  0.06779  1.0000
  S   S73       1.0  0.49266  0.23254  0.15063  1.0000
  H   H562      1.0  0.66032  0.30130  0.97990  1.0000
  H   H563      1.0  0.06223  0.60691  0.11468  1.0000
  C   C306      1.0  0.42656  0.33762  0.01934  1.0000
  C   C307      1.0  0.21628  0.56921  0.00800  1.0000
  S   S74       1.0  0.45200  0.25648  0.06302  1.0000
  C   C308      1.0  0.21050  0.29161  0.94981  1.0000
  H   H564      1.0  0.10980  0.31743  0.96563  1.0000
  C   C309      1.0  0.10075  0.24548  0.13163  1.0000
  H   H565      1.0  0.73510  0.26780  0.13726  1.0000
  C   C310      1.0  0.50223  0.33272  0.16726  1.0000
  H   H566      1.0  0.73832  0.58188  0.12803  1.0000
  H   H567      1.0  0.91389  0.72143  0.07611  1.0000
  C   C311      1.0  0.42445  0.64421  0.04049  1.0000
  C   C312      1.0  0.78946  0.58701  0.14271  1.0000
  N   N18       1.0  0.33125  0.60251  0.96588  1.0000
  S   S75       1.0  0.08966  0.69286  0.01630  1.0000
  H   H568      1.0  0.80912  0.36283  0.95475  1.0000
  H   H569      1.0  0.02546  0.61903  0.07881  1.0000
  C   C313      1.0  0.61103  0.55432  0.95374  1.0000
  H   H570      1.0  0.73135  0.64194  0.97075  1.0000
  C   C314      1.0  0.15637  0.30469  0.97291  1.0000
  C   C315      1.0  0.50985  0.33635  0.00039  1.0000
  H   H571      1.0  0.43054  0.61936  0.05118  1.0000
  H   H572      1.0  0.56750  0.52994  0.95109  1.0000
  C   C316      1.0  0.15163  0.64174  0.08243  1.0000
  Fe  Fe36      1.0  0.31584  0.24363  0.06469  1.0000
  H   H573      1.0  0.62257  0.41358  0.09209  1.0000
  H   H574      1.0  0.44939  0.35741  0.94458  1.0000
  H   H575      1.0  0.27853  0.68614  0.06065  1.0000
  H   H576      1.0  0.75955  0.33249  0.14786  1.0000
  H   H577      1.0  0.93464  0.25976  0.17256  1.0000
  C   C317      1.0  0.36341  0.63775  0.01649  1.0000
  H   H578      1.0  0.93059  0.67940  0.06172  1.0000
  C   C318      1.0  0.82400  0.52756  0.12933  1.0000
  C   C319      1.0  0.63165  0.36902  0.14212  1.0000
  Fe  Fe37      1.0  0.86189  0.59373  0.01083  1.0000
  H   H579      1.0  0.24179  0.69878  0.97580  1.0000
  C   C320      1.0  0.62989  0.31040  0.16153  1.0000
  C   C321      1.0  0.34588  0.63437  0.94482  1.0000
  C   C322      1.0  0.37770  0.51093  0.93901  1.0000
  H   H580      1.0  0.70268  0.43355  0.11483  1.0000
  S   S76       1.0  0.99580  0.59508  0.01009  1.0000
  N   N19       1.0  0.81615  0.62559  0.14678  1.0000
  C   C323      1.0  0.62101  0.63340  0.07237  1.0000
  C   C324      1.0  0.85605  0.56658  0.12771  1.0000
  H   H581      1.0  0.87210  0.51356  0.11800  1.0000
  C   C325      1.0  0.63569  0.42660  0.11487  1.0000
  H   H582      1.0  0.75746  0.66827  0.16496  1.0000
  H   H583      1.0  0.09193  0.68620  0.08448  1.0000
  C   C326      1.0  0.37449  0.54146  0.96193  1.0000
  H   H584      1.0  0.30047  0.54868  0.18311  1.0000
  C   C327      1.0  0.27664  0.66376  0.17697  1.0000
  C   C328      1.0  0.80727  0.33502  0.94878  1.0000
  H   H585      1.0  0.08544  0.25314  0.15679  1.0000
  C   C329      1.0  0.69875  0.65357  0.95489  1.0000
  C   C330      1.0  0.62663  0.66499  0.96702  1.0000
  S   S77       1.0  0.36919  0.40247  0.17608  1.0000
  N   N20       1.0  0.57117  0.30838  0.94916  1.0000
  H   H586      1.0  0.71951  0.26079  0.17993  1.0000
  H   H587      1.0  0.80712  0.51870  0.15454  1.0000
  C   C331      1.0  0.63971  0.55437  0.98653  1.0000
  H   H588      1.0  0.41029  0.59963  0.17158  1.0000
  H   H589      1.0  0.62522  0.53709  0.08956  1.0000
  H   H590      1.0  0.91055  0.57180  0.14040  1.0000
  S   S78       1.0  0.86279  0.57550  0.96041  1.0000
  S   S79       1.0  0.50233  0.69994  0.96268  1.0000
  H   H591      1.0  0.41049  0.71635  0.03099  1.0000
  H   H592      1.0  0.43114  0.36014  0.03574  1.0000
  S   S80       1.0  0.23224  0.28040  0.05575  1.0000
  H   H593      1.0  0.77002  0.52089  0.11637  1.0000
  Fe  Fe38      1.0  0.53123  0.68944  0.11951  1.0000
  H   H594      1.0  0.89603  0.62896  0.10180  1.0000
  H   H595      1.0  0.29670  0.71576  0.13518  1.0000
  C   C332      1.0  0.47394  0.32334  0.13416  1.0000
  H   H596      1.0  0.67178  0.53235  0.98892  1.0000
  H   H597      1.0  0.04607  0.24063  0.06355  1.0000
  H   H598      1.0  0.62412  0.30100  0.13680  1.0000
  H   H599      1.0  0.32335  0.25882  0.99889  1.0000
  H   H600      1.0  0.83680  0.69562  0.12597  1.0000
  C   C333      1.0  0.50869  0.30388  0.97860  1.0000
  H   H601      1.0  0.43494  0.54847  0.97036  1.0000
  C   C334      1.0  0.55799  0.61399  0.09307  1.0000
  C   C335      1.0  0.58559  0.68131  0.94683  1.0000
  H   H602      1.0  0.61006  0.45086  0.11654  1.0000
  C   C336      1.0  0.35440  0.57306  0.94519  1.0000
  C   C337      1.0  0.16409  0.53499  0.99962  1.0000
  H   H603      1.0  0.21715  0.71642  0.05242  1.0000
  C   C338      1.0  0.74953  0.27920  0.16051  1.0000
  H   H604      1.0  0.90469  0.68911  0.17161  1.0000
  H   H605      1.0  0.22929  0.42550  0.15780  1.0000
  Fe  Fe39      1.0  0.88659  0.63148  0.94711  1.0000
  H   H606      1.0  0.23455  0.87574  0.33252  1.0000
  C   C339      1.0  0.39293  0.02499  0.21153  1.0000
  S   S81       1.0  0.67718  0.10331  0.23522  1.0000
  H   H607      1.0  0.76111  0.17818  0.28879  1.0000
  H   H608      1.0  0.89466  0.13099  0.32903  1.0000
  H   H609      1.0  0.13311  0.20721  0.33303  1.0000
  C   C340      1.0  0.44583  0.78430  0.28362  1.0000
  C   C341      1.0  0.53478  0.78081  0.40106  1.0000
  H   H610      1.0  0.64897  0.10198  0.31524  1.0000
  N   N21       1.0  0.42853  0.92228  0.26726  1.0000
  C   C342      1.0  0.30027  0.87528  0.28420  1.0000
  Fe  Fe40      1.0  0.95886  0.89796  0.21886  1.0000
  H   H611      1.0  0.82749  0.99860  0.26235  1.0000
  H   H612      1.0  0.88527  0.81248  0.36731  1.0000
  C   C343      1.0  0.84599  0.14639  0.32779  1.0000
  H   H613      1.0  0.91686  0.20752  0.24577  1.0000
  C   C344      1.0  0.02220  0.76558  0.30675  1.0000
  C   C345      1.0  0.93758  0.98868  0.27857  1.0000
  H   H614      1.0  0.61202  0.75443  0.36920  1.0000
  C   C346      1.0  0.29115  0.22096  0.19880  1.0000
  N   N22       1.0  0.55123  0.75790  0.31029  1.0000
  H   H615      1.0  0.69600  0.09156  0.36646  1.0000
  Fe  Fe41      1.0  0.13469  0.92486  0.19072  1.0000
  H   H616      1.0  0.49383  0.02911  0.29189  1.0000
  C   C347      1.0  0.77666  0.78860  0.39628  1.0000
  H   H617      1.0  0.65167  0.73471  0.32149  1.0000
  H   H618      1.0  0.14152  0.11904  0.22808  1.0000
  C   C348      1.0  0.41951  0.91362  0.23274  1.0000
  H   H619      1.0  0.84752  0.93344  0.33879  1.0000
  C   C349      1.0  0.61398  0.10843  0.33808  1.0000
  H   H620      1.0  0.41769  0.97518  0.25797  1.0000
  H   H621      1.0  0.52537  0.94977  0.20837  1.0000
  C   C350      1.0  0.03726  0.82873  0.40991  1.0000
  C   C351      1.0  0.70442  0.78215  0.21716  1.0000
  H   H622      1.0  0.11729  0.77060  0.39932  1.0000
  H   H623      1.0  0.62086  0.86868  0.26995  1.0000
  H   H624      1.0  0.19734  0.98435  0.21243  1.0000
  H   H625      1.0  0.28525  0.02072  0.24612  1.0000
  Fe  Fe42      1.0  0.01995  0.20979  0.42783  1.0000
  H   H626      1.0  0.55164  0.20494  0.20336  1.0000
  H   H627      1.0  0.43202  0.02659  0.42553  1.0000
  C   C352      1.0  0.49729  0.92196  0.20813  1.0000
  H   H628      1.0  0.12029  0.89713  0.40917  1.0000
  H   H629      1.0  0.60804  0.88275  0.31109  1.0000
  H   H630      1.0  0.55811  0.80336  0.34048  1.0000
  C   C353      1.0  0.57695  0.91760  0.27692  1.0000
  H   H631      1.0  0.57672  0.80619  0.39837  1.0000
  H   H632      1.0  0.26986  0.20981  0.34008  1.0000
  H   H633      1.0  0.44282  0.12256  0.20684  1.0000
  H   H634      1.0  0.47913  0.87555  0.26838  1.0000
  H   H635      1.0  0.67074  0.20280  0.27057  1.0000
  H   H636      1.0  0.17682  0.88338  0.30121  1.0000
  C   C354      1.0  0.06860  0.18020  0.25026  1.0000
  C   C355      1.0  0.26102  0.99205  0.20376  1.0000
  C   C356      1.0  0.43324  0.79840  0.25155  1.0000
  C   C357      1.0  0.09959  0.21498  0.25606  1.0000
  H   H637      1.0  0.01715  0.81786  0.35042  1.0000
  H   H638      1.0  0.50699  0.73320  0.37606  1.0000
  H   H639      1.0  0.87004  0.83059  0.40657  1.0000
  H   H640      1.0  0.31232  0.19357  0.28198  1.0000
  H   H641      1.0  0.95099  0.93944  0.34716  1.0000
  H   H642      1.0  0.93119  0.96281  0.26894  1.0000
  C   C358      1.0  0.88744  0.92729  0.35593  1.0000
  H   H643      1.0  0.80458  0.76903  0.28196  1.0000
  H   H644      1.0  0.51569  0.97525  0.38314  1.0000
  H   H645      1.0  0.02568  0.74041  0.40252  1.0000
  H   H646      1.0  0.60204  0.92718  0.25257  1.0000
  H   H647      1.0  0.95498  0.22055  0.18861  1.0000
  Fe  Fe43      1.0  0.09498  0.86419  0.23683  1.0000
  H   H648      1.0  0.89558  0.16369  0.28048  1.0000
  H   H649      1.0  0.61281  0.05858  0.35770  1.0000
  C   C359      1.0  0.31085  0.01340  0.22269  1.0000
  C   C360      1.0  0.08721  0.16486  0.30376  1.0000
  H   H650      1.0  0.33982  0.85684  0.28921  1.0000
  C   C361      1.0  0.18415  0.10855  0.20980  1.0000
  C   C362      1.0  0.36886  0.21325  0.28110  1.0000
  H   H651      1.0  0.00871  0.84812  0.39882  1.0000
  H   H652      1.0  0.16450  0.82510  0.41546  1.0000
  H   H653      1.0  0.09964  0.79702  0.35431  1.0000
  C   C363      1.0  0.52889  0.77554  0.34136  1.0000
  H   H654      1.0  0.29660  0.18014  0.38903  1.0000
  S   S82       1.0  0.80337  0.06498  0.28948  1.0000
  H   H655      1.0  0.09434  0.04343  0.37460  1.0000
  Fe  Fe44      1.0  0.74897  0.06218  0.24365  1.0000
  C   C364      1.0  0.78018  0.85155  0.21636  1.0000
  C   C365      1.0  0.64014  0.75474  0.30538  1.0000
  S   S83       1.0  0.82850  0.89464  0.21314  1.0000
  H   H656      1.0  0.39722  0.88543  0.22994  1.0000
  H   H657      1.0  0.94995  0.07883  0.31829  1.0000
  C   C366      1.0  0.69902  0.98840  0.33959  1.0000
  C   C367      1.0  0.99367  0.76221  0.34253  1.0000
  H   H658      1.0  0.39207  0.97823  0.31436  1.0000
  H   H659      1.0  0.29898  0.07885  0.23972  1.0000
  H   H660      1.0  0.01085  0.73830  0.35088  1.0000
  C   C368      1.0  0.29207  0.10598  0.24438  1.0000
  H   H661      1.0  0.34834  0.91838  0.31215  1.0000
  H   H662      1.0  0.89873  0.75534  0.39920  1.0000
  H   H663      1.0  0.23743  0.76165  0.22931  1.0000
  S   S84       1.0  0.65853  0.73883  0.21487  1.0000
  H   H664      1.0  0.50726  0.01871  0.33172  1.0000
  H   H665      1.0  0.37260  0.20913  0.34284  1.0000
  C   C369      1.0  0.05767  0.04997  0.39697  1.0000
  C   C370      1.0  0.15083  0.87817  0.41982  1.0000
  C   C371      1.0  0.11639  0.19961  0.30981  1.0000
  C   C372      1.0  0.62961  0.08593  0.36489  1.0000
  H   H666      1.0  0.69294  0.90367  0.28329  1.0000
  H   H667      1.0  0.34354  0.17065  0.22660  1.0000
  H   H668      1.0  0.54832  0.10357  0.33510  1.0000
  Fe  Fe45      1.0  0.02046  0.15240  0.37881  1.0000
  C   C373      1.0  0.62745  0.89146  0.28596  1.0000
  S   S85       1.0  0.39994  0.89070  0.39833  1.0000
  S   S86       1.0  0.96805  0.20094  0.38174  1.0000
  H   H669      1.0  0.79869  0.92517  0.39838  1.0000
  H   H670      1.0  0.31875  0.09724  0.30687  1.0000
  C   C374      1.0  0.46606  0.98262  0.40045  1.0000
  H   H671      1.0  0.81543  0.20015  0.23709  1.0000
  H   H672      1.0  0.23834  0.16653  0.24075  1.0000
  C   C375      1.0  0.30842  0.78823  0.41401  1.0000
  H   H673      1.0  0.28574  0.79252  0.33557  1.0000
  H   H674      1.0  0.69086  0.80007  0.33310  1.0000
  H   H675      1.0  0.17606  0.05554  0.22925  1.0000
  H   H676      1.0  0.25152  0.05876  0.29564  1.0000
  C   C376      1.0  0.70240  0.78841  0.30922  1.0000
  H   H677      1.0  0.28231  0.86954  0.26012  1.0000
  C   C377      1.0  0.82229  0.99251  0.36918  1.0000
  H   H678      1.0  0.65724  0.74490  0.28111  1.0000
  H   H679      1.0  0.03554  0.06636  0.23402  1.0000
  H   H680      1.0  0.05931  0.04503  0.32134  1.0000
  C   C378      1.0  0.80799  0.19646  0.29983  1.0000
  H   H681      1.0  0.47945  0.82177  0.24431  1.0000
  C   C379      1.0  0.23200  0.10680  0.27549  1.0000
  H   H682      1.0  0.82195  0.02061  0.37308  1.0000
  H   H683      1.0  0.46080  0.96789  0.42300  1.0000
  H   H684      1.0  0.04861  0.17267  0.22743  1.0000
  H   H685      1.0  0.63372  0.97675  0.34020  1.0000
  H   H686      1.0  0.93016  0.19200  0.31183  1.0000
  H   H687      1.0  0.82075  0.87455  0.36487  1.0000
  S   S87       1.0  0.03545  0.95065  0.21475  1.0000
  C   C380      1.0  0.96717  0.03571  0.39639  1.0000
  H   H688      1.0  0.94708  0.04931  0.37695  1.0000
  H   H689      1.0  0.75579  0.77810  0.42068  1.0000
  C   C381      1.0  0.95194  0.99599  0.39060  1.0000
  H   H690      1.0  0.71636  0.07061  0.41246  1.0000
  H   H691      1.0  0.80864  0.01167  0.42865  1.0000
  C   C382      1.0  0.82423  0.82559  0.22142  1.0000
  H   H692      1.0  0.55552  0.76801  0.26012  1.0000
  H   H693      1.0  0.98634  0.98377  0.40657  1.0000
  H   H694      1.0  0.72498  0.94663  0.36575  1.0000
  S   S88       1.0  0.99272  0.88499  0.26600  1.0000
  S   S89       1.0  0.65229  0.01899  0.23153  1.0000
  H   H695      1.0  0.47293  0.95623  0.32107  1.0000
  S   S90       1.0  0.45195  0.05391  0.23507  1.0000
  C   C383      1.0  0.78934  0.78101  0.30543  1.0000
  C   C384      1.0  0.28182  0.16048  0.22014  1.0000
  N   N23       1.0  0.01030  0.79323  0.39664  1.0000
  H   H696      1.0  0.63412  0.13631  0.34318  1.0000
  C   C385      1.0  0.15836  0.06856  0.20897  1.0000
  C   C386      1.0  0.21849  0.81086  0.21297  1.0000
  C   C387      1.0  0.54813  0.75854  0.37155  1.0000
  C   C388      1.0  0.87622  0.17565  0.30357  1.0000
  H   H697      1.0  0.57570  0.00710  0.29864  1.0000
  C   C389      1.0  0.86232  0.22004  0.24657  1.0000
  H   H698      1.0  0.51503  0.09137  0.39340  1.0000
  C   C390      1.0  0.86092  0.93977  0.39016  1.0000
  H   H699      1.0  0.90055  0.93045  0.40590  1.0000
  H   H700      1.0  0.59715  0.80148  0.20867  1.0000
  H   H701      1.0  0.57243  0.80559  0.28322  1.0000
  H   H702      1.0  0.93436  0.04267  0.41940  1.0000
  C   C391      1.0  0.88196  0.04117  0.28987  1.0000
  H   H703      1.0  0.79620  0.76290  0.32423  1.0000
  C   C392      1.0  0.67468  0.07966  0.43222  1.0000
  C   C393      1.0  0.03239  0.79436  0.36078  1.0000
  H   H704      1.0  0.35292  0.11894  0.25001  1.0000
  H   H705      1.0  0.69599  0.10806  0.43321  1.0000
  N   N24       1.0  0.27100  0.12194  0.21512  1.0000
  H   H706      1.0  0.51839  0.96895  0.25738  1.0000
  C   C394      1.0  0.45641  0.96080  0.27019  1.0000
  S   S91       1.0  0.14283  0.81565  0.24476  1.0000
  C   C395      1.0  0.35689  0.84685  0.39337  1.0000
  H   H707      1.0  0.77741  0.20169  0.32401  1.0000
  H   H708      1.0  0.98232  0.99222  0.36610  1.0000
  S   S92       1.0  0.90828  0.12000  0.40468  1.0000
  H   H709      1.0  0.39630  0.20263  0.39468  1.0000
  C   C396      1.0  0.25489  0.78132  0.21088  1.0000
  H   H710      1.0  0.37263  0.92713  0.22473  1.0000
  C   C397      1.0  0.53516  0.77919  0.28337  1.0000
  H   H711      1.0  0.92629  0.75901  0.34570  1.0000
  S   S93       1.0  0.08307  0.16412  0.42216  1.0000
  H   H712      1.0  0.40159  0.75983  0.28827  1.0000
  H   H713      1.0  0.08941  0.76754  0.30186  1.0000
  S   S94       1.0  0.05378  0.87279  0.18984  1.0000
  H   H714      1.0  0.30407  0.93052  0.27922  1.0000
  C   C398      1.0  0.94671  0.05382  0.30693  1.0000
  H   H715      1.0  0.16856  0.09509  0.27230  1.0000
  H   H716      1.0  0.15344  0.84514  0.37892  1.0000
  S   S95       1.0  0.08120  0.13374  0.33339  1.0000
  C   C399      1.0  0.13044  0.84254  0.40472  1.0000
  H   H717      1.0  0.66433  0.86308  0.20814  1.0000
  Fe  Fe46      1.0  0.58586  0.06009  0.21893  1.0000
  H   H718      1.0  0.35047  0.85357  0.34372  1.0000
  S   S96       1.0  0.24293  0.73408  0.37760  1.0000
  H   H719      1.0  0.85735  0.99119  0.34509  1.0000
  H   H720      1.0  0.37172  0.80534  0.25335  1.0000
  C   C400      1.0  0.05226  0.76680  0.40980  1.0000
  C   C401      1.0  0.73230  0.97517  0.36794  1.0000
  H   H721      1.0  0.47107  0.78514  0.40516  1.0000
  S   S97       1.0  0.18003  0.91493  0.23639  1.0000
  H   H722      1.0  0.43804  0.77842  0.23272  1.0000
  H   H723      1.0  0.66533  0.17297  0.20603  1.0000
  H   H724      1.0  0.89767  0.87938  0.33054  1.0000
  C   C402      1.0  0.28897  0.77705  0.38392  1.0000
  Fe  Fe47      1.0  0.85960  0.16959  0.41099  1.0000
  H   H725      1.0  0.59975  0.12136  0.40212  1.0000
  H   H726      1.0  0.06712  0.07863  0.39917  1.0000
  C   C403      1.0  0.71997  0.21812  0.41302  1.0000
  C   C404      1.0  0.48156  0.02148  0.40700  1.0000
  H   H727      1.0  0.54213  0.90580  0.21281  1.0000
  S   S98       1.0  0.72953  0.17459  0.40861  1.0000
  H   H728      1.0  0.46579  0.89563  0.30591  1.0000
  C   C405      1.0  0.30192  0.80092  0.35878  1.0000
  H   H729      1.0  0.88805  0.83222  0.22422  1.0000
  S   S99       1.0  0.07876  0.97690  0.29916  1.0000
  H   H730      1.0  0.00475  0.78884  0.29695  1.0000
  C   C406      1.0  0.06591  0.05826  0.21082  1.0000
  C   C407      1.0  0.78618  0.79078  0.22180  1.0000
  H   H731      1.0  0.76757  0.76696  0.37925  1.0000
  C   C408      1.0  0.88298  0.88808  0.35541  1.0000
  H   H732      1.0  0.82078  0.77055  0.22450  1.0000
  H   H733      1.0  0.43102  0.80324  0.30236  1.0000
  H   H734      1.0  0.73237  0.98094  0.31680  1.0000
  H   H735      1.0  0.54661  0.76717  0.42226  1.0000
  H   H736      1.0  0.40783  0.97514  0.39030  1.0000
  C   C409      1.0  0.34101  0.82323  0.41882  1.0000
  H   H737      1.0  0.23278  0.13381  0.28373  1.0000
  C   C410      1.0  0.00821  0.03449  0.30897  1.0000
  C   C411      1.0  0.22205  0.86839  0.30796  1.0000
  H   H738      1.0  0.29700  0.77011  0.43373  1.0000
  C   C412      1.0  0.48475  0.90135  0.27999  1.0000
  H   H739      1.0  0.69373  0.98121  0.38991  1.0000
  C   C413      1.0  0.33059  0.20101  0.40279  1.0000
  C   C414      1.0  0.56635  0.03361  0.41817  1.0000
  H   H740      1.0  0.46221  0.77573  0.34538  1.0000
  H   H741      1.0  0.82971  0.15693  0.35178  1.0000
  H   H742      1.0  0.70005  0.80781  0.29077  1.0000
  C   C415      1.0  0.66015  0.80818  0.21266  1.0000
  H   H743      1.0  0.21323  0.08826  0.32439  1.0000
  H   H744      1.0  0.83329  0.80553  0.30712  1.0000
  C   C416      1.0  0.26823  0.18229  0.19191  1.0000
  H   H745      1.0  0.70494  0.01702  0.34039  1.0000
  H   H746      1.0  0.03806  0.12826  0.26976  1.0000
  H   H747      1.0  0.61342  0.02557  0.40002  1.0000
  C   C417      1.0  0.06317  0.15509  0.27403  1.0000
  H   H748      1.0  0.99330  0.74241  0.29423  1.0000
  C   C418      1.0  0.82016  0.98463  0.42666  1.0000
  N   N25       1.0  0.86386  0.97830  0.39413  1.0000
  C   C419      1.0  0.87800  0.00876  0.27524  1.0000
  C   C420      1.0  0.69790  0.84294  0.21247  1.0000
  C   C421      1.0  0.91963  0.78269  0.40602  1.0000
  S   S100      1.0  0.81843  0.06553  0.19431  1.0000
  Fe  Fe48      1.0  0.07421  0.93685  0.26067  1.0000
  H   H749      1.0  0.92781  0.88092  0.36989  1.0000
  C   C422      1.0  0.25574  0.08653  0.30219  1.0000
  C   C423      1.0  0.33743  0.83551  0.36338  1.0000
  C   C424      1.0  0.00351  0.00173  0.29505  1.0000
  H   H750      1.0  0.73840  0.80766  0.39135  1.0000
  H   H751      1.0  0.07940  0.03927  0.41770  1.0000
  N   N26       1.0  0.58765  0.07175  0.42520  1.0000
  H   H752      1.0  0.58723  0.93997  0.29321  1.0000
  H   H753      1.0  0.79186  0.12909  0.32066  1.0000
  H   H754      1.0  0.47649  0.03489  0.38477  1.0000
  C   C425      1.0  0.45493  0.97463  0.30496  1.0000
  H   H755      1.0  0.04913  0.02969  0.20914  1.0000
  C   C426      1.0  0.57993  0.09350  0.39710  1.0000
  C   C427      1.0  0.86612  0.80603  0.39287  1.0000
  H   H756      1.0  0.19504  0.84041  0.30789  1.0000
  C   C428      1.0  0.51150  0.00950  0.30677  1.0000
  C   C429      1.0  0.34481  0.91334  0.28632  1.0000
  H   H757      1.0  0.41966  0.20065  0.28642  1.0000
  H   H758      1.0  0.90409  0.78302  0.43240  1.0000
  H   H759      1.0  0.21768  0.88754  0.41556  1.0000
  H   H760      1.0  0.58899  0.20774  0.41736  1.0000
  H   H761      1.0  0.75867  0.96816  0.43010  1.0000
  C   C430      1.0  0.24169  0.83633  0.18921  1.0000
  H   H762      1.0  0.21528  0.85946  0.19078  1.0000
  H   H763      1.0  0.04340  0.07044  0.19110  1.0000
  H   H764      1.0  0.20311  0.17695  0.18814  1.0000
  H   H765      1.0  0.17196  0.11836  0.18670  1.0000
  H   H766      1.0  0.18686  0.05815  0.18648  1.0000
  C   C431      1.0  0.32653  0.11282  0.18640  1.0000
  S   S101      1.0  0.98152  0.73256  0.58998  1.0000
  C   C432      1.0  0.70485  0.76553  0.49947  1.0000
  H   H767      1.0  0.32708  0.92977  0.66308  1.0000
  H   H768      1.0  0.85888  0.83272  0.47598  1.0000
  C   C433      1.0  0.34197  0.95712  0.65463  1.0000
  H   H769      1.0  0.08883  0.73741  0.48332  1.0000
  H   H770      1.0  0.61860  0.06444  0.54092  1.0000
  H   H771      1.0  0.13879  0.08628  0.47796  1.0000
  H   H772      1.0  0.75756  0.22165  0.48376  1.0000
  C   C434      1.0  0.72208  0.13811  0.55132  1.0000
  H   H773      1.0  0.10559  0.17856  0.56828  1.0000
  Fe  Fe49      1.0  0.96250  0.76173  0.54723  1.0000
  H   H774      1.0  0.91608  0.01537  0.58167  1.0000
  C   C435      1.0  0.64389  0.83556  0.55363  1.0000
  S   S102      1.0  0.90820  0.18185  0.45721  1.0000
  C   C436      1.0  0.04973  0.76596  0.44655  1.0000
  S   S103      1.0  0.59325  0.90505  0.51154  1.0000
  H   H775      1.0  0.41594  0.78257  0.66003  1.0000
  C   C437      1.0  0.28174  0.93768  0.60618  1.0000
  H   H776      1.0  0.00408  0.73294  0.66730  1.0000
  H   H777      1.0  0.87259  0.98602  0.66788  1.0000
  H   H778      1.0  0.54067  0.75512  0.67264  1.0000
  C   C438      1.0  0.66698  0.02115  0.60252  1.0000
  N   N27       1.0  0.21776  0.12750  0.56231  1.0000
  C   C439      1.0  0.78844  0.86813  0.55445  1.0000
  H   H779      1.0  0.50398  0.14659  0.50794  1.0000
  C   C440      1.0  0.19928  0.83229  0.50560  1.0000
  Fe  Fe50      1.0  0.78711  0.72667  0.54922  1.0000
  C   C441      1.0  0.69812  0.86427  0.56981  1.0000
  S   S104      1.0  0.27535  0.15292  0.67337  1.0000
  H   H780      1.0  0.17174  0.15448  0.52651  1.0000
  H   H781      1.0  0.93498  0.96421  0.54940  1.0000
  H   H782      1.0  0.76838  0.21438  0.56261  1.0000
  C   C442      1.0  0.76061  0.78852  0.66096  1.0000
  C   C443      1.0  0.64779  0.80545  0.63869  1.0000
  H   H783      1.0  0.95590  0.03814  0.64143  1.0000
  H   H784      1.0  0.06907  0.82651  0.62249  1.0000
  H   H785      1.0  0.79808  0.93268  0.55074  1.0000
  H   H786      1.0  0.11978  0.20941  0.47901  1.0000
  H   H787      1.0  0.52165  0.06049  0.47259  1.0000
  H   H788      1.0  0.44797  0.94738  0.58109  1.0000
  C   C444      1.0  0.90030  0.11813  0.58023  1.0000
  H   H789      1.0  0.66683  0.19245  0.56898  1.0000
  S   S105      1.0  0.74832  0.87050  0.45009  1.0000
  C   C445      1.0  0.43116  0.94379  0.60735  1.0000
  H   H790      1.0  0.18084  0.13559  0.61248  1.0000
  H   H791      1.0  0.49441  0.01414  0.61510  1.0000
  C   C446      1.0  0.80839  0.98078  0.48705  1.0000
  H   H792      1.0  0.46200  0.76746  0.55217  1.0000
  H   H793      1.0  0.42452  0.20385  0.56954  1.0000
  H   H794      1.0  0.16151  0.81068  0.66130  1.0000
  C   C447      1.0  0.62650  0.04281  0.55486  1.0000
  H   H795      1.0  0.51582  0.89705  0.57509  1.0000
  H   H796      1.0  0.18499  0.83939  0.48271  1.0000
  H   H797      1.0  0.67574  0.07518  0.59204  1.0000
  H   H798      1.0  0.57782  0.06736  0.65814  1.0000
  C   C448      1.0  0.03254  0.90946  0.50242  1.0000
  H   H799      1.0  0.06454  0.88767  0.50603  1.0000
  H   H800      1.0  0.22906  0.02013  0.56249  1.0000
  C   C449      1.0  0.74293  0.17102  0.53093  1.0000
  H   H801      1.0  0.46695  0.07821  0.44631  1.0000
  S   S106      1.0  0.59043  0.93261  0.43945  1.0000
  H   H802      1.0  0.33048  0.77205  0.50240  1.0000
  C   C450      1.0  0.95387  0.11964  0.52409  1.0000
  C   C451      1.0  0.77616  0.07801  0.47147  1.0000
  H   H803      1.0  0.06301  0.93320  0.51368  1.0000
  H   H804      1.0  0.34458  0.14014  0.54220  1.0000
  H   H805      1.0  0.83106  0.99091  0.60666  1.0000
  C   C452      1.0  0.68294  0.21622  0.66281  1.0000
  H   H806      1.0  0.87157  0.10345  0.60143  1.0000
  H   H807      1.0  0.71178  0.76537  0.61933  1.0000
  H   H808      1.0  0.45839  0.72644  0.50693  1.0000
  H   H809      1.0  0.33799  0.16559  0.44054  1.0000
  C   C453      1.0  0.17413  0.02692  0.57702  1.0000
  Fe  Fe51      1.0  0.67932  0.98414  0.67271  1.0000
  C   C454      1.0  0.23761  0.81331  0.56444  1.0000
  H   H810      1.0  0.42602  0.11714  0.49107  1.0000
  H   H811      1.0  0.77971  0.93000  0.59257  1.0000
  C   C455      1.0  0.86258  0.97726  0.45557  1.0000
  N   N28       1.0  0.85009  0.89260  0.57094  1.0000
  H   H812      1.0  0.33106  0.74709  0.66897  1.0000
  C   C456      1.0  0.41551  0.73769  0.60801  1.0000
  H   H813      1.0  0.31272  0.78980  0.66131  1.0000
  H   H814      1.0  0.13166  0.87661  0.44599  1.0000
  H   H815      1.0  0.90514  0.07278  0.55099  1.0000
  H   H816      1.0  0.55890  0.90734  0.61178  1.0000
  H   H817      1.0  0.28499  0.08486  0.55525  1.0000
  H   H818      1.0  0.59468  0.95505  0.55548  1.0000
  C   C457      1.0  0.42360  0.18026  0.58380  1.0000
  H   H819      1.0  0.23252  0.21179  0.51208  1.0000
  H   H820      1.0  0.46473  0.16389  0.57100  1.0000
  C   C458      1.0  0.07067  0.73945  0.66746  1.0000
  H   H821      1.0  0.82366  0.99850  0.56514  1.0000
  H   H822      1.0  0.37586  0.88815  0.60643  1.0000
  H   H823      1.0  0.80510  0.84187  0.55247  1.0000
  H   H824      1.0  0.74634  0.14271  0.57451  1.0000
  S   S107      1.0  0.83670  0.76345  0.65996  1.0000
  C   C459      1.0  0.18574  0.11008  0.47348  1.0000
  H   H825      1.0  0.15517  0.13222  0.46991  1.0000
  C   C460      1.0  0.29946  0.15138  0.55893  1.0000
  H   H826      1.0  0.65501  0.12955  0.55606  1.0000
  H   H827      1.0  0.39975  0.75828  0.47073  1.0000
  S   S108      1.0  0.42073  0.91807  0.48929  1.0000
  S   S109      1.0  0.68159  0.72816  0.52333  1.0000
  H   H828      1.0  0.12103  0.00626  0.57422  1.0000
  H   H829      1.0  0.79241  0.00701  0.48930  1.0000
  C   C461      1.0  0.50563  0.89308  0.60122  1.0000
  H   H830      1.0  0.68955  0.85742  0.59532  1.0000
  H   H831      1.0  0.57059  0.19761  0.53646  1.0000
  C   C462      1.0  0.82755  0.92827  0.57203  1.0000
  H   H832      1.0  0.07097  0.86710  0.64374  1.0000
  S   S110      1.0  0.97017  0.09800  0.48778  1.0000
  C   C463      1.0  0.44110  0.05762  0.60548  1.0000
  C   C464      1.0  0.21054  0.91181  0.55949  1.0000
  C   C465      1.0  0.40150  0.73530  0.51714  1.0000
  C   C466      1.0  0.64400  0.77556  0.48443  1.0000
  H   H833      1.0  0.30961  0.00531  0.61056  1.0000
  H   H834      1.0  0.29318  0.75221  0.61424  1.0000
  C   C467      1.0  0.63692  0.18497  0.65418  1.0000
  C   C468      1.0  0.91276  0.89593  0.62458  1.0000
  H   H835      1.0  0.29610  0.17641  0.54765  1.0000
  H   H836      1.0  0.16138  0.92725  0.56535  1.0000
  C   C469      1.0  0.70803  0.78483  0.63760  1.0000
  H   H837      1.0  0.00206  0.17049  0.50440  1.0000
  H   H838      1.0  0.14407  0.19027  0.63707  1.0000
  C   C470      1.0  0.54974  0.11671  0.46801  1.0000
  H   H839      1.0  0.28355  0.00283  0.66505  1.0000
  H   H840      1.0  0.19199  0.88612  0.57141  1.0000
  C   C471      1.0  0.55262  0.17840  0.66273  1.0000
  H   H841      1.0  0.20168  0.19569  0.58114  1.0000
  C   C472      1.0  0.91536  0.15440  0.58110  1.0000
  C   C473      1.0  0.61325  0.21310  0.51757  1.0000
  H   H842      1.0  0.84143  0.97678  0.50728  1.0000
  H   H843      1.0  0.93969  0.95641  0.59031  1.0000
  H   H844      1.0  0.58461  0.75930  0.48587  1.0000
  H   H845      1.0  0.91202  0.92205  0.51179  1.0000
  C   C474      1.0  0.35399  0.77103  0.65452  1.0000
  C   C475      1.0  0.33718  0.15968  0.59033  1.0000
  C   C476      1.0  0.14482  0.17657  0.58696  1.0000
  H   H846      1.0  0.97525  0.89585  0.61248  1.0000
  C   C477      1.0  0.27239  0.97491  0.67109  1.0000
  H   H847      1.0  0.65088  0.96572  0.60655  1.0000
  H   H848      1.0  0.78578  0.10672  0.47301  1.0000
  C   C478      1.0  0.65962  0.80689  0.46772  1.0000
  H   H849      1.0  0.38423  0.06815  0.61232  1.0000
  H   H850      1.0  0.96474  0.20133  0.55440  1.0000
  H   H851      1.0  0.39916  0.96842  0.66449  1.0000
  H   H852      1.0  0.66721  0.16559  0.64156  1.0000
  H   H853      1.0  0.51707  0.19979  0.46946  1.0000
  H   H854      1.0  0.75148  0.96114  0.48871  1.0000
  S   S111      1.0  0.73633  0.93756  0.66125  1.0000
  C   C479      1.0  0.40574  0.74741  0.55213  1.0000
  H   H855      1.0  0.49105  0.10103  0.51598  1.0000
  C   C480      1.0  0.06035  0.03521  0.66491  1.0000
  H   H856      1.0  0.64811  0.06846  0.48400  1.0000
  H   H857      1.0  0.64795  0.84102  0.52780  1.0000
  H   H858      1.0  0.61128  0.12165  0.47563  1.0000
  H   H859      1.0  0.90465  0.92277  0.63060  1.0000
  C   C481      1.0  0.54338  0.72743  0.66802  1.0000
  H   H860      1.0  0.67566  0.88892  0.56764  1.0000
  H   H861      1.0  0.82338  0.07014  0.45341  1.0000
  H   H862      1.0  0.03700  0.91428  0.47640  1.0000
  H   H863      1.0  0.44626  0.18841  0.60679  1.0000
  H   H864      1.0  0.25837  0.09317  0.50574  1.0000
  H   H865      1.0  0.57940  0.83372  0.56441  1.0000
  C   C482      1.0  0.86483  0.99308  0.58214  1.0000
  C   C483      1.0  0.42761  0.90518  0.61563  1.0000
  H   H866      1.0  0.56739  0.01803  0.43978  1.0000
  S   S112      1.0  0.88461  0.17520  0.61640  1.0000
  H   H867      1.0  0.35363  0.76125  0.55829  1.0000
  C   C484      1.0  0.23001  0.09146  0.56997  1.0000
  H   H868      1.0  0.22668  0.10631  0.45134  1.0000
  H   H869      1.0  0.95445  0.88908  0.67004  1.0000
  H   H870      1.0  0.09577  0.75717  0.64698  1.0000
  C   C485      1.0  0.29065  0.93083  0.56965  1.0000
  S   S113      1.0  0.70187  0.02935  0.63953  1.0000
  H   H871      1.0  0.26304  0.91216  0.61853  1.0000
  Fe  Fe52      1.0  0.46902  0.87435  0.50889  1.0000
  C   C486      1.0  0.60386  0.00890  0.54429  1.0000
  C   C487      1.0  0.10202  0.18738  0.61868  1.0000
  H   H872      1.0  0.74831  0.22007  0.65754  1.0000
  C   C488      1.0  0.89780  0.95987  0.57315  1.0000
  S   S114      1.0  0.84635  0.77557  0.57037  1.0000
  C   C489      1.0  0.15759  0.06160  0.56609  1.0000
  H   H873      1.0  0.21873  0.90749  0.53330  1.0000
  S   S115      1.0  0.56123  0.00193  0.50838  1.0000
  Fe  Fe53      1.0  0.96737  0.13517  0.44858  1.0000
  C   C490      1.0  0.39197  0.76534  0.49626  1.0000
  C   C491      1.0  0.61349  0.98118  0.56289  1.0000
  H   H874      1.0  0.84608  0.87893  0.67085  1.0000
  C   C492      1.0  0.48875  0.12050  0.49752  1.0000
  S   S116      1.0  0.57032  0.85765  0.66326  1.0000
  C   C493      1.0  0.69133  0.06331  0.46320  1.0000
  C   C494      1.0  0.90502  0.87693  0.65632  1.0000
  H   H875      1.0  0.42198  0.90130  0.64177  1.0000
  H   H876      1.0  0.30829  0.95537  0.55588  1.0000
  H   H877      1.0  0.91539  0.87741  0.50367  1.0000
  C   C495      1.0  0.18168  0.12802  0.53163  1.0000
  H   H878      1.0  0.94956  0.86571  0.55481  1.0000
  N   N29       1.0  0.35555  0.95844  0.61868  1.0000
  C   C496      1.0  0.94291  0.90038  0.51658  1.0000
  C   C497      1.0  0.51419  0.20319  0.67980  1.0000
  C   C498      1.0  0.35609  0.76293  0.61898  1.0000
  S   S117      1.0  0.39896  0.84166  0.54985  1.0000
  Fe  Fe54      1.0  0.46682  0.89892  0.44119  1.0000
  C   C499      1.0  0.36770  0.99515  0.60644  1.0000
  H   H879      1.0  0.78337  0.06789  0.49509  1.0000
  H   H880      1.0  0.25232  0.80628  0.58727  1.0000
  H   H881      1.0  0.80969  0.17617  0.52373  1.0000
  C   C500      1.0  0.98208  0.02319  0.65727  1.0000
  C   C501      1.0  0.10393  0.84532  0.63781  1.0000
  H   H882      1.0  0.04735  0.16779  0.62710  1.0000
  S   S118      1.0  0.03841  0.80642  0.51937  1.0000
  H   H883      1.0  0.45417  0.05649  0.57906  1.0000
  C   C502      1.0  0.49563  0.21844  0.48716  1.0000
  H   H884      1.0  0.84994  0.85022  0.60298  1.0000
  H   H885      1.0  0.28706  0.13809  0.49460  1.0000
  H   H886      1.0  0.48401  0.95825  0.61808  1.0000
  C   C503      1.0  0.43394  0.02180  0.62029  1.0000
  H   H887      1.0  0.78803  0.88025  0.61890  1.0000
  S   S119      1.0  0.49659  0.13862  0.65297  1.0000
  Fe  Fe55      1.0  0.62672  0.88745  0.46183  1.0000
  H   H888      1.0  0.30099  0.17571  0.60620  1.0000
  H   H889      1.0  0.78863  0.87667  0.52948  1.0000
  C   C504      1.0  0.65873  0.04893  0.58377  1.0000
  H   H890      1.0  0.50003  0.86496  0.60590  1.0000
  H   H891      1.0  0.60639  0.80232  0.62092  1.0000
  H   H892      1.0  0.10040  0.06655  0.58020  1.0000
  H   H893      1.0  0.90943  0.84922  0.65241  1.0000
  C   C505      1.0  0.64150  0.83017  0.66272  1.0000
  H   H894      1.0  0.87605  0.95059  0.45467  1.0000
  Fe  Fe56      1.0  0.85918  0.74287  0.61099  1.0000
  H   H895      1.0  0.33974  0.13567  0.60327  1.0000
  H   H896      1.0  0.98636  0.76158  0.45887  1.0000
  H   H897      1.0  0.24312  0.09027  0.59501  1.0000
  H   H898      1.0  0.99893  0.79383  0.66812  1.0000
  C   C506      1.0  0.97235  0.15585  0.52532  1.0000
  H   H899      1.0  0.16395  0.85572  0.62399  1.0000
  H   H900      1.0  0.62624  0.19448  0.49827  1.0000
  C   C507      1.0  0.15983  0.13888  0.58905  1.0000
  H   H901      1.0  0.15572  0.74103  0.44616  1.0000
  C   C508      1.0  0.93486  0.99342  0.67219  1.0000
  C   C509      1.0  0.93324  0.89187  0.55272  1.0000
  H   H902      1.0  0.41996  0.02440  0.64650  1.0000
  S   S120      1.0  0.11409  0.07500  0.64971  1.0000
  H   H903      1.0  0.38539  0.99584  0.58011  1.0000
  C   C510      1.0  0.95216  0.17331  0.55371  1.0000
  Fe  Fe57      1.0  0.54714  0.94763  0.48953  1.0000
  H   H904      1.0  0.10985  0.79180  0.57502  1.0000
  C   C511      1.0  0.91955  0.10075  0.55175  1.0000
  C   C512      1.0  0.52903  0.08015  0.45326  1.0000
  H   H905      1.0  0.18307  0.02804  0.60259  1.0000
  C   C513      1.0  0.84688  0.87840  0.60422  1.0000
  C   C514      1.0  0.23446  0.11697  0.50159  1.0000
  H   H906      1.0  0.22858  0.95102  0.61180  1.0000
  H   H907      1.0  0.14731  0.05857  0.54072  1.0000
  H   H908      1.0  0.11932  0.11207  0.53386  1.0000
  C   C515      1.0  0.29867  0.83076  0.54173  1.0000
  C   C516      1.0  0.13819  0.81493  0.52818  1.0000
  C   C517      1.0  0.11680  0.82789  0.66825  1.0000
  H   H909      1.0  0.33741  0.91450  0.56253  1.0000
  H   H910      1.0  0.66229  0.81014  0.55673  1.0000
  H   H911      1.0  0.34658  0.21023  0.45277  1.0000
  H   H912      1.0  0.74953  0.11709  0.53869  1.0000
  H   H913      1.0  0.08301  0.79064  0.45500  1.0000
  H   H914      1.0  0.98113  0.90998  0.56316  1.0000
  H   H915      1.0  0.21278  0.96286  0.66382  1.0000
  H   H916      1.0  0.35254  0.83186  0.44235  1.0000
  C   C518      1.0  0.73527  0.82868  0.46627  1.0000
  H   H917      1.0  0.37663  0.78786  0.60577  1.0000
  H   H918      1.0  0.44740  0.20431  0.50513  1.0000
  C   C519      1.0  0.15718  0.80513  0.55753  1.0000
  C   C520      1.0  0.64468  0.98723  0.59204  1.0000
  C   C521      1.0  0.71685  0.20262  0.54973  1.0000
  H   H919      1.0  0.92049  0.99584  0.45609  1.0000
  H   H920      1.0  0.09880  0.12192  0.59059  1.0000
  H   H921      1.0  0.68675  0.03489  0.46031  1.0000
  H   H922      1.0  0.71481  0.16533  0.50880  1.0000
  H   H923      1.0  0.66219  0.72793  0.68123  1.0000
  H   H924      1.0  0.39609  0.84371  0.68396  1.0000
  H   H925      1.0  0.61370  0.81360  0.45518  1.0000
  C   C522      1.0  0.79863  0.81722  0.47880  1.0000
  S   S121      1.0  0.50530  0.85318  0.46086  1.0000
  Fe  Fe58      1.0  0.20175  0.09965  0.68218  1.0000
  H   H926      1.0  0.49233  0.07558  0.61421  1.0000
  C   C523      1.0  0.78339  0.78563  0.49547  1.0000
  H   H927      1.0  0.83243  0.77699  0.50518  1.0000
  H   H928      1.0  0.32666  0.85230  0.49438  1.0000
  C   C524      1.0  0.27951  0.83984  0.51228  1.0000
  H   H929      1.0  0.47839  0.75316  0.60666  1.0000
  H   H930      1.0  0.43902  0.78842  0.49952  1.0000
  H   H931      1.0  0.54715  0.13714  0.45058  1.0000
  C   C525      1.0  0.09092  0.73713  0.45693  1.0000
  H   H932      1.0  0.81639  0.72626  0.45415  1.0000
  H   H933      1.0  0.24869  0.18558  0.44640  1.0000
  H   H934      1.0  0.63737  0.11516  0.68427  1.0000
  C   C526      1.0  0.55431  0.06691  0.68394  1.0000
  C   C527      1.0  0.31494  0.18999  0.43782  1.0000
  H   H935      1.0  0.08246  0.21249  0.61572  1.0000
  H   H936      1.0  0.01510  0.82956  0.43593  1.0000
  H   H937      1.0  0.14493  0.84849  0.68379  1.0000
  H   H938      1.0  0.56713  0.72436  0.64254  1.0000
  Fe  Fe59      1.0  0.37802  0.12836  0.68447  1.0000
  C   C528      1.0  0.75225  0.81234  0.68548  1.0000
  H   H939      1.0  0.08765  0.73581  0.71721  1.0000
  H   H940      1.0  0.05948  0.92100  0.90816  1.0000
  H   H941      1.0  0.14181  0.72656  0.87469  1.0000
  C   C529      1.0  0.34470  0.81495  0.83821  1.0000
  C   C530      1.0  0.13477  0.14601  0.82639  1.0000
  C   C531      1.0  0.65954  0.10738  0.77119  1.0000
  H   H942      1.0  0.40213  0.15818  0.80352  1.0000
  H   H943      1.0  0.23594  0.20956  0.82922  1.0000
  C   C532      1.0  0.03691  0.94266  0.89822  1.0000
  C   C533      1.0  0.24974  0.09646  0.88704  1.0000
  H   H944      1.0  0.22202  0.07247  0.90075  1.0000
  C   C534      1.0  0.19873  0.12464  0.89582  1.0000
  H   H945      1.0  0.50661  0.88397  0.84171  1.0000
  C   C535      1.0  0.34891  0.01499  0.81392  1.0000
  S   S122      1.0  0.81658  0.08129  0.87235  1.0000
  H   H946      1.0  0.94840  0.09116  0.77046  1.0000
  H   H947      1.0  0.09909  0.77600  0.86465  1.0000
  C   C536      1.0  0.89208  0.18461  0.85936  1.0000
  C   C537      1.0  0.94878  0.73820  0.92172  1.0000
  H   H948      1.0  0.13303  0.83874  0.91672  1.0000
  C   C538      1.0  0.73100  0.97508  0.83533  1.0000
  H   H949      1.0  0.77511  0.22028  0.71644  1.0000
  S   S123      1.0  0.65099  0.79956  0.82907  1.0000
  H   H950      1.0  0.91704  0.02842  0.86272  1.0000
  C   C539      1.0  0.94736  0.94437  0.91216  1.0000
  C   C540      1.0  0.47491  0.74285  0.78458  1.0000
  H   H951      1.0  0.23884  0.86519  0.82191  1.0000
  H   H952      1.0  0.07699  0.99871  0.89495  1.0000
  H   H953      1.0  0.14757  0.81718  0.72729  1.0000
  Fe  Fe60      1.0  0.60928  0.95910  0.73971  1.0000
  H   H954      1.0  0.51889  0.08647  0.74293  1.0000
  H   H955      1.0  0.04192  0.93923  0.87195  1.0000
  H   H956      1.0  0.09659  0.94888  0.80761  1.0000
  S   S124      1.0  0.52776  0.84017  0.89943  1.0000
  H   H957      1.0  0.05459  0.16151  0.79516  1.0000
  H   H958      1.0  0.10373  0.00908  0.76110  1.0000
  C   C541      1.0  0.41060  0.85210  0.73387  1.0000
  C   C542      1.0  0.08052  0.99581  0.78426  1.0000
  C   C543      1.0  0.06278  0.13783  0.80747  1.0000
  H   H959      1.0  0.64077  0.17178  0.72025  1.0000
  H   H960      1.0  0.02302  0.82157  0.86412  1.0000
  H   H961      1.0  0.65400  0.86853  0.79678  1.0000
  H   H962      1.0  0.51589  0.89614  0.78035  1.0000
  H   H963      1.0  0.41731  0.98295  0.83613  1.0000
  H   H964      1.0  0.79187  0.81509  0.70377  1.0000
  S   S125      1.0  0.66380  0.91107  0.73390  1.0000
  H   H965      1.0  0.13612  0.11489  0.89076  1.0000
  S   S126      1.0  0.41363  0.74804  0.72861  1.0000
  H   H966      1.0  0.06363  0.15040  0.87216  1.0000
  H   H967      1.0  0.25191  0.09030  0.86119  1.0000
  C   C544      1.0  0.23743  0.15913  0.87805  1.0000
  H   H968      1.0  0.74847  0.17113  0.77395  1.0000
  H   H969      1.0  0.31268  0.10494  0.89286  1.0000
  C   C545      1.0  0.54983  0.78699  0.74750  1.0000
  C   C546      1.0  0.96004  0.03688  0.76005  1.0000
  C   C547      1.0  0.25024  0.91220  0.84956  1.0000
  H   H970      1.0  0.39576  0.90028  0.75785  1.0000
  H   H971      1.0  0.92217  0.92349  0.85012  1.0000
  H   H972      1.0  0.16972  0.83665  0.87477  1.0000
  H   H973      1.0  0.94628  0.76604  0.84456  1.0000
  H   H974      1.0  0.94703  0.06834  0.81845  1.0000
  H   H975      1.0  0.71957  0.10582  0.75698  1.0000
  H   H976      1.0  0.39805  0.82146  0.85130  1.0000
  H   H977      1.0  0.08100  0.18811  0.84798  1.0000
  C   C548      1.0  0.39422  0.02826  0.75803  1.0000
  H   H978      1.0  0.81916  0.74141  0.76727  1.0000
  Fe  Fe61      1.0  0.85192  0.08218  0.92162  1.0000
  C   C549      1.0  0.90378  0.78660  0.74609  1.0000
  H   H979      1.0  0.64693  0.93079  0.92403  1.0000
  C   C550      1.0  0.49204  0.87026  0.79132  1.0000
  H   H980      1.0  0.00791  0.08515  0.86940  1.0000
  C   C551      1.0  0.56233  0.10834  0.73090  1.0000
  H   H981      1.0  0.82868  0.03219  0.81335  1.0000
  C   C552      1.0  0.87065  0.15885  0.80802  1.0000
  H   H982      1.0  0.65847  0.07030  0.82648  1.0000
  H   H983      1.0  0.09542  0.97954  0.93108  1.0000
  H   H984      1.0  0.77953  0.78126  0.77009  1.0000
  S   S127      1.0  0.45698  0.75703  0.89252  1.0000
  C   C553      1.0  0.08504  0.80453  0.73737  1.0000
  H   H985      1.0  0.40071  0.82386  0.73861  1.0000
  C   C554      1.0  0.09506  0.97583  0.90496  1.0000
  H   H986      1.0  0.89889  0.81028  0.73324  1.0000
  H   H987      1.0  0.47439  0.13780  0.92765  1.0000
  S   S128      1.0  0.72570  0.99343  0.72000  1.0000
  S   S129      1.0  0.26465  0.05637  0.78605  1.0000
  H   H988      1.0  0.02615  0.04540  0.75210  1.0000
  H   H989      1.0  0.25912  0.76800  0.82866  1.0000
  C   C555      1.0  0.05642  0.77756  0.88690  1.0000
  H   H990      1.0  0.09572  0.06442  0.85812  1.0000
  C   C556      1.0  0.98593  0.98870  0.79034  1.0000
  H   H991      1.0  0.99186  0.81933  0.90638  1.0000
  H   H992      1.0  0.09113  0.94446  0.76518  1.0000
  C   C557      1.0  0.07109  0.21354  0.90790  1.0000
  H   H993      1.0  0.18517  0.91410  0.84978  1.0000
  H   H994      1.0  0.29338  0.76905  0.86724  1.0000
  C   C558      1.0  0.61835  0.06931  0.77927  1.0000
  H   H995      1.0  0.18780  0.15970  0.81032  1.0000
  H   H996      1.0  0.65090  0.88022  0.83822  1.0000
  C   C559      1.0  0.31248  0.77598  0.84169  1.0000
  H   H997      1.0  0.47700  0.86158  0.72763  1.0000
  H   H998      1.0  0.14998  0.12118  0.83353  1.0000
  H   H999      1.0  0.40474  0.91477  0.81498  1.0000
  H   H1000     1.0  0.69628  0.97369  0.81463  1.0000
  H   H1001     1.0  0.19533  0.12864  0.92206  1.0000
  H   H1002     1.0  0.80218  0.93049  0.88933  1.0000
  C   C560      1.0  0.49032  0.12319  0.79956  1.0000
  H   H1003     1.0  0.02749  0.05155  0.89397  1.0000
  C   C561      1.0  0.59152  0.78237  0.79970  1.0000
  C   C562      1.0  0.36952  0.85762  0.70470  1.0000
  H   H1004     1.0  0.22253  0.98774  0.71910  1.0000
  C   C563      1.0  0.96708  0.97466  0.69360  1.0000
  H   H1005     1.0  0.00552  0.00914  0.85042  1.0000
  H   H1006     1.0  0.70966  0.97080  0.90782  1.0000
  H   H1007     1.0  0.18113  0.82716  0.78259  1.0000
  C   C564      1.0  0.22681  0.21524  0.85518  1.0000
  H   H1008     1.0  0.63414  0.91072  0.80954  1.0000
  C   C565      1.0  0.11422  0.96211  0.78408  1.0000
  H   H1009     1.0  0.10743  0.86792  0.88913  1.0000
  H   H1010     1.0  0.86370  0.85954  0.89405  1.0000
  N   N30       1.0  0.98274  0.74893  0.88778  1.0000
  C   C566      1.0  0.26565  0.97161  0.70738  1.0000
  H   H1011     1.0  0.81009  0.75311  0.82530  1.0000
  H   H1012     1.0  0.30905  0.86635  0.76393  1.0000
  C   C567      1.0  0.83978  0.73314  0.86926  1.0000
  Fe  Fe62      1.0  0.27685  0.08838  0.74175  1.0000
  S   S130      1.0  0.28638  0.81241  0.92432  1.0000
  S   S131      1.0  0.90383  0.94104  0.71635  1.0000
  H   H1013     1.0  0.14989  0.20069  0.69669  1.0000
  C   C568      1.0  0.98089  0.04639  0.81583  1.0000
  S   S132      1.0  0.30627  0.07452  0.69033  1.0000
  C   C569      1.0  0.67291  0.15703  0.73515  1.0000
  C   C570      1.0  0.81771  0.76569  0.75449  1.0000
  H   H1014     1.0  0.38747  0.12678  0.83517  1.0000
  H   H1015     1.0  0.85370  0.06352  0.76511  1.0000
  C   C571      1.0  0.11757  0.84116  0.89228  1.0000
  N   N31       1.0  0.61281  0.12900  0.75400  1.0000
  H   H1016     1.0  0.76521  0.77126  0.86159  1.0000
  C   C572      1.0  0.53195  0.86853  0.82199  1.0000
  H   H1017     1.0  0.96983  0.97291  0.81239  1.0000
  H   H1018     1.0  0.83386  0.22335  0.74935  1.0000
  S   S133      1.0  0.55811  0.95332  0.69307  1.0000
  H   H1019     1.0  0.26957  0.15348  0.85431  1.0000
  H   H1020     1.0  0.37975  0.88561  0.69867  1.0000
  H   H1021     1.0  0.30829  0.01783  0.83552  1.0000
  H   H1022     1.0  0.82291  0.00391  0.78010  1.0000
  Fe  Fe63      1.0  0.25029  0.16039  0.72617  1.0000
  C   C573      1.0  0.89647  0.89574  0.85471  1.0000
  H   H1023     1.0  0.92755  0.96321  0.89683  1.0000
  H   H1024     1.0  0.01965  0.19684  0.89833  1.0000
  C   C574      1.0  0.09580  0.78390  0.76687  1.0000
  C   C575      1.0  0.04761  0.98530  0.69941  1.0000
  C   C576      1.0  0.95978  0.76477  0.72575  1.0000
  H   H1025     1.0  0.55739  0.79984  0.72464  1.0000
  C   C577      1.0  0.41021  0.99521  0.81424  1.0000
  H   H1026     1.0  0.10636  0.01214  0.80339  1.0000
  H   H1027     1.0  0.87562  0.16126  0.78236  1.0000
  H   H1028     1.0  0.35487  0.21262  0.85850  1.0000
  C   C578      1.0  0.34114  0.03161  0.78584  1.0000
  H   H1029     1.0  0.07270  0.97077  0.71577  1.0000
  C   C579      1.0  0.80299  0.91784  0.91255  1.0000
  H   H1030     1.0  0.52362  0.12477  0.72123  1.0000
  C   C580      1.0  0.84208  0.12280  0.85541  1.0000
  C   C581      1.0  0.12685  0.80841  0.79276  1.0000
  H   H1031     1.0  0.28585  0.17129  0.89236  1.0000
  H   H1032     1.0  0.09184  0.77412  0.90667  1.0000
  C   C582      1.0  0.72474  0.18385  0.75507  1.0000
  H   H1033     1.0  0.71676  0.14537  0.71808  1.0000
  H   H1034     1.0  0.92769  0.79454  0.76884  1.0000
  H   H1035     1.0  0.75792  0.89316  0.91300  1.0000
  H   H1036     1.0  0.96387  0.74218  0.74061  1.0000
  H   H1037     1.0  0.46893  0.16369  0.83422  1.0000
  H   H1038     1.0  0.19329  0.21174  0.91843  1.0000
  C   C583      1.0  0.48449  0.75980  0.75525  1.0000
  C   C584      1.0  0.84247  0.12648  0.82261  1.0000
  C   C585      1.0  0.91951  0.75971  0.86979  1.0000
  H   H1039     1.0  0.15378  0.02559  0.69181  1.0000
  H   H1040     1.0  0.14420  0.79325  0.81176  1.0000
  H   H1041     1.0  0.93736  0.01762  0.74222  1.0000
  H   H1042     1.0  0.38859  0.04123  0.73635  1.0000
  C   C586      1.0  0.90529  0.88497  0.88906  1.0000
  H   H1043     1.0  0.26843  0.90491  0.79916  1.0000
  C   C587      1.0  0.52740  0.75462  0.80705  1.0000
  N   N32       1.0  0.40013  0.86347  0.79491  1.0000
  H   H1044     1.0  0.83090  0.89146  0.85144  1.0000
  H   H1045     1.0  0.65513  0.81881  0.76334  1.0000
  H   H1046     1.0  0.99942  0.82794  0.69563  1.0000
  H   H1047     1.0  0.31000  0.81679  0.79145  1.0000
  H   H1048     1.0  0.72311  0.05296  0.79490  1.0000
  H   H1049     1.0  0.71950  0.99785  0.85015  1.0000
  H   H1050     1.0  0.90929  0.20726  0.87359  1.0000
  H   H1051     1.0  0.15798  0.97430  0.89389  1.0000
  H   H1052     1.0  0.37853  0.88141  0.84379  1.0000
  H   H1053     1.0  0.62337  0.05302  0.75756  1.0000
  H   H1054     1.0  0.83709  0.18808  0.72173  1.0000
  H   H1055     1.0  0.24338  0.94425  0.71496  1.0000
  N   N33       1.0  0.04341  0.78360  0.71212  1.0000
  C   C588      1.0  0.82196  0.97795  0.82387  1.0000
  C   C589      1.0  0.43402  0.14448  0.81926  1.0000
  C   C590      1.0  0.36635  0.82566  0.80256  1.0000
  H   H1056     1.0  0.29622  0.82816  0.85013  1.0000
  N   N34       1.0  0.88710  0.91054  0.91500  1.0000
  C   C591      1.0  0.27796  0.89116  0.82069  1.0000
  C   C592      1.0  0.79699  0.20509  0.73427  1.0000
  S   S134      1.0  0.63236  0.78255  0.91924  1.0000
  C   C593      1.0  0.46264  0.99147  0.78634  1.0000
  H   H1057     1.0  0.18184  0.96810  0.77936  1.0000
  H   H1058     1.0  0.28654  0.93885  0.84835  1.0000
  H   H1059     1.0  0.51829  0.10971  0.81684  1.0000
  C   C594      1.0  0.62335  0.88290  0.81616  1.0000
  H   H1060     1.0  0.12345  0.17191  0.92236  1.0000
  Fe  Fe64      1.0  0.77576  0.94469  0.70969  1.0000
  H   H1061     1.0  0.45178  0.10390  0.78601  1.0000
  H   H1062     1.0  0.03793  0.76773  0.77755  1.0000
  H   H1063     1.0  0.36064  0.76114  0.83240  1.0000
  H   H1064     1.0  0.86851  0.77723  0.93139  1.0000
  H   H1065     1.0  0.00640  0.12760  0.82351  1.0000
  H   H1066     1.0  0.85379  0.97904  0.84521  1.0000
  C   C595      1.0  0.98009  0.03320  0.85010  1.0000
  H   H1067     1.0  0.68736  0.20223  0.76667  1.0000
  C   C596      1.0  0.36890  0.88814  0.81941  1.0000
  C   C597      1.0  0.89570  0.18790  0.82632  1.0000
  H   H1068     1.0  0.52745  0.16391  0.76406  1.0000
  C   C598      1.0  0.93869  0.87420  0.82947  1.0000
  C   C599      1.0  0.37634  0.87200  0.76314  1.0000
  H   H1069     1.0  0.90002  0.78366  0.87971  1.0000
  H   H1070     1.0  0.04451  0.05826  0.80618  1.0000
  C   C600      1.0  0.91982  0.06907  0.75667  1.0000
  C   C601      1.0  0.85392  0.00997  0.80182  1.0000
  H   H1071     1.0  0.49530  0.00505  0.73676  1.0000
  S   S135      1.0  0.23384  0.20884  0.75293  1.0000
  C   C602      1.0  0.14554  0.19486  0.90668  1.0000
  H   H1072     1.0  0.00527  0.87849  0.83068  1.0000
  H   H1073     1.0  0.05250  0.82612  0.74546  1.0000
  H   H1074     1.0  0.96715  0.87914  0.88876  1.0000
  C   C603      1.0  0.92966  0.08085  0.72192  1.0000
  H   H1075     1.0  0.30317  0.84723  0.70915  1.0000
  S   S136      1.0  0.35947  0.13984  0.73667  1.0000
  H   H1076     1.0  0.07867  0.82275  0.80337  1.0000
  C   C604      1.0  0.04099  0.81533  0.88739  1.0000
  H   H1077     1.0  0.51726  0.85164  0.77446  1.0000
  C   C605      1.0  0.60471  0.79773  0.76943  1.0000
  C   C606      1.0  0.03093  0.06032  0.86899  1.0000
  H   H1078     1.0  0.89710  0.06051  0.70728  1.0000
  H   H1079     1.0  0.80819  0.72798  0.89387  1.0000
  H   H1080     1.0  0.52378  0.84120  0.82966  1.0000
  N   N35       1.0  0.18056  0.18389  0.87408  1.0000
  Fe  Fe65      1.0  0.41512  0.80257  0.91824  1.0000
  H   H1081     1.0  0.56205  0.22392  0.75168  1.0000
  C   C607      1.0  0.86593  0.15193  0.87392  1.0000
  H   H1082     1.0  0.51909  0.74172  0.82986  1.0000
  C   C608      1.0  0.45443  0.00780  0.75819  1.0000
  C   C609      1.0  0.65941  0.05429  0.80450  1.0000
  H   H1083     1.0  0.82416  0.10410  0.80831  1.0000
  S   S137      1.0  0.16630  0.10935  0.73389  1.0000
  H   H1084     1.0  0.70852  0.95125  0.84993  1.0000
  Fe  Fe66      1.0  0.57414  0.79384  0.87710  1.0000
  C   C610      1.0  0.55761  0.14675  0.77734  1.0000
  H   H1085     1.0  0.90343  0.10471  0.72041  1.0000
  H   H1086     1.0  0.91262  0.84620  0.83291  1.0000
  H   H1087     1.0  0.14105  0.76675  0.75998  1.0000
  C   C611      1.0  0.11178  0.16753  0.85619  1.0000
  H   H1088     1.0  0.99502  0.08675  0.71183  1.0000
  C   C612      1.0  0.78173  0.74731  0.85026  1.0000
  H   H1089     1.0  0.78859  0.75891  0.73258  1.0000
  C   C613      1.0  0.69321  0.95352  0.92904  1.0000
  H   H1090     1.0  0.86378  0.14938  0.89942  1.0000
  H   H1091     1.0  0.25746  0.89970  0.87211  1.0000
  N   N36       1.0  0.94529  0.02018  0.79275  1.0000
  H   H1092     1.0  0.62694  0.02779  0.81116  1.0000
  H   H1093     1.0  0.92898  0.88198  0.80533  1.0000
  S   S138      1.0  0.53839  0.96652  0.78733  1.0000
  H   H1094     1.0  0.83051  0.95393  0.81045  1.0000
  H   H1095     1.0  0.40954  0.80909  0.79145  1.0000
  H   H1096     1.0  0.59329  0.16367  0.79378  1.0000
  H   H1097     1.0  0.07324  0.11791  0.78950  1.0000
  H   H1098     1.0  0.55296  0.06651  0.78835  1.0000
  H   H1099     1.0  0.67500  0.12039  0.79380  1.0000
  H   H1100     1.0  0.96290  0.97129  0.77124  1.0000
  H   H1101     1.0  0.73768  0.22146  0.84914  1.0000
  H   H1102     1.0  0.55224  0.04060  0.69339  1.0000
  H   H1103     1.0  0.32572  0.98072  0.71560  1.0000
  C   C614      1.0  0.09318  0.75678  0.69924  1.0000
  H   H1104     1.0  0.66093  0.08188  0.70804  1.0000
  H   H1105     1.0  0.47860  0.22260  0.78352  1.0000
  H   H1106     1.0  0.92627  0.75299  0.70634  1.0000
  C   C615      1.0  0.61039  0.09378  0.70143  1.0000
  H   H1107     1.0  0.15950  0.76776  0.69564  1.0000
  H   H1108     1.0  0.68808  0.85167  0.70506  1.0000
  H   H1109     1.0  0.72484  0.72806  0.84977  1.0000
  H   H1110     1.0  0.99658  0.73074  0.93454  1.0000
  H   H1111     1.0  0.44889  0.19812  0.68664  1.0000
  H   H1112     1.0  0.43951  0.20578  0.90215  1.0000
  H   H1113     1.0  0.58244  0.72423  0.71412  1.0000
  Fe  Fe67      1.0  0.62053  0.90733  0.68593  1.0000
  H   H1114     1.0  0.49154  0.07252  0.68607  1.0000
  C   C616      1.0  0.09352  0.01615  0.68576  1.0000
  C   C617      1.0  0.69377  0.83348  0.68602  1.0000
  H   H1115     1.0  0.53121  0.20468  0.91920  1.0000
  C   C618      1.0  0.50009  0.22094  0.90552  1.0000
  C   C619      1.0  0.03516  0.80796  0.68601  1.0000
  C   C620      1.0  0.66182  0.80484  0.00095  1.0000
  S   S139      1.0  0.46266  0.79275  0.96344  1.0000
  H   H1116     1.0  0.43123  0.92773  0.16798  1.0000
  C   C621      1.0  0.26003  0.74824  0.95218  1.0000
  H   H1117     1.0  0.74575  0.84588  0.10819  1.0000
  C   C622      1.0  0.21754  0.80520  0.03994  1.0000
  H   H1118     1.0  0.86781  0.20891  0.08966  1.0000
  H   H1119     1.0  0.34650  0.74285  0.01580  1.0000
  H   H1120     1.0  0.99630  0.99796  0.10000  1.0000
  C   C623      1.0  0.69042  0.78540  0.02284  1.0000
  H   H1121     1.0  0.90780  0.87934  0.13877  1.0000
  H   H1122     1.0  0.75100  0.92859  0.96181  1.0000
  H   H1123     1.0  0.10502  0.16287  0.97742  1.0000
  C   C624      1.0  0.51772  0.99586  0.96250  1.0000
  C   C625      1.0  0.86563  0.74887  0.97426  1.0000
  C   C626      1.0  0.45451  0.09433  0.00053  1.0000
  H   H1124     1.0  0.48947  0.02190  0.17320  1.0000
  H   H1125     1.0  0.46405  0.85864  0.00408  1.0000
  H   H1126     1.0  0.16170  0.80621  0.02897  1.0000
  H   H1127     1.0  0.51228  0.90934  0.95600  1.0000
  H   H1128     1.0  0.90537  0.73580  0.98706  1.0000
  C   C627      1.0  0.37592  0.99168  0.16300  1.0000
  H   H1129     1.0  0.23146  0.75743  0.11548  1.0000
  S   S140      1.0  0.29886  0.21269  0.10987  1.0000
  H   H1130     1.0  0.33052  0.89433  0.08738  1.0000
  H   H1131     1.0  0.34101  0.75426  0.18313  1.0000
  C   C628      1.0  0.36986  0.96731  0.07281  1.0000
  H   H1132     1.0  0.99235  0.11029  0.06821  1.0000
  H   H1133     1.0  0.04883  0.75698  0.99743  1.0000
  C   C629      1.0  0.95211  0.86309  0.98565  1.0000
  C   C630      1.0  0.46916  0.11665  0.15638  1.0000
  H   H1134     1.0  0.33541  0.07859  0.11840  1.0000
  H   H1135     1.0  0.39573  0.04500  0.11295  1.0000
  H   H1136     1.0  0.35377  0.97360  0.04926  1.0000
  Fe  Fe68      1.0  0.71480  0.02530  0.18139  1.0000
  S   S141      1.0  0.22230  0.11651  0.08863  1.0000
  H   H1137     1.0  0.19176  0.19821  0.97282  1.0000
  H   H1138     1.0  0.79376  0.90845  0.15063  1.0000
  H   H1139     1.0  0.31922  0.74565  0.94016  1.0000
  C   C631      1.0  0.12420  0.73595  0.14581  1.0000
  H   H1140     1.0  0.19208  0.16167  0.99756  1.0000
  H   H1141     1.0  0.08339  0.94012  0.10394  1.0000
  H   H1142     1.0  0.89329  0.10448  0.13446  1.0000
  C   C632      1.0  0.22827  0.77824  0.94822  1.0000
  C   C633      1.0  0.14886  0.88287  0.10310  1.0000
  H   H1143     1.0  0.44524  0.03557  0.96594  1.0000
  H   H1144     1.0  0.55000  0.13014  0.97140  1.0000
  N   N37       1.0  0.41107  0.87508  0.04994  1.0000
  H   H1145     1.0  0.39296  0.04123  0.03936  1.0000
  H   H1146     1.0  0.24552  0.86022  0.03767  1.0000
  H   H1147     1.0  0.71924  0.10438  0.08171  1.0000
  C   C634      1.0  0.24349  0.10571  0.02401  1.0000
  H   H1148     1.0  0.66640  0.75796  0.02562  1.0000
  C   C635      1.0  0.65387  0.20494  0.02218  1.0000
  H   H1149     1.0  0.63907  0.86944  0.07791  1.0000
  H   H1150     1.0  0.18985  0.90522  0.09051  1.0000
  C   C636      1.0  0.09009  0.76952  0.15097  1.0000
  C   C637      1.0  0.91201  0.76538  0.94312  1.0000
  C   C638      1.0  0.99026  0.98863  0.12495  1.0000
  C   C639      1.0  0.67267  0.96230  0.06189  1.0000
  H   H1151     1.0  0.25441  0.09987  0.97286  1.0000
  H   H1152     1.0  0.89777  0.01965  0.14126  1.0000
  S   S142      1.0  0.65194  0.86466  0.97129  1.0000
  H   H1153     1.0  0.30037  0.83837  0.00618  1.0000
  H   H1154     1.0  0.41168  0.14414  0.96452  1.0000
  S   S143      1.0  0.86885  0.17212  0.00758  1.0000
  H   H1155     1.0  0.56787  0.00938  0.94488  1.0000
  H   H1156     1.0  0.78800  0.16950  0.95180  1.0000
  H   H1157     1.0  0.77230  0.04590  0.05600  1.0000
  H   H1158     1.0  0.12221  0.16990  0.09538  1.0000
  C   C640      1.0  0.29846  0.83175  0.16285  1.0000
  H   H1159     1.0  0.90538  0.15506  0.07359  1.0000
  Fe  Fe69      1.0  0.51188  0.74976  0.93676  1.0000
  Fe  Fe70      1.0  0.66369  0.75197  0.09963  1.0000
  H   H1160     1.0  0.07924  0.21532  0.00863  1.0000
  H   H1161     1.0  0.46160  0.08795  0.15649  1.0000
  H   H1162     1.0  0.48783  0.81692  0.06609  1.0000
  C   C641      1.0  0.74686  0.85937  0.13145  1.0000
  H   H1163     1.0  0.52231  0.08958  0.95219  1.0000
  C   C642      1.0  0.96500  0.88490  0.95528  1.0000
  H   H1164     1.0  0.05352  0.88147  0.07425  1.0000
  C   C643      1.0  0.33424  0.80215  0.16054  1.0000
  H   H1165     1.0  0.31450  0.76461  0.07168  1.0000
  H   H1166     1.0  0.73480  0.12439  0.04290  1.0000
  C   C644      1.0  0.07487  0.20619  0.12825  1.0000
  H   H1167     1.0  0.61536  0.79218  0.98732  1.0000
  H   H1168     1.0  0.61152  0.21259  0.10147  1.0000
  H   H1169     1.0  0.03762  0.04247  0.02556  1.0000
  H   H1170     1.0  0.91826  0.07028  0.10798  1.0000
  H   H1171     1.0  0.30827  0.04357  0.09172  1.0000
  H   H1172     1.0  0.19974  0.80191  0.06610  1.0000
  H   H1173     1.0  0.72800  0.18246  0.10447  1.0000
  C   C645      1.0  0.21800  0.09195  0.99540  1.0000
  C   C646      1.0  0.05937  0.17110  0.04197  1.0000
  H   H1174     1.0  0.40573  0.99058  0.08256  1.0000
  C   C647      1.0  0.59292  0.84561  0.08363  1.0000
  H   H1175     1.0  0.03963  0.91828  0.13995  1.0000
  H   H1176     1.0  0.05141  0.98652  0.13098  1.0000
  C   C648      1.0  0.09535  0.05989  0.02506  1.0000
  Fe  Fe71      1.0  0.57839  0.82620  0.94254  1.0000
  H   H1177     1.0  0.02930  0.12259  0.10575  1.0000
  H   H1178     1.0  0.76973  0.84316  0.14818  1.0000
  S   S144      1.0  0.90334  0.07666  0.00795  1.0000
  C   C649      1.0  0.11455  0.19746  0.01807  1.0000
  C   C650      1.0  0.76871  0.94187  0.93840  1.0000
  C   C651      1.0  0.15309  0.17884  0.98965  1.0000
  H   H1179     1.0  0.53458  0.12743  0.15699  1.0000
  C   C652      1.0  0.95653  0.15820  0.08831  1.0000
  Fe  Fe72      1.0  0.80099  0.04498  0.98560  1.0000
  C   C653      1.0  0.67473  0.18690  0.96700  1.0000
  C   C654      1.0  0.74464  0.02108  0.06659  1.0000
  C   C655      1.0  0.74974  0.80137  0.04107  1.0000
  H   H1180     1.0  0.37881  0.09858  0.06321  1.0000
  S   S145      1.0  0.95961  0.11655  0.93843  1.0000
  H   H1181     1.0  0.66029  0.13656  0.07402  1.0000
  H   H1182     1.0  0.90890  0.83849  0.98316  1.0000
  C   C656      1.0  0.44523  0.90036  0.95953  1.0000
  H   H1183     1.0  0.81408  0.96512  0.94191  1.0000
  H   H1184     1.0  0.29979  0.12393  0.02344  1.0000
  H   H1185     1.0  0.08482  0.06546  0.07626  1.0000
  Fe  Fe73      1.0  0.87395  0.12168  0.98282  1.0000
  C   C657      1.0  0.47427  0.87183  0.07138  1.0000
  C   C658      1.0  0.29330  0.98071  0.17409  1.0000
  C   C659      1.0  0.89969  0.95856  0.02849  1.0000
  C   C660      1.0  0.10705  0.75427  0.98429  1.0000
  H   H1186     1.0  0.51571  0.89861  0.01669  1.0000
  H   H1187     1.0  0.44521  0.86743  0.09664  1.0000
  H   H1188     1.0  0.77114  0.03653  0.11386  1.0000
  C   C661      1.0  0.41516  0.08172  0.07335  1.0000
  H   H1189     1.0  0.85513  0.96272  0.07785  1.0000
  H   H1190     1.0  0.93020  0.16610  0.11208  1.0000
  S   S146      1.0  0.53943  0.73329  0.08527  1.0000
  H   H1191     1.0  0.77028  0.88434  0.01465  1.0000
  C   C662      1.0  0.41084  0.90340  0.99455  1.0000
  H   H1192     1.0  0.37114  0.73490  0.08607  1.0000
  H   H1193     1.0  0.93033  0.94130  0.01187  1.0000
  H   H1194     1.0  0.65509  0.06632  0.04025  1.0000
  H   H1195     1.0  0.24320  0.78248  0.03004  1.0000
  C   C663      1.0  0.95637  0.93306  0.07345  1.0000
  C   C664      1.0  0.95860  0.01614  0.14666  1.0000
  H   H1196     1.0  0.39571  0.07761  0.99672  1.0000
  C   C665      1.0  0.47792  0.91327  0.17423  1.0000
  H   H1197     1.0  0.12705  0.80450  0.96202  1.0000
  H   H1198     1.0  0.53412  0.92062  0.15700  1.0000
  H   H1199     1.0  0.65288  0.18216  0.94410  1.0000
  C   C666      1.0  0.31345  0.77713  0.18479  1.0000
  H   H1200     1.0  0.30590  0.17674  0.16955  1.0000
  S   S147      1.0  0.61611  0.78317  0.14012  1.0000
  H   H1201     1.0  0.30573  0.11986  0.16386  1.0000
  S   S148      1.0  0.40052  0.79639  0.12605  1.0000
  C   C667      1.0  0.57386  0.21060  0.15221  1.0000
  C   C668      1.0  0.03517  0.91834  0.11392  1.0000
  C   C669      1.0  0.42580  0.01378  0.18177  1.0000
  C   C670      1.0  0.89124  0.89155  0.11749  1.0000
  H   H1202     1.0  0.16369  0.21331  0.02947  1.0000
  Fe  Fe74      1.0  0.45212  0.20742  0.03511  1.0000
  C   C671      1.0  0.70966  0.98359  0.11314  1.0000
  H   H1203     1.0  0.54287  0.97944  0.97836  1.0000
  H   H1204     1.0  0.16494  0.85848  0.09264  1.0000
  C   C672      1.0  0.77997  0.83692  0.03771  1.0000
  Fe  Fe75      1.0  0.98107  0.06899  0.96203  1.0000
  C   C673      1.0  0.57273  0.10082  0.02966  1.0000
  H   H1205     1.0  0.31460  0.85128  0.14425  1.0000
  S   S149      1.0  0.77947  0.77749  0.07028  1.0000
  H   H1206     1.0  0.47105  0.94526  0.05003  1.0000
  H   H1207     1.0  0.45532  0.88504  0.17193  1.0000
  H   H1208     1.0  0.04741  0.77168  0.13350  1.0000
  H   H1209     1.0  0.00897  0.95423  0.06630  1.0000
  N   N38       1.0  0.50317  0.07517  0.01915  1.0000
  H   H1210     1.0  0.64732  0.93185  0.10518  1.0000
  C   C674      1.0  0.90485  0.09693  0.10909  1.0000
  C   C675      1.0  0.19494  0.09667  0.05315  1.0000
  N   N39       1.0  0.95178  0.92436  0.10836  1.0000
  C   C676      1.0  0.69096  0.84045  0.99780  1.0000
  H   H1211     1.0  0.14520  0.74531  0.09473  1.0000
  C   C677      1.0  0.45334  0.88309  0.01639  1.0000
  H   H1212     1.0  0.61594  0.21422  0.04195  1.0000
  C   C678      1.0  0.65403  0.18185  0.18329  1.0000
  C   C679      1.0  0.74393  0.01585  0.09933  1.0000
  S   S150      1.0  0.31809  0.19677  0.03407  1.0000
  C   C680      1.0  0.97731  0.12168  0.09198  1.0000
  H   H1213     1.0  0.34438  0.89422  0.99659  1.0000
  C   C681      1.0  0.03839  0.22178  0.94210  1.0000
  S   S151      1.0  0.88115  0.03420  0.94131  1.0000
  S   S152      1.0  0.76448  0.09062  0.96438  1.0000
  H   H1214     1.0  0.40188  0.98250  0.14040  1.0000
  H   H1215     1.0  0.43125  0.87299  0.95174  1.0000
  C   C682      1.0  0.49820  0.10937  0.96781  1.0000
  H   H1216     1.0  0.75313  0.20316  0.04914  1.0000
  C   C683      1.0  0.52534  0.84311  0.06259  1.0000
  H   H1217     1.0  0.51938  0.89633  0.07135  1.0000
  C   C684      1.0  0.62326  0.20409  0.12429  1.0000
  S   S153      1.0  0.23085  0.95067  0.15267  1.0000
  H   H1218     1.0  0.93963  0.98438  0.02871  1.0000
  C   C685      1.0  0.06019  0.88419  0.09991  1.0000
  C   C686      1.0  0.74952  0.85664  0.01638  1.0000
  H   H1219     1.0  0.01101  0.85655  0.99034  1.0000
  H   H1220     1.0  0.96171  0.78590  0.94955  1.0000
  H   H1221     1.0  0.84255  0.96189  0.01950  1.0000
  C   C687      1.0  0.87995  0.94317  0.06220  1.0000
  C   C688      1.0  0.27905  0.83860  0.03220  1.0000
  H   H1222     1.0  0.56751  0.84580  0.10925  1.0000
  C   C689      1.0  0.47552  0.02199  0.98229  1.0000
  H   H1223     1.0  0.84939  0.09702  0.09756  1.0000
  S   S154      1.0  0.44557  0.17326  0.07753  1.0000
  S   S155      1.0  0.71403  0.97621  0.15342  1.0000
  H   H1224     1.0  0.32850  0.83386  0.07660  1.0000
  S   S156      1.0  0.78439  0.15321  0.15694  1.0000
  H   H1225     1.0  0.82440  0.84933  0.05245  1.0000
  H   H1226     1.0  0.68394  0.86231  0.14127  1.0000
  C   C690      1.0  0.70388  0.17558  0.15536  1.0000
  C   C691      1.0  0.68841  0.11477  0.06337  1.0000
  C   C692      1.0  0.93101  0.95352  0.12983  1.0000
  S   S157      1.0  0.52635  0.20303  0.98807  1.0000
  H   H1227     1.0  0.09560  0.15088  0.04618  1.0000
  C   C693      1.0  0.75092  0.17964  0.97135  1.0000
  H   H1228     1.0  0.96914  0.91068  0.05842  1.0000
  H   H1229     1.0  0.05645  0.76973  0.17543  1.0000
  H   H1230     1.0  0.62301  0.82276  0.07946  1.0000
  H   H1231     1.0  0.00757  0.90918  0.95944  1.0000
  H   H1232     1.0  0.42079  0.93126  0.00100  1.0000
  H   H1233     1.0  0.83237  0.91975  0.06121  1.0000
  C   C694      1.0  0.36601  0.90298  0.06382  1.0000
  H   H1234     1.0  0.01204  0.19754  0.95566  1.0000
  C   C695      1.0  0.44768  0.05759  0.04735  1.0000
  C   C696      1.0  0.35245  0.84094  0.05123  1.0000
  C   C697      1.0  0.58998  0.19996  0.18177  1.0000
  H   H1235     1.0  0.92821  0.87771  0.00641  1.0000
  H   H1236     1.0  0.14515  0.21230  0.08133  1.0000
  H   H1237     1.0  0.44634  0.93723  0.09225  1.0000
  H   H1238     1.0  0.95281  0.00834  0.17210  1.0000
  H   H1239     1.0  0.01103  0.19802  0.13886  1.0000
  H   H1240     1.0  0.38428  0.81976  0.04158  1.0000
  S   S158      1.0  0.64252  0.06412  0.16797  1.0000
  H   H1241     1.0  0.46570  0.09825  0.08369  1.0000
  H   H1242     1.0  0.43725  0.11680  0.01453  1.0000
  H   H1243     1.0  0.84412  0.76915  0.99010  1.0000
  S   S159      1.0  0.70856  0.00025  0.00697  1.0000
  C   C698      1.0  0.77874  0.18522  0.00104  1.0000
  C   C699      1.0  0.14286  0.06981  0.99585  1.0000
  H   H1244     1.0  0.02212  0.86122  0.11269  1.0000
  C   C700      1.0  0.70863  0.99435  0.04790  1.0000
  H   H1245     1.0  0.61636  0.11165  0.00861  1.0000
  C   C701      1.0  0.99466  0.21815  0.06668  1.0000
  H   H1246     1.0  0.31307  0.95974  0.08956  1.0000
  C   C702      1.0  0.68928  0.18722  0.12598  1.0000
  S   S160      1.0  0.10643  0.05650  0.95978  1.0000
  C   C703      1.0  0.53761  0.04764  0.99923  1.0000
  H   H1247     1.0  0.00137  0.04120  0.14286  1.0000
  H   H1248     1.0  0.92699  0.94571  0.15535  1.0000
  H   H1249     1.0  0.11053  0.19401  0.14374  1.0000
  H   H1250     1.0  0.00908  0.15773  0.02912  1.0000
  H   H1251     1.0  0.89366  0.87218  0.09794  1.0000
  Fe  Fe76      1.0  0.31028  0.16661  0.07884  1.0000
  C   C704      1.0  0.73138  0.19882  0.02620  1.0000
  H   H1252     1.0  0.45128  0.12565  0.13413  1.0000
  H   H1253     1.0  0.42782  0.00715  0.99992  1.0000
  H   H1254     1.0  0.55052  0.12377  0.04107  1.0000
  H   H1255     1.0  0.55357  0.84551  0.03743  1.0000
  N   N40       1.0  0.02557  0.18550  0.07340  1.0000
  H   H1256     1.0  0.14003  0.79240  0.14842  1.0000
  H   H1257     1.0  0.86964  0.95875  0.12740  1.0000
  H   H1258     1.0  0.56591  0.03156  0.01431  1.0000
  Fe  Fe77      1.0  0.49145  0.76124  0.12865  1.0000
  H   H1259     1.0  0.32009  0.90776  0.04880  1.0000
  C   C705      1.0  0.62534  0.19853  0.99268  1.0000
  C   C706      1.0  0.41993  0.93837  0.06960  1.0000
  H   H1260     1.0  0.86396  0.91053  0.96675  1.0000
  H   H1261     1.0  0.58849  0.05949  0.98101  1.0000
  C   C707      1.0  0.15137  0.78115  0.96422  1.0000
  C   C708      1.0  0.62358  0.08630  0.05252  1.0000
  H   H1262     1.0  0.43486  0.76245  0.03390  1.0000
  C   C709      1.0  0.12214  0.07283  0.05373  1.0000
  C   C710      1.0  0.80090  0.89497  0.12738  1.0000
  H   H1263     1.0  0.15849  0.88339  0.12856  1.0000
  H   H1264     1.0  0.77726  0.90971  0.10998  1.0000
  C   C711      1.0  0.09422  0.19321  0.09357  1.0000
  C   C712      1.0  0.67397  0.95679  0.09444  1.0000
  C   C713      1.0  0.36044  0.06076  0.10067  1.0000
  H   H1265     1.0  0.64551  0.94150  0.04740  1.0000
  H   H1266     1.0  0.47870  0.03954  0.05906  1.0000
  H   H1267     1.0  0.58536  0.07467  0.07437  1.0000
  H   H1268     1.0  0.47323  0.97895  0.94931  1.0000
  H   H1269     1.0  0.66622  0.96819  0.94897  1.0000
  Fe  Fe78      1.0  0.43500  0.22154  0.10577  1.0000
  H   H1270     1.0  0.83701  0.86939  0.94916  1.0000
  C   C714      1.0  0.88388  0.89358  0.94705  1.0000
  C   C715      1.0  0.44012  0.12474  0.94968  1.0000
  H   H1271     1.0  0.39154  0.10393  0.94284  1.0000
  C   C716      1.0  0.38367  0.74009  0.03510  1.0000
  C   C717      1.0  0.17861  0.73645  0.11320  1.0000
  H   H1272     1.0  0.99417  0.87003  0.93615  1.0000
  H   H1273     1.0  0.41677  0.91627  0.94444  1.0000
  Fe  Fe79      1.0  0.60471  0.73569  0.16957  1.0000
  C   C718      1.0  0.33229  0.73891  0.06786  1.0000
  H   H1274     1.0  0.96934  0.21584  0.04362  1.0000
  H   H1275     1.0  0.16096  0.73398  0.16539  1.0000
  H   H1276     1.0  0.81161  0.72958  0.96943  1.0000
  H   H1277     1.0  0.42671  0.15786  0.18341  1.0000
  Fe  Fe80      1.0  0.73991  0.10403  0.18506  1.0000
  H   H1278     1.0  0.85362  0.22275  0.17996  1.0000
  C   C719      1.0  0.13964  0.72451  0.98839  1.0000
  C   C720      1.0  0.41797  0.12926  0.18527  1.0000
  H   H1279     1.0  0.32304  0.08421  0.18511  1.0000
  H   H1280     1.0  0.94796  0.95716  0.93596  1.0000
