data_image0
_chemical_formula_structural       H2CHCHCH3C2H2CH3FeHCH2FeC2SC3H4CHC2HNSH2CHC3FeH4FeHCHSNCSHFeHCH4CH3FeHCSH4C3HC2H2SCH2NCH2CSHC2H2CFeH2CH2S2CHSH2SH4CHCSH6CH3CSFeH2CH4C2H2CHCNH3C2H3SHCSHCFeHCH5CH2C2SHSCH3C6H3CH3Fe2H3C3H4CH2CH2CH2C2SCSH2C2H2NFeCHFeCHNH2CH2C2H3CHCH3CHSHC2HCHCSCH4C4HCHNH5CH4CH5CH3CHSH2SH4CH2C4S2HSH3CHFeHCH4C2H4CHNH5CH3C2FeHC2H3C2H2CH2CHC2H3C3HC2H2SHC2SH2C2HFeCHC5H5FeH2C3H2CHCHSH3CH2SH6CH5CFeH2CHFeH4CH5SCHSH3SHCHC2H2SH2CH2FeC2HNHCHCH2CH3CHCHCHSCSHC2H4CHCSCHSFeCHCH3CSH2CHCH4FeH2C3HCH3CHFeH2CSCH5SCHFeH2FeH2C2H2C2H2CHC2H2CSHCHCH4C4H3CSC2H2CSHCHC2HCH3SFeH3CNHC2HSCH2C2H4NC2SH2NH9CH2C3HSCNC2H2SH6C2H3CHCH2SHCFeCNCH2SCH2C4HCFeHCHCFeCH4C2H2CHCHC7SCHCHC2H2CSH2CHCH3CSCHS2HCH2CSCNH2CHFeHCH4FeCHCSH2FeH4SH3FeH2FeCHCH2CH2SH7CHC4H3CH5CHCHFeH2CH3CH4CHSHCHSHCNH3CH5CH2C2H3C2H8SHCSC2H3CH3CHSCFeH2C6SC2H3C2FeCHC4HCFeH2SH8C3H4CFeHCHCHCH2CH2CH2CSHSHCH3CH2CSHCH3CH3FeH2SHCH5CH3FeCH3CH2C2H2NHCHSHC3H3CH2CHCHCSH3SH2CNH2C3HC2NCHCH5C2H5C2H4CH9C3SHC2H3NHCHCSCSHSHFeCHSHCHC2SC2H4C2H3CH2C2H2NH4CNH5CHCH2CHFeCH2CHCH2CFeC5H4CH4C2HC2HSHSH2CH3CH3CH2CHSH3CHNC3HCH2CH2FeH3CH2NHC2H3CHC5S2C2HCH2CH6SC2H2CH2CH5FeCH2CH3CHC2NH2CH4C2NHSH3CH3C2HCH6CFeH7SHC2H3CSHCH3CHSH3SHCSH3CHSC2HCHC2HCHC2H7CHCHFeC2H4SHSHFeSCH8CHCHSCHCH7SCH2C5H4CHC2SHC2HCH5C2H2CHC2HFeHC2H6CHSFeH2C2HFeH2CH2SCHCSHCHFeSCHC3SHCH6CH2CH2CH3C2HNH3CHFeSHC2H8SC4HC2H4SC2H3C4HCH2FeCHSH3CH3SH2CHCH2C4HSHCHCH3CHCH8CH2NC2FeHCH2CHCSH2CH2FeCSHCHC2SFeSH2CH5CHFeHCHC2H3CH3FeH2SC4SCH4CH3NH5CNSH2C3H3C4HCH5CH2CFeH3CSHCHCH2CH2CH2FeSHCH3C2H3SH4SHC4H2FeNHCSHC2H4CH2CHCH2FeHCHNCH3CHCH3C2H4C2HC4FeHCH3C2H3CH13C2HCFeHCNSHCSHCHFeCH2CHCH3CHC2HCH2FeHSCHSH6CHFeC2H3CHSCHCHSHCH2CSHCH2NSHSH2C2SH4CH2CH4CSH2CHCH2CHCH3SCHCHCHCHCHCH12CHCHCFeHCHSC2H4CFeCH2CS2H3C2HFeH3C2FeCH3SC2SHC2HCSH4CHCHCH2CH3SH2CHSH5NFeC2HSH2SH2CSH3CFeH2CH4SH3CHCHCHCHCSCH4CH2CSHCNH7CH2CHSC2HCH4CHC2H4CH3CH4CHSC2NH3SH3C3H3CHC3H6CH2CH6C3H6CSC3HCH8C2HCH4C2H7CH2NHCH2CNH4C3HCH2CHC2HC2H2CHCHCH2CH4CSHCFeHFeCH6SCH6SHCNFeCSHCHC3H3CHSNH2CHSC2HCHFeH2CH2CHCHCFeC2S2C3HS2CH2FeHC2HC2H2CH3NCSHC2H3CH2CSH4CH2CHFeHC3H2SH4FeSCHC2H2CH2FeHC2HCH6CSHCHSC2HCH2CHSNH2CHCH2C2H2C2H3CHCHNH4CHC2H2CHC2H2NHSC2HCFeHC2HCH3SHCH2SHFeH2NHC2H3CHCHSH3CHCSH4CH2CHC2HCSHC2H3C2H4CNH3C2SH4C2HCHCH2SH2CHFeH8CH2CH4C2FeH2CH3CSHSH2CH5FeH5C3H2CH7CHCHCHFeHSCH2CHCSHCH2CH3FeHCFeHCH2SH3C2H2CH2CHCHCHCHC3NH2C3H2FeHSCHFeHC2H5S3C5HSH2C3HC2SHCH4FeCHCH5CH2CH2C6H4CH3FeSH2CH2C4H2CHSHCH3SCSCH
_chemical_formula_sum              "H1536 C864 Fe96 S192 N48"
_cell_length_a       39.1755
_cell_length_b       39.1607
_cell_length_c       25.7375
_cell_angle_alpha    82.0045
_cell_angle_beta     87.1128
_cell_angle_gamma    118.556

_space_group_name_H-M_alt    "P 1"
_space_group_IT_number       1

loop_
  _space_group_symop_operation_xyz
  'x, y, z'

loop_
  _atom_site_type_symbol
  _atom_site_label
  _atom_site_symmetry_multiplicity
  _atom_site_fract_x
  _atom_site_fract_y
  _atom_site_fract_z
  _atom_site_occupancy
  H   H1        1.0  0.48046  0.98223  0.76410  1.0000
  H   H2        1.0  0.38242  0.41253  0.72967  1.0000
  C   C1        1.0  0.31769  0.37888  0.81366  1.0000
  H   H3        1.0  0.18705  0.41107  0.87334  1.0000
  C   C2        1.0  0.38014  0.28904  0.81851  1.0000
  H   H4        1.0  0.19054  0.32295  0.78532  1.0000
  C   C3        1.0  0.14593  0.26541  0.91376  1.0000
  H   H5        1.0  0.34469  0.37726  0.82056  1.0000
  H   H6        1.0  0.34840  0.16976  0.75106  1.0000
  H   H7        1.0  0.21810  0.00875  0.72208  1.0000
  C   C4        1.0  0.52677  0.07024  0.84823  1.0000
  C   C5        1.0  0.46048  0.01490  0.84032  1.0000
  H   H8        1.0  0.15665  0.29596  0.92068  1.0000
  H   H9        1.0  0.35721  0.23952  0.77819  1.0000
  C   C6        1.0  0.53377  0.01032  0.93292  1.0000
  H   H10       1.0  0.06627  0.23630  0.93972  1.0000
  H   H11       1.0  0.32531  0.41037  0.80665  1.0000
  H   H12       1.0  0.51003  0.97726  0.84078  1.0000
  Fe  Fe1       1.0  0.22067  0.19350  0.72739  1.0000
  H   H13       1.0  0.29333  0.41357  0.70551  1.0000
  C   C7        1.0  0.29581  0.03350  0.75505  1.0000
  H   H14       1.0  0.30258  0.37371  0.89759  1.0000
  H   H15       1.0  0.49987  0.27338  0.76693  1.0000
  Fe  Fe2       1.0  0.16867  0.22716  0.76212  1.0000
  C   C8        1.0  0.07762  0.98745  0.77519  1.0000
  C   C9        1.0  0.11346  0.25404  0.87823  1.0000
  S   S1        1.0  0.21011  0.15651  0.80747  1.0000
  C   C10       1.0  0.06046  0.28319  0.81802  1.0000
  C   C11       1.0  0.19659  0.37691  0.73981  1.0000
  C   C12       1.0  0.43703  0.02973  0.87200  1.0000
  H   H16       1.0  0.43010  0.01564  0.91445  1.0000
  H   H17       1.0  0.12596  0.27262  0.83843  1.0000
  H   H18       1.0  0.12029  0.45093  0.75754  1.0000
  H   H19       1.0  0.05642  0.21296  0.82462  1.0000
  C   C13       1.0  0.35055  0.25386  0.80702  1.0000
  H   H20       1.0  0.37998  0.98701  0.85366  1.0000
  C   C14       1.0  0.31218  0.23737  0.83248  1.0000
  C   C15       1.0  0.53822  0.99589  0.73329  1.0000
  H   H21       1.0  0.33870  0.09627  0.74247  1.0000
  N   N1        1.0  0.50100  0.02604  0.85440  1.0000
  S   S2        1.0  0.52481  0.41087  0.77254  1.0000
  H   H22       1.0  0.39397  0.33491  0.86461  1.0000
  H   H23       1.0  0.11387  0.98746  0.92165  1.0000
  C   C16       1.0  0.04897  0.09772  0.77783  1.0000
  H   H24       1.0  0.39299  0.02984  0.71482  1.0000
  C   C17       1.0  0.48314  0.22002  0.73628  1.0000
  C   C18       1.0  0.51985  0.00852  0.82194  1.0000
  C   C19       1.0  0.51097  0.00606  0.76405  1.0000
  Fe  Fe3       1.0  0.46019  0.42369  0.87829  1.0000
  H   H25       1.0  0.50352  0.08867  0.77953  1.0000
  H   H26       1.0  0.34040  0.43812  0.72505  1.0000
  H   H27       1.0  0.08704  0.33525  0.85838  1.0000
  H   H28       1.0  0.35983  0.06399  0.74816  1.0000
  Fe  Fe4       1.0  0.46294  0.36864  0.80829  1.0000
  H   H29       1.0  0.34816  0.44173  0.92602  1.0000
  C   C20       1.0  0.09198  0.32584  0.82158  1.0000
  H   H30       1.0  0.22733  0.97375  0.76071  1.0000
  S   S3        1.0  0.41730  0.43209  0.92848  1.0000
  N   N2        1.0  0.04708  0.25218  0.86778  1.0000
  C   C21       1.0  0.50867  0.26558  0.73040  1.0000
  S   S4        1.0  0.15462  0.19300  0.84481  1.0000
  H   H31       1.0  0.44631  0.26702  0.71957  1.0000
  Fe  Fe5       1.0  0.50793  0.45827  0.76859  1.0000
  H   H32       1.0  0.36321  0.36051  0.74468  1.0000
  C   C22       1.0  0.33496  0.06765  0.76333  1.0000
  H   H33       1.0  0.22286  0.37899  0.92442  1.0000
  H   H34       1.0  0.09762  0.34714  0.73713  1.0000
  H   H35       1.0  0.47250  0.16624  0.78808  1.0000
  H   H36       1.0  0.28937  0.21032  0.82330  1.0000
  C   C23       1.0  0.15974  0.31159  0.71714  1.0000
  H   H37       1.0  0.13868  0.05246  0.94864  1.0000
  H   H38       1.0  0.29216  0.00590  0.77885  1.0000
  H   H39       1.0  0.07744  0.14081  0.90936  1.0000
  Fe  Fe6       1.0  0.53466  0.41880  0.85593  1.0000
  H   H40       1.0  0.53393  0.34413  0.86163  1.0000
  C   C24       1.0  0.11620  0.46375  0.71865  1.0000
  S   S5        1.0  0.47339  0.37367  0.89205  1.0000
  H   H41       1.0  0.08850  0.03233  0.93548  1.0000
  H   H42       1.0  0.16715  0.35880  0.87690  1.0000
  H   H43       1.0  0.33576  0.06864  0.80617  1.0000
  H   H44       1.0  0.29431  0.32763  0.77628  1.0000
  C   C25       1.0  0.33318  0.29066  0.88183  1.0000
  C   C26       1.0  0.53200  0.09551  0.79352  1.0000
  C   C27       1.0  0.33991  0.17554  0.71290  1.0000
  H   H45       1.0  0.44243  0.98205  0.84567  1.0000
  C   C28       1.0  0.05202  0.07865  0.82620  1.0000
  C   C29       1.0  0.22294  0.98306  0.72010  1.0000
  H   H46       1.0  0.46141  0.02573  0.79783  1.0000
  H   H47       1.0  0.45364  0.06232  0.86883  1.0000
  S   S6        1.0  0.42786  0.30990  0.78607  1.0000
  C   C30       1.0  0.30709  0.18120  0.70981  1.0000
  H   H48       1.0  0.15143  0.03697  0.73113  1.0000
  H   H49       1.0  0.09376  0.09013  0.94660  1.0000
  N   N3        1.0  0.06956  0.00412  0.72342  1.0000
  C   C31       1.0  0.40495  0.46110  0.88363  1.0000
  H   H50       1.0  0.09334  0.01128  0.79832  1.0000
  H   H51       1.0  0.21369  0.39549  0.76642  1.0000
  C   C32       1.0  0.36876  0.46003  0.89130  1.0000
  S   S7        1.0  0.15718  0.17481  0.72511  1.0000
  H   H52       1.0  0.27238  0.03907  0.77095  1.0000
  C   C33       1.0  0.18352  0.33592  0.75048  1.0000
  C   C34       1.0  0.09364  0.35572  0.77536  1.0000
  H   H53       1.0  0.23433  0.44285  0.93840  1.0000
  H   H54       1.0  0.09156  0.28755  0.91426  1.0000
  C   C35       1.0  0.10210  0.45945  0.91380  1.0000
  Fe  Fe7       1.0  0.14742  0.14215  0.80745  1.0000
  H   H55       1.0  0.51590  0.08168  0.87858  1.0000
  H   H56       1.0  0.11873  0.38541  0.77609  1.0000
  C   C36       1.0  0.30356  0.25562  0.87014  1.0000
  H   H57       1.0  0.32631  0.30526  0.90985  1.0000
  H   H58       1.0  0.10284  0.06451  0.73576  1.0000
  S   S8        1.0  0.13743  0.25978  0.73215  1.0000
  S   S9        1.0  0.09683  0.08184  0.83961  1.0000
  C   C37       1.0  0.36389  0.38466  0.71508  1.0000
  H   H59       1.0  0.05670  0.41760  0.72347  1.0000
  S   S10       1.0  0.44482  0.41477  0.79689  1.0000
  H   H60       1.0  0.07304  0.27496  0.78521  1.0000
  H   H61       1.0  0.48628  0.02308  0.93803  1.0000
  S   S11       1.0  0.23306  0.24860  0.75772  1.0000
  H   H62       1.0  0.12118  0.32791  0.81991  1.0000
  H   H63       1.0  0.04768  0.30180  0.93966  1.0000
  H   H64       1.0  0.29053  0.18005  0.74547  1.0000
  H   H65       1.0  0.51620  0.33590  0.72795  1.0000
  C   C38       1.0  0.29941  0.35853  0.76672  1.0000
  H   H66       1.0  0.06608  0.35735  0.77838  1.0000
  C   C39       1.0  0.49118  0.19873  0.78457  1.0000
  S   S12       1.0  0.25537  0.23577  0.90036  1.0000
  H   H67       1.0  0.48421  0.20737  0.82132  1.0000
  H   H68       1.0  0.26188  0.36120  0.86033  1.0000
  H   H69       1.0  0.14366  0.37692  0.91901  1.0000
  H   H70       1.0  0.45152  0.21098  0.74212  1.0000
  H   H71       1.0  0.26988  0.35606  0.76766  1.0000
  H   H72       1.0  0.37222  0.24270  0.92942  1.0000
  C   C40       1.0  0.10262  0.04620  0.70616  1.0000
  H   H73       1.0  0.17592  0.10886  0.71925  1.0000
  H   H74       1.0  0.28047  0.32710  0.87483  1.0000
  H   H75       1.0  0.51388  0.03384  0.74215  1.0000
  C   C41       1.0  0.07898  0.25835  0.90210  1.0000
  S   S13       1.0  0.52286  0.46972  0.84963  1.0000
  Fe  Fe8       1.0  0.21816  0.21045  0.83800  1.0000
  H   H76       1.0  0.07473  0.11634  0.74921  1.0000
  H   H77       1.0  0.47327  0.97648  0.92011  1.0000
  C   C42       1.0  0.37142  0.30757  0.85576  1.0000
  H   H78       1.0  0.17106  0.26384  0.89462  1.0000
  H   H79       1.0  0.08299  0.45517  0.88373  1.0000
  H   H80       1.0  0.13493  0.24473  0.95253  1.0000
  H   H81       1.0  0.51540  0.22454  0.91939  1.0000
  C   C43       1.0  0.39808  0.01950  0.85107  1.0000
  C   C44       1.0  0.17237  0.38200  0.90058  1.0000
  H   H82       1.0  0.38152  0.02968  0.87497  1.0000
  H   H83       1.0  0.10324  0.22283  0.87477  1.0000
  C   C45       1.0  0.28879  0.35885  0.86469  1.0000
  H   H84       1.0  0.40331  0.03442  0.80918  1.0000
  C   C46       1.0  0.49637  0.00821  0.91210  1.0000
  N   N4        1.0  0.32282  0.37861  0.71242  1.0000
  H   H85       1.0  0.05240  0.98523  0.87919  1.0000
  H   H86       1.0  0.52244  0.20606  0.78045  1.0000
  H   H87       1.0  0.09874  0.97686  0.76713  1.0000
  C   C47       1.0  0.19762  0.38048  0.94334  1.0000
  C   C48       1.0  0.05830  0.13315  0.94719  1.0000
  H   H88       1.0  0.24055  0.32416  0.70599  1.0000
  H   H89       1.0  0.53932  0.27164  0.73197  1.0000
  H   H90       1.0  0.53646  0.14652  0.82445  1.0000
  S   S14       1.0  0.25741  0.47142  0.80660  1.0000
  H   H91       1.0  0.16526  0.41152  0.07364  1.0000
  C   C49       1.0  0.17176  0.09603  0.04917  1.0000
  S   S15       1.0  0.47939  0.42705  0.13008  1.0000
  H   H92       1.0  0.09684  0.09870  0.09429  1.0000
  C   C50       1.0  0.26560  0.41065  0.00836  1.0000
  Fe  Fe9       1.0  0.45578  0.05398  0.17736  1.0000
  H   H93       1.0  0.52743  0.21831  0.03789  1.0000
  C   C51       1.0  0.46573  0.19839  0.97985  1.0000
  H   H94       1.0  0.15967  0.43678  0.17510  1.0000
  H   H95       1.0  0.34289  0.09933  0.19645  1.0000
  H   H96       1.0  0.51140  0.00441  0.01510  1.0000
  H   H97       1.0  0.52070  0.06821  0.07073  1.0000
  H   H98       1.0  0.21741  0.15812  0.03591  1.0000
  C   C52       1.0  0.50938  0.22645  0.96113  1.0000
  H   H99       1.0  0.28637  0.43347  0.97441  1.0000
  H   H100      1.0  0.50904  0.43253  0.02354  1.0000
  C   C53       1.0  0.36013  0.21967  0.96599  1.0000
  C   C54       1.0  0.52595  0.45798  0.99066  1.0000
  S   S16       1.0  0.18070  0.22068  0.12480  1.0000
  H   H101      1.0  0.52418  0.18360  0.99905  1.0000
  S   S17       1.0  0.43535  0.02612  0.10638  1.0000
  C   C55       1.0  0.50722  0.28484  0.15515  1.0000
  H   H102      1.0  0.47442  0.32044  0.98958  1.0000
  H   H103      1.0  0.05620  0.11523  0.03058  1.0000
  H   H104      1.0  0.06251  0.00817  0.12279  1.0000
  C   C56       1.0  0.11391  0.19619  0.07817  1.0000
  C   C57       1.0  0.10795  0.02930  0.96328  1.0000
  C   C58       1.0  0.52512  0.99144  0.99143  1.0000
  C   C59       1.0  0.39000  0.27287  0.02156  1.0000
  C   C60       1.0  0.20129  0.38255  0.06150  1.0000
  C   C61       1.0  0.43685  0.38911  0.16936  1.0000
  H   H105      1.0  0.34784  0.12343  0.11263  1.0000
  H   H106      1.0  0.17170  0.28926  0.10016  1.0000
  H   H107      1.0  0.10453  0.14704  0.99451  1.0000
  C   C62       1.0  0.08273  0.20055  0.06034  1.0000
  H   H108      1.0  0.50811  0.18677  0.15233  1.0000
  H   H109      1.0  0.05739  0.17558  0.05074  1.0000
  H   H110      1.0  0.34759  0.45302  0.02003  1.0000
  Fe  Fe10      1.0  0.43463  0.11867  0.14272  1.0000
  Fe  Fe11      1.0  0.53443  0.42430  0.14069  1.0000
  H   H111      1.0  0.45805  0.16756  0.97682  1.0000
  H   H112      1.0  0.28854  0.43053  0.08266  1.0000
  H   H113      1.0  0.11763  0.29764  0.06421  1.0000
  C   C63       1.0  0.36687  0.35893  0.19633  1.0000
  C   C64       1.0  0.04389  0.34367  0.06751  1.0000
  C   C65       1.0  0.47171  0.24899  0.16197  1.0000
  H   H114      1.0  0.04908  0.20201  0.16369  1.0000
  H   H115      1.0  0.25649  0.38198  0.99516  1.0000
  H   H116      1.0  0.18798  0.42372  0.97617  1.0000
  H   H117      1.0  0.04870  0.05918  0.98880  1.0000
  C   C66       1.0  0.16163  0.38163  0.07470  1.0000
  H   H118      1.0  0.34415  0.41742  0.07539  1.0000
  H   H119      1.0  0.31378  0.13532  0.03841  1.0000
  C   C67       1.0  0.10498  0.98898  0.96255  1.0000
  H   H120      1.0  0.11140  0.35416  0.13655  1.0000
  H   H121      1.0  0.24523  0.45157  0.08157  1.0000
  C   C68       1.0  0.47186  0.21362  0.15896  1.0000
  H   H122      1.0  0.51496  0.25690  0.96237  1.0000
  H   H123      1.0  0.50561  0.45639  0.96150  1.0000
  C   C69       1.0  0.09470  0.03214  0.01947  1.0000
  C   C70       1.0  0.42361  0.33136  0.06122  1.0000
  S   S18       1.0  0.40205  0.05917  0.19574  1.0000
  C   C71       1.0  0.21416  0.12892  0.03128  1.0000
  S   S19       1.0  0.41169  0.09473  0.07008  1.0000
  H   H124      1.0  0.05131  0.06018  0.08338  1.0000
  H   H125      1.0  0.09961  0.44393  0.04753  1.0000
  C   C72       1.0  0.08299  0.06917  0.08243  1.0000
  C   C73       1.0  0.14548  0.22799  0.09377  1.0000
  H   H126      1.0  0.05624  0.46819  0.08429  1.0000
  H   H127      1.0  0.15464  0.10979  0.97349  1.0000
  N   N5        1.0  0.10060  0.07211  0.02707  1.0000
  Fe  Fe12      1.0  0.20462  0.26231  0.18203  1.0000
  C   C74       1.0  0.34101  0.23820  0.14997  1.0000
  H   H128      1.0  0.34649  0.11744  0.01981  1.0000
  Fe  Fe13      1.0  0.38367  0.03489  0.12223  1.0000
  C   C75       1.0  0.31868  0.10944  0.04440  1.0000
  H   H129      1.0  0.16488  0.09613  0.09144  1.0000
  N   N6        1.0  0.38641  0.29204  0.06700  1.0000
  H   H130      1.0  0.32732  0.25508  0.16378  1.0000
  H   H131      1.0  0.14193  0.36812  0.04515  1.0000
  C   C76       1.0  0.28793  0.41010  0.05660  1.0000
  H   H132      1.0  0.38117  0.20879  0.97425  1.0000
  H   H133      1.0  0.20342  0.02252  0.18212  1.0000
  C   C77       1.0  0.07560  0.12114  0.99366  1.0000
  C   C78       1.0  0.14128  0.35785  0.13019  1.0000
  H   H134      1.0  0.13886  0.32817  0.13592  1.0000
  H   H135      1.0  0.20532  0.06958  0.16798  1.0000
  H   H136      1.0  0.30132  0.32940  0.04700  1.0000
  C   C79       1.0  0.24250  0.45477  0.03862  1.0000
  H   H137      1.0  0.45809  0.19947  0.02158  1.0000
  C   C80       1.0  0.53494  0.21574  0.99684  1.0000
  H   H138      1.0  0.19500  0.35361  0.05161  1.0000
  H   H139      1.0  0.07144  0.36789  0.07670  1.0000
  H   H140      1.0  0.37386  0.35966  0.02012  1.0000
  C   C81       1.0  0.21269  0.41769  0.96922  1.0000
  H   H141      1.0  0.17046  0.06765  0.04507  1.0000
  S   S20       1.0  0.42748  0.16967  0.16142  1.0000
  H   H142      1.0  0.47860  0.35054  0.09491  1.0000
  C   C82       1.0  0.08387  0.03863  0.12736  1.0000
  C   C83       1.0  0.48906  0.34070  0.01724  1.0000
  H   H143      1.0  0.32158  0.21838  0.12490  1.0000
  C   C84       1.0  0.08642  0.44700  0.96745  1.0000
  H   H144      1.0  0.14682  0.13229  0.02398  1.0000
  C   C85       1.0  0.28423  0.08911  0.13884  1.0000
  S   S21       1.0  0.32246  0.98572  0.12309  1.0000
  C   C86       1.0  0.27610  0.02915  0.19651  1.0000
  H   H145      1.0  0.49870  0.37159  0.99800  1.0000
  H   H146      1.0  0.10985  0.02154  0.04711  1.0000
  H   H147      1.0  0.40117  0.29459  0.98356  1.0000
  H   H148      1.0  0.17935  0.35273  0.97228  1.0000
  C   C87       1.0  0.11678  0.26947  0.06839  1.0000
  C   C88       1.0  0.20584  0.04767  0.19998  1.0000
  C   C89       1.0  0.33054  0.42147  0.03987  1.0000
  C   C90       1.0  0.46201  0.32947  0.06886  1.0000
  H   H149      1.0  0.42035  0.34823  0.09058  1.0000
  C   C91       1.0  0.32154  0.09805  0.10264  1.0000
  H   H150      1.0  0.04492  0.04538  0.18371  1.0000
  N   N7        1.0  0.23063  0.41634  0.01937  1.0000
  H   H151      1.0  0.29432  0.08420  0.03094  1.0000
  H   H152      1.0  0.41268  0.26369  0.02665  1.0000
  H   H153      1.0  0.33241  0.40277  0.01258  1.0000
  H   H154      1.0  0.51555  0.33869  0.02608  1.0000
  H   H155      1.0  0.22324  0.13025  0.98908  1.0000
  C   C92       1.0  0.38276  0.26686  0.11980  1.0000
  H   H156      1.0  0.31524  0.34492  0.97620  1.0000
  H   H157      1.0  0.21432  0.38284  0.09846  1.0000
  H   H158      1.0  0.12448  0.98426  0.98901  1.0000
  H   H159      1.0  0.23407  0.12319  0.05576  1.0000
  C   C93       1.0  0.11152  0.45381  0.00608  1.0000
  H   H160      1.0  0.39868  0.28596  0.14844  1.0000
  H   H161      1.0  0.50699  0.31220  0.15634  1.0000
  H   H162      1.0  0.44418  0.24872  0.16920  1.0000
  H   H163      1.0  0.44808  0.20722  0.95455  1.0000
  H   H164      1.0  0.42845  0.35062  0.02231  1.0000
  C   C94       1.0  0.08395  0.23708  0.05652  1.0000
  H   H165      1.0  0.36463  0.32315  0.97968  1.0000
  H   H166      1.0  0.14895  0.47115  0.20206  1.0000
  H   H167      1.0  0.11258  0.16775  0.08282  1.0000
  C   C95       1.0  0.50758  0.21388  0.15251  1.0000
  H   H168      1.0  0.39702  0.24860  0.11499  1.0000
  S   S22       1.0  0.49025  0.11545  0.12978  1.0000
  H   H169      1.0  0.21927  0.46313  0.03525  1.0000
  H   H170      1.0  0.04618  0.31624  0.07175  1.0000
  S   S23       1.0  0.23937  0.40402  0.18751  1.0000
  H   H171      1.0  0.06296  0.00969  0.02947  1.0000
  H   H172      1.0  0.26314  0.01686  0.16137  1.0000
  H   H173      1.0  0.15813  0.37362  0.16074  1.0000
  H   H174      1.0  0.33227  0.19468  0.95875  1.0000
  C   C96       1.0  0.14331  0.10364  0.01624  1.0000
  H   H175      1.0  0.29258  0.29329  0.00505  1.0000
  H   H176      1.0  0.32904  0.24384  0.00384  1.0000
  C   C97       1.0  0.35386  0.32848  0.01658  1.0000
  C   C98       1.0  0.35226  0.23619  0.01285  1.0000
  C   C99       1.0  0.07909  0.08398  0.98752  1.0000
  C   C100      1.0  0.31318  0.32366  0.01112  1.0000
  S   S24       1.0  0.26333  0.31721  0.16585  1.0000
  S   S25       1.0  0.04341  0.24200  0.04154  1.0000
  H   H177      1.0  0.25877  0.07022  0.11944  1.0000
  S   S26       1.0  0.50093  0.10495  0.98092  1.0000
  H   H178      1.0  0.40037  0.41224  0.13834  1.0000
  H   H179      1.0  0.11293  0.04046  0.12691  1.0000
  H   H180      1.0  0.35037  0.31337  0.10106  1.0000
  C   C101      1.0  0.14719  0.26476  0.08826  1.0000
  H   H181      1.0  0.34136  0.21235  0.04814  1.0000
  Fe  Fe14      1.0  0.46507  0.08788  0.06023  1.0000
  H   H182      1.0  0.32418  0.27217  0.07051  1.0000
  C   C102      1.0  0.35244  0.30014  0.06610  1.0000
  H   H183      1.0  0.45652  0.30016  0.08875  1.0000
  H   H184      1.0  0.27289  0.37989  0.08099  1.0000
  H   H185      1.0  0.28406  0.11764  0.13748  1.0000
  H   H186      1.0  0.32610  0.07197  0.10696  1.0000
  C   C103      1.0  0.40133  0.38903  0.16534  1.0000
  C   C104      1.0  0.07251  0.04384  0.18208  1.0000
  H   H187      1.0  0.09634  0.07108  0.19195  1.0000
  H   H188      1.0  0.48199  0.98011  0.15597  1.0000
  H   H189      1.0  0.35871  0.19682  0.18854  1.0000
  H   H190      1.0  0.09205  0.17471  0.18538  1.0000
  C   C105      1.0  0.34267  0.21238  0.19903  1.0000
  H   H191      1.0  0.30571  0.03163  0.19269  1.0000
  N   N8        1.0  0.27986  0.06956  0.19559  1.0000
  H   H192      1.0  0.16887  0.11789  0.18528  1.0000
  H   H193      1.0  0.22892  0.98188  0.02991  1.0000
  H   H194      1.0  0.08774  0.46912  0.13307  1.0000
  H   H195      1.0  0.33980  0.35964  0.19408  1.0000
  H   H196      1.0  0.20166  0.16838  0.19214  1.0000
  C   C106      1.0  0.28118  0.44420  0.20193  1.0000
  H   H197      1.0  0.24484  0.97397  0.09269  1.0000
  H   H198      1.0  0.05568  0.15939  0.95307  1.0000
  H   H199      1.0  0.17053  0.05641  0.25965  1.0000
  C   C107      1.0  0.17972  0.46807  0.29699  1.0000
  C   C108      1.0  0.31809  0.08248  0.27705  1.0000
  Fe  Fe15      1.0  0.23398  0.34405  0.21000  1.0000
  H   H200      1.0  0.22482  0.14844  0.41886  1.0000
  C   C109      1.0  0.31604  0.09605  0.21855  1.0000
  C   C110      1.0  0.08475  0.17041  0.27195  1.0000
  H   H201      1.0  0.29112  0.36696  0.43722  1.0000
  H   H202      1.0  0.51202  0.23234  0.27080  1.0000
  H   H203      1.0  0.23298  0.43069  0.42474  1.0000
  C   C111      1.0  0.30613  0.99085  0.42493  1.0000
  C   C112      1.0  0.28750  0.35320  0.40150  1.0000
  H   H204      1.0  0.40939  0.46453  0.22453  1.0000
  H   H205      1.0  0.07148  0.06625  0.36155  1.0000
  C   C113      1.0  0.06945  0.17002  0.21729  1.0000
  H   H206      1.0  0.28342  0.01733  0.36590  1.0000
  H   H207      1.0  0.04275  0.14149  0.21684  1.0000
  C   C114      1.0  0.22559  0.42672  0.34156  1.0000
  H   H208      1.0  0.50367  0.01858  0.42959  1.0000
  C   C115      1.0  0.33606  0.47205  0.25171  1.0000
  C   C116      1.0  0.11353  0.14634  0.33978  1.0000
  H   H209      1.0  0.23886  0.05272  0.26673  1.0000
  H   H210      1.0  0.27224  0.42936  0.38635  1.0000
  H   H211      1.0  0.12355  0.12484  0.35322  1.0000
  C   C117      1.0  0.24005  0.41769  0.39303  1.0000
  C   C118      1.0  0.36774  0.32847  0.23065  1.0000
  C   C119      1.0  0.18650  0.45418  0.24545  1.0000
  H   H212      1.0  0.33717  0.00770  0.40632  1.0000
  C   C120      1.0  0.34313  0.17778  0.39289  1.0000
  C   C121      1.0  0.29453  0.17147  0.33440  1.0000
  H   H213      1.0  0.48187  0.12579  0.34050  1.0000
  H   H214      1.0  0.35303  0.46800  0.28126  1.0000
  S   S27       1.0  0.38735  0.20755  0.41583  1.0000
  H   H215      1.0  0.29209  0.07697  0.30347  1.0000
  C   C122      1.0  0.51128  0.25392  0.29387  1.0000
  C   C123      1.0  0.04497  0.24378  0.32826  1.0000
  S   S28       1.0  0.24792  0.32618  0.28860  1.0000
  H   H216      1.0  0.25033  0.09817  0.22758  1.0000
  H   H217      1.0  0.12522  0.41983  0.23425  1.0000
  C   C124      1.0  0.05866  0.20254  0.20356  1.0000
  C   C125      1.0  0.47341  0.09498  0.33645  1.0000
  H   H218      1.0  0.49707  0.11257  0.43237  1.0000
  Fe  Fe16      1.0  0.19025  0.27152  0.29564  1.0000
  C   C126      1.0  0.51605  0.03954  0.26551  1.0000
  H   H219      1.0  0.40378  0.30462  0.26086  1.0000
  C   C127      1.0  0.28677  0.01574  0.40841  1.0000
  C   C128      1.0  0.27213  0.13114  0.35585  1.0000
  C   C129      1.0  0.10484  0.14681  0.43766  1.0000
  C   C130      1.0  0.20686  0.16301  0.41087  1.0000
  C   C131      1.0  0.13993  0.31120  0.36006  1.0000
  H   H220      1.0  0.35328  0.14206  0.29337  1.0000
  H   H221      1.0  0.18582  0.15479  0.44677  1.0000
  H   H222      1.0  0.29391  0.30621  0.37540  1.0000
  H   H223      1.0  0.25862  0.34688  0.38926  1.0000
  H   H224      1.0  0.24869  0.21328  0.35397  1.0000
  Fe  Fe17      1.0  0.10197  0.98479  0.42756  1.0000
  H   H225      1.0  0.25984  0.00614  0.28305  1.0000
  H   H226      1.0  0.21941  0.98804  0.24598  1.0000
  C   C132      1.0  0.52086  0.01501  0.30587  1.0000
  C   C133      1.0  0.23297  0.20799  0.39397  1.0000
  C   C134      1.0  0.25077  0.99642  0.24536  1.0000
  H   H227      1.0  0.19318  0.41090  0.34750  1.0000
  H   H228      1.0  0.10983  0.20063  0.27131  1.0000
  C   C135      1.0  0.12519  0.33742  0.43288  1.0000
  H   H229      1.0  0.41894  0.40813  0.26957  1.0000
  C   C136      1.0  0.06082  0.09929  0.29351  1.0000
  H   H230      1.0  0.18984  0.15086  0.37855  1.0000
  S   S29       1.0  0.22715  0.10261  0.33367  1.0000
  H   H231      1.0  0.18856  0.42679  0.25539  1.0000
  H   H232      1.0  0.28408  0.18500  0.30440  1.0000
  H   H233      1.0  0.45431  0.06622  0.44100  1.0000
  C   C137      1.0  0.26433  0.22640  0.43140  1.0000
  H   H234      1.0  0.38157  0.11983  0.27222  1.0000
  H   H235      1.0  0.48094  0.09477  0.29434  1.0000
  S   S30       1.0  0.16014  0.99055  0.40124  1.0000
  H   H236      1.0  0.06792  0.01827  0.21225  1.0000
  H   H237      1.0  0.11479  0.13153  0.21175  1.0000
  H   H238      1.0  0.05244  0.09317  0.25379  1.0000
  H   H239      1.0  0.07025  0.24886  0.34965  1.0000
  H   H240      1.0  0.23419  0.41340  0.31155  1.0000
  H   H241      1.0  0.17732  0.15090  0.28821  1.0000
  C   C138      1.0  0.49504  0.07916  0.37148  1.0000
  H   H242      1.0  0.34676  0.22620  0.33697  1.0000
  H   H243      1.0  0.14264  0.01954  0.22122  1.0000
  H   H244      1.0  0.22805  0.27408  0.42662  1.0000
  H   H245      1.0  0.08318  0.28114  0.25587  1.0000
  H   H246      1.0  0.31098  0.37466  0.36916  1.0000
  C   C139      1.0  0.12884  0.33696  0.37865  1.0000
  Fe  Fe18      1.0  0.27247  0.29506  0.24630  1.0000
  H   H247      1.0  0.46485  0.35811  0.20627  1.0000
  H   H248      1.0  0.42311  0.42795  0.32963  1.0000
  C   C140      1.0  0.29031  0.31527  0.41343  1.0000
  H   H249      1.0  0.05583  0.22375  0.43477  1.0000
  Fe  Fe19      1.0  0.18476  0.05524  0.40017  1.0000
  H   H250      1.0  0.31967  0.12633  0.21434  1.0000
  H   H251      1.0  0.43504  0.99956  0.43479  1.0000
  H   H252      1.0  0.25738  0.00290  0.43174  1.0000
  H   H253      1.0  0.53675  0.19351  0.31975  1.0000
  C   C141      1.0  0.18566  0.13708  0.21302  1.0000
  H   H254      1.0  0.08043  0.16973  0.37967  1.0000
  H   H255      1.0  0.18370  0.44777  0.40020  1.0000
  H   H256      1.0  0.26817  0.08286  0.41213  1.0000
  H   H257      1.0  0.12397  0.35700  0.35090  1.0000
  H   H258      1.0  0.16779  0.00870  0.27213  1.0000
  S   S31       1.0  0.06366  0.43302  0.41177  1.0000
  C   C142      1.0  0.12815  0.14546  0.24553  1.0000
  H   H259      1.0  0.49699  0.98545  0.32098  1.0000
  S   S32       1.0  0.12601  0.05013  0.41895  1.0000
  H   H260      1.0  0.14433  0.10119  0.28223  1.0000
  H   H261      1.0  0.30531  0.04628  0.41527  1.0000
  H   H262      1.0  0.52681  0.09729  0.35683  1.0000
  S   S33       1.0  0.17407  0.29071  0.21943  1.0000
  H   H263      1.0  0.22532  0.38513  0.40673  1.0000
  C   C143      1.0  0.40314  0.32827  0.23433  1.0000
  H   H264      1.0  0.14635  0.17747  0.22825  1.0000
  C   C144      1.0  0.30423  0.43897  0.23856  1.0000
  C   C145      1.0  0.08597  0.14435  0.38684  1.0000
  H   H265      1.0  0.35756  0.23080  0.22864  1.0000
  H   H266      1.0  0.32076  0.05531  0.28112  1.0000
  S   S34       1.0  0.06609  0.37969  0.32524  1.0000
  H   H267      1.0  0.46569  0.25878  0.33922  1.0000
  H   H268      1.0  0.44995  0.23282  0.28501  1.0000
  C   C146      1.0  0.16955  0.03223  0.24076  1.0000
  H   H269      1.0  0.45770  0.20882  0.34453  1.0000
  H   H270      1.0  0.29712  0.40962  0.25767  1.0000
  Fe  Fe20      1.0  0.06779  0.37816  0.41221  1.0000
  C   C147      1.0  0.15839  0.13222  0.26148  1.0000
  C   C148      1.0  0.28527  0.11406  0.39574  1.0000
  H   H271      1.0  0.06096  0.16693  0.30118  1.0000
  N   N9        1.0  0.09678  0.13947  0.28836  1.0000
  H   H272      1.0  0.13343  0.17427  0.43307  1.0000
  C   C149      1.0  0.46865  0.23761  0.31727  1.0000
  H   H273      1.0  0.53421  0.28115  0.36049  1.0000
  C   C150      1.0  0.06314  0.06299  0.32134  1.0000
  H   H274      1.0  0.15536  0.44137  0.32311  1.0000
  H   H275      1.0  0.20779  0.12888  0.22588  1.0000
  C   C151      1.0  0.43772  0.35859  0.20357  1.0000
  H   H276      1.0  0.21457  0.22225  0.38870  1.0000
  H   H277      1.0  0.35529  0.10366  0.33821  1.0000
  H   H278      1.0  0.52043  0.28214  0.26630  1.0000
  C   C152      1.0  0.48675  0.08098  0.43030  1.0000
  H   H279      1.0  0.29184  0.24802  0.40505  1.0000
  C   C153      1.0  0.53825  0.26075  0.33795  1.0000
  H   H280      1.0  0.05752  0.11644  0.39366  1.0000
  C   C154      1.0  0.24449  0.06772  0.22490  1.0000
  H   H281      1.0  0.52662  0.23253  0.36699  1.0000
  S   S35       1.0  0.47023  0.02069  0.24260  1.0000
  C   C155      1.0  0.35429  0.11398  0.29617  1.0000
  S   S36       1.0  0.15311  0.24809  0.37421  1.0000
  H   H282      1.0  0.06883  0.30666  0.29741  1.0000
  C   C156      1.0  0.05847  0.27859  0.28229  1.0000
  C   C157      1.0  0.15292  0.44495  0.21235  1.0000
  H   H283      1.0  0.14296  0.31109  0.31811  1.0000
  H   H284      1.0  0.14038  0.17597  0.33366  1.0000
  H   H285      1.0  0.08400  0.05792  0.29754  1.0000
  H   H286      1.0  0.37827  0.41093  0.30022  1.0000
  C   C158      1.0  0.14173  0.28497  0.45014  1.0000
  H   H287      1.0  0.44118  0.07606  0.34738  1.0000
  C   C159      1.0  0.32983  0.19484  0.35317  1.0000
  S   S37       1.0  0.21573  0.23863  0.25972  1.0000
  C   C160      1.0  0.32096  0.13732  0.41394  1.0000
  H   H288      1.0  0.31688  0.32318  0.43285  1.0000
  S   S38       1.0  0.32467  0.29038  0.26854  1.0000
  Fe  Fe21      1.0  0.05849  0.43291  0.32564  1.0000
  C   C161      1.0  0.41076  0.42615  0.29157  1.0000
  H   H289      1.0  0.48501  0.04839  0.36613  1.0000
  C   C162      1.0  0.14500  0.28427  0.39603  1.0000
  H   H290      1.0  0.31242  0.18994  0.21728  1.0000
  H   H291      1.0  0.33126  0.12405  0.44434  1.0000
  H   H292      1.0  0.10991  0.12132  0.44810  1.0000
  C   C163      1.0  0.25329  0.28187  0.44953  1.0000
  S   S39       1.0  0.43502  0.13974  0.45033  1.0000
  H   H293      1.0  0.27073  0.20304  0.45026  1.0000
  H   H294      1.0  0.08431  0.23212  0.20302  1.0000
  C   C164      1.0  0.24306  0.47189  0.32042  1.0000
  H   H295      1.0  0.47590  0.46994  0.21454  1.0000
  C   C165      1.0  0.42592  0.46756  0.25895  1.0000
  H   H296      1.0  0.33845  0.28305  0.45104  1.0000
  H   H297      1.0  0.16433  0.16849  0.59678  1.0000
  H   H298      1.0  0.22539  0.98479  0.61428  1.0000
  H   H299      1.0  0.52353  0.97573  0.57415  1.0000
  Fe  Fe22      1.0  0.48013  0.17139  0.50183  1.0000
  H   H300      1.0  0.30268  0.32273  0.68652  1.0000
  H   H301      1.0  0.29510  0.97389  0.64953  1.0000
  C   C166      1.0  0.35079  0.18548  0.61742  1.0000
  C   C167      1.0  0.29587  0.18825  0.66040  1.0000
  C   C168      1.0  0.48936  0.05626  0.62397  1.0000
  H   H302      1.0  0.09270  0.40835  0.69200  1.0000
  C   C169      1.0  0.25091  0.00935  0.62719  1.0000
  H   H303      1.0  0.13677  0.45106  0.46637  1.0000
  H   H304      1.0  0.09933  0.33965  0.58030  1.0000
  H   H305      1.0  0.46306  0.06706  0.52608  1.0000
  C   C170      1.0  0.49056  0.04070  0.57310  1.0000
  H   H306      1.0  0.13029  0.31272  0.51035  1.0000
  Fe  Fe23      1.0  0.40687  0.17433  0.47372  1.0000
  H   H307      1.0  0.07810  0.21607  0.52255  1.0000
  H   H308      1.0  0.27505  0.22984  0.54533  1.0000
  C   C171      1.0  0.40914  0.28897  0.64443  1.0000
  S   S40       1.0  0.19593  0.05114  0.48463  1.0000
  C   C172      1.0  0.31755  0.18986  0.61446  1.0000
  H   H309      1.0  0.08549  0.14698  0.47046  1.0000
  H   H310      1.0  0.43118  0.37680  0.70152  1.0000
  H   H311      1.0  0.27759  0.07331  0.54274  1.0000
  H   H312      1.0  0.28697  0.27988  0.53103  1.0000
  H   H313      1.0  0.52987  0.99211  0.69300  1.0000
  S   S41       1.0  0.10687  0.97496  0.51392  1.0000
  C   C173      1.0  0.28510  0.02452  0.58155  1.0000
  H   H314      1.0  0.31922  0.36343  0.63388  1.0000
  Fe  Fe24      1.0  0.13513  0.04096  0.50376  1.0000
  H   H315      1.0  0.26115  0.33189  0.58680  1.0000
  H   H316      1.0  0.32735  0.23655  0.48871  1.0000
  Fe  Fe25      1.0  0.40140  0.09604  0.52450  1.0000
  H   H317      1.0  0.28656  0.99906  0.56929  1.0000
  H   H318      1.0  0.29578  0.05956  0.67641  1.0000
  C   C174      1.0  0.49280  0.06986  0.52352  1.0000
  C   C175      1.0  0.46308  0.27735  0.67907  1.0000
  H   H319      1.0  0.43087  0.00252  0.50310  1.0000
  H   H320      1.0  0.07593  0.44399  0.53740  1.0000
  C   C176      1.0  0.06942  0.98103  0.68091  1.0000
  C   C177      1.0  0.32716  0.26461  0.49106  1.0000
  H   H321      1.0  0.30404  0.46805  0.63462  1.0000
  H   H322      1.0  0.24286  0.03296  0.62902  1.0000
  C   C178      1.0  0.49094  0.02142  0.46734  1.0000
  H   H323      1.0  0.52362  0.35304  0.65915  1.0000
  C   C179      1.0  0.07832  0.38061  0.59213  1.0000
  C   C180      1.0  0.45252  0.30833  0.65153  1.0000
  H   H324      1.0  0.30884  0.19474  0.57624  1.0000
  H   H325      1.0  0.30542  0.98745  0.46857  1.0000
  C   C181      1.0  0.07981  0.07451  0.55112  1.0000
  S   S42       1.0  0.37487  0.03065  0.52798  1.0000
  H   H326      1.0  0.37280  0.35438  0.65442  1.0000
  C   C182      1.0  0.13268  0.31214  0.46843  1.0000
  H   H327      1.0  0.21469  0.18724  0.51851  1.0000
  C   C183      1.0  0.21527  0.21571  0.50354  1.0000
  H   H328      1.0  0.51553  0.03500  0.57187  1.0000
  H   H329      1.0  0.38594  0.40471  0.62898  1.0000
  H   H330      1.0  0.15121  0.20460  0.61240  1.0000
  H   H331      1.0  0.36083  0.31626  0.52646  1.0000
  C   C184      1.0  0.37701  0.97297  0.59847  1.0000
  C   C185      1.0  0.52666  0.30896  0.58029  1.0000
  C   C186      1.0  0.20115  0.22815  0.55136  1.0000
  C   C187      1.0  0.32351  0.41774  0.69844  1.0000
  H   H332      1.0  0.17010  0.11109  0.64978  1.0000
  H   H333      1.0  0.20509  0.09804  0.67519  1.0000
  H   H334      1.0  0.51229  0.10090  0.52863  1.0000
  C   C188      1.0  0.18617  0.39330  0.69554  1.0000
  S   S43       1.0  0.12237  0.07206  0.56186  1.0000
  C   C189      1.0  0.44580  0.99498  0.47280  1.0000
  C   C190      1.0  0.42926  0.39737  0.66896  1.0000
  H   H335      1.0  0.46355  0.01169  0.57647  1.0000
  H   H336      1.0  0.06293  0.03470  0.49559  1.0000
  C   C191      1.0  0.25999  0.34132  0.66844  1.0000
  S   S44       1.0  0.44817  0.12589  0.57481  1.0000
  H   H337      1.0  0.24763  0.29559  0.48152  1.0000
  C   C192      1.0  0.27952  0.04747  0.53300  1.0000
  H   H338      1.0  0.08247  0.39084  0.54875  1.0000
  C   C193      1.0  0.14442  0.05131  0.69625  1.0000
  C   C194      1.0  0.30281  0.35129  0.67434  1.0000
  H   H339      1.0  0.21295  0.30782  0.62445  1.0000
  C   C195      1.0  0.35641  0.28591  0.52813  1.0000
  H   H340      1.0  0.34570  0.26953  0.56956  1.0000
  H   H341      1.0  0.24531  0.28782  0.63664  1.0000
  H   H342      1.0  0.45816  0.33116  0.67611  1.0000
  S   S45       1.0  0.45463  0.20963  0.52000  1.0000
  Fe  Fe26      1.0  0.41781  0.16056  0.58869  1.0000
  H   H343      1.0  0.37407  0.45281  0.63711  1.0000
  H   H344      1.0  0.19214  0.20908  0.47718  1.0000
  H   H345      1.0  0.19692  0.25390  0.53822  1.0000
  C   C196      1.0  0.04760  0.43771  0.55881  1.0000
  N   N10       1.0  0.50473  0.06419  0.46974  1.0000
  H   H346      1.0  0.50241  0.00831  0.49785  1.0000
  C   C197      1.0  0.37801  0.00944  0.59087  1.0000
  C   C198      1.0  0.06997  0.09811  0.57764  1.0000
  H   H347      1.0  0.06277  0.25033  0.54098  1.0000
  S   S46       1.0  0.19791  0.44320  0.68232  1.0000
  C   C199      1.0  0.24408  0.31570  0.62637  1.0000
  H   H348      1.0  0.53826  0.34055  0.58257  1.0000
  H   H349      1.0  0.10622  0.45886  0.61307  1.0000
  C   C200      1.0  0.38641  0.38476  0.66345  1.0000
  C   C201      1.0  0.16403  0.36909  0.66136  1.0000
  H   H350      1.0  0.46981  0.32371  0.61217  1.0000
  H   H351      1.0  0.49711  0.29712  0.56741  1.0000
  H   H352      1.0  0.31382  0.04424  0.59333  1.0000
  H   H353      1.0  0.14615  0.26449  0.47793  1.0000
  N   N11       1.0  0.04362  0.41974  0.61601  1.0000
  C   C202      1.0  0.34196  0.44146  0.64174  1.0000
  C   C203      1.0  0.16157  0.19460  0.57975  1.0000
  S   S47       1.0  0.36871  0.12733  0.54334  1.0000
  H   H354      1.0  0.10539  0.40028  0.60773  1.0000
  H   H355      1.0  0.08833  0.11428  0.60539  1.0000
  N   N12       1.0  0.50603  0.29049  0.68192  1.0000
  H   H356      1.0  0.25776  0.36848  0.65688  1.0000
  H   H357      1.0  0.44483  0.42803  0.67686  1.0000
  H   H358      1.0  0.09550  0.97670  0.67994  1.0000
  H   H359      1.0  0.32148  0.03277  0.67938  1.0000
  H   H360      1.0  0.07295  0.99835  0.64092  1.0000
  H   H361      1.0  0.48391  0.03319  0.65871  1.0000
  H   H362      1.0  0.15644  0.38170  0.62679  1.0000
  H   H363      1.0  0.40248  0.26737  0.61755  1.0000
  H   H364      1.0  0.32882  0.42344  0.61124  1.0000
  C   C204      1.0  0.52413  0.28385  0.63389  1.0000
  H   H365      1.0  0.38505  0.28801  0.51582  1.0000
  H   H366      1.0  0.13929  0.18580  0.55198  1.0000
  C   C205      1.0  0.38282  0.02942  0.63328  1.0000
  C   C206      1.0  0.07342  0.33896  0.60111  1.0000
  C   C207      1.0  0.08397  0.43110  0.69518  1.0000
  H   H367      1.0  0.07085  0.32767  0.64400  1.0000
  S   S48       1.0  0.53981  0.18470  0.46825  1.0000
  C   C208      1.0  0.05596  0.05359  0.51539  1.0000
  N   N13       1.0  0.25510  0.24538  0.47328  1.0000
  C   C209      1.0  0.38870  0.97798  0.68956  1.0000
  C   C210      1.0  0.28495  0.25523  0.51196  1.0000
  H   H368      1.0  0.22224  0.23580  0.58060  1.0000
  H   H369      1.0  0.09814  0.06060  0.66891  1.0000
  S   S49       1.0  0.40142  0.16837  0.66930  1.0000
  H   H370      1.0  0.36834  0.18906  0.58136  1.0000
  H   H371      1.0  0.30496  0.05840  0.50207  1.0000
  H   H372      1.0  0.25268  0.02802  0.51693  1.0000
  H   H373      1.0  0.44417  0.39656  0.63169  1.0000
  H   H374      1.0  0.50716  0.25255  0.62882  1.0000
  H   H375      1.0  0.51765  0.08318  0.62496  1.0000
  C   C211      1.0  0.38809  0.01369  0.68267  1.0000
  C   C212      1.0  0.15037  0.32839  0.67253  1.0000
  H   H376      1.0  0.13197  0.30972  0.64678  1.0000
  H   H377      1.0  0.38263  0.05715  0.62801  1.0000
  H   H378      1.0  0.40197  0.31189  0.62686  1.0000
  C   C213      1.0  0.05328  0.21876  0.54035  1.0000
  H   H379      1.0  0.46539  0.06359  0.62693  1.0000
  C   C214      1.0  0.07842  0.44772  0.63995  1.0000
  H   H380      1.0  0.44979  0.25115  0.65950  1.0000
  H   H381      1.0  0.14711  0.03838  0.66154  1.0000
  S   S50       1.0  0.25560  0.19606  0.65386  1.0000
  H   H382      1.0  0.04484  0.20252  0.58188  1.0000
  C   C215      1.0  0.36158  0.17734  0.66653  1.0000
  Fe  Fe27      1.0  0.16709  0.98562  0.48740  1.0000
  C   C216      1.0  0.52805  0.33302  0.68942  1.0000
  N   N14       1.0  0.25879  0.99599  0.68100  1.0000
  C   C217      1.0  0.17565  0.09499  0.68443  1.0000
  H   H383      1.0  0.39038  0.27347  0.68320  1.0000
  H   H384      1.0  0.04695  0.31828  0.58503  1.0000
  S   S51       1.0  0.11140  0.36934  0.45697  1.0000
  C   C218      1.0  0.29386  0.03114  0.69543  1.0000
  H   H385      1.0  0.54130  0.27626  0.52987  1.0000
  H   H386      1.0  0.48915  0.20930  0.70117  1.0000
  C   C219      1.0  0.52433  0.80230  0.70901  1.0000
  C   C220      1.0  0.21221  0.89222  0.93722  1.0000
  C   C221      1.0  0.07277  0.53130  0.79672  1.0000
  C   C222      1.0  0.32710  0.69439  0.80942  1.0000
  H   H387      1.0  0.07281  0.50614  0.82014  1.0000
  C   C223      1.0  0.18549  0.60424  0.74174  1.0000
  Fe  Fe28      1.0  0.23373  0.48516  0.73385  1.0000
  H   H388      1.0  0.19197  0.69620  0.82754  1.0000
  C   C224      1.0  0.49988  0.69712  0.84472  1.0000
  H   H389      1.0  0.21654  0.61168  0.74140  1.0000
  C   C225      1.0  0.16790  0.48501  0.93773  1.0000
  Fe  Fe29      1.0  0.24301  0.51488  0.83726  1.0000
  C   C226      1.0  0.14284  0.47798  0.89889  1.0000
  H   H390      1.0  0.26871  0.76725  0.89067  1.0000
  H   H391      1.0  0.47783  0.69831  0.92303  1.0000
  H   H392      1.0  0.53591  0.96780  0.75377  1.0000
  H   H393      1.0  0.26041  0.91312  0.87406  1.0000
  C   C227      1.0  0.37955  0.59658  0.90373  1.0000
  C   C228      1.0  0.40134  0.67931  0.91942  1.0000
  H   H394      1.0  0.25991  0.67376  0.87047  1.0000
  H   H395      1.0  0.49198  0.62247  0.80897  1.0000
  C   C229      1.0  0.35881  0.48178  0.85287  1.0000
  H   H396      1.0  0.09499  0.60319  0.91081  1.0000
  C   C230      1.0  0.51534  0.63128  0.72636  1.0000
  H   H397      1.0  0.20926  0.70658  0.73024  1.0000
  C   C231      1.0  0.42130  0.50572  0.79979  1.0000
  C   C232      1.0  0.09404  0.56908  0.80955  1.0000
  C   C233      1.0  0.23846  0.73122  0.73422  1.0000
  C   C234      1.0  0.42523  0.71461  0.79650  1.0000
  C   C235      1.0  0.07343  0.59650  0.73557  1.0000
  C   C236      1.0  0.22187  0.71755  0.83428  1.0000
  C   C237      1.0  0.34444  0.73381  0.78338  1.0000
  S   S52       1.0  0.21558  0.52520  0.76671  1.0000
  C   C238      1.0  0.38520  0.50450  0.80699  1.0000
  H   H398      1.0  0.10814  0.48661  0.72497  1.0000
  C   C239      1.0  0.07769  0.57928  0.94553  1.0000
  H   H399      1.0  0.16007  0.91863  0.79058  1.0000
  C   C240      1.0  0.19212  0.73446  0.93649  1.0000
  C   C241      1.0  0.19792  0.63261  0.87514  1.0000
  H   H400      1.0  0.29234  0.74155  0.87143  1.0000
  H   H401      1.0  0.35778  0.60057  0.92761  1.0000
  C   C242      1.0  0.05320  0.55914  0.72184  1.0000
  S   S53       1.0  0.21896  0.50808  0.92139  1.0000
  H   H402      1.0  0.45562  0.73748  0.79780  1.0000
  H   H403      1.0  0.47726  0.80132  0.83896  1.0000
  C   C243      1.0  0.09476  0.60189  0.77854  1.0000
  H   H404      1.0  0.14628  0.90127  0.92931  1.0000
  C   C244      1.0  0.43124  0.48436  0.83807  1.0000
  H   H405      1.0  0.17713  0.57051  0.87304  1.0000
  H   H406      1.0  0.35513  0.77245  0.70887  1.0000
  H   H407      1.0  0.15472  0.48719  0.85749  1.0000
  C   C245      1.0  0.27302  0.94192  0.72865  1.0000
  S   S54       1.0  0.39958  0.96021  0.74920  1.0000
  C   C246      1.0  0.19585  0.69780  0.92855  1.0000
  H   H408      1.0  0.30067  0.96240  0.74246  1.0000
  S   S55       1.0  0.30258  0.56676  0.80668  1.0000
  S   S56       1.0  0.44410  0.88716  0.78014  1.0000
  H   H409      1.0  0.20315  0.58699  0.92810  1.0000
  C   C247      1.0  0.41547  0.67349  0.82679  1.0000
  H   H410      1.0  0.49257  0.85246  0.81259  1.0000
  H   H411      1.0  0.18302  0.63099  0.74465  1.0000
  C   C248      1.0  0.30940  0.67206  0.72635  1.0000
  S   S57       1.0  0.37431  0.53178  0.75763  1.0000
  C   C249      1.0  0.34306  0.74225  0.72911  1.0000
  N   N15       1.0  0.42734  0.67226  0.88160  1.0000
  H   H412      1.0  0.50149  0.77342  0.72816  1.0000
  H   H413      1.0  0.42230  0.90643  0.92606  1.0000
  C   C250      1.0  0.30923  0.66358  0.78105  1.0000
  H   H414      1.0  0.44170  0.52302  0.76444  1.0000
  Fe  Fe30      1.0  0.41380  0.91371  0.73130  1.0000
  H   H415      1.0  0.14828  0.95728  0.76855  1.0000
  C   C251      1.0  0.48570  0.83064  0.84936  1.0000
  H   H416      1.0  0.37102  0.66668  0.90862  1.0000
  H   H417      1.0  0.28061  0.74795  0.78845  1.0000
  H   H418      1.0  0.42192  0.74242  0.71980  1.0000
  H   H419      1.0  0.16747  0.67667  0.91670  1.0000
  Fe  Fe31      1.0  0.31428  0.52466  0.76946  1.0000
  C   C252      1.0  0.52137  0.84452  0.87900  1.0000
  H   H420      1.0  0.35625  0.71487  0.94027  1.0000
  C   C253      1.0  0.24782  0.89128  0.91179  1.0000
  S   S58       1.0  0.36566  0.85564  0.71879  1.0000
  H   H421      1.0  0.39042  0.68956  0.73420  1.0000
  H   H422      1.0  0.53079  0.87551  0.88267  1.0000
  Fe  Fe32      1.0  0.12391  0.69331  0.72407  1.0000
  H   H423      1.0  0.49689  0.58175  0.79170  1.0000
  H   H424      1.0  0.06453  0.55041  0.93195  1.0000
  H   H425      1.0  0.22220  0.74632  0.83080  1.0000
  H   H426      1.0  0.24806  0.93143  0.76015  1.0000
  S   S59       1.0  0.09470  0.80746  0.70890  1.0000
  H   H427      1.0  0.40532  0.72369  0.81394  1.0000
  H   H428      1.0  0.39864  0.55253  0.90517  1.0000
  H   H429      1.0  0.33080  0.48079  0.85856  1.0000
  Fe  Fe33      1.0  0.27605  0.57441  0.73418  1.0000
  H   H430      1.0  0.07224  0.62101  0.71269  1.0000
  H   H431      1.0  0.11084  0.57298  0.84240  1.0000
  Fe  Fe34      1.0  0.47801  0.89365  0.70289  1.0000
  C   C254      1.0  0.27632  0.90574  0.71976  1.0000
  H   H432      1.0  0.24866  0.88320  0.70808  1.0000
  C   C255      1.0  0.25127  0.72260  0.78726  1.0000
  H   H433      1.0  0.23413  0.65758  0.93464  1.0000
  H   H434      1.0  0.49395  0.83170  0.73309  1.0000
  C   C256      1.0  0.51057  0.61448  0.78520  1.0000
  H   H435      1.0  0.34747  0.53273  0.92638  1.0000
  H   H436      1.0  0.32781  0.68768  0.85144  1.0000
  S   S60       1.0  0.36830  0.77227  0.81869  1.0000
  H   H437      1.0  0.22969  0.60075  0.86226  1.0000
  H   H438      1.0  0.45964  0.48638  0.83236  1.0000
  H   H439      1.0  0.45350  0.59021  0.72519  1.0000
  H   H440      1.0  0.23717  0.75914  0.73057  1.0000
  H   H441      1.0  0.44295  0.71045  0.71761  1.0000
  H   H442      1.0  0.48413  0.59004  0.91508  1.0000
  H   H443      1.0  0.46047  0.82837  0.87430  1.0000
  C   C257      1.0  0.20239  0.59560  0.88535  1.0000
  H   H444      1.0  0.28206  0.89228  0.75682  1.0000
  C   C258      1.0  0.43416  0.88601  0.93622  1.0000
  C   C259      1.0  0.42163  0.63144  0.90115  1.0000
  C   C260      1.0  0.15215  0.93304  0.75667  1.0000
  C   C261      1.0  0.47015  0.70127  0.88204  1.0000
  H   H445      1.0  0.37136  0.59394  0.86331  1.0000
  H   H446      1.0  0.22241  0.92276  0.94398  1.0000
  H   H447      1.0  0.25389  0.69564  0.78771  1.0000
  C   C262      1.0  0.41520  0.72281  0.92562  1.0000
  H   H448      1.0  0.44062  0.62496  0.87543  1.0000
  H   H449      1.0  0.16839  0.58113  0.77717  1.0000
  H   H450      1.0  0.38316  0.65460  0.82848  1.0000
  H   H451      1.0  0.29530  0.63337  0.80161  1.0000
  H   H452      1.0  0.34105  0.77635  0.93230  1.0000
  C   C263      1.0  0.18389  0.94905  0.70885  1.0000
  H   H453      1.0  0.18737  0.74844  0.89908  1.0000
  C   C264      1.0  0.51996  0.83537  0.71121  1.0000
  H   H454      1.0  0.05277  0.93269  0.83307  1.0000
  Fe  Fe35      1.0  0.39873  0.82962  0.76098  1.0000
  H   H455      1.0  0.19687  0.63951  0.83232  1.0000
  H   H456      1.0  0.09474  0.84601  0.89377  1.0000
  C   C265      1.0  0.26791  0.73821  0.89923  1.0000
  H   H457      1.0  0.49091  0.69314  0.80491  1.0000
  H   H458      1.0  0.44175  0.73413  0.94607  1.0000
  H   H459      1.0  0.51189  0.82561  0.91884  1.0000
  C   C266      1.0  0.41967  0.71397  0.73841  1.0000
  H   H460      1.0  0.54037  0.75843  0.81045  1.0000
  H   H461      1.0  0.08217  0.88428  0.89850  1.0000
  H   H462      1.0  0.12383  0.91055  0.74653  1.0000
  H   H463      1.0  0.42809  0.66010  0.80192  1.0000
  C   C267      1.0  0.08673  0.86102  0.92175  1.0000
  H   H464      1.0  0.50266  0.67127  0.86228  1.0000
  S   S61       1.0  0.12365  0.64981  0.79166  1.0000
  H   H465      1.0  0.47641  0.73230  0.87199  1.0000
  C   C268      1.0  0.05283  0.52652  0.75231  1.0000
  H   H466      1.0  0.42255  0.74265  0.88709  1.0000
  S   S62       1.0  0.06741  0.69399  0.71815  1.0000
  H   H467      1.0  0.16939  0.62525  0.89645  1.0000
  C   C269      1.0  0.54061  0.73352  0.83650  1.0000
  N   N16       1.0  0.22952  0.70544  0.88878  1.0000
  H   H468      1.0  0.23926  0.86147  0.90290  1.0000
  H   H469      1.0  0.52862  0.56483  0.88854  1.0000
  H   H470      1.0  0.19088  0.88525  0.90827  1.0000
  C   C270      1.0  0.23227  0.66803  0.89307  1.0000
  H   H471      1.0  0.46642  0.90338  0.93575  1.0000
  H   H472      1.0  0.42824  0.86725  0.90555  1.0000
  H   H473      1.0  0.05867  0.83921  0.94689  1.0000
  H   H474      1.0  0.45858  0.54477  0.89116  1.0000
  H   H475      1.0  0.27084  0.89908  0.93848  1.0000
  C   C271      1.0  0.47445  0.55795  0.92374  1.0000
  H   H476      1.0  0.43062  0.62971  0.94141  1.0000
  H   H477      1.0  0.49855  0.51882  0.93392  1.0000
  C   C272      1.0  0.37708  0.55745  0.92798  1.0000
  C   C273      1.0  0.50966  0.55124  0.92729  1.0000
  H   H478      1.0  0.21869  0.75683  0.95033  1.0000
  H   H479      1.0  0.46490  0.63921  0.72748  1.0000
  H   H480      1.0  0.53975  0.62656  0.79922  1.0000
  C   C274      1.0  0.04245  0.95271  0.81382  1.0000
  C   C275      1.0  0.47508  0.62147  0.70793  1.0000
  H   H481      1.0  0.53055  0.61907  0.70410  1.0000
  H   H482      1.0  0.53458  0.66389  0.72042  1.0000
  H   H483      1.0  0.20808  0.63945  0.02916  1.0000
  H   H484      1.0  0.40823  0.50707  0.10469  1.0000
  H   H485      1.0  0.49142  0.51776  0.10453  1.0000
  H   H486      1.0  0.28064  0.49452  0.96574  1.0000
  H   H487      1.0  0.32582  0.67055  0.11865  1.0000
  H   H488      1.0  0.21696  0.86479  0.01403  1.0000
  S   S63       1.0  0.53380  0.90028  0.98294  1.0000
  H   H489      1.0  0.19504  0.96375  0.09062  1.0000
  C   C276      1.0  0.54091  0.49660  0.01162  1.0000
  S   S64       1.0  0.43619  0.68611  0.05098  1.0000
  C   C277      1.0  0.28085  0.49115  0.00914  1.0000
  C   C278      1.0  0.43802  0.51607  0.08523  1.0000
  H   H490      1.0  0.39438  0.75805  0.96010  1.0000
  H   H491      1.0  0.50535  0.95910  0.99665  1.0000
  H   H492      1.0  0.45214  0.54752  0.06509  1.0000
  C   C279      1.0  0.13480  0.78922  0.06814  1.0000
  H   H493      1.0  0.07258  0.51884  0.02268  1.0000
  H   H494      1.0  0.15926  0.78605  0.05030  1.0000
  H   H495      1.0  0.34451  0.86275  0.01764  1.0000
  C   C280      1.0  0.32285  0.51529  0.18975  1.0000
  H   H496      1.0  0.12800  0.51678  0.05572  1.0000
  S   S65       1.0  0.32495  0.62597  0.03705  1.0000
  C   C281      1.0  0.34973  0.94479  0.18723  1.0000
  Fe  Fe36      1.0  0.44295  0.69110  0.13590  1.0000
  H   H497      1.0  0.46076  0.94482  0.08301  1.0000
  H   H498      1.0  0.41898  0.93749  0.12538  1.0000
  C   C282      1.0  0.46910  0.94742  0.16397  1.0000
  C   C283      1.0  0.42407  0.88423  0.03548  1.0000
  C   C284      1.0  0.19205  0.53319  0.10198  1.0000
  C   C285      1.0  0.15213  0.47332  0.99122  1.0000
  C   C286      1.0  0.31837  0.94290  0.16160  1.0000
  C   C287      1.0  0.47135  0.78848  0.06673  1.0000
  S   S66       1.0  0.12909  0.89735  0.16761  1.0000
  C   C288      1.0  0.52105  0.82682  0.11855  1.0000
  C   C289      1.0  0.41439  0.85969  0.99038  1.0000
  H   H499      1.0  0.38274  0.84243  0.98825  1.0000
  H   H500      1.0  0.15375  0.74882  0.98097  1.0000
  H   H501      1.0  0.42151  0.91113  0.02213  1.0000
  C   C290      1.0  0.48508  0.82209  0.02682  1.0000
  C   C291      1.0  0.53854  0.67130  0.98523  1.0000
  Fe  Fe37      1.0  0.06839  0.88290  0.15064  1.0000
  C   C292      1.0  0.10014  0.63985  0.13164  1.0000
  H   H502      1.0  0.45389  0.54403  0.96125  1.0000
  C   C293      1.0  0.27925  0.73248  0.95536  1.0000
  C   C294      1.0  0.27430  0.67717  0.11432  1.0000
  C   C295      1.0  0.51681  0.85811  0.03272  1.0000
  C   C296      1.0  0.29485  0.84469  0.07413  1.0000
  H   H503      1.0  0.28045  0.69455  0.14504  1.0000
  C   C297      1.0  0.33337  0.84550  0.05855  1.0000
  Fe  Fe38      1.0  0.37555  0.63681  0.08243  1.0000
  H   H504      1.0  0.28782  0.52805  0.06853  1.0000
  H   H505      1.0  0.25581  0.72680  0.98682  1.0000
  S   S67       1.0  0.46683  0.64899  0.14812  1.0000
  H   H506      1.0  0.21299  0.53970  0.13151  1.0000
  H   H507      1.0  0.35484  0.74014  0.12855  1.0000
  H   H508      1.0  0.45589  0.89478  0.03737  1.0000
  H   H509      1.0  0.27357  0.83010  0.04677  1.0000
  H   H510      1.0  0.16212  0.71130  0.01745  1.0000
  H   H511      1.0  0.43494  0.49747  0.05496  1.0000
  H   H512      1.0  0.31143  0.79485  0.96094  1.0000
  H   H513      1.0  0.42187  0.82128  0.09676  1.0000
  C   C298      1.0  0.48945  0.79078  0.11261  1.0000
  C   C299      1.0  0.11916  0.87978  0.95609  1.0000
  C   C300      1.0  0.53138  0.54406  0.19208  1.0000
  H   H514      1.0  0.07669  0.64789  0.13687  1.0000
  H   H515      1.0  0.27175  0.48656  0.15123  1.0000
  H   H516      1.0  0.33945  0.79073  0.15776  1.0000
  H   H517      1.0  0.17805  0.57623  0.12462  1.0000
  C   C301      1.0  0.10442  0.58019  0.98726  1.0000
  Fe  Fe39      1.0  0.21518  0.70891  0.18172  1.0000
  H   H518      1.0  0.09685  0.83189  0.02152  1.0000
  C   C302      1.0  0.29281  0.64199  0.05844  1.0000
  H   H519      1.0  0.51476  0.49806  0.02642  1.0000
  C   C303      1.0  0.28406  0.90654  0.16609  1.0000
  H   H520      1.0  0.05288  0.54669  0.04657  1.0000
  C   C304      1.0  0.08105  0.54723  0.03639  1.0000
  H   H521      1.0  0.14160  0.61302  0.07440  1.0000
  H   H522      1.0  0.45103  0.87848  0.13269  1.0000
  C   C305      1.0  0.31646  0.76912  0.96307  1.0000
  H   H523      1.0  0.39752  0.66291  0.96014  1.0000
  H   H524      1.0  0.11074  0.89644  0.98080  1.0000
  C   C306      1.0  0.28635  0.52927  0.02546  1.0000
  H   H525      1.0  0.17842  0.92430  0.99813  1.0000
  H   H526      1.0  0.38267  0.55717  0.96991  1.0000
  C   C307      1.0  0.06291  0.47428  0.12437  1.0000
  S   S68       1.0  0.20944  0.68682  0.10445  1.0000
  H   H527      1.0  0.14671  0.90083  0.05819  1.0000
  S   S69       1.0  0.49033  0.63263  0.00206  1.0000
  H   H528      1.0  0.32665  0.81452  0.05945  1.0000
  C   C308      1.0  0.12006  0.76218  0.12237  1.0000
  H   H529      1.0  0.08459  0.52248  0.16770  1.0000
  H   H530      1.0  0.20899  0.54940  0.06234  1.0000
  H   H531      1.0  0.29968  0.87522  0.07238  1.0000
  C   C309      1.0  0.12641  0.85390  0.20134  1.0000
  H   H532      1.0  0.10962  0.73103  0.11798  1.0000
  H   H533      1.0  0.28709  0.60146  0.19042  1.0000
  C   C310      1.0  0.53226  0.56909  0.97312  1.0000
  S   S70       1.0  0.05522  0.92700  0.10394  1.0000
  H   H534      1.0  0.17719  0.50093  0.10209  1.0000
  C   C311      1.0  0.11592  0.58896  0.10188  1.0000
  H   H535      1.0  0.07535  0.60814  0.06964  1.0000
  H   H536      1.0  0.51282  0.55250  0.01106  1.0000
  H   H537      1.0  0.12774  0.57549  0.96897  1.0000
  C   C312      1.0  0.12425  0.84781  0.99253  1.0000
  H   H538      1.0  0.44741  0.47850  0.14399  1.0000
  H   H539      1.0  0.30679  0.48823  0.01831  1.0000
  H   H540      1.0  0.05848  0.57914  0.13545  1.0000
  Fe  Fe40      1.0  0.40402  0.60219  0.17265  1.0000
  H   H541      1.0  0.18319  0.83211  0.97755  1.0000
  H   H542      1.0  0.09528  0.76387  0.14227  1.0000
  S   S71       1.0  0.47284  0.74926  0.16321  1.0000
  H   H543      1.0  0.53557  0.59894  0.97060  1.0000
  C   C313      1.0  0.25954  0.63323  0.03333  1.0000
  H   H544      1.0  0.12969  0.69952  0.96695  1.0000
  H   H545      1.0  0.25385  0.61629  0.00186  1.0000
  H   H546      1.0  0.28214  0.82768  0.11487  1.0000
  H   H547      1.0  0.14329  0.52572  0.15332  1.0000
  H   H548      1.0  0.11824  0.61015  0.99726  1.0000
  C   C314      1.0  0.29026  0.48237  0.17810  1.0000
  H   H549      1.0  0.49345  0.94047  0.16298  1.0000
  H   H550      1.0  0.34885  0.85308  0.13741  1.0000
  H   H551      1.0  0.10928  0.63526  0.17097  1.0000
  Fe  Fe41      1.0  0.45506  0.64052  0.06545  1.0000
  C   C315      1.0  0.14929  0.83307  0.07288  1.0000
  H   H552      1.0  0.07426  0.96491  0.97551  1.0000
  H   H553      1.0  0.32485  0.76329  0.00258  1.0000
  H   H554      1.0  0.44629  0.76107  0.06252  1.0000
  C   C316      1.0  0.19340  0.86142  0.98927  1.0000
  H   H555      1.0  0.12276  0.82558  0.96868  1.0000
  H   H556      1.0  0.14397  0.77071  0.14758  1.0000
  C   C317      1.0  0.21977  0.96252  0.06956  1.0000
  C   C318      1.0  0.13708  0.54463  0.07097  1.0000
  H   H557      1.0  0.17134  0.47900  0.02123  1.0000
  H   H558      1.0  0.38369  0.80935  0.18845  1.0000
  N   N17       1.0  0.16021  0.86180  0.02113  1.0000
  H   H559      1.0  0.11047  0.77816  0.04380  1.0000
  C   C319      1.0  0.16187  0.54571  0.11643  1.0000
  H   H560      1.0  0.42511  0.83815  0.99700  1.0000
  S   S72       1.0  0.21658  0.76620  0.18704  1.0000
  H   H561      1.0  0.48392  0.56745  0.14695  1.0000
  C   C320      1.0  0.20803  0.91997  0.06451  1.0000
  C   C321      1.0  0.07352  0.51727  0.12907  1.0000
  C   C322      1.0  0.36991  0.79566  0.15485  1.0000
  H   H562      1.0  0.25941  0.90495  0.14731  1.0000
  H   H563      1.0  0.23391  0.92056  0.04397  1.0000
  H   H564      1.0  0.15772  0.56850  0.03800  1.0000
  C   C323      1.0  0.39336  0.82126  0.10047  1.0000
  H   H565      1.0  0.19711  0.68299  0.96798  1.0000
  H   H566      1.0  0.37789  0.70997  0.99951  1.0000
  C   C324      1.0  0.44275  0.92985  0.12216  1.0000
  H   H567      1.0  0.47122  0.81994  0.99136  1.0000
  C   C325      1.0  0.17192  0.90207  0.03425  1.0000
  H   H568      1.0  0.37693  0.80452  0.07047  1.0000
  C   C326      1.0  0.23372  0.64640  0.04865  1.0000
  S   S73       1.0  0.39412  0.59068  0.09042  1.0000
  H   H569      1.0  0.12608  0.83405  0.09861  1.0000
  H   H570      1.0  0.31427  0.55440  0.00417  1.0000
  H   H571      1.0  0.26214  0.53500  0.01507  1.0000
  S   S74       1.0  0.38070  0.64474  0.16686  1.0000
  H   H572      1.0  0.12549  0.66480  0.10490  1.0000
  H   H573      1.0  0.17463  0.84145  0.09563  1.0000
  C   C327      1.0  0.36770  0.75521  0.16170  1.0000
  N   N18       1.0  0.10204  0.54963  0.08449  1.0000
  H   H574      1.0  0.20137  0.90284  0.10522  1.0000
  H   H575      1.0  0.53521  0.82872  0.15392  1.0000
  C   C328      1.0  0.46277  0.51024  0.12595  1.0000
  C   C329      1.0  0.24119  0.66871  0.08881  1.0000
  C   C330      1.0  0.08461  0.60217  0.10834  1.0000
  H   H576      1.0  0.12719  0.58834  0.14075  1.0000
  C   C331      1.0  0.36362  0.86559  0.09600  1.0000
  C   C332      1.0  0.30012  0.66377  0.09917  1.0000
  N   N19       1.0  0.40096  0.86340  0.08987  1.0000
  C   C333      1.0  0.42579  0.88426  0.13061  1.0000
  H   H577      1.0  0.37011  0.89687  0.08953  1.0000
  C   C334      1.0  0.53494  0.86031  0.07849  1.0000
  H   H578      1.0  0.39743  0.75850  0.16296  1.0000
  H   H579      1.0  0.32931  0.54469  0.17160  1.0000
  H   H580      1.0  0.40860  0.87255  0.17086  1.0000
  H   H581      1.0  0.28525  0.70734  0.96107  1.0000
  H   H582      1.0  0.53233  0.52577  0.16319  1.0000
  C   C335      1.0  0.46832  0.53624  0.16840  1.0000
  C   C336      1.0  0.15724  0.72264  0.97807  1.0000
  H   H583      1.0  0.05392  0.58425  0.96163  1.0000
  H   H584      1.0  0.04553  0.51798  0.13336  1.0000
  H   H585      1.0  0.37567  0.97279  0.18620  1.0000
  H   H586      1.0  0.43875  0.53086  0.18380  1.0000
  H   H587      1.0  0.51180  0.61164  0.19684  1.0000
  C   C337      1.0  0.28180  0.87204  0.19442  1.0000
  C   C338      1.0  0.38387  0.72644  0.95840  1.0000
  H   H588      1.0  0.18888  0.87881  0.20088  1.0000
  H   H589      1.0  0.34910  0.73639  0.19943  1.0000
  H   H590      1.0  0.25525  0.84425  0.19796  1.0000
  H   H591      1.0  0.22731  0.53846  0.22358  1.0000
  C   C339      1.0  0.34588  0.51021  0.22642  1.0000
  H   H592      1.0  0.06354  0.63334  0.42963  1.0000
  H   H593      1.0  0.04235  0.56354  0.41947  1.0000
  H   H594      1.0  0.52941  0.89901  0.40014  1.0000
  H   H595      1.0  0.39680  0.95057  0.30325  1.0000
  H   H596      1.0  0.08223  0.86432  0.31186  1.0000
  H   H597      1.0  0.21382  0.47647  0.21977  1.0000
  H   H598      1.0  0.09202  0.64918  0.30974  1.0000
  H   H599      1.0  0.22290  0.69123  0.45179  1.0000
  H   H600      1.0  0.04342  0.54840  0.32392  1.0000
  C   C340      1.0  0.36031  0.91587  0.37824  1.0000
  C   C341      1.0  0.16053  0.85247  0.21169  1.0000
  C   C342      1.0  0.25323  0.95882  0.24402  1.0000
  S   S75       1.0  0.04873  0.94542  0.39345  1.0000
  H   H601      1.0  0.15772  0.92780  0.34399  1.0000
  C   C343      1.0  0.25229  0.54681  0.24685  1.0000
  C   C344      1.0  0.47060  0.48792  0.24046  1.0000
  H   H602      1.0  0.28348  0.96431  0.24789  1.0000
  H   H603      1.0  0.45720  0.54962  0.26166  1.0000
  H   H604      1.0  0.14753  0.67518  0.37287  1.0000
  N   N20       1.0  0.21491  0.48771  0.32585  1.0000
  H   H605      1.0  0.27082  0.53469  0.23365  1.0000
  C   C345      1.0  0.28450  0.95001  0.40789  1.0000
  H   H606      1.0  0.24667  0.89600  0.34193  1.0000
  C   C346      1.0  0.26502  0.88191  0.35024  1.0000
  S   S76       1.0  0.31436  0.83055  0.24643  1.0000
  C   C347      1.0  0.27492  0.88354  0.40773  1.0000
  S   S77       1.0  0.21418  0.74373  0.31620  1.0000
  H   H607      1.0  0.51503  0.92790  0.43490  1.0000
  S   S78       1.0  0.26145  0.71807  0.23482  1.0000
  H   H608      1.0  0.25948  0.82410  0.34864  1.0000
  Fe  Fe42      1.0  0.21184  0.68769  0.30150  1.0000
  C   C348      1.0  0.34788  0.91020  0.21413  1.0000
  H   H609      1.0  0.30357  0.60204  0.25457  1.0000
  S   S79       1.0  0.09421  0.48842  0.26513  1.0000
  H   H610      1.0  0.28613  0.86270  0.41900  1.0000
  C   C349      1.0  0.13819  0.91303  0.31499  1.0000
  H   H611      1.0  0.41908  0.48481  0.28416  1.0000
  C   C350      1.0  0.34149  0.94260  0.38264  1.0000
  C   C351      1.0  0.09983  0.87743  0.34336  1.0000
  S   S80       1.0  0.11698  0.73690  0.27630  1.0000
  C   C352      1.0  0.51468  0.60039  0.23735  1.0000
  C   C353      1.0  0.04413  0.78622  0.37536  1.0000
  H   H612      1.0  0.06354  0.82058  0.20761  1.0000
  H   H613      1.0  0.45191  0.93572  0.20414  1.0000
  H   H614      1.0  0.12685  0.56487  0.40852  1.0000
  H   H615      1.0  0.19338  0.53086  0.39563  1.0000
  C   C354      1.0  0.05212  0.82206  0.44998  1.0000
  C   C355      1.0  0.08748  0.78582  0.44078  1.0000
  H   H616      1.0  0.48459  0.48505  0.27617  1.0000
  H   H617      1.0  0.16441  0.56133  0.22340  1.0000
  H   H618      1.0  0.22692  0.49156  0.40677  1.0000
  C   C356      1.0  0.13512  0.56385  0.36829  1.0000
  H   H619      1.0  0.42113  0.96376  0.36090  1.0000
  H   H620      1.0  0.18427  0.81518  0.24225  1.0000
  C   C357      1.0  0.10513  0.76627  0.40777  1.0000
  C   C358      1.0  0.31417  0.87367  0.21705  1.0000
  H   H621      1.0  0.36360  0.96940  0.39631  1.0000
  H   H622      1.0  0.08341  0.50859  0.36688  1.0000
  N   N21       1.0  0.48953  0.53072  0.21349  1.0000
  H   H623      1.0  0.13218  0.67096  0.44181  1.0000
  H   H624      1.0  0.24463  0.94825  0.20639  1.0000
  H   H625      1.0  0.24624  0.87057  0.43321  1.0000
  H   H626      1.0  0.05894  0.75797  0.25065  1.0000
  C   C359      1.0  0.15580  0.56200  0.26353  1.0000
  N   N22       1.0  0.30286  0.92394  0.41835  1.0000
  H   H627      1.0  0.49422  0.54525  0.29249  1.0000
  H   H628      1.0  0.15109  0.49056  0.37683  1.0000
  H   H629      1.0  0.50820  0.61271  0.31630  1.0000
  H   H630      1.0  0.48712  0.91884  0.35139  1.0000
  H   H631      1.0  0.44830  0.89381  0.40652  1.0000
  C   C360      1.0  0.48765  0.55492  0.25334  1.0000
  H   H632      1.0  0.21400  0.82264  0.37048  1.0000
  C   C361      1.0  0.47392  0.89392  0.38575  1.0000
  H   H633      1.0  0.08684  0.67941  0.38348  1.0000
  H   H634      1.0  0.26189  0.54621  0.32936  1.0000
  C   C362      1.0  0.12127  0.78251  0.24937  1.0000
  H   H635      1.0  0.23273  0.93521  0.27719  1.0000
  Fe  Fe43      1.0  0.25971  0.77344  0.24469  1.0000
  C   C363      1.0  0.12464  0.65635  0.40686  1.0000
  H   H636      1.0  0.13757  0.73458  0.41848  1.0000
  H   H637      1.0  0.29165  0.89709  0.32049  1.0000
  C   C364      1.0  0.07299  0.62799  0.34600  1.0000
  H   H638      1.0  0.28276  0.95596  0.36482  1.0000
  C   C365      1.0  0.15798  0.81659  0.23520  1.0000
  H   H639      1.0  0.47417  0.61644  0.27374  1.0000
  H   H640      1.0  0.12207  0.83746  0.34791  1.0000
  C   C366      1.0  0.50478  0.62222  0.27510  1.0000
  Fe  Fe44      1.0  0.17129  0.73303  0.25820  1.0000
  C   C367      1.0  0.24169  0.83913  0.34247  1.0000
  C   C368      1.0  0.08482  0.64997  0.39341  1.0000
  C   C369      1.0  0.16950  0.59524  0.33880  1.0000
  C   C370      1.0  0.10774  0.84667  0.37703  1.0000
  C   C371      1.0  0.11083  0.53175  0.34500  1.0000
  H   H641      1.0  0.06023  0.78734  0.33783  1.0000
  H   H642      1.0  0.04484  0.66738  0.28945  1.0000
  H   H643      1.0  0.36486  0.90446  0.41762  1.0000
  H   H644      1.0  0.20548  0.61933  0.26285  1.0000
  C   C372      1.0  0.08731  0.78433  0.24023  1.0000
  H   H645      1.0  0.16735  0.48815  0.28724  1.0000
  H   H646      1.0  0.41232  0.91876  0.33915  1.0000
  H   H647      1.0  0.08473  0.88867  0.36784  1.0000
  H   H648      1.0  0.23427  0.83857  0.30146  1.0000
  C   C373      1.0  0.23679  0.53202  0.30661  1.0000
  C   C374      1.0  0.17936  0.59466  0.28611  1.0000
  H   H649      1.0  0.12420  0.62764  0.41624  1.0000
  C   C375      1.0  0.08990  0.81983  0.21580  1.0000
  C   C376      1.0  0.20123  0.48013  0.38440  1.0000
  H   H650      1.0  0.12983  0.78848  0.37764  1.0000
  S   S81       1.0  0.38697  0.55160  0.24009  1.0000
  H   H651      1.0  0.33859  0.95362  0.34171  1.0000
  S   S82       1.0  0.19882  0.63665  0.36599  1.0000
  H   H652      1.0  0.46366  0.86587  0.37052  1.0000
  H   H653      1.0  0.08199  0.60502  0.35092  1.0000
  C   C377      1.0  0.04246  0.56431  0.28559  1.0000
  H   H654      1.0  0.21755  0.54494  0.31364  1.0000
  H   H655      1.0  0.07330  0.58389  0.26645  1.0000
  H   H656      1.0  0.26956  0.48877  0.33960  1.0000
  C   C378      1.0  0.12179  0.53019  0.29314  1.0000
  H   H657      1.0  0.25538  0.47735  0.27866  1.0000
  H   H658      1.0  0.13163  0.93460  0.29122  1.0000
  H   H659      1.0  0.37286  0.91173  0.23204  1.0000
  C   C379      1.0  0.27722  0.59186  0.23372  1.0000
  H   H660      1.0  0.26004  0.60607  0.24513  1.0000
  H   H661      1.0  0.34162  0.89021  0.35991  1.0000
  C   C380      1.0  0.40007  0.93874  0.34337  1.0000
  H   H662      1.0  0.15362  0.90366  0.28770  1.0000
  S   S83       1.0  0.16572  0.67501  0.24782  1.0000
  H   H663      1.0  0.25345  0.93465  0.42708  1.0000
  H   H664      1.0  0.13053  0.86227  0.40222  1.0000
  H   H665      1.0  0.08265  0.74459  0.38723  1.0000
  C   C381      1.0  0.17559  0.49817  0.40078  1.0000
  H   H666      1.0  0.52481  0.65460  0.26302  1.0000
  N   N23       1.0  0.07277  0.81085  0.41011  1.0000
  C   C382      1.0  0.50447  0.89868  0.42301  1.0000
  C   C383      1.0  0.12140  0.74451  0.44345  1.0000
  C   C384      1.0  0.47309  0.53584  0.60900  1.0000
  H   H667      1.0  0.50022  0.69177  0.65284  1.0000
  C   C385      1.0  0.12412  0.59290  0.53396  1.0000
  H   H668      1.0  0.42640  0.77026  0.62358  1.0000
  H   H669      1.0  0.46887  0.84118  0.57645  1.0000
  C   C386      1.0  0.15359  0.84911  0.62681  1.0000
  H   H670      1.0  0.46941  0.76475  0.63166  1.0000
  H   H671      1.0  0.34684  0.83493  0.47669  1.0000
  Fe  Fe45      1.0  0.16279  0.74961  0.61610  1.0000
  H   H672      1.0  0.18202  0.48768  0.48436  1.0000
  H   H673      1.0  0.43578  0.54719  0.65891  1.0000
  H   H674      1.0  0.25998  0.73458  0.70135  1.0000
  C   C387      1.0  0.50276  0.68790  0.56918  1.0000
  H   H675      1.0  0.44729  0.94219  0.45808  1.0000
  H   H676      1.0  0.24981  0.79245  0.63659  1.0000
  N   N24       1.0  0.51465  0.86430  0.51002  1.0000
  H   H677      1.0  0.52829  0.74953  0.57811  1.0000
  C   C388      1.0  0.41779  0.64470  0.65791  1.0000
  C   C389      1.0  0.32577  0.71145  0.70062  1.0000
  H   H678      1.0  0.06809  0.86641  0.56170  1.0000
  H   H679      1.0  0.11864  0.57267  0.61732  1.0000
  H   H680      1.0  0.34957  0.49739  0.65961  1.0000
  C   C390      1.0  0.53816  0.90423  0.52511  1.0000
  H   H681      1.0  0.14241  0.76436  0.46744  1.0000
  C   C391      1.0  0.16616  0.91056  0.57230  1.0000
  C   C392      1.0  0.05405  0.49416  0.48983  1.0000
  C   C393      1.0  0.51411  0.92158  0.54906  1.0000
  C   C394      1.0  0.44753  0.76282  0.60472  1.0000
  C   C395      1.0  0.13607  0.91044  0.60418  1.0000
  S   S84       1.0  0.20874  0.77812  0.54446  1.0000
  S   S85       1.0  0.45164  0.92522  0.65561  1.0000
  C   C396      1.0  0.38223  0.95724  0.64770  1.0000
  C   C397      1.0  0.33585  0.47745  0.63112  1.0000
  H   H682      1.0  0.06207  0.91986  0.63091  1.0000
  C   C398      1.0  0.23250  0.70621  0.48616  1.0000
  H   H683      1.0  0.19340  0.50534  0.60596  1.0000
  H   H684      1.0  0.17665  0.56314  0.54456  1.0000
  C   C399      1.0  0.31066  0.91977  0.47511  1.0000
  H   H685      1.0  0.18724  0.92392  0.69956  1.0000
  H   H686      1.0  0.12084  0.56480  0.52449  1.0000
  H   H687      1.0  0.10468  0.86801  0.47705  1.0000
  H   H688      1.0  0.06942  0.49972  0.56772  1.0000
  H   H689      1.0  0.25886  0.88827  0.60283  1.0000
  H   H690      1.0  0.25867  0.92040  0.51136  1.0000
  S   S86       1.0  0.43439  0.83461  0.68683  1.0000
  C   C400      1.0  0.16965  0.58866  0.69214  1.0000
  C   C401      1.0  0.49112  0.83437  0.55942  1.0000
  H   H691      1.0  0.50474  0.54716  0.59638  1.0000
  H   H692      1.0  0.13846  0.58125  0.69561  1.0000
  C   C402      1.0  0.05338  0.85666  0.52675  1.0000
  H   H693      1.0  0.43095  0.73192  0.59814  1.0000
  H   H694      1.0  0.08247  0.49855  0.47176  1.0000
  C   C403      1.0  0.31116  0.81826  0.60631  1.0000
  H   H695      1.0  0.53419  0.67830  0.63033  1.0000
  H   H696      1.0  0.26400  0.71573  0.48781  1.0000
  H   H697      1.0  0.08706  0.61955  0.54368  1.0000
  H   H698      1.0  0.43937  0.67659  0.64835  1.0000
  H   H699      1.0  0.40920  0.63592  0.70153  1.0000
  Fe  Fe46      1.0  0.07580  0.68708  0.63442  1.0000
  C   C404      1.0  0.22055  0.56963  0.59593  1.0000
  H   H700      1.0  0.47311  0.83651  0.45651  1.0000
  H   H701      1.0  0.46131  0.86530  0.49282  1.0000
  C   C405      1.0  0.38170  0.63958  0.63248  1.0000
  H   H702      1.0  0.30093  0.91429  0.68835  1.0000
  H   H703      1.0  0.43207  0.61986  0.59488  1.0000
  H   H704      1.0  0.48753  0.78106  0.53399  1.0000
  C   C406      1.0  0.04651  0.47718  0.54891  1.0000
  H   H705      1.0  0.49890  0.90402  0.58889  1.0000
  C   C407      1.0  0.21975  0.53220  0.58378  1.0000
  C   C408      1.0  0.53331  0.73157  0.55205  1.0000
  N   N25       1.0  0.47516  0.62945  0.64890  1.0000
  H   H706      1.0  0.24619  0.53127  0.59572  1.0000
  H   H707      1.0  0.51991  0.61644  0.61914  1.0000
  C   C409      1.0  0.12287  0.84821  0.65801  1.0000
  H   H708      1.0  0.32289  0.89941  0.48270  1.0000
  H   H709      1.0  0.20530  0.62882  0.50682  1.0000
  H   H710      1.0  0.25376  0.87179  0.51668  1.0000
  H   H711      1.0  0.21979  0.53200  0.54072  1.0000
  C   C410      1.0  0.48763  0.60466  0.62161  1.0000
  C   C411      1.0  0.11429  0.87913  0.64711  1.0000
  N   N26       1.0  0.18104  0.60722  0.58988  1.0000
  H   H712      1.0  0.50908  0.67116  0.54237  1.0000
  S   S87       1.0  0.19381  0.94859  0.51808  1.0000
  H   H713      1.0  0.07404  0.58747  0.49633  1.0000
  H   H714      1.0  0.16084  0.82577  0.63516  1.0000
  H   H715      1.0  0.15745  0.54375  0.61210  1.0000
  C   C412      1.0  0.43335  0.95118  0.48799  1.0000
  H   H716      1.0  0.06236  0.56645  0.56613  1.0000
  H   H717      1.0  0.52680  0.82778  0.46431  1.0000
  H   H718      1.0  0.47378  0.68523  0.56345  1.0000
  C   C413      1.0  0.54099  0.96428  0.55513  1.0000
  C   C414      1.0  0.20762  0.67886  0.53780  1.0000
  H   H719      1.0  0.33369  0.94855  0.48330  1.0000
  C   C415      1.0  0.27096  0.80146  0.60189  1.0000
  H   H720      1.0  0.30503  0.89194  0.58056  1.0000
  H   H721      1.0  0.11087  0.80389  0.46373  1.0000
  H   H722      1.0  0.45831  0.53689  0.57359  1.0000
  H   H723      1.0  0.05546  0.52326  0.48392  1.0000
  H   H724      1.0  0.49181  0.92152  0.52428  1.0000
  H   H725      1.0  0.14368  0.49936  0.47128  1.0000
  C   C416      1.0  0.50380  0.67250  0.62763  1.0000
  Fe  Fe47      1.0  0.10544  0.75920  0.68797  1.0000
  H   H726      1.0  0.44157  0.94501  0.52748  1.0000
  H   H727      1.0  0.48112  0.55638  0.68283  1.0000
  H   H728      1.0  0.27591  0.80424  0.46914  1.0000
  H   H729      1.0  0.37288  0.95706  0.56613  1.0000
  H   H730      1.0  0.38122  0.92899  0.65293  1.0000
  H   H731      1.0  0.07623  0.47446  0.64458  1.0000
  H   H732      1.0  0.30075  0.93628  0.57901  1.0000
  S   S88       1.0  0.10786  0.75204  0.60301  1.0000
  H   H733      1.0  0.22485  0.57060  0.63808  1.0000
  C   C417      1.0  0.46804  0.79072  0.55186  1.0000
  C   C418      1.0  0.18194  0.56969  0.58507  1.0000
  H   H734      1.0  0.09722  0.71838  0.47044  1.0000
  H   H735      1.0  0.37058  0.65797  0.64806  1.0000
  H   H736      1.0  0.12956  0.93432  0.59573  1.0000
  C   C419      1.0  0.27434  0.90329  0.51761  1.0000
  S   S89       1.0  0.29049  0.63411  0.68919  1.0000
  H   H737      1.0  0.09037  0.87833  0.67106  1.0000
  C   C420      1.0  0.07572  0.84218  0.49393  1.0000
  H   H738      1.0  0.24457  0.93998  0.65772  1.0000
  H   H739      1.0  0.06333  0.76159  0.47046  1.0000
  H   H740      1.0  0.53112  0.74213  0.51070  1.0000
  C   C421      1.0  0.48661  0.86464  0.47203  1.0000
  H   H741      1.0  0.45994  0.50450  0.62931  1.0000
  S   S90       1.0  0.38938  0.85423  0.56481  1.0000
  H   H742      1.0  0.35817  0.60825  0.64176  1.0000
  H   H743      1.0  0.21910  0.69462  0.57103  1.0000
  H   H744      1.0  0.24648  0.59531  0.57124  1.0000
  S   S91       1.0  0.16203  0.75953  0.70020  1.0000
  H   H745      1.0  0.22892  0.73284  0.47970  1.0000
  C   C422      1.0  0.43412  0.61903  0.63798  1.0000
  S   S92       1.0  0.29158  0.53544  0.69472  1.0000
  H   H746      1.0  0.13620  0.62381  0.60029  1.0000
  H   H747      1.0  0.14404  0.61707  0.50115  1.0000
  H   H748      1.0  0.24005  0.64798  0.55069  1.0000
  C   C423      1.0  0.15850  0.48308  0.45930  1.0000
  H   H749      1.0  0.34960  0.49430  0.59045  1.0000
  S   S93       1.0  0.13082  0.68398  0.64120  1.0000
  C   C424      1.0  0.33872  0.83102  0.56110  1.0000
  C   C425      1.0  0.13960  0.59945  0.58790  1.0000
  H   H750      1.0  0.19075  0.64666  0.64532  1.0000
  C   C426      1.0  0.28571  0.90511  0.57337  1.0000
  H   H751      1.0  0.40101  0.93312  0.49043  1.0000
  C   C427      1.0  0.28575  0.80867  0.50736  1.0000
  C   C428      1.0  0.25832  0.79699  0.55227  1.0000
  H   H752      1.0  0.41283  0.58797  0.65678  1.0000
  C   C429      1.0  0.32584  0.82576  0.51169  1.0000
  H   H753      1.0  0.08030  0.82078  0.52169  1.0000
  C   C430      1.0  0.17490  0.87997  0.58398  1.0000
  C   C431      1.0  0.20923  0.63961  0.54512  1.0000
  H   H754      1.0  0.17750  0.67406  0.53593  1.0000
  H   H755      1.0  0.44506  0.78681  0.52605  1.0000
  H   H756      1.0  0.05300  0.88224  0.50279  1.0000
  H   H757      1.0  0.19746  0.87934  0.55912  1.0000
  H   H758      1.0  0.48203  0.60666  0.57962  1.0000
  H   H759      1.0  0.51012  0.83636  0.59097  1.0000
  H   H760      1.0  0.38910  0.64931  0.58884  1.0000
  C   C432      1.0  0.08439  0.59134  0.53536  1.0000
  H   H761      1.0  0.32059  0.82121  0.64465  1.0000
  C   C433      1.0  0.26748  0.96275  0.67676  1.0000
  H   H762      1.0  0.22500  0.62971  0.64238  1.0000
  Fe  Fe48      1.0  0.40518  0.86531  0.64565  1.0000
  C   C434      1.0  0.46769  0.56010  0.64702  1.0000
  C   C435      1.0  0.19337  0.61999  0.64153  1.0000
  H   H763      1.0  0.32541  0.71824  0.65848  1.0000
  H   H764      1.0  0.14445  0.47797  0.69205  1.0000
  H   H765      1.0  0.17090  0.56099  0.69228  1.0000
  H   H766      1.0  0.17311  0.96023  0.67511  1.0000
  S   S94       1.0  0.52476  0.50492  0.69533  1.0000
  H   H767      1.0  0.91210  0.43664  0.80667  1.0000
  S   S95       1.0  0.72913  0.01388  0.89056  1.0000
  H   H768      1.0  0.55021  0.09078  0.76407  1.0000
  Fe  Fe49      1.0  0.92714  0.08484  0.70737  1.0000
  S   S96       1.0  0.70749  0.39227  0.71221  1.0000
  C   C436      1.0  0.81711  0.98239  0.79658  1.0000
  H   H769      1.0  0.96938  0.18752  0.85192  1.0000
  H   H770      1.0  0.01385  0.16811  0.76982  1.0000
  H   H771      1.0  0.88247  0.01371  0.89681  1.0000
  H   H772      1.0  0.55707  0.15726  0.75613  1.0000
  H   H773      1.0  0.72899  0.26925  0.91552  1.0000
  H   H774      1.0  0.55230  0.02469  0.82135  1.0000
  H   H775      1.0  0.98788  0.24341  0.87838  1.0000
  H   H776      1.0  0.95834  0.26552  0.94652  1.0000
  C   C437      1.0  0.81323  0.38729  0.84280  1.0000
  H   H777      1.0  0.80865  0.46970  0.92366  1.0000
  C   C438      1.0  0.01204  0.09087  0.76506  1.0000
  H   H778      1.0  0.02301  0.31132  0.88658  1.0000
  S   S97       1.0  0.98286  0.44587  0.87798  1.0000
  C   C439      1.0  0.72640  0.11993  0.87282  1.0000
  H   H779      1.0  0.77059  0.37810  0.78846  1.0000
  C   C440      1.0  0.80142  0.39106  0.79265  1.0000
  H   H780      1.0  0.00968  0.10454  0.72696  1.0000
  H   H781      1.0  0.56913  0.01991  0.72927  1.0000
  H   H782      1.0  0.55686  0.07756  0.85644  1.0000
  H   H783      1.0  0.02696  0.18920  0.88721  1.0000
  H   H784      1.0  0.54515  0.99438  0.91139  1.0000
  H   H785      1.0  0.00272  0.22682  0.93595  1.0000
  H   H786      1.0  0.65834  0.41697  0.85661  1.0000
  S   S98       1.0  0.94394  0.28133  0.84268  1.0000
  C   C441      1.0  0.93016  0.21100  0.73626  1.0000
  H   H787      1.0  0.89462  0.09092  0.92854  1.0000
  H   H788      1.0  0.88533  0.28540  0.76538  1.0000
  C   C442      1.0  0.80218  0.00745  0.76562  1.0000
  C   C443      1.0  0.78903  0.17728  0.92459  1.0000
  C   C444      1.0  0.02080  0.28906  0.92037  1.0000
  C   C445      1.0  0.56342  0.34911  0.85274  1.0000
  C   C446      1.0  0.85310  0.40230  0.84746  1.0000
  H   H789      1.0  0.63649  0.98905  0.78165  1.0000
  H   H790      1.0  0.86145  0.23606  0.75074  1.0000
  H   H791      1.0  0.54475  0.29312  0.82814  1.0000
  H   H792      1.0  0.77413  0.98837  0.75129  1.0000
  C   C447      1.0  0.98920  0.16045  0.80072  1.0000
  H   H793      1.0  0.93092  0.07843  0.90703  1.0000
  C   C448      1.0  0.86952  0.42796  0.75319  1.0000
  C   C449      1.0  0.83190  0.11610  0.87475  1.0000
  S   S99       1.0  0.61543  0.29334  0.79181  1.0000
  H   H794      1.0  0.79708  0.02550  0.79144  1.0000
  C   C450      1.0  0.93001  0.22512  0.78331  1.0000
  C   C451      1.0  0.03203  0.00586  0.73133  1.0000
  H   H795      1.0  0.80153  0.18119  0.82104  1.0000
  C   C452      1.0  0.63215  0.24412  0.91011  1.0000
  H   H796      1.0  0.57406  0.23232  0.89782  1.0000
  H   H797      1.0  0.79131  0.08338  0.82348  1.0000
  H   H798      1.0  0.68545  0.10708  0.81449  1.0000
  H   H799      1.0  0.95597  0.03015  0.87939  1.0000
  H   H800      1.0  0.72792  0.23064  0.84608  1.0000
  C   C453      1.0  0.98172  0.04837  0.85053  1.0000
  C   C454      1.0  0.79816  0.08385  0.86356  1.0000
  H   H801      1.0  0.64963  0.24190  0.94159  1.0000
  H   H802      1.0  0.63323  0.19401  0.88403  1.0000
  C   C455      1.0  0.63357  0.39017  0.84998  1.0000
  H   H803      1.0  0.85759  0.23327  0.84757  1.0000
  C   C456      1.0  0.97832  0.06584  0.80126  1.0000
  C   C457      1.0  0.83825  0.24192  0.82592  1.0000
  H   H804      1.0  0.99873  0.21979  0.79055  1.0000
  Fe  Fe50      1.0  0.66464  0.32738  0.72465  1.0000
  H   H805      1.0  0.58013  0.28922  0.93028  1.0000
  C   C458      1.0  0.78165  0.09992  0.70944  1.0000
  C   C459      1.0  0.58794  0.22544  0.93140  1.0000
  H   H806      1.0  0.77066  0.10961  0.74186  1.0000
  H   H807      1.0  0.91821  0.20454  0.82072  1.0000
  H   H808      1.0  0.85105  0.14047  0.84320  1.0000
  H   H809      1.0  0.96717  0.01515  0.72411  1.0000
  H   H810      1.0  0.84334  0.00253  0.81342  1.0000
  H   H811      1.0  0.90047  0.08542  0.86108  1.0000
  C   C460      1.0  0.68744  0.09348  0.85425  1.0000
  H   H812      1.0  0.57462  0.19267  0.93888  1.0000
  S   S100      1.0  0.93138  0.05434  0.78554  1.0000
  Fe  Fe51      1.0  0.96143  0.34366  0.85004  1.0000
  H   H813      1.0  0.03462  0.28432  0.80334  1.0000
  H   H814      1.0  0.89135  0.44340  0.71861  1.0000
  C   C461      1.0  0.85664  0.25817  0.76793  1.0000
  C   C462      1.0  0.94523  0.26563  0.78240  1.0000
  H   H815      1.0  0.58197  0.33262  0.71211  1.0000
  Fe  Fe52      1.0  0.00265  0.40553  0.91828  1.0000
  H   H816      1.0  0.79894  0.08634  0.72588  1.0000
  H   H817      1.0  0.72740  0.10451  0.91194  1.0000
  C   C463      1.0  0.88122  0.42383  0.80300  1.0000
  H   H818      1.0  0.65509  0.98389  0.84310  1.0000
  H   H819      1.0  0.98640  0.13667  0.83261  1.0000
  S   S101      1.0  0.94301  0.35219  0.92920  1.0000
  C   C464      1.0  0.79669  0.20551  0.83069  1.0000
  H   H820      1.0  0.55740  0.04132  0.92888  1.0000
  C   C465      1.0  0.82969  0.41068  0.74777  1.0000
  S   S102      1.0  0.02295  0.39395  0.84277  1.0000
  H   H821      1.0  0.74576  0.21532  0.93612  1.0000
  C   C466      1.0  0.90099  0.07376  0.90272  1.0000
  H   H822      1.0  0.83777  0.26627  0.74427  1.0000
  Fe  Fe53      1.0  0.99872  0.43097  0.80330  1.0000
  S   S103      1.0  0.88217  0.15787  0.94071  1.0000
  C   C467      1.0  0.03302  0.21224  0.85200  1.0000
  H   H823      1.0  0.02881  0.10882  0.94391  1.0000
  C   C468      1.0  0.99592  0.19678  0.82356  1.0000
  C   C469      1.0  0.63966  0.36195  0.82950  1.0000
  C   C470      1.0  0.55346  0.13965  0.79581  1.0000
  S   S104      1.0  0.58852  0.42050  0.88369  1.0000
  H   H824      1.0  0.01333  0.98336  0.84359  1.0000
  C   C471      1.0  0.87090  0.02967  0.91749  1.0000
  H   H825      1.0  0.61830  0.22123  0.83658  1.0000
  H   H826      1.0  0.03336  0.02258  0.76330  1.0000
  H   H827      1.0  0.81969  0.20013  0.92660  1.0000
  H   H828      1.0  0.72029  0.17073  0.84213  1.0000
  H   H829      1.0  0.68538  0.06452  0.85141  1.0000
  H   H830      1.0  0.91887  0.17977  0.73778  1.0000
  C   C472      1.0  0.96007  0.29216  0.73402  1.0000
  H   H831      1.0  0.66912  0.36689  0.82086  1.0000
  H   H832      1.0  0.97150  0.32343  0.73318  1.0000
  C   C473      1.0  0.56950  0.32034  0.83368  1.0000
  H   H833      1.0  0.74528  0.29977  0.85034  1.0000
  H   H834      1.0  0.66892  0.24166  0.84644  1.0000
  C   C474      1.0  0.59556  0.38417  0.86051  1.0000
  H   H835      1.0  0.78144  0.21153  0.79825  1.0000
  H   H836      1.0  0.02053  0.03983  0.90040  1.0000
  H   H837      1.0  0.79153  0.37131  0.87740  1.0000
  C   C475      1.0  0.01836  0.05426  0.86267  1.0000
  C   C476      1.0  0.63833  0.22386  0.86672  1.0000
  H   H838      1.0  0.84345  0.02509  0.90173  1.0000
  N   N27       1.0  0.77125  0.19264  0.88337  1.0000
  H   H839      1.0  0.66255  0.08845  0.88284  1.0000
  H   H840      1.0  0.63264  0.12835  0.92673  1.0000
  H   H841      1.0  0.00639  0.97621  0.74555  1.0000
  C   C477      1.0  0.59190  0.39159  0.70351  1.0000
  H   H842      1.0  0.58302  0.14870  0.80774  1.0000
  Fe  Fe54      1.0  0.92457  0.39185  0.88318  1.0000
  S   S105      1.0  0.93863  0.37954  0.80468  1.0000
  H   H843      1.0  0.64435  0.27586  0.89257  1.0000
  C   C478      1.0  0.84099  0.11672  0.92666  1.0000
  C   C479      1.0  0.60767  0.32731  0.82065  1.0000
  H   H844      1.0  0.77887  0.26499  0.82307  1.0000
  H   H845      1.0  0.68319  0.42524  0.94100  1.0000
  H   H846      1.0  0.58505  0.38786  0.74687  1.0000
  H   H847      1.0  0.57262  0.13303  0.91293  1.0000
  H   H848      1.0  0.96168  0.14908  0.78239  1.0000
  H   H849      1.0  0.75008  0.12277  0.84417  1.0000
  H   H850      1.0  0.82410  0.02751  0.73126  1.0000
  H   H851      1.0  0.83813  0.26659  0.84214  1.0000
  S   S106      1.0  0.86805  0.39079  0.90712  1.0000
  C   C480      1.0  0.75646  0.25024  0.85867  1.0000
  C   C481      1.0  0.73063  0.16082  0.87762  1.0000
  C   C482      1.0  0.01325  0.25075  0.90072  1.0000
  C   C483      1.0  0.75261  0.28247  0.88129  1.0000
  H   H852      1.0  0.70869  0.15569  0.91125  1.0000
  C   C484      1.0  0.76809  0.22646  0.90043  1.0000
  C   C485      1.0  0.77278  0.05282  0.90442  1.0000
  H   H853      1.0  0.79594  0.24745  0.91374  1.0000
  H   H854      1.0  0.79202  0.15239  0.91325  1.0000
  H   H855      1.0  0.78076  0.30296  0.89423  1.0000
  H   H856      1.0  0.85463  0.98172  0.73333  1.0000
  S   S107      1.0  0.62996  0.00499  0.94440  1.0000
  C   C486      1.0  0.57420  0.11755  0.95007  1.0000
  C   C487      1.0  0.62452  0.00719  0.18716  1.0000
  H   H857      1.0  0.73007  0.11176  0.15287  1.0000
  H   H858      1.0  0.91195  0.38085  0.02343  1.0000
  H   H859      1.0  0.62496  0.29966  0.95341  1.0000
  C   C488      1.0  0.54263  0.10063  0.99061  1.0000
  C   C489      1.0  0.86268  0.01563  0.97848  1.0000
  C   C490      1.0  0.59900  0.23197  0.02486  1.0000
  C   C491      1.0  0.76429  0.39167  0.06674  1.0000
  H   H860      1.0  0.56935  0.34147  0.96399  1.0000
  C   C492      1.0  0.54283  0.28502  0.14658  1.0000
  H   H861      1.0  0.55287  0.99667  0.00665  1.0000
  H   H862      1.0  0.82746  0.38392  0.03071  1.0000
  Fe  Fe55      1.0  0.68054  0.99440  0.95693  1.0000
  C   C493      1.0  0.54483  0.08104  0.03903  1.0000
  H   H863      1.0  0.69518  0.02058  0.14502  1.0000
  S   S108      1.0  0.97077  0.14956  0.98349  1.0000
  H   H864      1.0  0.76950  0.37958  0.10537  1.0000
  H   H865      1.0  0.55063  0.45531  0.97225  1.0000
  H   H866      1.0  0.79035  0.42163  0.05474  1.0000
  C   C494      1.0  0.86511  0.97658  0.09317  1.0000
  H   H867      1.0  0.66557  0.35646  0.10108  1.0000
  H   H868      1.0  0.67972  0.13633  0.09544  1.0000
  H   H869      1.0  0.78626  0.98869  0.95856  1.0000
  S   S109      1.0  0.58770  0.32917  0.13456  1.0000
  H   H870      1.0  0.75558  0.46281  0.19346  1.0000
  H   H871      1.0  0.83126  0.23663  0.05411  1.0000
  C   C495      1.0  0.67437  0.10747  0.17662  1.0000
  H   H872      1.0  0.79175  0.46022  0.11117  1.0000
  C   C496      1.0  0.72364  0.41535  0.02208  1.0000
  H   H873      1.0  0.88679  0.00831  0.08066  1.0000
  H   H874      1.0  0.75170  0.44274  0.00616  1.0000
  C   C497      1.0  0.58472  0.30146  0.01063  1.0000
  C   C498      1.0  0.93585  0.31711  0.16553  1.0000
  C   C499      1.0  0.78218  0.05345  0.95619  1.0000
  C   C500      1.0  0.85862  0.25383  0.02560  1.0000
  H   H875      1.0  0.00031  0.44523  0.15288  1.0000
  S   S110      1.0  0.96573  0.05067  0.01975  1.0000
  H   H876      1.0  0.79206  0.33663  0.07014  1.0000
  C   C501      1.0  0.60806  0.11498  0.95792  1.0000
  H   H877      1.0  0.66512  0.15633  0.14532  1.0000
  C   C502      1.0  0.59332  0.18959  0.03878  1.0000
  H   H878      1.0  0.84782  0.44561  0.96986  1.0000
  H   H879      1.0  0.73241  0.40093  0.15518  1.0000
  H   H880      1.0  0.96610  0.32667  0.05358  1.0000
  C   C503      1.0  0.96948  0.30839  0.08814  1.0000
  H   H881      1.0  0.57990  0.06218  0.08382  1.0000
  C   C504      1.0  0.80226  0.35509  0.18791  1.0000
  H   H882      1.0  0.82347  0.08533  0.00729  1.0000
  H   H883      1.0  0.60483  0.30373  0.04048  1.0000
  H   H884      1.0  0.97301  0.28511  0.07214  1.0000
  H   H885      1.0  0.95961  0.32259  0.19042  1.0000
  H   H886      1.0  0.58959  0.35740  0.02266  1.0000
  H   H887      1.0  0.76348  0.02915  0.98779  1.0000
  H   H888      1.0  0.64252  0.08681  0.17865  1.0000
  H   H889      1.0  0.87326  0.30065  0.18266  1.0000
  C   C505      1.0  0.85466  0.13260  0.19751  1.0000
  H   H890      1.0  0.77461  0.19112  0.99955  1.0000
  H   H891      1.0  0.81993  0.17134  0.10137  1.0000
  N   N28       1.0  0.93325  0.28913  0.12897  1.0000
  C   C506      1.0  0.72919  0.41640  0.11786  1.0000
  C   C507      1.0  0.81514  0.17615  0.18311  1.0000
  Fe  Fe56      1.0  0.58390  0.38416  0.13748  1.0000
  H   H892      1.0  0.62867  0.98288  0.17624  1.0000
  C   C508      1.0  0.98002  0.99208  0.06063  1.0000
  H   H893      1.0  0.89392  0.44618  0.05023  1.0000
  H   H894      1.0  0.89793  0.30842  0.08501  1.0000
  C   C509      1.0  0.77789  0.13767  0.01710  1.0000
  H   H895      1.0  0.82345  0.35209  0.16312  1.0000
  C   C510      1.0  0.76319  0.45964  0.10981  1.0000
  S   S111      1.0  0.56797  0.41699  0.07381  1.0000
  H   H896      1.0  0.75226  0.01575  0.10255  1.0000
  H   H897      1.0  0.58828  0.23797  0.06141  1.0000
  C   C511      1.0  0.02685  0.44391  0.16353  1.0000
  H   H898      1.0  0.89048  0.22892  0.06540  1.0000
  H   H899      1.0  0.92070  0.22861  0.13333  1.0000
  Fe  Fe57      1.0  0.91183  0.14315  0.00570  1.0000
  C   C512      1.0  0.96591  0.99768  0.16592  1.0000
  S   S112      1.0  0.97509  0.12878  0.11010  1.0000
  H   H900      1.0  0.64259  0.20538  0.08429  1.0000
  C   C513      1.0  0.69401  0.32439  0.13258  1.0000
  H   H901      1.0  0.76464  0.13264  0.05844  1.0000
  C   C514      1.0  0.92728  0.25046  0.15962  1.0000
  C   C515      1.0  0.96940  0.01980  0.07208  1.0000
  S   S113      1.0  0.65219  0.09168  0.01538  1.0000
  Fe  Fe58      1.0  0.98983  0.18268  0.04990  1.0000
  S   S114      1.0  0.93234  0.17995  0.06834  1.0000
  H   H902      1.0  0.63273  0.29048  0.16620  1.0000
  H   H903      1.0  0.65950  0.26406  0.17549  1.0000
  C   C516      1.0  0.98701  0.28106  0.96128  1.0000
  H   H904      1.0  0.81525  0.97935  0.06619  1.0000
  H   H905      1.0  0.62147  0.36159  0.96636  1.0000
  H   H906      1.0  0.89084  0.03163  0.99426  1.0000
  H   H907      1.0  0.02200  0.41369  0.16256  1.0000
  H   H908      1.0  0.95343  0.04373  0.13354  1.0000
  C   C517      1.0  0.84557  0.14171  0.14746  1.0000
  H   H909      1.0  0.59576  0.18861  0.12353  1.0000
  Fe  Fe59      1.0  0.61930  0.47220  0.08875  1.0000
  H   H910      1.0  0.70108  0.41631  0.12665  1.0000
  C   C518      1.0  0.96234  0.25213  0.18655  1.0000
  H   H911      1.0  0.57028  0.24915  0.14180  1.0000
  C   C519      1.0  0.69887  0.08783  0.16224  1.0000
  C   C520      1.0  0.68437  0.14403  0.13523  1.0000
  H   H912      1.0  0.98536  0.98976  0.01991  1.0000
  H   H913      1.0  0.60619  0.15365  0.09772  1.0000
  H   H914      1.0  0.98641  0.26227  0.99810  1.0000
  C   C521      1.0  0.59271  0.28272  0.96557  1.0000
  H   H915      1.0  0.70048  0.33698  0.16898  1.0000
  H   H916      1.0  0.85309  0.13142  0.11420  1.0000
  H   H917      1.0  0.68348  0.33935  0.05273  1.0000
  Fe  Fe60      1.0  0.64177  0.03009  0.01846  1.0000
  H   H918      1.0  0.60809  0.18340  0.00642  1.0000
  H   H919      1.0  0.80124  0.34196  0.99935  1.0000
  S   S115      1.0  0.63835  0.43884  0.14657  1.0000
  C   C522      1.0  0.54291  0.24939  0.14659  1.0000
  C   C523      1.0  0.89807  0.28039  0.10014  1.0000
  C   C524      1.0  0.69143  0.35377  0.08790  1.0000
  C   C525      1.0  0.69070  0.42670  0.02431  1.0000
  S   S116      1.0  0.69383  0.02224  0.02858  1.0000
  C   C526      1.0  0.76912  0.02903  0.13462  1.0000
  H   H920      1.0  0.71708  0.31720  0.12066  1.0000
  H   H921      1.0  0.69644  0.44869  0.05033  1.0000
  H   H922      1.0  0.64560  0.27249  0.11125  1.0000
  H   H923      1.0  0.66172  0.40033  0.03944  1.0000
  C   C527      1.0  0.81659  0.08495  0.96714  1.0000
  H   H924      1.0  0.66310  0.45146  0.97186  1.0000
  H   H925      1.0  0.80068  0.04690  0.11829  1.0000
  H   H926      1.0  0.95237  0.39219  0.06097  1.0000
  N   N29       1.0  0.72725  0.39435  0.07350  1.0000
  H   H927      1.0  0.76085  0.07968  0.12315  1.0000
  H   H928      1.0  0.90264  0.97836  0.00325  1.0000
  H   H929      1.0  0.90867  0.39119  0.08948  1.0000
  H   H930      1.0  0.98752  0.26044  0.15623  1.0000
  H   H931      1.0  0.73857  0.33955  0.02689  1.0000
  C   C528      1.0  0.65548  0.28547  0.14692  1.0000
  N   N30       1.0  0.57874  0.23904  0.97964  1.0000
  S   S117      1.0  0.89042  0.08576  0.06202  1.0000
  H   H932      1.0  0.76586  0.10859  0.00453  1.0000
  H   H933      1.0  0.94381  0.34647  0.14164  1.0000
  C   C529      1.0  0.59188  0.34303  0.98943  1.0000
  C   C530      1.0  0.60987  0.09459  0.00590  1.0000
  C   C531      1.0  0.57830  0.07756  0.04646  1.0000
  H   H934      1.0  0.99106  0.30953  0.97037  1.0000
  H   H935      1.0  0.01069  0.36650  0.10453  1.0000
  H   H936      1.0  0.56182  0.16711  0.04541  1.0000
  C   C532      1.0  0.79879  0.35700  0.03175  1.0000
  C   C533      1.0  0.92862  0.39908  0.05224  1.0000
  C   C534      1.0  0.75532  0.05547  0.15615  1.0000
  C   C535      1.0  0.94669  0.44311  0.02904  1.0000
  H   H937      1.0  0.71535  0.16710  0.13395  1.0000
  C   C536      1.0  0.00912  0.33734  0.10534  1.0000
  H   H938      1.0  0.69094  0.07780  0.12397  1.0000
  H   H939      1.0  0.84390  0.02715  0.99383  1.0000
  H   H940      1.0  0.89690  0.43270  0.98856  1.0000
  H   H941      1.0  0.87045  0.26138  0.12781  1.0000
  H   H942      1.0  0.96802  0.44979  0.99406  1.0000
  C   C537      1.0  0.89420  0.25880  0.05252  1.0000
  H   H943      1.0  0.71823  0.39666  0.99124  1.0000
  H   H944      1.0  0.76542  0.00494  0.16672  1.0000
  C   C538      1.0  0.76628  0.36762  0.02467  1.0000
  Fe  Fe61      1.0  0.95139  0.09532  0.04455  1.0000
  H   H945      1.0  0.86187  0.28316  0.00913  1.0000
  H   H946      1.0  0.96294  0.45980  0.05927  1.0000
  H   H947      1.0  0.87350  0.98010  0.17507  1.0000
  C   C539      1.0  0.61062  0.18422  0.08919  1.0000
  S   S118      1.0  0.79094  0.20367  0.17268  1.0000
  H   H948      1.0  0.73485  0.14826  0.98254  1.0000
  C   C540      1.0  0.96211  0.02258  0.12467  1.0000
  H   H949      1.0  0.77247  0.38543  0.98430  1.0000
  C   C541      1.0  0.82626  0.16381  0.14023  1.0000
  H   H950      1.0  0.01303  0.32717  0.14573  1.0000
  H   H951      1.0  0.55416  0.28391  0.03079  1.0000
  C   C542      1.0  0.76702  0.16451  0.98171  1.0000
  H   H952      1.0  0.85626  0.23768  0.99257  1.0000
  H   H953      1.0  0.63103  0.25332  0.01752  1.0000
  C   C543      1.0  0.91462  0.45376  0.01379  1.0000
  H   H954      1.0  0.81025  0.15119  0.01547  1.0000
  H   H955      1.0  0.92012  0.27550  0.02180  1.0000
  Fe  Fe62      1.0  0.91541  0.12301  0.12343  1.0000
  S   S119      1.0  0.85295  0.43490  0.16461  1.0000
  H   H956      1.0  0.62954  0.02829  0.15039  1.0000
  C   C544      1.0  0.71113  0.03178  0.17872  1.0000
  H   H957      1.0  0.90093  0.23655  0.18991  1.0000
  H   H958      1.0  0.77377  0.06867  0.18680  1.0000
  H   H959      1.0  0.94521  0.18998  0.19233  1.0000
  C   C545      1.0  0.80954  0.39257  0.19532  1.0000
  C   C546      1.0  0.68810  0.44543  0.96949  1.0000
  H   H960      1.0  0.64871  0.37505  0.19844  1.0000
  H   H961      1.0  0.83320  0.98683  0.15566  1.0000
  H   H962      1.0  0.56218  0.97362  0.18291  1.0000
  S   S120      1.0  0.03568  0.42322  0.98724  1.0000
  H   H963      1.0  0.04065  0.35199  0.02578  1.0000
  H   H964      1.0  0.92893  0.03737  0.26643  1.0000
  H   H965      1.0  0.76185  0.36504  0.37946  1.0000
  H   H966      1.0  0.68871  0.40048  0.23510  1.0000
  S   S121      1.0  0.69709  0.28332  0.27754  1.0000
  H   H967      1.0  0.67979  0.11627  0.21566  1.0000
  C   C547      1.0  0.58176  0.98948  0.21121  1.0000
  C   C548      1.0  0.64273  0.34338  0.27688  1.0000
  C   C549      1.0  0.96230  0.11370  0.35294  1.0000
  C   C550      1.0  0.72400  0.04334  0.28931  1.0000
  H   H968      1.0  0.81212  0.37546  0.32663  1.0000
  H   H969      1.0  0.70554  0.00479  0.20687  1.0000
  Fe  Fe63      1.0  0.67901  0.14480  0.31883  1.0000
  N   N31       1.0  0.58114  0.27711  0.31896  1.0000
  H   H970      1.0  0.65032  0.00176  0.25660  1.0000
  C   C551      1.0  0.77042  0.37133  0.41880  1.0000
  S   S122      1.0  0.68876  0.18939  0.37062  1.0000
  H   H971      1.0  0.58251  0.20261  0.34259  1.0000
  C   C552      1.0  0.71751  0.07206  0.24819  1.0000
  C   C553      1.0  0.95898  0.20191  0.44184  1.0000
  H   H972      1.0  0.03645  0.21677  0.31149  1.0000
  H   H973      1.0  0.02575  0.99958  0.34577  1.0000
  H   H974      1.0  0.65139  0.44916  0.40338  1.0000
  H   H975      1.0  0.72632  0.36570  0.27706  1.0000
  C   C554      1.0  0.76188  0.43178  0.39646  1.0000
  H   H976      1.0  0.85083  0.35631  0.41928  1.0000
  H   H977      1.0  0.74255  0.35846  0.44627  1.0000
  C   C555      1.0  0.83664  0.23693  0.39995  1.0000
  H   H978      1.0  0.93171  0.14042  0.38508  1.0000
  C   C556      1.0  0.83246  0.36670  0.34479  1.0000
  H   H979      1.0  0.88926  0.22130  0.30593  1.0000
  H   H980      1.0  0.03414  0.27442  0.25891  1.0000
  Fe  Fe64      1.0  0.75579  0.19895  0.24713  1.0000
  H   H981      1.0  0.86045  0.28567  0.44175  1.0000
  C   C557      1.0  0.02324  0.02556  0.32779  1.0000
  H   H982      1.0  0.72446  0.07057  0.35773  1.0000
  N   N32       1.0  0.69508  0.05454  0.20397  1.0000
  C   C558      1.0  0.88315  0.23537  0.33560  1.0000
  H   H983      1.0  0.64247  0.39838  0.25154  1.0000
  H   H984      1.0  0.74682  0.09794  0.23219  1.0000
  H   H985      1.0  0.63362  0.28702  0.35370  1.0000
  C   C559      1.0  0.59730  0.31824  0.28675  1.0000
  H   H986      1.0  0.93646  0.98884  0.43629  1.0000
  C   C560      1.0  0.90467  0.33510  0.23852  1.0000
  H   H987      1.0  0.74299  0.03337  0.27070  1.0000
  H   H988      1.0  0.75160  0.42330  0.35838  1.0000
  H   H989      1.0  0.97741  0.21427  0.23852  1.0000
  C   C561      1.0  0.91611  0.99384  0.33749  1.0000
  C   C562      1.0  0.91324  0.27013  0.34756  1.0000
  H   H990      1.0  0.54333  0.09700  0.21487  1.0000
  H   H991      1.0  0.92660  0.20130  0.24964  1.0000
  H   H992      1.0  0.93136  0.01759  0.36049  1.0000
  H   H993      1.0  0.55792  0.08133  0.41785  1.0000
  C   C563      1.0  0.55619  0.02851  0.32705  1.0000
  C   C564      1.0  0.86677  0.27136  0.41259  1.0000
  H   H994      1.0  0.58580  0.33550  0.30504  1.0000
  C   C565      1.0  0.84322  0.14459  0.24078  1.0000
  C   C566      1.0  0.74036  0.32509  0.24574  1.0000
  C   C567      1.0  0.59973  0.30336  0.40595  1.0000
  C   C568      1.0  0.70444  0.28804  0.40725  1.0000
  Fe  Fe65      1.0  0.00083  0.34428  0.34656  1.0000
  H   H995      1.0  0.96059  0.99988  0.20664  1.0000
  C   C569      1.0  0.63308  0.31546  0.43985  1.0000
  H   H996      1.0  0.85136  0.40187  0.40650  1.0000
  H   H997      1.0  0.01853  0.26864  0.37505  1.0000
  H   H998      1.0  0.62358  0.09376  0.44206  1.0000
  C   C570      1.0  0.76743  0.32136  0.21267  1.0000
  C   C571      1.0  0.65285  0.02672  0.22716  1.0000
  H   H999      1.0  0.70252  0.31122  0.37958  1.0000
  H   H1000     1.0  0.59059  0.24769  0.38972  1.0000
  H   H1001     1.0  0.95674  0.09208  0.38964  1.0000
  C   C572      1.0  0.58708  0.06680  0.30827  1.0000
  H   H1002     1.0  0.82359  0.33577  0.34082  1.0000
  H   H1003     1.0  0.56061  0.18778  0.23151  1.0000
  H   H1004     1.0  0.88213  0.42473  0.31227  1.0000
  H   H1005     1.0  0.65589  0.32716  0.26014  1.0000
  H   H1006     1.0  0.82165  0.19226  0.35203  1.0000
  H   H1007     1.0  0.88244  0.02107  0.30511  1.0000
  H   H1008     1.0  0.75912  0.30860  0.35694  1.0000
  H   H1009     1.0  0.58675  0.31670  0.24738  1.0000
  H   H1010     1.0  0.93662  0.19256  0.41416  1.0000
  H   H1011     1.0  0.56195  0.15343  0.28453  1.0000
  H   H1012     1.0  0.73617  0.41936  0.42759  1.0000
  H   H1013     1.0  0.64116  0.04190  0.25006  1.0000
  H   H1014     1.0  0.60086  0.33087  0.38599  1.0000
  C   C573      1.0  0.78159  0.39618  0.22638  1.0000
  C   C574      1.0  0.89822  0.30417  0.20423  1.0000
  H   H1015     1.0  0.68157  0.25907  0.39982  1.0000
  C   C575      1.0  0.60239  0.27787  0.36637  1.0000
  Fe  Fe66      1.0  0.75083  0.20099  0.36541  1.0000
  H   H1016     1.0  0.76132  0.29255  0.20554  1.0000
  C   C576      1.0  0.96188  0.15029  0.36638  1.0000
  N   N33       1.0  0.79436  0.35239  0.43791  1.0000
  S   S123      1.0  0.54645  0.38694  0.20336  1.0000
  H   H1017     1.0  0.92969  0.34068  0.26104  1.0000
  C   C577      1.0  0.74521  0.29188  0.39732  1.0000
  S   S124      1.0  0.62133  0.45272  0.28798  1.0000
  H   H1018     1.0  0.00151  0.02780  0.35443  1.0000
  C   C578      1.0  0.99209  0.16969  0.40469  1.0000
  H   H1019     1.0  0.85056  0.13796  0.27948  1.0000
  Fe  Fe67      1.0  0.70985  0.23354  0.29459  1.0000
  C   C579      1.0  0.90302  0.01128  0.29087  1.0000
  H   H1020     1.0  0.57604  0.25481  0.24559  1.0000
  H   H1021     1.0  0.87795  0.32411  0.26739  1.0000
  C   C580      1.0  0.74734  0.36257  0.25220  1.0000
  H   H1022     1.0  0.78563  0.42486  0.22927  1.0000
  C   C581      1.0  0.58710  0.25197  0.28403  1.0000
  H   H1023     1.0  0.60658  0.12124  0.25285  1.0000
  H   H1024     1.0  0.96495  0.44185  0.37879  1.0000
  H   H1025     1.0  0.87141  0.38856  0.27076  1.0000
  C   C582      1.0  0.01005  0.23892  0.36558  1.0000
  H   H1026     1.0  0.68904  0.44955  0.32338  1.0000
  C   C583      1.0  0.58264  0.09165  0.26764  1.0000
  C   C584      1.0  0.54698  0.07794  0.24607  1.0000
  H   H1027     1.0  0.61879  0.26295  0.27309  1.0000
  C   C585      1.0  0.74399  0.06331  0.33446  1.0000
  H   H1028     1.0  0.75036  0.04295  0.36140  1.0000
  H   H1029     1.0  0.55957  0.00920  0.35824  1.0000
  Fe  Fe68      1.0  0.59981  0.44330  0.20943  1.0000
  H   H1030     1.0  0.99096  0.12227  0.33054  1.0000
  S   S125      1.0  0.78836  0.21704  0.43043  1.0000
  C   C586      1.0  0.90497  0.28815  0.38603  1.0000
  H   H1031     1.0  0.69744  0.29060  0.44824  1.0000
  S   S126      1.0  0.69454  0.18824  0.24336  1.0000
  H   H1032     1.0  0.80007  0.42731  0.44981  1.0000
  H   H1033     1.0  0.77209  0.09077  0.31882  1.0000
  H   H1034     1.0  0.65471  0.35140  0.31423  1.0000
  H   H1035     1.0  0.57559  0.01328  0.21928  1.0000
  H   H1036     1.0  0.81581  0.17686  0.26640  1.0000
  H   H1037     1.0  0.74091  0.26180  0.39731  1.0000
  C   C587      1.0  0.56874  0.20729  0.30764  1.0000
  H   H1038     1.0  0.66167  0.33552  0.41483  1.0000
  Fe  Fe69      1.0  0.99847  0.39434  0.42408  1.0000
  C   C588      1.0  0.95206  0.21188  0.21876  1.0000
  C   C589      1.0  0.92874  0.46861  0.38667  1.0000
  H   H1039     1.0  0.88952  0.27584  0.23110  1.0000
  H   H1040     1.0  0.70208  0.08414  0.27060  1.0000
  H   H1041     1.0  0.81594  0.43119  0.38128  1.0000
  C   C590      1.0  0.57500  0.18522  0.26685  1.0000
  H   H1042     1.0  0.60683  0.19718  0.25446  1.0000
  S   S127      1.0  0.96097  0.29093  0.31411  1.0000
  C   C591      1.0  0.63642  0.46156  0.42588  1.0000
  H   H1043     1.0  0.96786  0.17091  0.32868  1.0000
  C   C592      1.0  0.79028  0.41698  0.41258  1.0000
  H   H1044     1.0  0.01272  0.02048  0.28879  1.0000
  S   S128      1.0  0.99286  0.39751  0.33762  1.0000
  H   H1045     1.0  0.93902  0.09929  0.32786  1.0000
  C   C593      1.0  0.65642  0.38175  0.23801  1.0000
  H   H1046     1.0  0.89491  0.38601  0.32871  1.0000
  H   H1047     1.0  0.97157  0.27357  0.21362  1.0000
  C   C594      1.0  0.87285  0.39315  0.31240  1.0000
  S   S129      1.0  0.77241  0.24779  0.29268  1.0000
  H   H1048     1.0  0.92783  0.31524  0.39515  1.0000
  C   C595      1.0  0.84486  0.21904  0.36143  1.0000
  H   H1049     1.0  0.98511  0.23224  0.34233  1.0000
  H   H1050     1.0  0.60489  0.44614  0.42072  1.0000
  N   N34       1.0  0.99757  0.20865  0.41588  1.0000
  S   S130      1.0  0.73964  0.15295  0.31974  1.0000
  H   H1051     1.0  0.57145  0.28587  0.43266  1.0000
  S   S131      1.0  0.00310  0.33927  0.43386  1.0000
  H   H1052     1.0  0.88849  0.98911  0.26536  1.0000
  H   H1053     1.0  0.98174  0.14762  0.44199  1.0000
  C   C596      1.0  0.83350  0.37026  0.40395  1.0000
  C   C597      1.0  0.82349  0.16648  0.23348  1.0000
  S   S132      1.0  0.63046  0.08166  0.33704  1.0000
  H   H1054     1.0  0.69588  0.01683  0.30725  1.0000
  H   H1055     1.0  0.96530  0.26066  0.42386  1.0000
  H   H1056     1.0  0.02061  0.17255  0.38969  1.0000
  H   H1057     1.0  0.77705  0.46457  0.39140  1.0000
  C   C598      1.0  0.94544  0.44544  0.40557  1.0000
  H   H1058     1.0  0.03529  0.09892  0.31509  1.0000
  H   H1059     1.0  0.93744  0.98593  0.32082  1.0000
  C   C599      1.0  0.77165  0.30805  0.44083  1.0000
  H   H1060     1.0  0.55843  0.12034  0.44656  1.0000
  H   H1061     1.0  0.03380  0.19745  0.23201  1.0000
  H   H1062     1.0  0.79228  0.29597  0.44031  1.0000
  H   H1063     1.0  0.91045  0.36333  0.21358  1.0000
  C   C600      1.0  0.02922  0.22408  0.45136  1.0000
  S   S133      1.0  0.88276  0.10886  0.20440  1.0000
  H   H1064     1.0  0.03932  0.25578  0.45271  1.0000
  H   H1065     1.0  0.03093  0.44932  0.20454  1.0000
  C   C601      1.0  0.02335  0.05770  0.50436  1.0000
  H   H1066     1.0  0.83301  0.15647  0.68180  1.0000
  C   C602      1.0  0.03619  0.10066  0.56858  1.0000
  H   H1067     1.0  0.77567  0.46216  0.51253  1.0000
  H   H1068     1.0  0.87739  0.46142  0.50185  1.0000
  C   C603      1.0  0.89869  0.29126  0.59126  1.0000
  H   H1069     1.0  0.96258  0.98187  0.67904  1.0000
  C   C604      1.0  0.96799  0.39076  0.62329  1.0000
  H   H1070     1.0  0.79092  0.46408  0.59941  1.0000
  H   H1071     1.0  0.79285  0.33059  0.60274  1.0000
  H   H1072     1.0  0.98235  0.25179  0.48542  1.0000
  S   S134      1.0  0.64678  0.33064  0.64345  1.0000
  C   C605      1.0  0.64736  0.24333  0.55165  1.0000
  H   H1073     1.0  0.62273  0.46158  0.61754  1.0000
  C   C606      1.0  0.93227  0.38186  0.66125  1.0000
  H   H1074     1.0  0.00238  0.39758  0.68788  1.0000
  C   C607      1.0  0.57922  0.20424  0.50464  1.0000
  H   H1075     1.0  0.84602  0.00331  0.59082  1.0000
  C   C608      1.0  0.61725  0.10494  0.47647  1.0000
  H   H1076     1.0  0.92145  0.25453  0.49970  1.0000
  C   C609      1.0  0.04164  0.38011  0.61868  1.0000
  H   H1077     1.0  0.00985  0.16978  0.51083  1.0000
  C   C610      1.0  0.54876  0.08807  0.45506  1.0000
  H   H1078     1.0  0.89465  0.29442  0.63302  1.0000
  H   H1079     1.0  0.88997  0.97380  0.47024  1.0000
  H   H1080     1.0  0.91021  0.32063  0.56524  1.0000
  H   H1081     1.0  0.75644  0.13138  0.63041  1.0000
  H   H1082     1.0  0.80700  0.30703  0.52450  1.0000
  H   H1083     1.0  0.96799  0.40890  0.58636  1.0000
  H   H1084     1.0  0.83324  0.47002  0.56271  1.0000
  H   H1085     1.0  0.00589  0.04264  0.47519  1.0000
  H   H1086     1.0  0.90679  0.42032  0.53527  1.0000
  H   H1087     1.0  0.93563  0.40933  0.67348  1.0000
  H   H1088     1.0  0.70130  0.18976  0.59728  1.0000
  H   H1089     1.0  0.77840  0.11133  0.56496  1.0000
  C   C611      1.0  0.57326  0.35142  0.68652  1.0000
  H   H1090     1.0  0.03104  0.01971  0.64490  1.0000
  C   C612      1.0  0.01843  0.20125  0.50941  1.0000
  H   H1091     1.0  0.75233  0.29271  0.47944  1.0000
  C   C613      1.0  0.94489  0.23725  0.68780  1.0000
  Fe  Fe70      1.0  0.94560  0.09841  0.58700  1.0000
  H   H1092     1.0  0.83337  0.22558  0.65272  1.0000
  C   C614      1.0  0.78821  0.98609  0.62731  1.0000
  H   H1093     1.0  0.63399  0.10096  0.50808  1.0000
  S   S135      1.0  0.73893  0.38132  0.59796  1.0000
  C   C615      1.0  0.00663  0.41354  0.64677  1.0000
  C   C616      1.0  0.01309  0.08075  0.53153  1.0000
  H   H1094     1.0  0.61401  0.18947  0.45476  1.0000
  H   H1095     1.0  0.00905  0.44241  0.65079  1.0000
  H   H1096     1.0  0.55564  0.98331  0.51577  1.0000
  H   H1097     1.0  0.56510  0.05058  0.50766  1.0000
  C   C617      1.0  0.61319  0.20329  0.48800  1.0000
  Fe  Fe71      1.0  0.75186  0.37695  0.68134  1.0000
  C   C618      1.0  0.64672  0.22160  0.51265  1.0000
  H   H1098     1.0  0.96383  0.36226  0.61462  1.0000
  H   H1099     1.0  0.62751  0.13698  0.46477  1.0000
  C   C619      1.0  0.93723  0.42765  0.45902  1.0000
  S   S136      1.0  0.90429  0.12217  0.57318  1.0000
  S   S137      1.0  0.79866  0.03482  0.62903  1.0000
  H   H1100     1.0  0.97086  0.29809  0.64923  1.0000
  H   H1101     1.0  0.86568  0.25936  0.53372  1.0000
  H   H1102     1.0  0.83342  0.19934  0.51495  1.0000
  C   C620      1.0  0.91285  0.43366  0.49376  1.0000
  C   C621      1.0  0.57847  0.22283  0.54702  1.0000
  H   H1103     1.0  0.02465  0.41628  0.53836  1.0000
  Fe  Fe72      1.0  0.69444  0.31718  0.62099  1.0000
  H   H1104     1.0  0.63355  0.28899  0.46070  1.0000
  H   H1105     1.0  0.62429  0.40656  0.69333  1.0000
  H   H1106     1.0  0.62909  0.33150  0.46979  1.0000
  C   C622      1.0  0.95964  0.27784  0.68671  1.0000
  C   C623      1.0  0.81803  0.97895  0.60936  1.0000
  Fe  Fe73      1.0  0.69327  0.39480  0.62918  1.0000
  C   C624      1.0  0.79084  0.13738  0.53228  1.0000
  H   H1107     1.0  0.61288  0.25892  0.60106  1.0000
  H   H1108     1.0  0.84585  0.17085  0.56147  1.0000
  H   H1109     1.0  0.67304  0.22110  0.49897  1.0000
  S   S138      1.0  0.95718  0.39806  0.48346  1.0000
  C   C625      1.0  0.85991  0.26199  0.57511  1.0000
  C   C626      1.0  0.02241  0.02607  0.68240  1.0000
  S   S139      1.0  0.97397  0.13551  0.64780  1.0000
  H   H1110     1.0  0.85300  0.35194  0.50527  1.0000
  C   C627      1.0  0.61289  0.24310  0.56995  1.0000
  C   C628      1.0  0.81027  0.12801  0.48751  1.0000
  H   H1111     1.0  0.58334  0.31732  0.54845  1.0000
  C   C629      1.0  0.57347  0.08221  0.49688  1.0000
  S   S140      1.0  0.97151  0.08454  0.51836  1.0000
  H   H1112     1.0  0.76632  0.24848  0.59301  1.0000
  H   H1113     1.0  0.71122  0.16355  0.65301  1.0000
  H   H1114     1.0  0.90556  0.36902  0.64134  1.0000
  H   H1115     1.0  0.76648  0.14086  0.51714  1.0000
  C   C630      1.0  0.71782  0.19316  0.63186  1.0000
  H   H1116     1.0  0.03841  0.05860  0.68047  1.0000
  C   C631      1.0  0.89641  0.45705  0.47496  1.0000
  H   H1117     1.0  0.77311  0.35012  0.51818  1.0000
  C   C632      1.0  0.97877  0.01282  0.68532  1.0000
  H   H1118     1.0  0.86431  0.21308  0.61816  1.0000
  H   H1119     1.0  0.73773  0.46869  0.67291  1.0000
  C   C633      1.0  0.80153  0.35972  0.49352  1.0000
  H   H1120     1.0  0.94706  0.17712  0.47633  1.0000
  H   H1121     1.0  0.77713  0.22536  0.64901  1.0000
  H   H1122     1.0  0.75293  0.17750  0.56115  1.0000
  S   S141      1.0  0.94437  0.21973  0.62830  1.0000
  H   H1123     1.0  0.91349  0.20581  0.52593  1.0000
  H   H1124     1.0  0.75643  0.07690  0.69399  1.0000
  C   C634      1.0  0.95966  0.23834  0.45935  1.0000
  H   H1125     1.0  0.55396  0.28847  0.63953  1.0000
  S   S142      1.0  0.90259  0.04647  0.64748  1.0000
  H   H1126     1.0  0.63901  0.45570  0.46861  1.0000
  H   H1127     1.0  0.03493  0.36434  0.66052  1.0000
  H   H1128     1.0  0.92822  0.36004  0.69684  1.0000
  H   H1129     1.0  0.55195  0.22286  0.56066  1.0000
  H   H1130     1.0  0.82004  0.39171  0.49364  1.0000
  N   N35       1.0  0.80594  0.18830  0.59501  1.0000
  Fe  Fe74      1.0  0.86262  0.07215  0.63710  1.0000
  C   C635      1.0  0.82102  0.17545  0.55064  1.0000
  C   C636      1.0  0.92018  0.22750  0.48904  1.0000
  H   H1131     1.0  0.02870  0.11886  0.58923  1.0000
  S   S143      1.0  0.88406  0.10725  0.70172  1.0000
  H   H1132     1.0  0.82244  0.15271  0.45287  1.0000
  H   H1133     1.0  0.81848  0.12369  0.63483  1.0000
  S   S144      1.0  0.69252  0.27284  0.57295  1.0000
  H   H1134     1.0  0.83756  0.37742  0.58313  1.0000
  H   H1135     1.0  0.99393  0.20270  0.53061  1.0000
  C   C637      1.0  0.84088  0.22123  0.61281  1.0000
  S   S145      1.0  0.81624  0.41286  0.68426  1.0000
  H   H1136     1.0  0.01714  0.36073  0.59843  1.0000
  H   H1137     1.0  0.83418  0.12284  0.50111  1.0000
  H   H1138     1.0  0.77442  0.16500  0.67422  1.0000
  C   C638      1.0  0.82314  0.34540  0.58129  1.0000
  Fe  Fe75      1.0  0.92921  0.15567  0.63842  1.0000
  H   H1139     1.0  0.56953  0.09343  0.53275  1.0000
  H   H1140     1.0  0.70771  0.20723  0.65894  1.0000
  C   C639      1.0  0.77815  0.20192  0.57463  1.0000
  H   H1141     1.0  0.84022  0.27491  0.57613  1.0000
  H   H1142     1.0  0.79240  0.22462  0.53782  1.0000
  H   H1143     1.0  0.78819  0.10083  0.47480  1.0000
  H   H1144     1.0  0.94570  0.00037  0.53137  1.0000
  S   S146      1.0  0.69011  0.44767  0.58690  1.0000
  H   H1145     1.0  0.58080  0.41047  0.68342  1.0000
  H   H1146     1.0  0.89657  0.21490  0.46381  1.0000
  H   H1147     1.0  0.97410  0.03183  0.65352  1.0000
  C   C640      1.0  0.76183  0.21945  0.61361  1.0000
  H   H1148     1.0  0.58629  0.35604  0.64511  1.0000
  C   C641      1.0  0.78409  0.15467  0.64125  1.0000
  H   H1149     1.0  0.83984  0.33261  0.60175  1.0000
  C   C642      1.0  0.82224  0.33932  0.52379  1.0000
  H   H1150     1.0  0.92063  0.28123  0.58653  1.0000
  C   C643      1.0  0.55346  0.30698  0.53705  1.0000
  H   H1151     1.0  0.55572  0.32626  0.49957  1.0000
  C   C644      1.0  0.80748  0.13500  0.66502  1.0000
  S   S147      1.0  0.71072  0.31145  0.70260  1.0000
  C   C645      1.0  0.63359  0.54282  0.82123  1.0000
  H   H1152     1.0  0.87339  0.70922  0.92071  1.0000
  H   H1153     1.0  0.64416  0.87365  0.95133  1.0000
  H   H1154     1.0  0.55005  0.74206  0.87487  1.0000
  H   H1155     1.0  0.60193  0.51821  0.75742  1.0000
  C   C646      1.0  0.67072  0.57615  0.70494  1.0000
  H   H1156     1.0  0.72350  0.87332  0.88141  1.0000
  H   H1157     1.0  0.60985  0.49787  0.89293  1.0000
  C   C647      1.0  0.94935  0.50123  0.93126  1.0000
  S   S148      1.0  0.84227  0.81343  0.90908  1.0000
  H   H1158     1.0  0.98873  0.57015  0.81224  1.0000
  C   C648      1.0  0.86314  0.47708  0.94985  1.0000
  N   N36       1.0  0.66210  0.53551  0.73208  1.0000
  H   H1159     1.0  0.59196  0.90779  0.89807  1.0000
  H   H1160     1.0  0.81463  0.68440  0.87619  1.0000
  H   H1161     1.0  0.61716  0.48755  0.79178  1.0000
  H   H1162     1.0  0.93144  0.47592  0.91162  1.0000
  H   H1163     1.0  0.89557  0.97052  0.78771  1.0000
  H   H1164     1.0  0.88447  0.96548  0.94419  1.0000
  H   H1165     1.0  0.81576  0.89617  0.72387  1.0000
  C   C649      1.0  0.62028  0.84976  0.78266  1.0000
  H   H1166     1.0  0.79888  0.91190  0.86449  1.0000
  H   H1167     1.0  0.94635  0.95744  0.81914  1.0000
  C   C650      1.0  0.87876  0.92649  0.71080  1.0000
  H   H1168     1.0  0.68339  0.59789  0.73119  1.0000
  S   S149      1.0  0.02802  0.48032  0.73338  1.0000
  C   C651      1.0  0.87064  0.94629  0.81617  1.0000
  C   C652      1.0  0.75111  0.64927  0.77406  1.0000
  H   H1169     1.0  0.61195  0.71195  0.88173  1.0000
  C   C653      1.0  0.86715  0.77776  0.77466  1.0000
  H   H1170     1.0  0.65599  0.82159  0.77676  1.0000
  H   H1171     1.0  0.66312  0.67263  0.87106  1.0000
  H   H1172     1.0  0.79731  0.76064  0.81207  1.0000
  H   H1173     1.0  0.62011  0.87618  0.76146  1.0000
  C   C654      1.0  0.84447  0.69158  0.94578  1.0000
  H   H1174     1.0  0.64561  0.93093  0.79318  1.0000
  C   C655      1.0  0.88391  0.91791  0.84470  1.0000
  C   C656      1.0  0.64386  0.61905  0.93008  1.0000
  H   H1175     1.0  0.79372  0.96266  0.82953  1.0000
  H   H1176     1.0  0.88290  0.89603  0.82094  1.0000
  H   H1177     1.0  0.86583  0.96154  0.84671  1.0000
  H   H1178     1.0  0.56221  0.72719  0.81647  1.0000
  C   C657      1.0  0.69797  0.53903  0.75539  1.0000
  H   H1179     1.0  0.54298  0.53964  0.78906  1.0000
  H   H1180     1.0  0.69863  0.48414  0.74778  1.0000
  H   H1181     1.0  0.90969  0.76063  0.74842  1.0000
  C   C658      1.0  0.79319  0.77564  0.77505  1.0000
  H   H1182     1.0  0.64338  0.47722  0.71394  1.0000
  H   H1183     1.0  0.54354  0.80916  0.84980  1.0000
  H   H1184     1.0  0.65214  0.86930  0.84937  1.0000
  H   H1185     1.0  0.72616  0.51891  0.84764  1.0000
  C   C659      1.0  0.02784  0.96650  0.85860  1.0000
  H   H1186     1.0  0.72809  0.47760  0.82720  1.0000
  S   S150      1.0  0.66352  0.77200  0.71015  1.0000
  C   C660      1.0  0.59945  0.60275  0.92751  1.0000
  C   C661      1.0  0.66843  0.64702  0.87866  1.0000
  N   N37       1.0  0.59315  0.85795  0.87226  1.0000
  H   H1187     1.0  0.92860  0.96214  0.88242  1.0000
  H   H1188     1.0  0.87587  0.47881  0.90948  1.0000
  H   H1189     1.0  0.65063  0.59458  0.93705  1.0000
  S   S151      1.0  0.66330  0.77128  0.93502  1.0000
  H   H1190     1.0  0.93302  0.54134  0.88344  1.0000
  H   H1191     1.0  0.72410  0.55421  0.72476  1.0000
  H   H1192     1.0  0.65835  0.57336  0.81138  1.0000
  C   C662      1.0  0.92600  0.94096  0.85647  1.0000
  C   C663      1.0  0.55476  0.84115  0.84967  1.0000
  C   C664      1.0  0.63862  0.52262  0.87323  1.0000
  H   H1193     1.0  0.56487  0.80505  0.93344  1.0000
  H   H1194     1.0  0.73394  0.83349  0.87865  1.0000
  H   H1195     1.0  0.68295  0.87518  0.75899  1.0000
  C   C665      1.0  0.90917  0.78526  0.76466  1.0000
  H   H1196     1.0  0.93491  0.92029  0.87705  1.0000
  C   C666      1.0  0.98153  0.54237  0.83968  1.0000
  C   C667      1.0  0.83240  0.49028  0.94389  1.0000
  C   C668      1.0  0.78040  0.69222  0.77547  1.0000
  H   H1197     1.0  0.60718  0.54580  0.82964  1.0000
  H   H1198     1.0  0.80508  0.94742  0.73385  1.0000
  H   H1199     1.0  0.59443  0.91735  0.79338  1.0000
  H   H1200     1.0  0.85015  0.75000  0.80398  1.0000
  H   H1201     1.0  0.03311  0.91910  0.72019  1.0000
  H   H1202     1.0  0.59334  0.82342  0.77621  1.0000
  C   C669      1.0  0.95977  0.53992  0.89231  1.0000
  H   H1203     1.0  0.90935  0.61192  0.72530  1.0000
  H   H1204     1.0  0.74930  0.79346  0.75608  1.0000
  C   C670      1.0  0.58478  0.83755  0.92957  1.0000
  H   H1205     1.0  0.69919  0.83797  0.83975  1.0000
  H   H1206     1.0  0.82075  0.72641  0.90435  1.0000
  H   H1207     1.0  0.59320  0.59080  0.89041  1.0000
  H   H1208     1.0  0.92190  0.78736  0.80247  1.0000
  H   H1209     1.0  0.84586  0.52050  0.91957  1.0000
  H   H1210     1.0  0.97906  0.56643  0.90863  1.0000
  C   C671      1.0  0.72916  0.50623  0.81279  1.0000
  C   C672      1.0  0.74117  0.93119  0.95211  1.0000
  C   C673      1.0  0.78068  0.72039  0.72674  1.0000
  H   H1211     1.0  0.75868  0.86150  0.78046  1.0000
  H   H1212     1.0  0.74991  0.71255  0.72158  1.0000
  H   H1213     1.0  0.80980  0.69469  0.77564  1.0000
  H   H1214     1.0  0.75341  0.90342  0.79053  1.0000
  H   H1215     1.0  0.61575  0.81849  0.85925  1.0000
  H   H1216     1.0  0.65928  0.51136  0.86747  1.0000
  C   C674      1.0  0.59138  0.59809  0.76266  1.0000
  S   S152      1.0  0.65611  0.66984  0.72971  1.0000
  C   C675      1.0  0.83974  0.90465  0.74896  1.0000
  C   C676      1.0  0.73687  0.76746  0.83852  1.0000
  C   C677      1.0  0.88870  0.82647  0.92844  1.0000
  H   H1217     1.0  0.96320  0.51693  0.82062  1.0000
  C   C678      1.0  0.82789  0.95930  0.76052  1.0000
  H   H1218     1.0  0.75783  0.64082  0.73695  1.0000
  H   H1219     1.0  0.83649  0.87602  0.76897  1.0000
  H   H1220     1.0  0.81288  0.80769  0.77442  1.0000
  H   H1221     1.0  0.00942  0.54248  0.84597  1.0000
  H   H1222     1.0  0.75806  0.52665  0.78861  1.0000
  H   H1223     1.0  0.66777  0.47893  0.80520  1.0000
  H   H1224     1.0  0.74932  0.93703  0.90866  1.0000
  H   H1225     1.0  0.98476  0.87178  0.87518  1.0000
  C   C679      1.0  0.75992  0.88039  0.80956  1.0000
  C   C680      1.0  0.59695  0.70732  0.92072  1.0000
  H   H1226     1.0  0.78417  0.67675  0.93613  1.0000
  C   C681      1.0  0.65513  0.84810  0.75680  1.0000
  H   H1227     1.0  0.54417  0.65712  0.90842  1.0000
  H   H1228     1.0  0.60380  0.97015  0.84303  1.0000
  H   H1229     1.0  0.80457  0.87305  0.84717  1.0000
  H   H1230     1.0  0.86453  0.90132  0.88274  1.0000
  C   C682      1.0  0.61485  0.62727  0.71920  1.0000
  C   C683      1.0  0.62767  0.51921  0.77508  1.0000
  H   H1231     1.0  0.97744  0.50101  0.93447  1.0000
  H   H1232     1.0  0.00627  0.94064  0.88838  1.0000
  H   H1233     1.0  0.66112  0.63138  0.84461  1.0000
  H   H1234     1.0  0.81875  0.95184  0.92923  1.0000
  H   H1235     1.0  0.70005  0.65838  0.88183  1.0000
  H   H1236     1.0  0.63913  0.91353  0.88749  1.0000
  H   H1237     1.0  0.65030  0.54390  0.90047  1.0000
  C   C684      1.0  0.55847  0.67662  0.93561  1.0000
  H   H1238     1.0  0.86833  0.80248  0.79256  1.0000
  H   H1239     1.0  0.63393  0.82586  0.94048  1.0000
  N   N38       1.0  0.80542  0.76403  0.72681  1.0000
  H   H1240     1.0  0.72099  0.64525  0.77696  1.0000
  C   C685      1.0  0.75058  0.76878  0.78144  1.0000
  H   H1241     1.0  0.77169  0.69850  0.81305  1.0000
  H   H1242     1.0  0.56204  0.52591  0.92879  1.0000
  C   C686      1.0  0.92166  0.84334  0.88993  1.0000
  N   N39       1.0  0.83473  0.92718  0.78897  1.0000
  H   H1243     1.0  0.90421  0.93526  0.73303  1.0000
  H   H1244     1.0  0.72912  0.74073  0.77033  1.0000
  H   H1245     1.0  0.01746  0.93398  0.79416  1.0000
  H   H1246     1.0  0.75253  0.62953  0.80830  1.0000
  C   C687      1.0  0.62931  0.97046  0.82161  1.0000
  C   C688      1.0  0.81410  0.69510  0.91377  1.0000
  C   C689      1.0  0.69588  0.49938  0.77973  1.0000
  H   H1247     1.0  0.59661  0.60382  0.80202  1.0000
  C   C690      1.0  0.80043  0.89836  0.82995  1.0000
  H   H1248     1.0  0.55844  0.85463  0.80754  1.0000
  H   H1249     1.0  0.70540  0.55832  0.78553  1.0000
  C   C691      1.0  0.62151  0.84900  0.84298  1.0000
  H   H1250     1.0  0.91827  0.84675  0.84841  1.0000
  C   C692      1.0  0.61957  0.92851  0.81623  1.0000
  C   C693      1.0  0.61078  0.90186  0.87113  1.0000
  H   H1251     1.0  0.73263  0.74006  0.86397  1.0000
  C   C694      1.0  0.56140  0.56157  0.75528  1.0000
  C   C695      1.0  0.72724  0.85488  0.85515  1.0000
  H   H1252     1.0  0.75871  0.79351  0.85360  1.0000
  H   H1253     1.0  0.70836  0.76720  0.84075  1.0000
  C   C696      1.0  0.95935  0.85780  0.90508  1.0000
  H   H1254     1.0  0.59455  0.62867  0.92112  1.0000
  C   C697      1.0  0.84863  0.77579  0.72242  1.0000
  H   H1255     1.0  0.92770  0.81346  0.73628  1.0000
  C   C698      1.0  0.55602  0.55334  0.70436  1.0000
  H   H1256     1.0  0.65208  0.84595  0.71459  1.0000
  H   H1257     1.0  0.90762  0.62346  0.17506  1.0000
  C   C699      1.0  0.94365  0.52209  0.07343  1.0000
  H   H1258     1.0  0.61456  0.58240  0.02885  1.0000
  H   H1259     1.0  0.86816  0.80717  0.01185  1.0000
  H   H1260     1.0  0.70933  0.60450  0.97265  1.0000
  H   H1261     1.0  0.73051  0.89952  0.96856  1.0000
  C   C700      1.0  0.95836  0.52507  0.01507  1.0000
  S   S153      1.0  0.66087  0.52168  0.02235  1.0000
  H   H1262     1.0  0.63506  0.82785  0.03457  1.0000
  C   C701      1.0  0.82069  0.62944  0.07664  1.0000
  Fe  Fe76      1.0  0.01530  0.87700  0.06467  1.0000
  H   H1263     1.0  0.66357  0.53443  0.12817  1.0000
  Fe  Fe77      1.0  0.59264  0.94646  0.99811  1.0000
  C   C702      1.0  0.87028  0.71932  0.08408  1.0000
  H   H1264     1.0  0.98571  0.52293  0.01378  1.0000
  H   H1265     1.0  0.78468  0.50966  0.15006  1.0000
  H   H1266     1.0  0.76431  0.47740  0.07163  1.0000
  H   H1267     1.0  0.73221  0.48388  0.15128  1.0000
  H   H1268     1.0  0.99803  0.53595  0.10514  1.0000
  H   H1269     1.0  0.80664  0.82206  0.18610  1.0000
  S   S154      1.0  0.93646  0.75532  0.19653  1.0000
  C   C703      1.0  0.86208  0.91538  0.00702  1.0000
  H   H1270     1.0  0.61672  0.66439  0.08819  1.0000
  H   H1271     1.0  0.67633  0.89681  0.06853  1.0000
  H   H1272     1.0  0.81687  0.63253  0.11847  1.0000
  H   H1273     1.0  0.96608  0.54739  0.14194  1.0000
  H   H1274     1.0  0.94470  0.70296  0.05671  1.0000
  H   H1275     1.0  0.01244  0.76073  0.17084  1.0000
  S   S155      1.0  0.64209  0.93319  0.00337  1.0000
  H   H1276     1.0  0.56585  0.55868  0.05960  1.0000
  C   C704      1.0  0.89469  0.50279  0.98275  1.0000
  N   N40       1.0  0.92919  0.49573  0.98574  1.0000
  Fe  Fe78      1.0  0.65208  0.96184  0.07453  1.0000
  C   C705      1.0  0.59691  0.72584  0.00669  1.0000
  S   S156      1.0  0.98151  0.62484  0.16237  1.0000
  H   H1277     1.0  0.84413  0.89750  0.97887  1.0000
  C   C706      1.0  0.80976  0.94828  0.97212  1.0000
  H   H1278     1.0  0.71541  0.47391  0.95465  1.0000
  C   C707      1.0  0.69496  0.91465  0.14222  1.0000
  C   C708      1.0  0.98958  0.73094  0.17094  1.0000
  C   C709      1.0  0.74072  0.89511  0.17717  1.0000
  H   H1279     1.0  0.81422  0.69151  0.01768  1.0000
  H   H1280     1.0  0.61190  0.74491  0.03414  1.0000
  H   H1281     1.0  0.90481  0.53457  0.96723  1.0000
  C   C710      1.0  0.97001  0.66283  0.16478  1.0000
  H   H1282     1.0  0.92187  0.53252  0.07511  1.0000
  S   S157      1.0  0.73881  0.74014  0.97760  1.0000
  N   N41       1.0  0.57187  0.57166  0.97402  1.0000
  H   H1283     1.0  0.87905  0.49659  0.02319  1.0000
  H   H1284     1.0  0.81951  0.49035  0.98327  1.0000
  C   C711      1.0  0.89340  0.82136  0.98188  1.0000
  H   H1285     1.0  0.80615  0.68249  0.11128  1.0000
  S   S158      1.0  0.60051  0.97235  0.07184  1.0000
  C   C712      1.0  0.58970  0.62158  0.03726  1.0000
  C   C713      1.0  0.83186  0.72621  0.15961  1.0000
  H   H1286     1.0  0.81466  0.58153  0.03678  1.0000
  C   C714      1.0  0.68313  0.56535  0.04810  1.0000
  H   H1287     1.0  0.89032  0.67316  0.19511  1.0000
  Fe  Fe79      1.0  0.00398  0.90350  0.16792  1.0000
  H   H1288     1.0  0.65333  0.63614  0.96252  1.0000
  H   H1289     1.0  0.60957  0.61584  0.11392  1.0000
  C   C715      1.0  0.55765  0.69593  0.02089  1.0000
  H   H1290     1.0  0.88052  0.95916  0.09146  1.0000
  H   H1291     1.0  0.60064  0.64480  0.00123  1.0000
  C   C716      1.0  0.86304  0.65998  0.05048  1.0000
  H   H1292     1.0  0.74762  0.76906  0.19116  1.0000
  C   C717      1.0  0.69449  0.89672  0.09856  1.0000
  H   H1293     1.0  0.85295  0.73849  0.98809  1.0000
  C   C718      1.0  0.83198  0.96400  0.05754  1.0000
  Fe  Fe80      1.0  0.75808  0.81646  0.06857  1.0000
  C   C719      1.0  0.67796  0.56295  0.10261  1.0000
  C   C720      1.0  0.70423  0.60250  0.01489  1.0000
  S   S159      1.0  0.87505  0.54225  0.16322  1.0000
  S   S160      1.0  0.03343  0.83519  0.10544  1.0000
  C   C721      1.0  0.94685  0.73184  0.04075  1.0000
  C   C722      1.0  0.93071  0.65315  0.17450  1.0000
  C   C723      1.0  0.71786  0.91346  0.18166  1.0000
  H   H1294     1.0  0.89001  0.75206  0.07606  1.0000
  S   S161      1.0  0.96348  0.85720  0.12542  1.0000
  S   S162      1.0  0.01190  0.87938  0.97694  1.0000
  C   C724      1.0  0.60921  0.82589  0.01638  1.0000
  H   H1295     1.0  0.71685  0.93754  0.95980  1.0000
  H   H1296     1.0  0.71609  0.86330  0.06125  1.0000
  Fe  Fe81      1.0  0.70769  0.77447  0.98814  1.0000
  H   H1297     1.0  0.91578  0.92553  0.03918  1.0000
  C   C725      1.0  0.71794  0.63711  0.03654  1.0000
  C   C726      1.0  0.71682  0.87754  0.09459  1.0000
  H   H1298     1.0  0.73372  0.66570  0.01102  1.0000
  C   C727      1.0  0.87522  0.95967  0.98730  1.0000
  C   C728      1.0  0.61620  0.73180  0.95625  1.0000
  H   H1299     1.0  0.82193  0.73194  0.07881  1.0000
  H   H1300     1.0  0.88151  0.70753  0.11671  1.0000
  C   C729      1.0  0.95016  0.72049  0.18348  1.0000
  H   H1301     1.0  0.76529  0.95428  0.02024  1.0000
  H   H1302     1.0  0.91750  0.71295  0.97330  1.0000
  H   H1303     1.0  0.59883  0.53494  0.96994  1.0000
  N   N42       1.0  0.87205  0.70239  0.03537  1.0000
  C   C730      1.0  0.81248  0.58711  0.07762  1.0000
  S   S163      1.0  0.77065  0.85604  0.12831  1.0000
  H   H1304     1.0  0.93415  0.83205  0.03818  1.0000
  C   C731      1.0  0.75846  0.48006  0.15386  1.0000
  C   C732      1.0  0.83002  0.71339  0.10623  1.0000
  H   H1305     1.0  0.02991  0.70944  0.15498  1.0000
  H   H1306     1.0  0.88642  0.87680  0.02599  1.0000
  H   H1307     1.0  0.55639  0.49496  0.04609  1.0000
  C   C733      1.0  0.98716  0.75805  0.00800  1.0000
  H   H1308     1.0  0.87022  0.64966  0.01550  1.0000
  H   H1309     1.0  0.82860  0.93791  0.16613  1.0000
  C   C734      1.0  0.58614  0.58212  0.02589  1.0000
  S   S164      1.0  0.76308  0.83239  0.98034  1.0000
  H   H1310     1.0  0.81096  0.93229  0.07205  1.0000
  H   H1311     1.0  0.96777  0.55585  0.99514  1.0000
  H   H1312     1.0  0.99055  0.74473  0.97407  1.0000
  H   H1313     1.0  0.88242  0.65762  0.07928  1.0000
  C   C735      1.0  0.91347  0.72645  0.00671  1.0000
  H   H1314     1.0  0.79667  0.91622  0.98875  1.0000
  H   H1315     1.0  0.55973  0.88771  0.08333  1.0000
  C   C736      1.0  0.84505  0.70677  0.99836  1.0000
  H   H1316     1.0  0.01031  0.76132  0.03330  1.0000
  Fe  Fe82      1.0  0.98352  0.81788  0.16824  1.0000
  H   H1317     1.0  0.84419  0.90374  0.04642  1.0000
  C   C737      1.0  0.88058  0.87158  0.14568  1.0000
  C   C738      1.0  0.97753  0.54784  0.10152  1.0000
  C   C739      1.0  0.93105  0.83582  0.99696  1.0000
  H   H1318     1.0  0.94605  0.74640  0.07442  1.0000
  H   H1319     1.0  0.88263  0.85023  0.12320  1.0000
  S   S165      1.0  0.72512  0.67637  0.12015  1.0000
  H   H1320     1.0  0.92991  0.49150  0.09624  1.0000
  H   H1321     1.0  0.82985  0.79335  0.18939  1.0000
  H   H1322     1.0  0.68613  0.59495  0.16640  1.0000
  H   H1323     1.0  0.85658  0.75672  0.15676  1.0000
  Fe  Fe83      1.0  0.79407  0.79709  0.97545  1.0000
  S   S166      1.0  0.66702  0.93835  0.14939  1.0000
  C   C740      1.0  0.69143  0.59726  0.12416  1.0000
  H   H1324     1.0  0.59827  0.84301  0.03596  1.0000
  C   C741      1.0  0.96426  0.85563  0.95876  1.0000
  C   C742      1.0  0.99952  0.70199  0.16174  1.0000
  H   H1325     1.0  0.54557  0.57478  0.16897  1.0000
  H   H1326     1.0  0.91007  0.89787  0.14188  1.0000
  C   C743      1.0  0.89714  0.90857  0.01091  1.0000
  H   H1327     1.0  0.56033  0.61641  0.05304  1.0000
  H   H1328     1.0  0.78225  0.56621  0.09782  1.0000
  Fe  Fe84      1.0  0.73688  0.73161  0.06557  1.0000
  H   H1329     1.0  0.99122  0.78796  0.99301  1.0000
  C   C744      1.0  0.56956  0.53282  0.96857  1.0000
  C   C745      1.0  0.77605  0.95800  0.97806  1.0000
  H   H1330     1.0  0.80398  0.72555  0.17159  1.0000
  C   C746      1.0  0.61770  0.63829  0.07758  1.0000
  H   H1331     1.0  0.91930  0.75667  0.98870  1.0000
  H   H1332     1.0  0.86053  0.88125  0.12841  1.0000
  H   H1333     1.0  0.83343  0.58153  0.09987  1.0000
  H   H1334     1.0  0.79808  0.63263  0.05573  1.0000
  H   H1335     1.0  0.58587  0.79437  0.02374  1.0000
  H   H1336     1.0  0.83591  0.70579  0.18999  1.0000
  C   C747      1.0  0.74020  0.87709  0.13375  1.0000
  S   S167      1.0  0.70049  0.76080  0.07673  1.0000
  H   H1337     1.0  0.73443  0.57103  0.18816  1.0000
  C   C748      1.0  0.92083  0.68158  0.18511  1.0000
  H   H1338     1.0  0.56889  0.84819  0.95414  1.0000
  S   S168      1.0  0.79417  0.78646  0.06336  1.0000
  C   C749      1.0  0.84889  0.96989  0.15107  1.0000
  C   C750      1.0  0.98377  0.96727  0.10169  1.0000
  H   H1339     1.0  0.64821  0.64806  0.06046  1.0000
  C   C751      1.0  0.71090  0.63437  0.09129  1.0000
  H   H1340     1.0  0.99183  0.94580  0.09249  1.0000
  H   H1341     1.0  0.99332  0.57901  0.07997  1.0000
  C   C752      1.0  0.97714  0.97032  0.15427  1.0000
  H   H1342     1.0  0.60772  0.55973  0.17448  1.0000
  S   S169      1.0  0.58471  0.48117  0.15251  1.0000
  N   N43       1.0  0.84482  0.97181  0.99874  1.0000
  H   H1343     1.0  0.54242  0.69166  0.05950  1.0000
  H   H1344     1.0  0.91501  0.91729  0.97172  1.0000
  C   C753      1.0  0.62091  0.84237  0.95693  1.0000
  H   H1345     1.0  0.83672  0.65997  0.95338  1.0000
  C   C754      1.0  0.69868  0.52819  0.40989  1.0000
  H   H1346     1.0  0.94795  0.94753  0.38501  1.0000
  H   H1347     1.0  0.82780  0.73468  0.27402  1.0000
  C   C755      1.0  0.71265  0.70055  0.40808  1.0000
  C   C756      1.0  0.85208  0.89894  0.44334  1.0000
  H   H1348     1.0  0.65974  0.70454  0.40432  1.0000
  H   H1349     1.0  0.85605  0.81625  0.30743  1.0000
  C   C757      1.0  0.02145  0.53334  0.25152  1.0000
  C   C758      1.0  0.98232  0.63612  0.31032  1.0000
  H   H1350     1.0  0.84352  0.60441  0.33281  1.0000
  H   H1351     1.0  0.87561  0.87396  0.35961  1.0000
  H   H1352     1.0  0.61857  0.55967  0.24160  1.0000
  C   C759      1.0  0.74090  0.62877  0.31247  1.0000
  H   H1353     1.0  0.77148  0.62961  0.23860  1.0000
  C   C760      1.0  0.67164  0.48507  0.27178  1.0000
  H   H1354     1.0  0.99306  0.50945  0.27375  1.0000
  N   N44       1.0  0.71943  0.57276  0.39438  1.0000
  H   H1355     1.0  0.78190  0.79880  0.37295  1.0000
  H   H1356     1.0  0.01598  0.54685  0.21432  1.0000
  H   H1357     1.0  0.86951  0.78037  0.24076  1.0000
  H   H1358     1.0  0.76040  0.49556  0.29644  1.0000
  C   C761      1.0  0.69708  0.58984  0.42010  1.0000
  H   H1359     1.0  0.02819  0.75440  0.39462  1.0000
  C   C762      1.0  0.01118  0.79615  0.36168  1.0000
  C   C763      1.0  0.69896  0.47632  0.29441  1.0000
  H   H1360     1.0  0.98009  0.68379  0.34191  1.0000
  H   H1361     1.0  0.97789  0.62509  0.27259  1.0000
  C   C764      1.0  0.90434  0.47449  0.42140  1.0000
  H   H1362     1.0  0.00090  0.60228  0.41550  1.0000
  C   C765      1.0  0.68661  0.71388  0.42184  1.0000
  C   C766      1.0  0.88051  0.95736  0.37266  1.0000
  H   H1363     1.0  0.68798  0.70516  0.28249  1.0000
  H   H1364     1.0  0.02231  0.82816  0.34896  1.0000
  N   N45       1.0  0.80526  0.79522  0.26554  1.0000
  H   H1365     1.0  0.00086  0.52737  0.39494  1.0000
  S   S170      1.0  0.82793  0.48435  0.27700  1.0000
  C   C767      1.0  0.97722  0.67267  0.30416  1.0000
  C   C768      1.0  0.93325  0.88317  0.33741  1.0000
  H   H1366     1.0  0.72717  0.77746  0.24901  1.0000
  C   C769      1.0  0.79391  0.82269  0.28758  1.0000
  Fe  Fe85      1.0  0.86603  0.48491  0.20820  1.0000
  H   H1367     1.0  0.54586  0.60835  0.23851  1.0000
  C   C770      1.0  0.91778  0.92194  0.39701  1.0000
  C   C771      1.0  0.75193  0.53607  0.24011  1.0000
  H   H1368     1.0  0.94769  0.66515  0.29325  1.0000
  C   C772      1.0  0.75458  0.83476  0.35676  1.0000
  H   H1369     1.0  0.98897  0.78601  0.39712  1.0000
  H   H1370     1.0  0.67875  0.71872  0.21691  1.0000
  H   H1371     1.0  0.99022  0.57081  0.29221  1.0000
  S   S171      1.0  0.80169  0.56965  0.22085  1.0000
  H   H1372     1.0  0.83497  0.88326  0.41281  1.0000
  C   C773      1.0  0.01096  0.55249  0.41616  1.0000
  H   H1373     1.0  0.03209  0.61138  0.25325  1.0000
  H   H1374     1.0  0.92113  0.90214  0.42948  1.0000
  S   S172      1.0  0.89374  0.57562  0.27440  1.0000
  H   H1375     1.0  0.73721  0.84039  0.32729  1.0000
  Fe  Fe86      1.0  0.92727  0.57066  0.20536  1.0000
  H   H1376     1.0  0.71812  0.92702  0.21561  1.0000
  H   H1377     1.0  0.96442  0.90704  0.33104  1.0000
  N   N46       1.0  0.88997  0.93516  0.41724  1.0000
  H   H1378     1.0  0.77376  0.62188  0.40856  1.0000
  C   C774      1.0  0.76669  0.80545  0.34116  1.0000
  C   C775      1.0  0.75956  0.58930  0.41216  1.0000
  H   H1379     1.0  0.57514  0.96816  0.24859  1.0000
  H   H1380     1.0  0.75664  0.73873  0.30488  1.0000
  H   H1381     1.0  0.71214  0.51561  0.38497  1.0000
  C   C776      1.0  0.98991  0.77555  0.31764  1.0000
  H   H1382     1.0  0.82043  0.84954  0.29403  1.0000
  C   C777      1.0  0.72452  0.54463  0.21784  1.0000
  H   H1383     1.0  0.81554  0.77110  0.34009  1.0000
  S   S173      1.0  0.77866  0.69437  0.41516  1.0000
  H   H1384     1.0  0.77812  0.73725  0.24451  1.0000
  H   H1385     1.0  0.75855  0.89460  0.20768  1.0000
  H   H1386     1.0  0.92678  0.87072  0.30063  1.0000
  C   C778      1.0  0.82171  0.61291  0.34609  1.0000
  H   H1387     1.0  0.70591  0.68108  0.37967  1.0000
  C   C779      1.0  0.72287  0.58389  0.33513  1.0000
  S   S174      1.0  0.88384  0.50389  0.39907  1.0000
  H   H1388     1.0  0.89070  0.74282  0.30017  1.0000
  H   H1389     1.0  0.86417  0.56342  0.41748  1.0000
  H   H1390     1.0  0.66945  0.58226  0.40270  1.0000
  H   H1391     1.0  0.72015  0.63924  0.32324  1.0000
  C   C780      1.0  0.70108  0.71686  0.24027  1.0000
  H   H1392     1.0  0.86288  0.93712  0.34625  1.0000
  H   H1393     1.0  0.55243  0.55066  0.27084  1.0000
  C   C781      1.0  0.83188  0.78786  0.30021  1.0000
  H   H1394     1.0  0.71401  0.62257  0.41124  1.0000
  C   C782      1.0  0.98990  0.87112  0.43295  1.0000
  C   C783      1.0  0.73926  0.50194  0.27857  1.0000
  H   H1395     1.0  0.85768  0.73826  0.35470  1.0000
  C   C784      1.0  0.73701  0.75793  0.23415  1.0000
  S   S175      1.0  0.94600  0.69711  0.43617  1.0000
  H   H1396     1.0  0.99665  0.86408  0.39596  1.0000
  C   C785      1.0  0.02361  0.64601  0.32412  1.0000
  C   C786      1.0  0.02240  0.58980  0.29141  1.0000
  H   H1397     1.0  0.04212  0.84196  0.43018  1.0000
  H   H1398     1.0  0.61031  0.59818  0.20844  1.0000
  H   H1399     1.0  0.76880  0.64675  0.32761  1.0000
  C   C787      1.0  0.55745  0.54102  0.23413  1.0000
  C   C788      1.0  0.68443  0.51922  0.23383  1.0000
  H   H1400     1.0  0.93545  0.48256  0.34554  1.0000
  H   H1401     1.0  0.73591  0.82212  0.39587  1.0000
  H   H1402     1.0  0.95901  0.61343  0.34146  1.0000
  H   H1403     1.0  0.97522  0.74299  0.32999  1.0000
  C   C789      1.0  0.78892  0.57840  0.38578  1.0000
  N   N47       1.0  0.03049  0.61118  0.33778  1.0000
  H   H1404     1.0  0.70917  0.69603  0.22537  1.0000
  H   H1405     1.0  0.89922  0.78636  0.32594  1.0000
  H   H1406     1.0  0.69358  0.56926  0.32156  1.0000
  C   C790      1.0  0.00264  0.58440  0.38676  1.0000
  C   C791      1.0  0.88667  0.59011  0.43050  1.0000
  S   S176      1.0  0.92137  0.51303  0.24532  1.0000
  H   H1407     1.0  0.55072  0.50974  0.24509  1.0000
  H   H1408     1.0  0.99961  0.69642  0.27279  1.0000
  H   H1409     1.0  0.90734  0.91918  0.31380  1.0000
  H   H1410     1.0  0.77984  0.83394  0.25837  1.0000
  C   C792      1.0  0.87618  0.75782  0.31749  1.0000
  C   C793      1.0  0.90584  0.89935  0.35018  1.0000
  H   H1411     1.0  0.97210  0.56800  0.37740  1.0000
  C   C794      1.0  0.65413  0.50598  0.40540  1.0000
  H   H1412     1.0  0.96711  0.78378  0.30849  1.0000
  C   C795      1.0  0.60111  0.56621  0.21317  1.0000
  H   H1413     1.0  0.64892  0.51021  0.36367  1.0000
  H   H1414     1.0  0.66319  0.52612  0.21734  1.0000
  S   S177      1.0  0.01949  0.86237  0.21685  1.0000
  H   H1415     1.0  0.97772  0.64591  0.43158  1.0000
  H   H1416     1.0  0.01061  0.78442  0.28105  1.0000
  C   C796      1.0  0.85059  0.76437  0.27912  1.0000
  H   H1417     1.0  0.81017  0.62034  0.31042  1.0000
  Fe  Fe87      1.0  0.84124  0.54400  0.23450  1.0000
  H   H1418     1.0  0.03959  0.51981  0.24170  1.0000
  H   H1419     1.0  0.86359  0.87527  0.22370  1.0000
  H   H1420     1.0  0.78070  0.86321  0.35938  1.0000
  H   H1421     1.0  0.88818  0.84673  0.22089  1.0000
  H   H1422     1.0  0.02884  0.66267  0.35719  1.0000
  H   H1423     1.0  0.88445  0.61606  0.41134  1.0000
  H   H1424     1.0  0.80316  0.56986  0.41746  1.0000
  H   H1425     1.0  0.63754  0.51620  0.42895  1.0000
  C   C797      1.0  0.76966  0.75603  0.26412  1.0000
  H   H1426     1.0  0.72161  0.61988  0.23526  1.0000
  H   H1427     1.0  0.92907  0.85926  0.37011  1.0000
  C   C798      1.0  0.82563  0.81442  0.20987  1.0000
  H   H1428     1.0  0.75980  0.66893  0.23698  1.0000
  H   H1429     1.0  0.77483  0.55254  0.36611  1.0000
  H   H1430     1.0  0.70258  0.51905  0.45103  1.0000
  H   H1431     1.0  0.86142  0.96835  0.38851  1.0000
  C   C799      1.0  0.74894  0.63714  0.25214  1.0000
  C   C800      1.0  0.01122  0.90954  0.44234  1.0000
  Fe  Fe88      1.0  0.88372  0.51604  0.31127  1.0000
  H   H1432     1.0  0.74004  0.57265  0.31503  1.0000
  H   H1433     1.0  0.73927  0.77807  0.33922  1.0000
  C   C801      1.0  0.74696  0.71195  0.43169  1.0000
  H   H1434     1.0  0.83705  0.63951  0.36442  1.0000
  H   H1435     1.0  0.91610  0.59474  0.41713  1.0000
  H   H1436     1.0  0.56254  0.87829  0.45020  1.0000
  C   C802      1.0  0.86575  0.85285  0.20396  1.0000
  S   S178      1.0  0.98401  0.94064  0.20504  1.0000
  H   H1437     1.0  0.90151  0.96184  0.57084  1.0000
  S   S179      1.0  0.61542  0.71825  0.62486  1.0000
  H   H1438     1.0  0.72765  0.64764  0.59255  1.0000
  H   H1439     1.0  0.71602  0.52761  0.53663  1.0000
  C   C803      1.0  0.89409  0.55774  0.51913  1.0000
  H   H1440     1.0  0.95288  0.56183  0.63176  1.0000
  H   H1441     1.0  0.59337  0.48234  0.59131  1.0000
  H   H1442     1.0  0.82154  0.50387  0.48330  1.0000
  H   H1443     1.0  0.89860  0.91303  0.52125  1.0000
  H   H1444     1.0  0.89428  0.49747  0.57577  1.0000
  Fe  Fe89      1.0  0.66451  0.76195  0.56245  1.0000
  H   H1445     1.0  0.67176  0.54621  0.49486  1.0000
  H   H1446     1.0  0.89975  0.55590  0.68259  1.0000
  H   H1447     1.0  0.00440  0.55807  0.49846  1.0000
  H   H1448     1.0  0.82384  0.80455  0.54123  1.0000
  H   H1449     1.0  0.03737  0.55554  0.68793  1.0000
  C   C804      1.0  0.01220  0.65992  0.54968  1.0000
  C   C805      1.0  0.58388  0.87728  0.65987  1.0000
  C   C806      1.0  0.59739  0.83650  0.48754  1.0000
  H   H1450     1.0  0.94746  0.62817  0.67047  1.0000
  H   H1451     1.0  0.72734  0.95936  0.65965  1.0000
  C   C807      1.0  0.00323  0.68912  0.55975  1.0000
  H   H1452     1.0  0.67811  0.62779  0.49262  1.0000
  H   H1453     1.0  0.58054  0.81073  0.46836  1.0000
  H   H1454     1.0  0.84878  0.57528  0.50254  1.0000
  H   H1455     1.0  0.94845  0.94404  0.49080  1.0000
  H   H1456     1.0  0.83535  0.91016  0.51904  1.0000
  H   H1457     1.0  0.71505  0.59151  0.49961  1.0000
  H   H1458     1.0  0.61522  0.82921  0.51442  1.0000
  C   C808      1.0  0.97187  0.88884  0.52855  1.0000
  H   H1459     1.0  0.01933  0.94819  0.49812  1.0000
  C   C809      1.0  0.95999  0.51308  0.61659  1.0000
  H   H1460     1.0  0.90756  0.63889  0.66366  1.0000
  C   C810      1.0  0.81630  0.48528  0.56923  1.0000
  H   H1461     1.0  0.86023  0.56654  0.67627  1.0000
  Fe  Fe90      1.0  0.70933  0.81145  0.64128  1.0000
  H   H1462     1.0  0.85777  0.87668  0.46740  1.0000
  S   S180      1.0  0.71007  0.76098  0.61065  1.0000
  C   C811      1.0  0.77606  0.56708  0.62833  1.0000
  H   H1463     1.0  0.96147  0.56117  0.56326  1.0000
  H   H1464     1.0  0.76859  0.77995  0.68051  1.0000
  C   C812      1.0  0.95045  0.85020  0.51891  1.0000
  H   H1465     1.0  0.76548  0.87507  0.52264  1.0000
  C   C813      1.0  0.62005  0.48871  0.61043  1.0000
  S   S181      1.0  0.80860  0.61249  0.64549  1.0000
  H   H1466     1.0  0.76265  0.59269  0.55835  1.0000
  C   C814      1.0  0.56990  0.84592  0.51924  1.0000
  H   H1467     1.0  0.55902  0.92620  0.49056  1.0000
  H   H1468     1.0  0.78190  0.84329  0.49955  1.0000
  C   C815      1.0  0.97390  0.68541  0.47844  1.0000
  H   H1469     1.0  0.96448  0.89593  0.56513  1.0000
  H   H1470     1.0  0.56368  0.96594  0.58047  1.0000
  H   H1471     1.0  0.85440  0.75567  0.70129  1.0000
  Fe  Fe91      1.0  0.83478  0.66334  0.57633  1.0000
  H   H1472     1.0  0.95324  0.49273  0.58786  1.0000
  C   C816      1.0  0.03477  0.92169  0.63646  1.0000
  Fe  Fe92      1.0  0.66118  0.72203  0.67527  1.0000
  H   H1473     1.0  0.61480  0.84712  0.63742  1.0000
  C   C817      1.0  0.98356  0.70155  0.52429  1.0000
  H   H1474     1.0  0.78301  0.74755  0.48462  1.0000
  H   H1475     1.0  0.88147  0.95334  0.68562  1.0000
  S   S182      1.0  0.83640  0.65250  0.49337  1.0000
  H   H1476     1.0  0.65479  0.58549  0.54572  1.0000
  H   H1477     1.0  0.88551  0.50395  0.64052  1.0000
  H   H1478     1.0  0.78594  0.51051  0.52169  1.0000
  C   C818      1.0  0.60673  0.62083  0.66798  1.0000
  C   C819      1.0  0.69949  0.59419  0.65251  1.0000
  H   H1479     1.0  0.67848  0.51632  0.66514  1.0000
  H   H1480     1.0  0.97603  0.72363  0.53238  1.0000
  C   C820      1.0  0.00351  0.64476  0.50323  1.0000
  H   H1481     1.0  0.75668  0.57878  0.45538  1.0000
  H   H1482     1.0  0.84657  0.83944  0.58433  1.0000
  C   C821      1.0  0.66215  0.59491  0.50206  1.0000
  H   H1483     1.0  0.89728  0.61563  0.50004  1.0000
  C   C822      1.0  0.72350  0.49346  0.60312  1.0000
  H   H1484     1.0  0.58925  0.48118  0.68671  1.0000
  C   C823      1.0  0.70546  0.63489  0.62842  1.0000
  H   H1485     1.0  0.61659  0.53085  0.65109  1.0000
  C   C824      1.0  0.00277  0.91841  0.49062  1.0000
  H   H1486     1.0  0.93067  0.60305  0.58744  1.0000
  C   C825      1.0  0.77477  0.90826  0.63565  1.0000
  C   C826      1.0  0.73077  0.52881  0.57103  1.0000
  C   C827      1.0  0.76827  0.53184  0.66096  1.0000
  N   N48       1.0  0.88314  0.54634  0.57840  1.0000
  H   H1487     1.0  0.81670  0.81899  0.67874  1.0000
  H   H1488     1.0  0.91034  0.91481  0.65033  1.0000
  C   C828      1.0  0.73013  0.75138  0.48081  1.0000
  C   C829      1.0  0.61753  0.50303  0.66203  1.0000
  C   C830      1.0  0.55834  0.80632  0.68273  1.0000
  H   H1489     1.0  0.83506  0.77307  0.62426  1.0000
  H   H1490     1.0  0.73781  0.77235  0.50697  1.0000
  Fe  Fe93      1.0  0.89860  0.70131  0.48168  1.0000
  H   H1491     1.0  0.79491  0.81936  0.57934  1.0000
  S   S183      1.0  0.89852  0.70877  0.56617  1.0000
  C   C831      1.0  0.68765  0.57866  0.48127  1.0000
  H   H1492     1.0  0.01075  0.62242  0.49584  1.0000
  Fe  Fe94      1.0  0.88001  0.75375  0.53998  1.0000
  H   H1493     1.0  0.63434  0.58353  0.48443  1.0000
  C   C832      1.0  0.74391  0.91502  0.64997  1.0000
  C   C833      1.0  0.89169  0.57748  0.66274  1.0000
  H   H1494     1.0  0.92642  0.57342  0.50862  1.0000
  H   H1495     1.0  0.56341  0.73597  0.55370  1.0000
  H   H1496     1.0  0.02279  0.83271  0.54099  1.0000
  H   H1497     1.0  0.79106  0.71248  0.69158  1.0000
  H   H1498     1.0  0.94641  0.49550  0.65697  1.0000
  S   S184      1.0  0.66148  0.75368  0.47815  1.0000
  S   S185      1.0  0.91034  0.81358  0.56490  1.0000
  S   S186      1.0  0.66656  0.81497  0.58885  1.0000
  C   C834      1.0  0.88128  0.89957  0.67495  1.0000
  C   C835      1.0  0.79957  0.78666  0.67894  1.0000
  C   C836      1.0  0.90021  0.52068  0.59988  1.0000
  C   C837      1.0  0.92105  0.94394  0.50407  1.0000
  C   C838      1.0  0.74261  0.49528  0.64793  1.0000
  H   H1499     1.0  0.60693  0.90636  0.64073  1.0000
  S   S187      1.0  0.03203  0.64007  0.59585  1.0000
  H   H1500     1.0  0.86708  0.80563  0.69716  1.0000
  H   H1501     1.0  0.88371  0.53100  0.50088  1.0000
  C   C839      1.0  0.69503  0.73877  0.45896  1.0000
  C   C840      1.0  0.98504  0.65805  0.46712  1.0000
  C   C841      1.0  0.57773  0.58352  0.66051  1.0000
  H   H1502     1.0  0.55688  0.90282  0.55552  1.0000
  C   C842      1.0  0.75733  0.56556  0.58316  1.0000
  C   C843      1.0  0.81931  0.81261  0.57968  1.0000
  S   S188      1.0  0.81552  0.70875  0.55787  1.0000
  H   H1503     1.0  0.00936  0.89135  0.64112  1.0000
  C   C844      1.0  0.96067  0.84139  0.47179  1.0000
  H   H1504     1.0  0.87811  0.87218  0.69905  1.0000
  H   H1505     1.0  0.98716  0.50815  0.48868  1.0000
  H   H1506     1.0  0.03336  0.94003  0.60048  1.0000
  H   H1507     1.0  0.58852  0.87208  0.53665  1.0000
  Fe  Fe95      1.0  0.82085  0.70048  0.47377  1.0000
  C   C845      1.0  0.78251  0.87203  0.48945  1.0000
  H   H1508     1.0  0.71590  0.65539  0.65702  1.0000
  C   C846      1.0  0.88020  0.58568  0.49057  1.0000
  H   H1509     1.0  0.71524  0.89031  0.66520  1.0000
  H   H1510     1.0  0.02488  0.79505  0.47056  1.0000
  H   H1511     1.0  0.78426  0.75132  0.61655  1.0000
  H   H1512     1.0  0.83524  0.93507  0.60257  1.0000
  H   H1513     1.0  0.82605  0.54275  0.58422  1.0000
  C   C847      1.0  0.98889  0.53676  0.47242  1.0000
  H   H1514     1.0  0.68871  0.57523  0.62232  1.0000
  H   H1515     1.0  0.67773  0.63234  0.61630  1.0000
  C   C848      1.0  0.81163  0.94024  0.61478  1.0000
  H   H1516     1.0  0.88479  0.60139  0.58713  1.0000
  H   H1517     1.0  0.72861  0.59827  0.65976  1.0000
  C   C849      1.0  0.80977  0.77834  0.62476  1.0000
  C   C850      1.0  0.83921  0.52337  0.59286  1.0000
  C   C851      1.0  0.58832  0.84384  0.65790  1.0000
  C   C852      1.0  0.89879  0.58355  0.60151  1.0000
  C   C853      1.0  0.79916  0.49126  0.51869  1.0000
  C   C854      1.0  0.75073  0.95403  0.64643  1.0000
  H   H1518     1.0  0.57336  0.57760  0.62086  1.0000
  H   H1519     1.0  0.95861  0.53212  0.47317  1.0000
  H   H1520     1.0  0.83189  0.51319  0.63656  1.0000
  H   H1521     1.0  0.01018  0.70104  0.59569  1.0000
  C   C855      1.0  0.94514  0.54239  0.60185  1.0000
  H   H1522     1.0  0.62434  0.64371  0.63411  1.0000
  H   H1523     1.0  0.64608  0.51189  0.58297  1.0000
  H   H1524     1.0  0.99227  0.52954  0.61633  1.0000
  Fe  Fe96      1.0  0.62051  0.77099  0.65524  1.0000
  S   S189      1.0  0.76916  0.86057  0.64669  1.0000
  H   H1525     1.0  0.85818  0.89177  0.64846  1.0000
  H   H1526     1.0  0.00547  0.94020  0.68828  1.0000
  C   C856      1.0  0.65199  0.50766  0.69328  1.0000
  H   H1527     1.0  0.61764  0.86242  0.45662  1.0000
  H   H1528     1.0  0.03005  0.47436  0.46931  1.0000
  C   C857      1.0  0.03337  0.93939  0.68534  1.0000
  C   C858      1.0  0.82456  0.90648  0.48000  1.0000
  C   C859      1.0  0.91553  0.61659  0.68157  1.0000
  C   C860      1.0  0.92932  0.96834  0.54793  1.0000
  H   H1529     1.0  0.01769  0.47311  0.56477  1.0000
  H   H1530     1.0  0.64326  0.57635  0.69720  1.0000
  C   C861      1.0  0.75593  0.73768  0.46764  1.0000
  H   H1531     1.0  0.78283  0.53277  0.69575  1.0000
  S   S190      1.0  0.56205  0.76353  0.68377  1.0000
  H   H1532     1.0  0.94731  0.96146  0.57493  1.0000
  C   C862      1.0  0.54944  0.87291  0.68635  1.0000
  H   H1533     1.0  0.82342  0.93353  0.46345  1.0000
  H   H1534     1.0  0.94662  0.81166  0.46518  1.0000
  H   H1535     1.0  0.55266  0.82049  0.55209  1.0000
  S   S191      1.0  0.54253  0.91383  0.68777  1.0000
  C   C863      1.0  0.54280  0.85394  0.48336  1.0000
  S   S192      1.0  0.88314  0.74820  0.45460  1.0000
  C   C864      1.0  0.90891  0.96208  0.45597  1.0000
  H   H1536     1.0  0.76797  0.87210  0.45359  1.0000
