data_image0
_chemical_formula_structural       H3SHSCFeS2FeSCFeSFeS4H2FeS2H2C3FeSHSH7C6H4CHC4SH2C6H4C6H5SHC4H7CH4SHCHCH9C2H3NC12H29CH4C2H5CH2CHNH2CFeH2C2HC3FeC2H4CH6CHCHC2H3C2H3NC3HC2H3CH2NCHC2H3C2H2C2H2CHC3H5C2HCH3CH12CNH5CHCH3CH2CH9CH6CHCHCH4CHSFeSFeS2FeSFeS3CH2NS2FeS2FeS2FeSFeS3HSCFeS2FeSFeSCFeS2CHFe2SCSHCHFeCSHFeHSH2SHCNC3H5NSFeH2C6H3C2HC7H3C6H4C6H4C6H4C6H4C8H4C2HNC12H28NC12H28CH3NSC5FeSC2HNH12CH2SH4NC6H3C3H4CH10C2HSH8CH3SHCH2CH2CH2C3H2C3H4CH5CNCSCHCH3CH5CH4CH5CNH6C2H4CH5CH5CHCH2CH8C2H2CHCHCH6CSHC4HCH10CH3CHCH4C2H3CH3CH2CHCHC5HFeCH2SHCHSCH5C3HC2HNH4C2H2C2H3FeH17CH3CH4CHCH2NC3HSHC2H4C2HSHFeS2FeS2FeSFeS3FeS2H2SH2FeSHSHCHNFeS2H2FeSHSHSHCSHC3SCFeS2FeS2FeSFeS3H2C3H2CH4C4H6C6HCH2C6H4C6H6CHCH3CH2SH2FeC7H4C6H4C6H5C5H4NC12H16CH4CH4NC5HC4HCH11CH11NCH10CH2CH2C2HCHCH4CH2SC4HCH7C2H3C3HC2NHSNCHCH2CHCHC3H2CHCH3CH5CHCHCH4CH15CH2CHSHFeH4CH5CH2C2H2FeH5C2H2CH9CSHNC4HC3HCH13CHCH7NC12H20C2HCH2CHC2H8C2FeSC3SH2CH5FeS2FeS2FeSFeS3CHC2SFeS2HFeSHFeC6H4C6H4C2H2C2H5C6H4C2HCHCH3CHC2SH2SH3C6SH3CH3C3H9FeH4SH2SHFeCH2CH3NHSNHCHC3H2CH2CH5C2H2C2H3CNC9HCH8NHC2H6CH6S2HCH3C2H4FeCHSH7CH3CHC2HCH2C2H3CH2FeH2SHNCH2CHCH2CHC6H3CH6NCH3CNC10HCH31CHCHFeCHC3H3CH2CH6CH4CHSCHCH2SH4CH7FeHCHCHCH2C2HCHCSNHSHSH3CFeCSHS2FeS2FeS2FeSFeS3FeS2FeSFeSFeS2FeCSFeS2Fe2S3FeS2Fe2S3HCHC6H7C6H4C6H4C6H4C6H5CH3C7H4C6H4SC2HC2H2CSCHC2H3CH5CH8FeHFeHCH3NH4S2H2CHCH5NC12H26C2HCH4C2HC2HC4H9CH3CHCH2CH4CHCH2CH3CFeH4CH2FeHCH2CNHCH4NC12H29CH3NCNHCHC2H4CH2C2HCH7FeH5CH4CNFeHCHSH3CH4SH3SC4HCH2CH4CH3NCH2CH3SH2C2HC4H2CH2CH3C2HCH2CH2FeSH5C2SCH4CHCSH2CHCH3CHC4HNHC3H3CH2C2H3C3HNHNHCH2CHNH2C2H2CH3CH3C3H5SHCH6CHC3NCHSFeS2FeSH4CFeSFeS2FeS3C2SC2H2C6H3C3SH4C2H3C6H11C2H2CHC3H6CH6C2H2CH2CH7CH2C2HC3HCH4SH5C2H3NC10HCH24SH3SH2C2H2CH2CH5C2H2CH3C2H6C2H3NCH5SHCHC2H2CHC2HCFeNCH2CHCFeCHSHC2H3CHC2HC3H2NHCH7CH11CH4CHCHCHCH5CH2CFeS2HFeS3C2HC3HSH3FeS2FeS2FeSFeS3FeS2FeS2C6H6C4H2C6H7C6H2C6H4C6HCH3SH14C2H6FeCH5CH2C2H2CH4CH2CH7CH2CHCH3CHCH5CH6NCH8CHCHC2HC2H6C5H2C2H8FeH8CH2C2H7CH4CHNC12H28C2H2C2HNC3HCH4C3H3S2HSHC3H2CH2NHCH5NC3H2SH2C2NCSFeCHSH2C5FeCHCFeHC3H2NHNH5CH4C2H3CH3CHSHFeS2FeS2FeSFeS3HFe2S2FeS2FeSFeS3H4Fe2S2FeSCFeSFeS3C3H6C2H5NC6H5CHC6H4C5H3CH2C6H4C6H4C6H4C4H3CSCHCHCHSC2HFeH5CH4CSHCHCHCHC2H2CH2CHC3H2CNSH4CH6CHFeCHNC12H28NC11H19SH6SC2HC2H2C3NC12H33NH2NC3HC8H6C2H5CH11C2H4CSHCHCH4CH11C2H2C3HCH2CSCH2CH2CH5SCH3CSCH3C2HCH10SH2SH4CH6CHCH3C2H4FeS2FeHSHFeS3FeS2FeS2FeSFeCS2CFeS2FeSFeSH2FeS2FeSCSH4CHCFeS2FeS2Fe2S2HCH2CFeH2C2HC6H3CHC6HCHC6H4C3HC6H4C2H3C3HC2H4C7H3C6H4SH4CHC2H2CH2CH3CH5CH2CH2NC8HC3H16CH6CNH3FeH9CSH2CH2CH3C2H2CHC2HCH3CH11CHCH8NC2HNC2H3C7FeH2CH3CSH3SC4H5CHNC4HC3HC3H6CH6SH14NC9HC2H9CH11CH6NHC7SH2CH3SH19CH2CHNH2C2H2C2SCH4CH2CH3NHC2H2SCH2SCH2C2HCH3CH2CFeHC2H5CSH3CH3CH2C2H3C2H3C2H4FeS2FeS2FeCFeS3HSCFeCHSCH2CSH2S2FeSFeS2Fe2CS2CH2CHC2HC2SCHC6H4C4H2CHSH5C5H5C6H4C5SH12CHCNH2CH2C2HSH4CH4CHCH2CH2C2SCH3C4FeCH2CH3CHCH6C2HFeCH2CH3CH2CH2FeH2CH2C2HC2HCH4SCH2CH4C2NCH3C2HC2NHC2H2C4NC5H2CH3CH4C2HCH4CH10CH3CSCH4CH3C2H2C2H5CH2FeHC2H2SNC8HC3H17SH11CH3SH3C3HCH2CH5SH7FeH3CFeCHC3HSNFeCHNC5H10CHC5H5SH3SCH4CH2SHCH2FeH6CH2SHCHCHCFeH4CFeS2FeS2FeSFeHS2FeHFeS2FeSFeS2FeS2FeS2FeSFeS3H3FeHSHC2SHCS2H3CHC3HCH2C6H5C2H8C2HC3HCH2C6H5C6H5C4HCNC2H3C2H2NCH3NC2HC3SH4CH3SH5CHC2HCH4NC3HC2SHCH2CH9CFeHC3H6CFeH5CH3CHCH4C2H6C2H5NC7HC4H15SH13CH2C3HCHC2H10CH2CH3C2H2CH6CH2SHC2H2CH2CH4CHC2HCH2C2H2CHSCHCH2FeCH5SH3NC6HC3H13C2H13C2HCHCHC3HCH2CHSH3NC3H2FeH2C2H3C2SCH2C2HCH7NH2CHSHSH2C2H2CH2CHCH2FeS2FeSCFe2SHFeS2FeS2Fe3HSCFeS2FeS2FeSFeS4C6H5CNH3C6H4SC3NH3CFeSC3HC2H3C7H4SHSH2C3H5CFeH14C2SH3CHCHFeH2FeH2CHSHCNCHFeHCH3CH5CH2CSH3C2H2CH2CSHC3H3CHCHSCH2CH2FeH2CH2SHC4NC10HCH21CH5NC6HC2HCH12C2H6C2HCNC2HC3SC4SH5CHSH18FeCNC12H18CH9FeSHCH2SH5C2H2CH2CH3CHCHSNC4HC3H2CH8CHC3H2CSH3CH2C2H3CH5C4H3CH2SNH2CHCH5C2H7CH4CHCH2CH2SC4H2CHSH2SH3FeS2FeS2FeSFeS3CH3FeHFeS2FeSCSCNFeS2FeS2H3C2FeSCS2FeSCFeS2HSC3S2H3CH2C6H4C3NCHCH2C2HCH3C7H5CH3C2H3C6H4C6H4C4HNH2CHC2HCHCHFeHCH2NC12H35CHC2H6CH5FeH3C2H3NC8HC3H17C2H10SH11NH3CH2C2HNH2CHSHCH4CH5FeHSH2SC3H2SC8H11CHCHCH3CHCFeH6CH3CH2C2H2CH4CHCHC2H3C4SC2FeH4CHC2NH3C2HCHSC2HCH4CH4C2HCHCH9SH4CHCHC2H2CH10NC2FeH2CHCHSHFeH2C2HCHCH2CH2FeCH4SH4SCHCHCHCH2SCH3S2H2C2HCH2CHCH2FeSFeS2FeHFeS3FeS2FeS2FeSFeS3FeSFeHSH3SFeS2FeS2FeSFeS3FeHCSH2S2C6H4CSC6H2C6H4CH2C6H4CHC6H4CSCH4C7H4C6HCHC2H7CH3C2H5C2H2C2HCHSH2CH3C2H2C3HCHCH6CHCH10CH2NH2CFeH2CH6C4H2C2HC3H2CH4SH4SC2H5NH2CH4SH2C2H4CH2C3HC2H7CHNC12H26CNC12H31SCHSC3H2C2H3C2HSHCNCH7CHSC2H6CH3CH2CH3NCH2C2H4CH2CH2CH2CSCH2CH2SHFeCH6CHCH2CHC2H3NH3C2NH2CHCH2CHCH3CHFeSCFeS2FeS2FeSFeS3FeSFeS2FeSFeS2NH2CHSH2CSH3SC3HC2HCHCH3CH2C2H3CFeC5SH2C6H4CSC3H2C6H4C6H8CSHFeHC2H3S2H2CHCHFeH2C2H2C2HCHSH2SH5NC10H20CH3NH3CHCH2CH7CH3C2HCHC3HC5SH3C2H5NFeH2CH2CH4CHNH2SHC6H16NC9H10CH7C2H6CFeH3CHCH5NCHCH4CH6FeH3CH2CH2CH2CHFeC2H6CH3SH2CH2CHCHCH2CH5CH4C2H4C2H3S2FeH2CHFeHCHSHCSCFeS2H2FeSCSFeS2FeS2FeSFeS3FeS2FeS2H3CHCSH2Fe2SHS2HFeSFeSH3FeS2H3CH2C2H4SCH3CH4CH7C5H2C6H4C6H4C6H6CHC8H6FeH2CH2C2HC2HCH2CH3NCHC2SHCH4CNHCH2FeH3CSCHSHCHCHC2H2CHCHCH5CH10C4H4CNHCHC2HC4H3CH9CHCH10CHC2NC9H19N2C5HCH4SHC2HCH6CH2CHCHSC2HCNHC2H3NH4C2H2CHFeH9SH5CH4NC4HC3HC2H9CH6CH5CH6CSCH2C2HSCHC2H2CHCHCH3C3H3CH4CHCH4CFeH3CH4CFeCHCH4C2H4SCH2CH6CH5CH2CH3FeHFe2S2FeS2FeCFeS3CHSH2CFeS2FeSFeSFeS3FeS2FeS2FeSFeS3FeSFeS2Fe2S3H2SNH2C6H8C2HCHC6H4C6H2C6H2CHC6H4C6H5C5HC3HCH2C6H7C2H2CH9SH3C2H6NH3FeH4C2H3CH4CHC2H2CHCNH2CH2CH4CNCH4CH2C2H2CHC2SHCH2CH3CHCH2SH4CH3C2NCSHCSCHCHCH2CHCHCH4SH4CH5CHC3H5CH13C2HC2H5C2H2CH2CHCHC3HNC12H28NC11H21NC11H25CH2CH2CH10CHCHCH2CHFeH2CHCH5C2H3C2H4CHSH4CHCHCSCH3CH2CNSCHSH3C2FeS2FeSHSFeS2FeS2FeSFeCS2NH5S2HCH3CFeSH5CHCH4CH3FeH3C6H5CH2CH2CH2C3H2CH2CHC7H2C6H5CH4CH3SC2NH2CH14CH4C2H3CHCSHCH5C5HCHFeH4CHCH2CHCHC2SH2CHCH2CH3CHCHCH3SH3CNHCHCH2CH3SCH4C3HC2H2C2H2CHCH3C4HFeH5SHCH4CHC2SHC2H2CH3NCH2CH7CH2C2H5FeHCH2NCH2C2H3C2H3CH2FeH3CHCHC2H5CH5CHCHCH2CHCH3NH6CHSCH4CFeS2FeS2FeSFeS3H2FeHSHCHSHSHSCFeS2C2FeSFeHS2FeS2FeS3H5C6H6NHCFeHC6H4C6H4C6H4C6HCHC7H5CHCHC2H3CSH4CH12CHC2HCH2CH6CH2CH9C2H3C2H2CH2NH6C2H5CH2C2H2CHC2H3C2H5C2H2CH2CHCH9CH8CHFeH4FeNH3CHCHCNC12H29SHCH4C2H8CH6CH2C2H2C3H2C2H5C2HCH4SH2NC12H4CH2C2H2C2H2SH4FeHCH4C3H5NH7CH2FeS2FeSCFeSFeS4CSHS2HCSH2FeSFeS2FeSFeS3FeSCFeS2FeSFeS3HSH5C2H6C9H4C6H3C6H4CH2C7H13C6H13CH3CH8CH2CNH9FeCNCNC6HCH3CH12NC2H2C2H11C4H10CH2C2H13SH5CNC9H20CNC6HC4H16CH7CHSHCHCHCH2SHCHCHNHCHCH4CHCHCH2FeH2CH8CH4SCH4CSC2HCHFeSHCHC2HC2H4CHCH3NC3H6CHCH3CHCHC2HC2H2C5H2CHCH2C2HCH3CHCNH2CHC2H3C2HCH2CHCHSHFeSFeS2FeSFeS3C4H3CH5C6H4C6H3C6H3C5HCH3C2HCHCHCH3C2HFeSCHCH3CHCH4C2H8SNSHCFeHCHC2H6CH2CHSHC2HC2H4C2H4NH7CH5C3H2C2H6C2H2CHC4HCH5CNH5CHNH2C2SH3C2SH3CH2C3H3CH7CHCNCH3C2H2CH10CH5C2H2CHCH5C2HCH4CHCSH8CH2CHCH4FeS2H3FeSFeCSHFeS2FeS2FeSFeS3HSH2CH4CHFeS2FeS2FeSFeS2FeSCFeS2FeSHSHFeS2FeS2FeSFeS3C6H4C6H4CH3CHC4HCH3C4HCH3CHC7H4C3H5CHC6H4C6H4C6H4CHCHSHCHSC5HC3HNC7H2CH7CH4CH2C2HCHFeH3C2H3C2H2CH3C2HSH5NC12H28NC11H23CNC2HC4H2NC11H18SH8CH4NHC2H12CH2CH3SH5FeSC2H2SH4CHCH8NCH7CH4CHCH3CHC2H2C2HC2H3C3HCH2C2HCH6C5H2NH2CFeH7CHCH6NH2CHCH6C2HCHC2HCH8C2H4CSH2CH2NHCHCH2C3H4CH2CHCH4FeHCHNC2HFeSHFeS2Fe2S3FeS2FeS2H2FeS2FeS2FeSFeS3FeCFeS2FeS2FeSFeS3FeS2C6H4C2H5C6H4C2H7SC4H4C3HCH3CHCSH5C6H4C6H4C7HCNC12H33CH6C2HC2HCHC2H3CHNH3CH5CH11CHCSHCH2C2H2NHCH3C2H8NC11H23S2HCH4CH2CHCNH2CFeCH3C3H4NHCH3CH2CHNHC2NC4HCH5C2H2CH3CFeH2CHCHCH4C2H2C2H3CH2CH2C2H5CHC3H2C2H6CHCH2SH2FeCH2CH4CH2CFeHC3H8CH2CHCH7CH2CH4CH2CHCHCSH3CH2CHCHCSCHC2SHSH2C2H9CHNCHC2H2FeS2CHFeSHSFeS2FeS2FeSFeS2H12FeS2FeS2FeSFeS3C6H3CHCH2C4NCHC2H2CH2C6H4CH6C2HC2H2C6H9SHC2HSHCH4C2H2C3H5CH3SCH4CHCH3CH2CH2C2H3C3H2CH4CH2C3H9CH10SCHNCHC5HCHC2H3SH4CHCH2CH3CH12C2H2C3H2CHC2H4C2H7CH2CH2CH5NH4C3H4CHCH2NH4CNCHCH4C3HCHCHCHCHCH3CH5C2HC4H5CH2CH7C2H2CNC2H
_chemical_formula_sum              "H6144 S768 C3456 Fe384 N192"
_cell_length_a       71.7816
_cell_length_b       72.2165
_cell_length_c       72.1779
_cell_angle_alpha    77.7938
_cell_angle_beta     77.8316
_cell_angle_gamma    77.6732

_space_group_name_H-M_alt    "P 1"
_space_group_IT_number       1

loop_
  _space_group_symop_operation_xyz
  'x, y, z'

loop_
  _atom_site_type_symbol
  _atom_site_label
  _atom_site_symmetry_multiplicity
  _atom_site_fract_x
  _atom_site_fract_y
  _atom_site_fract_z
  _atom_site_occupancy
  H   H1        1.0  0.26955  0.10304  0.47724  1.0000
  H   H2        1.0  0.31270  0.12943  0.42702  1.0000
  H   H3        1.0  0.12714  0.07192  0.47141  1.0000
  S   S1        1.0  0.09032  0.16049  0.45357  1.0000
  H   H4        1.0  0.21671  0.23041  0.38279  1.0000
  S   S2        1.0  0.17898  0.10761  0.45376  1.0000
  C   C1        1.0  0.20113  0.23228  0.38936  1.0000
  Fe  Fe1       1.0  0.25223  0.16802  0.38952  1.0000
  S   S3        1.0  0.25405  0.19921  0.37910  1.0000
  S   S4        1.0  0.24143  0.16164  0.42155  1.0000
  Fe  Fe2       1.0  0.26925  0.15791  0.34969  1.0000
  S   S5        1.0  0.27197  0.18837  0.33653  1.0000
  C   C2        1.0  0.00632  0.99459  0.05505  1.0000
  Fe  Fe3       1.0  0.28330  0.18864  0.36311  1.0000
  S   S6        1.0  0.31436  0.15644  0.24403  1.0000
  Fe  Fe4       1.0  0.24243  0.19598  0.35378  1.0000
  S   S7        1.0  0.22074  0.22070  0.34176  1.0000
  S   S8        1.0  0.28255  0.15766  0.37530  1.0000
  S   S9        1.0  0.23857  0.16534  0.36510  1.0000
  S   S10       1.0  0.13493  0.21010  0.34406  1.0000
  H   H5        1.0  0.28265  0.20755  0.46913  1.0000
  H   H6        1.0  0.31906  0.09882  0.43670  1.0000
  Fe  Fe5       1.0  0.01764  0.13013  0.39789  1.0000
  S   S11       1.0  0.02127  0.11413  0.37326  1.0000
  S   S12       1.0  0.03856  0.11827  0.41943  1.0000
  H   H7        1.0  0.25118  0.98479  0.17337  1.0000
  H   H8        1.0  0.16260  0.18641  0.45309  1.0000
  C   C3        1.0  0.20852  0.17183  0.23965  1.0000
  C   C4        1.0  0.19381  0.19915  0.29142  1.0000
  C   C5        1.0  0.24654  0.20939  0.46481  1.0000
  Fe  Fe6       1.0  0.01963  0.14348  0.35476  1.0000
  S   S13       1.0  0.04152  0.15174  0.32851  1.0000
  H   H9        1.0  0.15735  0.21977  0.30280  1.0000
  S   S14       1.0  0.01783  0.15890  0.37907  1.0000
  H   H10       1.0  0.19430  0.17753  0.41651  1.0000
  H   H11       1.0  0.18997  0.13637  0.46959  1.0000
  H   H12       1.0  0.06413  0.06115  0.46820  1.0000
  H   H13       1.0  0.28169  0.07855  0.47759  1.0000
  H   H14       1.0  0.17004  0.22779  0.41596  1.0000
  H   H15       1.0  0.22188  0.14646  0.34149  1.0000
  H   H16       1.0  0.24547  0.17044  0.46155  1.0000
  C   C6        1.0  0.04350  0.21474  0.32745  1.0000
  C   C7        1.0  0.05966  0.20311  0.31853  1.0000
  C   C8        1.0  0.05882  0.18393  0.31788  1.0000
  C   C9        1.0  0.04208  0.17626  0.32671  1.0000
  C   C10       1.0  0.02596  0.18802  0.33527  1.0000
  C   C11       1.0  0.02663  0.20716  0.33552  1.0000
  H   H17       1.0  0.07272  0.20887  0.31212  1.0000
  H   H18       1.0  0.07129  0.17488  0.31108  1.0000
  H   H19       1.0  0.01288  0.18234  0.34183  1.0000
  H   H20       1.0  0.00447  0.02475  0.05618  1.0000
  C   C12       1.0  0.19700  0.21734  0.34276  1.0000
  H   H21       1.0  0.18620  0.14360  0.40273  1.0000
  C   C13       1.0  0.18947  0.19753  0.44724  1.0000
  C   C14       1.0  0.15873  0.21311  0.34359  1.0000
  C   C15       1.0  0.17266  0.19703  0.34876  1.0000
  C   C16       1.0  0.19172  0.19917  0.34859  1.0000
  S   S15       1.0  0.30901  0.20287  0.36026  1.0000
  H   H22       1.0  0.16863  0.18294  0.35311  1.0000
  H   H23       1.0  0.20230  0.18678  0.35289  1.0000
  C   C17       1.0  0.05307  0.13053  0.42818  1.0000
  C   C18       1.0  0.06908  0.11976  0.43633  1.0000
  C   C19       1.0  0.08058  0.12865  0.44418  1.0000
  C   C20       1.0  0.07630  0.14854  0.44384  1.0000
  C   C21       1.0  0.06043  0.15937  0.43547  1.0000
  C   C22       1.0  0.04884  0.15043  0.42775  1.0000
  H   H24       1.0  0.07268  0.10444  0.43637  1.0000
  H   H25       1.0  0.25748  0.10084  0.44666  1.0000
  H   H26       1.0  0.05692  0.17475  0.43517  1.0000
  H   H27       1.0  0.03643  0.15888  0.42177  1.0000
  C   C23       1.0  0.19717  0.12174  0.44525  1.0000
  C   C24       1.0  0.19922  0.13509  0.45583  1.0000
  C   C25       1.0  0.21343  0.14667  0.44870  1.0000
  C   C26       1.0  0.22499  0.14567  0.43058  1.0000
  C   C27       1.0  0.22309  0.13222  0.42005  1.0000
  C   C28       1.0  0.20947  0.11996  0.42759  1.0000
  H   H28       1.0  0.10603  0.20290  0.43180  1.0000
  H   H29       1.0  0.21514  0.15674  0.45708  1.0000
  H   H30       1.0  0.23197  0.13135  0.40605  1.0000
  H   H31       1.0  0.20794  0.10959  0.41941  1.0000
  H   H32       1.0  0.20438  0.15839  0.39163  1.0000
  S   S16       1.0  0.14389  0.15364  0.46425  1.0000
  H   H33       1.0  0.31711  0.12848  0.36884  1.0000
  C   C29       1.0  0.30536  0.14944  0.26865  1.0000
  C   C30       1.0  0.29189  0.16290  0.27831  1.0000
  C   C31       1.0  0.28441  0.15810  0.29796  1.0000
  C   C32       1.0  0.29005  0.13968  0.30807  1.0000
  H   H34       1.0  0.22570  0.16285  0.27093  1.0000
  H   H35       1.0  0.22070  0.21535  0.30202  1.0000
  H   H36       1.0  0.28746  0.17720  0.27057  1.0000
  H   H37       1.0  0.27424  0.16863  0.30528  1.0000
  H   H38       1.0  0.24771  0.13579  0.47317  1.0000
  H   H39       1.0  0.24607  0.22496  0.46467  1.0000
  H   H40       1.0  0.03667  0.09956  0.47327  1.0000
  C   C33       1.0  0.16900  0.19832  0.44307  1.0000
  H   H41       1.0  0.31353  0.18631  0.18614  1.0000
  H   H42       1.0  0.28923  0.11309  0.37883  1.0000
  H   H43       1.0  0.26402  0.20102  0.28919  1.0000
  H   H44       1.0  0.17453  0.16656  0.42909  1.0000
  S   S17       1.0  0.28102  0.13356  0.33285  1.0000
  H   H45       1.0  0.17672  0.18685  0.38676  1.0000
  C   C34       1.0  0.30553  0.06442  0.22643  1.0000
  H   H46       1.0  0.19288  0.19375  0.25568  1.0000
  C   C35       1.0  0.30686  0.09216  0.44570  1.0000
  H   H47       1.0  0.20558  0.18092  0.22574  1.0000
  H   H48       1.0  0.12997  0.21335  0.44579  1.0000
  H   H49       1.0  0.20547  0.20721  0.41099  1.0000
  H   H50       1.0  0.23798  0.09332  0.47869  1.0000
  H   H51       1.0  0.14336  0.20477  0.29672  1.0000
  H   H52       1.0  0.14424  0.19935  0.40710  1.0000
  H   H53       1.0  0.27214  0.07787  0.44644  1.0000
  H   H54       1.0  0.26976  0.21332  0.43987  1.0000
  H   H55       1.0  0.30333  0.10518  0.40916  1.0000
  C   C36       1.0  0.04081  0.08516  0.46903  1.0000
  C   C37       1.0  0.26954  0.08942  0.47251  1.0000
  H   H56       1.0  0.16053  0.17110  0.40011  1.0000
  H   H57       1.0  0.17101  0.18452  0.31022  1.0000
  H   H58       1.0  0.14151  0.18485  0.43039  1.0000
  N   N1        1.0  0.08420  0.16537  0.37247  1.0000
  C   C38       1.0  0.08460  0.14389  0.37648  1.0000
  C   C39       1.0  0.09386  0.17101  0.38667  1.0000
  C   C40       1.0  0.06323  0.17508  0.37524  1.0000
  C   C41       1.0  0.09331  0.17240  0.35208  1.0000
  C   C42       1.0  0.11481  0.16381  0.34588  1.0000
  C   C43       1.0  0.07431  0.13609  0.36365  1.0000
  C   C44       1.0  0.05938  0.19724  0.37415  1.0000
  C   C45       1.0  0.11086  0.15624  0.39427  1.0000
  C   C46       1.0  0.12178  0.16563  0.40466  1.0000
  C   C47       1.0  0.12153  0.17069  0.32444  1.0000
  C   C48       1.0  0.07651  0.11418  0.36863  1.0000
  C   C49       1.0  0.03801  0.20466  0.38104  1.0000
  H   H59       1.0  0.07783  0.13940  0.39172  1.0000
  H   H60       1.0  0.09962  0.13577  0.37510  1.0000
  H   H61       1.0  0.09905  0.18490  0.38047  1.0000
  H   H62       1.0  0.08323  0.17373  0.39993  1.0000
  H   H63       1.0  0.05539  0.16860  0.38934  1.0000
  H   H64       1.0  0.05587  0.17269  0.36406  1.0000
  H   H65       1.0  0.08492  0.17002  0.34179  1.0000
  H   H66       1.0  0.09259  0.18826  0.34956  1.0000
  H   H67       1.0  0.11730  0.14787  0.34841  1.0000
  H   H68       1.0  0.12397  0.16872  0.35383  1.0000
  H   H69       1.0  0.05857  0.14182  0.36588  1.0000
  H   H70       1.0  0.08043  0.13987  0.34818  1.0000
  H   H71       1.0  0.06331  0.20448  0.35907  1.0000
  H   H72       1.0  0.06772  0.20190  0.38308  1.0000
  H   H73       1.0  0.10514  0.14420  0.40470  1.0000
  H   H74       1.0  0.12143  0.15009  0.38264  1.0000
  H   H75       1.0  0.11174  0.17244  0.41625  1.0000
  H   H76       1.0  0.13295  0.15456  0.41123  1.0000
  H   H77       1.0  0.12884  0.17686  0.39428  1.0000
  H   H78       1.0  0.11924  0.18668  0.32112  1.0000
  H   H79       1.0  0.13720  0.16507  0.32042  1.0000
  H   H80       1.0  0.11340  0.16547  0.31566  1.0000
  H   H81       1.0  0.07001  0.10966  0.38390  1.0000
  H   H82       1.0  0.06883  0.10905  0.35936  1.0000
  H   H83       1.0  0.09201  0.10734  0.36613  1.0000
  H   H84       1.0  0.03419  0.20040  0.39689  1.0000
  H   H85       1.0  0.03524  0.22052  0.37716  1.0000
  H   H86       1.0  0.02861  0.19894  0.37405  1.0000
  H   H87       1.0  0.29773  0.19805  0.29732  1.0000
  C   C50       1.0  0.30316  0.04450  0.25954  1.0000
  H   H88       1.0  0.21524  0.13109  0.32809  1.0000
  H   H89       1.0  0.31292  0.03353  0.22451  1.0000
  H   H90       1.0  0.30743  0.11164  0.30602  1.0000
  H   H91       1.0  0.22316  0.16286  0.23710  1.0000
  C   C51       1.0  0.29027  0.09961  0.41789  1.0000
  C   C52       1.0  0.14633  0.19841  0.42215  1.0000
  H   H92       1.0  0.29285  0.08416  0.41656  1.0000
  H   H93       1.0  0.31444  0.03240  0.25499  1.0000
  H   H94       1.0  0.20874  0.17770  0.32056  1.0000
  H   H95       1.0  0.31782  0.20966  0.28439  1.0000
  H   H96       1.0  0.29343  0.00814  0.26122  1.0000
  C   C53       1.0  0.99758  0.01585  0.04973  1.0000
  H   H97       1.0  0.28637  0.01552  0.28451  1.0000
  H   H98       1.0  0.31950  0.16675  0.30033  1.0000
  C   C54       1.0  0.30312  0.12599  0.29830  1.0000
  H   H99       1.0  0.32162  0.00210  0.09140  1.0000
  N   N2        1.0  0.30687  0.06351  0.24722  1.0000
  H   H100      1.0  0.23454  0.19352  0.31311  1.0000
  H   H101      1.0  0.23770  0.23115  0.43046  1.0000
  C   C55       1.0  0.29149  0.07920  0.25490  1.0000
  Fe  Fe7       1.0  0.11397  0.14614  0.47150  1.0000
  H   H102      1.0  0.18564  0.17833  0.47490  1.0000
  H   H103      1.0  0.04159  0.08718  0.45322  1.0000
  C   C56       1.0  0.29368  0.10017  0.24503  1.0000
  C   C57       1.0  0.28329  0.03903  0.26003  1.0000
  H   H104      1.0  0.19753  0.16230  0.24478  1.0000
  C   C58       1.0  0.32298  0.19103  0.31154  1.0000
  C   C59       1.0  0.27645  0.10681  0.38697  1.0000
  C   C60       1.0  0.27855  0.11482  0.25518  1.0000
  Fe  Fe8       1.0  0.15384  0.12200  0.47319  1.0000
  C   C61       1.0  0.27256  0.10935  0.40802  1.0000
  C   C62       1.0  0.23285  0.20335  0.29928  1.0000
  H   H105      1.0  0.17323  0.18306  0.28529  1.0000
  H   H106      1.0  0.27831  0.16204  0.43386  1.0000
  H   H107      1.0  0.27686  0.07752  0.25339  1.0000
  H   H108      1.0  0.29019  0.06597  0.22472  1.0000
  C   C63       1.0  0.24329  0.21575  0.42947  1.0000
  H   H109      1.0  0.24018  0.12901  0.33026  1.0000
  H   H110      1.0  0.31046  0.07759  0.21736  1.0000
  H   H111      1.0  0.25148  0.21489  0.41472  1.0000
  H   H112      1.0  0.09736  0.05763  0.47810  1.0000
  H   H113      1.0  0.29166  0.10276  0.22980  1.0000
  H   H114      1.0  0.28232  0.18478  0.46396  1.0000
  C   C64       1.0  0.28285  0.01811  0.26980  1.0000
  H   H115      1.0  0.29111  0.07804  0.27064  1.0000
  C   C65       1.0  0.18925  0.15676  0.39233  1.0000
  H   H116      1.0  0.19873  0.16206  0.31129  1.0000
  C   C66       1.0  0.17414  0.21487  0.40886  1.0000
  C   C67       1.0  0.13169  0.21538  0.42986  1.0000
  H   H117      1.0  0.16040  0.21182  0.44767  1.0000
  H   H118      1.0  0.23099  0.20796  0.43190  1.0000
  H   H119      1.0  0.20438  0.19221  0.47164  1.0000
  C   C68       1.0  0.31733  0.04732  0.21681  1.0000
  C   C69       1.0  0.17522  0.17432  0.39841  1.0000
  H   H120      1.0  0.26370  0.11310  0.25455  1.0000
  H   H121      1.0  0.28016  0.11309  0.27046  1.0000
  H   H122      1.0  0.28060  0.12963  0.24797  1.0000
  N   N3        1.0  0.28813  0.10155  0.43866  1.0000
  C   C70       1.0  0.28387  0.12241  0.44098  1.0000
  C   C71       1.0  0.27146  0.09216  0.45030  1.0000
  C   C72       1.0  0.25664  0.20648  0.44408  1.0000
  H   H123      1.0  0.09284  0.12014  0.45035  1.0000
  C   C73       1.0  0.31317  0.07025  0.44557  1.0000
  C   C74       1.0  0.29724  0.13563  0.42723  1.0000
  H   H124      1.0  0.26888  0.12498  0.40841  1.0000
  H   H125      1.0  0.07180  0.08327  0.46649  1.0000
  H   H126      1.0  0.18748  0.15507  0.37790  1.0000
  C   C75       1.0  0.29371  0.15520  0.43347  1.0000
  H   H127      1.0  0.28477  0.12354  0.45588  1.0000
  H   H128      1.0  0.26870  0.12906  0.43927  1.0000
  N   N4        1.0  0.21144  0.18349  0.28953  1.0000
  C   C76       1.0  0.21122  0.16973  0.30843  1.0000
  H   H129      1.0  0.27153  0.04825  0.26837  1.0000
  C   C77       1.0  0.18966  0.19270  0.46887  1.0000
  C   C78       1.0  0.22646  0.13932  0.32867  1.0000
  H   H130      1.0  0.32488  0.07542  0.26085  1.0000
  H   H131      1.0  0.25969  0.10278  0.41524  1.0000
  H   H132      1.0  0.13649  0.22932  0.42347  1.0000
  C   C79       1.0  0.17392  0.19252  0.29526  1.0000
  C   C80       1.0  0.17850  0.17868  0.41749  1.0000
  H   H133      1.0  0.32333  0.03785  0.18912  1.0000
  H   H134      1.0  0.16645  0.21878  0.39628  1.0000
  C   C81       1.0  0.32530  0.17476  0.38761  1.0000
  C   C82       1.0  0.22964  0.15413  0.31027  1.0000
  H   H135      1.0  0.19389  0.21180  0.44176  1.0000
  H   H136      1.0  0.28010  0.04062  0.24535  1.0000
  C   C83       1.0  0.31098  0.13092  0.27868  1.0000
  H   H137      1.0  0.31645  0.19143  0.20863  1.0000
  C   C84       1.0  0.16404  0.23126  0.33794  1.0000
  C   C85       1.0  0.20750  0.18468  0.25430  1.0000
  C   C86       1.0  0.11163  0.21645  0.42516  1.0000
  H   H138      1.0  0.27903  0.09131  0.38591  1.0000
  H   H139      1.0  0.29772  0.15350  0.44786  1.0000
  H   H140      1.0  0.30454  0.00017  0.12584  1.0000
  H   H141      1.0  0.19995  0.20289  0.38949  1.0000
  H   H142      1.0  0.26137  0.19120  0.44271  1.0000
  C   C87       1.0  0.30959  0.20496  0.29889  1.0000
  C   C88       1.0  0.27762  0.19362  0.47550  1.0000
  H   H143      1.0  0.30439  0.04438  0.27472  1.0000
  C   C89       1.0  0.15750  0.20977  0.29301  1.0000
  H   H144      1.0  0.24202  0.16076  0.31088  1.0000
  H   H145      1.0  0.15907  0.21767  0.27794  1.0000
  H   H146      1.0  0.02936  0.07649  0.47603  1.0000
  C   C90       1.0  0.22938  0.19256  0.28424  1.0000
  H   H147      1.0  0.26372  0.11425  0.38014  1.0000
  H   H148      1.0  0.24258  0.18159  0.28107  1.0000
  H   H149      1.0  0.26821  0.01475  0.27093  1.0000
  H   H150      1.0  0.23378  0.14622  0.29803  1.0000
  H   H151      1.0  0.30812  0.10326  0.24522  1.0000
  H   H152      1.0  0.20048  0.18658  0.44054  1.0000
  H   H153      1.0  0.30638  0.09478  0.46046  1.0000
  H   H154      1.0  0.19457  0.21075  0.27853  1.0000
  H   H155      1.0  0.21834  0.19421  0.24823  1.0000
  H   H156      1.0  0.99313  0.22424  0.38789  1.0000
  H   H157      1.0  0.99644  0.12388  0.31058  1.0000
  H   H158      1.0  0.31295  0.16796  0.38910  1.0000
  C   C91       1.0  0.25245  0.16417  0.47431  1.0000
  N   N5        1.0  0.16745  0.19772  0.42267  1.0000
  H   H159      1.0  0.19340  0.20639  0.30370  1.0000
  H   H160      1.0  0.31247  0.16684  0.47432  1.0000
  H   H161      1.0  0.30372  0.22131  0.18731  1.0000
  H   H162      1.0  0.22889  0.20325  0.27071  1.0000
  H   H163      1.0  0.20079  0.16244  0.27887  1.0000
  C   C92       1.0  0.31418  0.04985  0.19604  1.0000
  H   H164      1.0  0.30268  0.16487  0.42323  1.0000
  C   C93       1.0  0.19605  0.21286  0.40004  1.0000
  H   H165      1.0  0.31724  0.19019  0.47546  1.0000
  H   H166      1.0  0.29577  0.22959  0.15176  1.0000
  H   H167      1.0  0.01413  0.21582  0.34262  1.0000
  C   C94       1.0  0.31938  0.21515  0.18459  1.0000
  H   H168      1.0  0.25339  0.21961  0.30333  1.0000
  H   H169      1.0  0.99388  0.21581  0.25712  1.0000
  C   C95       1.0  0.21145  0.17240  0.27397  1.0000
  H   H170      1.0  0.29445  0.13806  0.41231  1.0000
  H   H171      1.0  0.31892  0.22200  0.12185  1.0000
  H   H172      1.0  0.17934  0.20365  0.47646  1.0000
  H   H173      1.0  0.26824  0.15980  0.46993  1.0000
  H   H174      1.0  0.30141  0.06212  0.45284  1.0000
  H   H175      1.0  0.30306  0.21786  0.30564  1.0000
  H   H176      1.0  0.23117  0.20766  0.46680  1.0000
  H   H177      1.0  0.11216  0.21896  0.40934  1.0000
  H   H178      1.0  0.24971  0.22306  0.27882  1.0000
  C   C96       1.0  0.31588  0.98802  0.12144  1.0000
  H   H179      1.0  0.31765  0.06752  0.43055  1.0000
  H   H180      1.0  0.29880  0.04981  0.19565  1.0000
  H   H181      1.0  0.99814  0.98763  0.03082  1.0000
  H   H182      1.0  0.32339  0.20814  0.15631  1.0000
  H   H183      1.0  0.31436  0.18771  0.32603  1.0000
  H   H184      1.0  0.00388  0.99110  0.07099  1.0000
  C   C97       1.0  0.06047  0.07475  0.47416  1.0000
  H   H185      1.0  0.10138  0.22855  0.43102  1.0000
  C   C98       1.0  0.32186  0.19361  0.19286  1.0000
  H   H186      1.0  0.32121  0.12039  0.27130  1.0000
  C   C99       1.0  0.18316  0.23331  0.33729  1.0000
  H   H187      1.0  0.00008  0.02055  0.03386  1.0000
  H   H188      1.0  0.31824  0.06356  0.18750  1.0000
  H   H189      1.0  0.02212  0.99290  0.04951  1.0000
  H   H190      1.0  0.31798  0.14799  0.33218  1.0000
  C   C100      1.0  0.25113  0.21226  0.29214  1.0000
  H   H191      1.0  0.25009  0.06858  0.47870  1.0000
  S   S18       1.0  0.12409  0.11432  0.47861  1.0000
  Fe  Fe9       1.0  0.26384  0.20930  0.57260  1.0000
  S   S19       1.0  0.27758  0.18503  0.59303  1.0000
  Fe  Fe10      1.0  0.24221  0.18260  0.55913  1.0000
  S   S20       1.0  0.25505  0.15708  0.57915  1.0000
  S   S21       1.0  0.22840  0.17038  0.53951  1.0000
  Fe  Fe11      1.0  0.24813  0.17660  0.60095  1.0000
  S   S22       1.0  0.23735  0.16512  0.63226  1.0000
  Fe  Fe12      1.0  0.28279  0.16819  0.56913  1.0000
  S   S23       1.0  0.31149  0.15034  0.55921  1.0000
  S   S24       1.0  0.23356  0.20188  0.58177  1.0000
  S   S25       1.0  0.27081  0.19273  0.54800  1.0000
  C   C101      1.0  0.11927  0.02982  0.89884  1.0000
  H   H192      1.0  0.15382  0.99839  0.73050  1.0000
  H   H193      1.0  0.05248  0.09734  0.88853  1.0000
  N   N6        1.0  0.21162  0.11734  0.60710  1.0000
  S   S26       1.0  0.10599  0.10643  0.53685  1.0000
  S   S27       1.0  0.14985  0.17787  0.50814  1.0000
  Fe  Fe13      1.0  0.11449  0.14726  0.72793  1.0000
  S   S28       1.0  0.14629  0.14459  0.71671  1.0000
  S   S29       1.0  0.09821  0.16921  0.74694  1.0000
  Fe  Fe14      1.0  0.11104  0.11400  0.70810  1.0000
  S   S30       1.0  0.14273  0.10934  0.69561  1.0000
  S   S31       1.0  0.09194  0.09314  0.70642  1.0000
  Fe  Fe15      1.0  0.14675  0.11268  0.72472  1.0000
  S   S32       1.0  0.17018  0.09389  0.74007  1.0000
  Fe  Fe16      1.0  0.13886  0.14164  0.68892  1.0000
  S   S33       1.0  0.14867  0.15948  0.66013  1.0000
  S   S34       1.0  0.11537  0.11549  0.73781  1.0000
  S   S35       1.0  0.10667  0.14625  0.69951  1.0000
  H   H194      1.0  0.32344  0.23005  0.51240  1.0000
  S   S36       1.0  0.05992  0.00877  0.64865  1.0000
  C   C102      1.0  0.09178  0.08020  0.49589  1.0000
  Fe  Fe17      1.0  0.10011  0.01330  0.60492  1.0000
  S   S37       1.0  0.07006  0.03022  0.60513  1.0000
  S   S38       1.0  0.12178  0.01936  0.57773  1.0000
  Fe  Fe18      1.0  0.07297  0.03478  0.63423  1.0000
  S   S39       1.0  0.06191  0.06413  0.64304  1.0000
  Fe  Fe19      1.0  0.06010  0.00237  0.61949  1.0000
  S   S40       1.0  0.10352  0.01920  0.63336  1.0000
  C   C103      1.0  0.12435  0.06050  0.48413  1.0000
  Fe  Fe20      1.0  0.12059  0.02492  0.82119  1.0000
  S   S41       1.0  0.09805  0.03394  0.80233  1.0000
  S   S42       1.0  0.14870  0.03561  0.81686  1.0000
  C   C104      1.0  0.03732  0.22089  0.89575  1.0000
  H   H195      1.0  0.09103  0.01692  0.74493  1.0000
  Fe  Fe21      1.0  0.09880  0.00242  0.80429  1.0000
  Fe  Fe22      1.0  0.07697  0.03091  0.83002  1.0000
  S   S43       1.0  0.04975  0.05324  0.83202  1.0000
  C   C105      1.0  0.11835  0.00463  0.69254  1.0000
  S   S44       1.0  0.09952  0.02434  0.84903  1.0000
  H   H196      1.0  0.28022  0.14737  0.54066  1.0000
  C   C106      1.0  0.06800  0.05012  0.55576  1.0000
  H   H197      1.0  0.05736  0.02029  0.88507  1.0000
  Fe  Fe23      1.0  0.14181  0.15475  0.49560  1.0000
  C   C107      1.0  0.02260  0.20536  0.76167  1.0000
  S   S45       1.0  0.14048  0.21869  0.78332  1.0000
  H   H198      1.0  0.07962  0.16314  0.82103  1.0000
  Fe  Fe24      1.0  0.02191  0.15273  0.85657  1.0000
  H   H199      1.0  0.22942  0.21430  0.53419  1.0000
  S   S46       1.0  0.05157  0.13458  0.85008  1.0000
  H   H200      1.0  0.22381  0.09865  0.54542  1.0000
  H   H201      1.0  0.30883  0.20855  0.57973  1.0000
  S   S47       1.0  0.01501  0.18374  0.84282  1.0000
  H   H202      1.0  0.99574  0.15868  0.79078  1.0000
  C   C108      1.0  0.02506  0.06767  0.61416  1.0000
  N   N7        1.0  0.00459  0.07274  0.88870  1.0000
  C   C109      1.0  0.03023  0.21740  0.88045  1.0000
  C   C110      1.0  0.04186  0.21842  0.86212  1.0000
  C   C111      1.0  0.06037  0.22343  0.85913  1.0000
  H   H203      1.0  0.17301  0.03632  0.86213  1.0000
  H   H204      1.0  0.30455  0.21628  0.51508  1.0000
  H   H205      1.0  0.23503  0.12027  0.58283  1.0000
  H   H206      1.0  0.20087  0.17670  0.58191  1.0000
  H   H207      1.0  0.16266  0.20231  0.52778  1.0000
  N   N8        1.0  0.15459  0.20867  0.70194  1.0000
  S   S48       1.0  0.12319  0.99368  0.82076  1.0000
  Fe  Fe25      1.0  0.12284  0.11917  0.50869  1.0000
  H   H208      1.0  0.11188  0.21757  0.70487  1.0000
  H   H209      1.0  0.21973  0.20616  0.50626  1.0000
  C   C112      1.0  0.05172  0.07609  0.83537  1.0000
  C   C113      1.0  0.03701  0.09170  0.83110  1.0000
  C   C114      1.0  0.03702  0.10971  0.83545  1.0000
  C   C115      1.0  0.05178  0.11226  0.84399  1.0000
  C   C116      1.0  0.06679  0.09680  0.84784  1.0000
  C   C117      1.0  0.06683  0.07872  0.84348  1.0000
  H   H210      1.0  0.02563  0.12164  0.83223  1.0000
  H   H211      1.0  0.07794  0.09865  0.85492  1.0000
  H   H212      1.0  0.07813  0.06671  0.84697  1.0000
  C   C118      1.0  0.24311  0.11656  0.62014  1.0000
  C   C119      1.0  0.08653  0.99309  0.72245  1.0000
  H   H213      1.0  0.03137  0.07668  0.91107  1.0000
  C   C120      1.0  0.25088  0.20819  0.49790  1.0000
  C   C121      1.0  0.11004  0.18295  0.75699  1.0000
  C   C122      1.0  0.13018  0.17968  0.75517  1.0000
  C   C123      1.0  0.13919  0.19074  0.76336  1.0000
  C   C124      1.0  0.12818  0.20515  0.77356  1.0000
  C   C125      1.0  0.10798  0.20839  0.77548  1.0000
  C   C126      1.0  0.09899  0.19736  0.76719  1.0000
  H   H214      1.0  0.13882  0.16857  0.74751  1.0000
  H   H215      1.0  0.09933  0.21944  0.78328  1.0000
  H   H216      1.0  0.08340  0.20008  0.76862  1.0000
  C   C127      1.0  0.16340  0.07815  0.76151  1.0000
  C   C128      1.0  0.14443  0.07461  0.76753  1.0000
  C   C129      1.0  0.13965  0.06175  0.78466  1.0000
  C   C130      1.0  0.15388  0.05228  0.79570  1.0000
  C   C131      1.0  0.17276  0.05602  0.78978  1.0000
  C   C132      1.0  0.17751  0.06883  0.77273  1.0000
  H   H217      1.0  0.13352  0.08138  0.75881  1.0000
  H   H218      1.0  0.12498  0.05922  0.78925  1.0000
  H   H219      1.0  0.18382  0.04883  0.79828  1.0000
  H   H220      1.0  0.19220  0.07151  0.76817  1.0000
  C   C133      1.0  0.08701  0.08789  0.68517  1.0000
  C   C134      1.0  0.09731  0.07136  0.67780  1.0000
  C   C135      1.0  0.09025  0.06417  0.66435  1.0000
  C   C136      1.0  0.07272  0.07340  0.65830  1.0000
  C   C137      1.0  0.06294  0.09034  0.66505  1.0000
  C   C138      1.0  0.06992  0.09741  0.67850  1.0000
  H   H221      1.0  0.11031  0.06367  0.68314  1.0000
  H   H222      1.0  0.09800  0.05114  0.65920  1.0000
  H   H223      1.0  0.04942  0.09761  0.66049  1.0000
  H   H224      1.0  0.06149  0.10976  0.68449  1.0000
  C   C139      1.0  0.11212  0.08247  0.54822  1.0000
  C   C140      1.0  0.12580  0.06889  0.53904  1.0000
  C   C141      1.0  0.12903  0.04953  0.54827  1.0000
  C   C142      1.0  0.11886  0.04384  0.56680  1.0000
  C   C143      1.0  0.10596  0.05771  0.57625  1.0000
  C   C144      1.0  0.10236  0.07686  0.56686  1.0000
  H   H225      1.0  0.13359  0.07322  0.52476  1.0000
  H   H226      1.0  0.13923  0.03889  0.54098  1.0000
  H   H227      1.0  0.09857  0.05368  0.59074  1.0000
  H   H228      1.0  0.09177  0.08731  0.57400  1.0000
  C   C145      1.0  0.21257  0.16434  0.64031  1.0000
  C   C146      1.0  0.19853  0.17583  0.63002  1.0000
  C   C147      1.0  0.17891  0.17439  0.63646  1.0000
  C   C148      1.0  0.17327  0.16136  0.65305  1.0000
  C   C149      1.0  0.18725  0.15009  0.66352  1.0000
  C   C150      1.0  0.20683  0.15177  0.65727  1.0000
  H   H229      1.0  0.20280  0.18580  0.61712  1.0000
  H   H230      1.0  0.16805  0.18343  0.62858  1.0000
  H   H231      1.0  0.18299  0.14010  0.67643  1.0000
  H   H232      1.0  0.21759  0.14308  0.66548  1.0000
  C   C151      1.0  0.20577  0.17236  0.53232  1.0000
  C   C152      1.0  0.19101  0.18838  0.53395  1.0000
  C   C153      1.0  0.17388  0.18974  0.52670  1.0000
  C   C154      1.0  0.17129  0.17511  0.51782  1.0000
  C   C155      1.0  0.18595  0.15898  0.51646  1.0000
  C   C156      1.0  0.20304  0.15763  0.52370  1.0000
  C   C157      1.0  0.24797  0.17860  0.48838  1.0000
  C   C158      1.0  0.17706  0.98742  0.74788  1.0000
  H   H233      1.0  0.18427  0.14768  0.50953  1.0000
  H   H234      1.0  0.21434  0.14514  0.52244  1.0000
  H   H235      1.0  0.17793  0.06481  0.87280  1.0000
  H   H236      1.0  0.25532  0.19870  0.51113  1.0000
  C   C159      1.0  0.31126  0.14091  0.53867  1.0000
  C   C160      1.0  0.29386  0.14153  0.53249  1.0000
  H   H237      1.0  0.16627  0.15077  0.76340  1.0000
  N   N9        1.0  0.12670  0.12255  0.80383  1.0000
  C   C161      1.0  0.10607  0.12453  0.80086  1.0000
  C   C162      1.0  0.12722  0.13690  0.81613  1.0000
  C   C163      1.0  0.13926  0.12629  0.78430  1.0000
  C   C164      1.0  0.13409  0.10266  0.81392  1.0000
  C   C165      1.0  0.12271  0.09670  0.83435  1.0000
  C   C166      1.0  0.10129  0.10736  0.79400  1.0000
  C   C167      1.0  0.16111  0.12508  0.78436  1.0000
  C   C168      1.0  0.12440  0.15830  0.80627  1.0000
  C   C169      1.0  0.12171  0.17165  0.82085  1.0000
  C   C170      1.0  0.12719  0.07501  0.84125  1.0000
  C   C171      1.0  0.08104  0.11205  0.78883  1.0000
  C   C172      1.0  0.17126  0.13496  0.76519  1.0000
  H   H238      1.0  0.10237  0.13764  0.79009  1.0000
  H   H239      1.0  0.09550  0.12691  0.81423  1.0000
  H   H240      1.0  0.11579  0.13566  0.82923  1.0000
  H   H241      1.0  0.14102  0.13359  0.82185  1.0000
  H   H242      1.0  0.13358  0.14051  0.77607  1.0000
  H   H243      1.0  0.13853  0.11577  0.77534  1.0000
  H   H244      1.0  0.13472  0.09175  0.80490  1.0000
  H   H245      1.0  0.14933  0.10135  0.81578  1.0000
  H   H246      1.0  0.10693  0.10085  0.83480  1.0000
  H   H247      1.0  0.12668  0.10396  0.84472  1.0000
  H   H248      1.0  0.11175  0.10355  0.78117  1.0000
  H   H249      1.0  0.10169  0.09444  0.80552  1.0000
  H   H250      1.0  0.16827  0.10972  0.78668  1.0000
  H   H251      1.0  0.16355  0.13189  0.79581  1.0000
  H   H252      1.0  0.13738  0.16106  0.79538  1.0000
  H   H253      1.0  0.11160  0.16219  0.79900  1.0000
  H   H254      1.0  0.11972  0.18688  0.81344  1.0000
  H   H255      1.0  0.10871  0.16974  0.83206  1.0000
  H   H256      1.0  0.13466  0.16881  0.82785  1.0000
  H   H257      1.0  0.12026  0.07148  0.85650  1.0000
  H   H258      1.0  0.12128  0.06741  0.83253  1.0000
  H   H259      1.0  0.14306  0.06985  0.84007  1.0000
  H   H260      1.0  0.08028  0.12398  0.77633  1.0000
  H   H261      1.0  0.07772  0.09919  0.78489  1.0000
  H   H262      1.0  0.07000  0.11610  0.80129  1.0000
  H   H263      1.0  0.28069  0.13542  0.51068  1.0000
  H   H264      1.0  0.18715  0.13195  0.76487  1.0000
  H   H265      1.0  0.16831  0.12959  0.75298  1.0000
  N   N10       1.0  0.12879  0.13344  0.57358  1.0000
  C   C173      1.0  0.11118  0.12464  0.58353  1.0000
  C   C174      1.0  0.12392  0.14909  0.55680  1.0000
  C   C175      1.0  0.14383  0.11767  0.56556  1.0000
  C   C176      1.0  0.13746  0.14104  0.58719  1.0000
  C   C177      1.0  0.12355  0.15467  0.60001  1.0000
  C   C178      1.0  0.11442  0.10751  0.60031  1.0000
  C   C179      1.0  0.16251  0.12403  0.55289  1.0000
  C   C180      1.0  0.10356  0.16193  0.55941  1.0000
  C   C181      1.0  0.10261  0.18023  0.54420  1.0000
  C   C182      1.0  0.13342  0.15804  0.61553  1.0000
  C   C183      1.0  0.09523  0.10274  0.61227  1.0000
  C   C184      1.0  0.17678  0.10680  0.54613  1.0000
  H   H266      1.0  0.10527  0.11942  0.57286  1.0000
  H   H267      1.0  0.09916  0.13550  0.58922  1.0000
  H   H268      1.0  0.13500  0.15864  0.55244  1.0000
  H   H269      1.0  0.12464  0.14269  0.54381  1.0000
  H   H270      1.0  0.13742  0.11052  0.55674  1.0000
  H   H271      1.0  0.14862  0.10617  0.57737  1.0000
  H   H272      1.0  0.14504  0.12894  0.59674  1.0000
  H   H273      1.0  0.14894  0.14928  0.57903  1.0000
  H   H274      1.0  0.11039  0.14881  0.60760  1.0000
  H   H275      1.0  0.11938  0.16892  0.59115  1.0000
  H   H276      1.0  0.12243  0.09441  0.59452  1.0000
  H   H277      1.0  0.12270  0.11068  0.61025  1.0000
  H   H278      1.0  0.17003  0.13078  0.56091  1.0000
  H   H279      1.0  0.15909  0.13454  0.53992  1.0000
  H   H280      1.0  0.09258  0.15381  0.55787  1.0000
  H   H281      1.0  0.09927  0.16634  0.57366  1.0000
  H   H282      1.0  0.10642  0.17665  0.52950  1.0000
  H   H283      1.0  0.08771  0.18876  0.54595  1.0000
  H   H284      1.0  0.11279  0.18924  0.54571  1.0000
  H   H285      1.0  0.12352  0.16853  0.62399  1.0000
  H   H286      1.0  0.13700  0.14442  0.62565  1.0000
  H   H287      1.0  0.14684  0.16394  0.60901  1.0000
  H   H288      1.0  0.09808  0.08966  0.62329  1.0000
  H   H289      1.0  0.08728  0.11477  0.61981  1.0000
  H   H290      1.0  0.08600  0.09985  0.60306  1.0000
  H   H291      1.0  0.18956  0.11185  0.53636  1.0000
  H   H292      1.0  0.18174  0.09644  0.55860  1.0000
  H   H293      1.0  0.16995  0.09926  0.53816  1.0000
  C   C185      1.0  0.07018  0.98675  0.73892  1.0000
  H   H294      1.0  0.12688  0.04080  0.90107  1.0000
  H   H295      1.0  0.31869  0.17083  0.49583  1.0000
  H   H296      1.0  0.17308  0.19680  0.66632  1.0000
  N   N11       1.0  0.03432  0.17074  0.77934  1.0000
  S   S49       1.0  0.00624  0.21333  0.88454  1.0000
  C   C186      1.0  0.02694  0.15306  0.79155  1.0000
  C   C187      1.0  0.04437  0.17884  0.79144  1.0000
  C   C188      1.0  0.04897  0.16565  0.76205  1.0000
  C   C189      1.0  0.04170  0.15785  0.74704  1.0000
  C   C190      1.0  0.06089  0.16470  0.80059  1.0000
  Fe  Fe26      1.0  0.09041  0.99260  0.64570  1.0000
  S   S50       1.0  0.03256  0.99292  0.61657  1.0000
  C   C191      1.0  0.05751  0.15547  0.72940  1.0000
  C   C192      1.0  0.06844  0.17386  0.81414  1.0000
  H   H297      1.0  0.23528  0.11700  0.54944  1.0000
  N   N12       1.0  0.16970  0.99474  0.76674  1.0000
  H   H298      1.0  0.03868  0.14019  0.79117  1.0000
  H   H299      1.0  0.02283  0.15480  0.80698  1.0000
  H   H300      1.0  0.03358  0.18474  0.80322  1.0000
  H   H301      1.0  0.05115  0.19111  0.78276  1.0000
  H   H302      1.0  0.05593  0.17821  0.75454  1.0000
  H   H303      1.0  0.06103  0.15434  0.76664  1.0000
  H   H304      1.0  0.02890  0.16762  0.74204  1.0000
  H   H305      1.0  0.03815  0.14335  0.75324  1.0000
  H   H306      1.0  0.03512  0.10334  0.61301  1.0000
  H   H307      1.0  0.07331  0.16072  0.78928  1.0000
  H   H308      1.0  0.05601  0.15137  0.80901  1.0000
  H   H309      1.0  0.19222  0.18532  0.68781  1.0000
  C   C193      1.0  0.02437  0.09046  0.90334  1.0000
  H   H310      1.0  0.20327  0.15243  0.70365  1.0000
  H   H311      1.0  0.03919  0.05831  0.61610  1.0000
  S   S51       1.0  0.07582  0.99983  0.83057  1.0000
  H   H312      1.0  0.07047  0.14524  0.73363  1.0000
  H   H313      1.0  0.05212  0.14964  0.71886  1.0000
  H   H314      1.0  0.06180  0.16953  0.72231  1.0000
  H   H315      1.0  0.07498  0.18651  0.80613  1.0000
  N   N13       1.0  0.08714  0.01441  0.71685  1.0000
  C   C194      1.0  0.08127  0.02397  0.73441  1.0000
  C   C195      1.0  0.15023  0.02722  0.75251  1.0000
  C   C196      1.0  0.10787  0.01666  0.70842  1.0000
  C   C197      1.0  0.07492  0.02388  0.70163  1.0000
  C   C198      1.0  0.05279  0.02494  0.70769  1.0000
  C   C199      1.0  0.08134  0.04592  0.73086  1.0000
  H   H316      1.0  0.10985  0.00666  0.68088  1.0000
  H   H317      1.0  0.29741  0.19006  0.64346  1.0000
  H   H318      1.0  0.17997  0.17476  0.57275  1.0000
  C   C200      1.0  0.04200  0.03892  0.69277  1.0000
  C   C201      1.0  0.07486  0.05381  0.74970  1.0000
  C   C202      1.0  0.16500  0.03944  0.87637  1.0000
  H   H319      1.0  0.25085  0.13853  0.49655  1.0000
  H   H320      1.0  0.06663  0.02190  0.74223  1.0000
  H   H321      1.0  0.03178  0.03906  0.59455  1.0000
  H   H322      1.0  0.10435  0.18850  0.69745  1.0000
  C   C203      1.0  0.10263  0.06056  0.49038  1.0000
  H   H323      1.0  0.10871  0.03195  0.70209  1.0000
  H   H324      1.0  0.07772  0.03871  0.69573  1.0000
  H   H325      1.0  0.07913  0.01631  0.68907  1.0000
  H   H326      1.0  0.04719  0.02997  0.72161  1.0000
  H   H327      1.0  0.04913  0.01054  0.70867  1.0000
  H   H328      1.0  0.09604  0.04915  0.72471  1.0000
  H   H329      1.0  0.07131  0.05395  0.72093  1.0000
  H   H330      1.0  0.05578  0.99529  0.73705  1.0000
  H   H331      1.0  0.13518  0.21463  0.72829  1.0000
  H   H332      1.0  0.01535  0.09314  0.59323  1.0000
  C   C204      1.0  0.00469  0.12828  0.79811  1.0000
  C   C205      1.0  0.06745  0.22676  0.87460  1.0000
  H   H333      1.0  0.21913  0.14581  0.59976  1.0000
  S   S52       1.0  0.15366  0.12351  0.50404  1.0000
  H   H334      1.0  0.04663  0.03442  0.67848  1.0000
  H   H335      1.0  0.02620  0.03919  0.69727  1.0000
  H   H336      1.0  0.02538  0.02952  0.62843  1.0000
  H   H337      1.0  0.08447  0.04629  0.76022  1.0000
  H   H338      1.0  0.07554  0.06941  0.74687  1.0000
  H   H339      1.0  0.05972  0.05199  0.75607  1.0000
  H   H340      1.0  0.08930  0.99763  0.89151  1.0000
  H   H341      1.0  0.17763  0.01251  0.89190  1.0000
  C   C206      1.0  0.06058  0.10245  0.49965  1.0000
  H   H342      1.0  0.14140  0.99658  0.91582  1.0000
  H   H343      1.0  0.08890  0.99972  0.92569  1.0000
  H   H344      1.0  0.06924  0.22445  0.84498  1.0000
  S   S53       1.0  0.09004  0.98483  0.61720  1.0000
  H   H345      1.0  0.18492  0.15543  0.72456  1.0000
  C   C207      1.0  0.10901  0.20002  0.68560  1.0000
  H   H346      1.0  0.09588  0.20976  0.68120  1.0000
  H   H347      1.0  0.31386  0.21754  0.53587  1.0000
  C   C208      1.0  0.22917  0.21705  0.50355  1.0000
  H   H348      1.0  0.02052  0.07482  0.62705  1.0000
  H   H349      1.0  0.19105  0.04324  0.88515  1.0000
  C   C209      1.0  0.16157  0.98438  0.73710  1.0000
  H   H350      1.0  0.13481  0.18843  0.71217  1.0000
  H   H351      1.0  0.10123  0.05073  0.88036  1.0000
  C   C210      1.0  0.12114  0.21138  0.69245  1.0000
  C   C211      1.0  0.18205  0.17865  0.69994  1.0000
  C   C212      1.0  0.22508  0.10991  0.59004  1.0000
  H   H352      1.0  0.00905  0.18081  0.76536  1.0000
  H   H353      1.0  0.28395  0.17489  0.67593  1.0000
  C   C213      1.0  0.05838  0.13794  0.50012  1.0000
  C   C214      1.0  0.29411  0.13472  0.51553  1.0000
  C   C215      1.0  0.16386  0.22028  0.68364  1.0000
  H   H354      1.0  0.25287  0.09563  0.64432  1.0000
  H   H355      1.0  0.04889  0.02905  0.90752  1.0000
  H   H356      1.0  0.22334  0.09638  0.62999  1.0000
  H   H357      1.0  0.16277  0.18667  0.72557  1.0000
  C   C216      1.0  0.07606  0.05518  0.53434  1.0000
  H   H358      1.0  0.15480  0.18808  0.76191  1.0000
  H   H359      1.0  0.02844  0.22018  0.90990  1.0000
  H   H360      1.0  0.22836  0.14919  0.48784  1.0000
  H   H361      1.0  0.14734  0.00808  0.69438  1.0000
  H   H362      1.0  0.03643  0.21580  0.85021  1.0000
  C   C217      1.0  0.01473  0.05294  0.89665  1.0000
  N   N14       1.0  0.15095  0.00789  0.88577  1.0000
  C   C218      1.0  0.17635  0.05142  0.88344  1.0000
  S   S54       1.0  0.11080  0.15062  0.50194  1.0000
  C   C219      1.0  0.09953  0.04031  0.89405  1.0000
  H   H363      1.0  0.12217  0.00884  0.88074  1.0000
  C   C220      1.0  0.16973  0.19415  0.71153  1.0000
  H   H364      1.0  0.04509  0.07017  0.50398  1.0000
  H   H365      1.0  0.06410  0.14838  0.50575  1.0000
  H   H366      1.0  0.17864  0.17251  0.59814  1.0000
  C   C221      1.0  0.06778  0.11744  0.50774  1.0000
  H   H367      1.0  0.21056  0.09112  0.57993  1.0000
  H   H368      1.0  0.02991  0.08502  0.87400  1.0000
  H   H369      1.0  0.25298  0.10839  0.60944  1.0000
  H   H370      1.0  0.24335  0.09191  0.55900  1.0000
  H   H371      1.0  0.20379  0.98553  0.78681  1.0000
  C   C222      1.0  0.30758  0.18311  0.65356  1.0000
  H   H372      1.0  0.30735  0.16079  0.67921  1.0000
  H   H373      1.0  0.25918  0.22025  0.49468  1.0000
  H   H374      1.0  0.13624  0.02541  0.67592  1.0000
  H   H375      1.0  0.02960  0.21264  0.76970  1.0000
  C   C223      1.0  0.05599  0.22507  0.89294  1.0000
  H   H376      1.0  0.09201  0.05374  0.53282  1.0000
  H   H377      1.0  0.02547  0.08976  0.82460  1.0000
  H   H378      1.0  0.03233  0.20307  0.74790  1.0000
  H   H379      1.0  0.02206  0.04894  0.65216  1.0000
  H   H380      1.0  0.00727  0.18942  0.78695  1.0000
  C   C224      1.0  0.16658  0.21220  0.66472  1.0000
  N   N15       1.0  0.01043  0.05569  0.61336  1.0000
  H   H381      1.0  0.14592  0.18870  0.68794  1.0000
  H   H382      1.0  0.18059  0.21749  0.63483  1.0000
  H   H383      1.0  0.13825  0.99047  0.85921  1.0000
  H   H384      1.0  0.04466  0.10381  0.50485  1.0000
  H   H385      1.0  0.11688  0.01260  0.71996  1.0000
  H   H386      1.0  0.13069  0.06284  0.49602  1.0000
  C   C225      1.0  0.00838  0.04526  0.65026  1.0000
  C   C226      1.0  0.18829  0.16920  0.58469  1.0000
  H   H387      1.0  0.05663  0.17842  0.82578  1.0000
  H   H388      1.0  0.03690  0.07748  0.58373  1.0000
  H   H389      1.0  0.17299  0.17135  0.69424  1.0000
  H   H390      1.0  0.15243  0.21374  0.66015  1.0000
  C   C227      1.0  0.01679  0.04745  0.59498  1.0000
  H   H391      1.0  0.02791  0.01603  0.57586  1.0000
  H   H392      1.0  0.09071  0.02991  0.89277  1.0000
  H   H393      1.0  0.29508  0.15692  0.66117  1.0000
  H   H394      1.0  0.06172  0.14108  0.48418  1.0000
  H   H395      1.0  0.17711  0.99568  0.86789  1.0000
  C   C228      1.0  0.15031  0.00797  0.76707  1.0000
  H   H396      1.0  0.14543  0.00089  0.67251  1.0000
  H   H397      1.0  0.14474  0.01180  0.78167  1.0000
  H   H398      1.0  0.05162  0.07877  0.53196  1.0000
  H   H399      1.0  0.13219  0.02932  0.86879  1.0000
  H   H400      1.0  0.06395  0.11541  0.52365  1.0000
  C   C229      1.0  0.12973  0.03709  0.74973  1.0000
  H   H401      1.0  0.19444  0.22073  0.65160  1.0000
  C   C230      1.0  0.04206  0.09630  0.60037  1.0000
  H   H402      1.0  0.15660  0.02406  0.90545  1.0000
  H   H403      1.0  0.04483  0.10764  0.58760  1.0000
  C   C231      1.0  0.19432  0.16311  0.71245  1.0000
  H   H404      1.0  0.08369  0.11640  0.50354  1.0000
  H   H405      1.0  0.00108  0.02277  0.60332  1.0000
  H   H406      1.0  0.20414  0.16952  0.71827  1.0000
  H   H407      1.0  0.04481  0.05373  0.69148  1.0000
  H   H408      1.0  0.00095  0.12869  0.81376  1.0000
  H   H409      1.0  0.07411  0.08516  0.53241  1.0000
  H   H410      1.0  0.15668  0.03726  0.75790  1.0000
  H   H411      1.0  0.01202  0.09727  0.91323  1.0000
  C   C232      1.0  0.00871  0.14786  0.78681  1.0000
  C   C233      1.0  0.06740  0.07608  0.52597  1.0000
  H   H412      1.0  0.18048  0.20139  0.71492  1.0000
  H   H413      1.0  0.13921  0.00068  0.76458  1.0000
  C   C234      1.0  0.31789  0.21681  0.52029  1.0000
  H   H414      1.0  0.04242  0.14000  0.50478  1.0000
  C   C235      1.0  0.28934  0.18389  0.49180  1.0000
  H   H415      1.0  0.99683  0.05804  0.65177  1.0000
  C   C236      1.0  0.00427  0.21925  0.75686  1.0000
  H   H416      1.0  0.06139  0.22757  0.90495  1.0000
  H   H417      1.0  0.12262  0.02762  0.74430  1.0000
  H   H418      1.0  0.12097  0.04060  0.76354  1.0000
  H   H419      1.0  0.13022  0.05071  0.73919  1.0000
  H   H420      1.0  0.16447  0.22125  0.73517  1.0000
  H   H421      1.0  0.28848  0.19401  0.50172  1.0000
  C   C237      1.0  0.31177  0.12806  0.50435  1.0000
  S   S55       1.0  0.31244  0.12229  0.48172  1.0000
  H   H422      1.0  0.23462  0.09616  0.59497  1.0000
  C   C238      1.0  0.19397  0.10778  0.61277  1.0000
  C   C239      1.0  0.20612  0.13897  0.60294  1.0000
  C   C240      1.0  0.19514  0.14753  0.58594  1.0000
  C   C241      1.0  0.17886  0.11417  0.63015  1.0000
  H   H423      1.0  0.01745  0.11681  0.79529  1.0000
  C   C242      1.0  0.16250  0.10247  0.63547  1.0000
  H   H424      1.0  0.19860  0.09186  0.61611  1.0000
  H   H425      1.0  0.18588  0.11027  0.60072  1.0000
  H   H426      1.0  0.21409  0.11971  0.63597  1.0000
  H   H427      1.0  0.19740  0.14432  0.61597  1.0000
  H   H428      1.0  0.18221  0.14094  0.58742  1.0000
  H   H429      1.0  0.20494  0.14540  0.57217  1.0000
  H   H430      1.0  0.18541  0.11216  0.64319  1.0000
  H   H431      1.0  0.17220  0.12955  0.62664  1.0000
  H   H432      1.0  0.28367  0.17107  0.50024  1.0000
  H   H433      1.0  0.24299  0.11959  0.64961  1.0000
  C   C243      1.0  0.13805  0.01016  0.68333  1.0000
  H   H434      1.0  0.16820  0.08704  0.64039  1.0000
  H   H435      1.0  0.15159  0.10787  0.64743  1.0000
  H   H436      1.0  0.15520  0.10381  0.62303  1.0000
  C   C244      1.0  0.14432  0.22221  0.71578  1.0000
  H   H437      1.0  0.11662  0.01979  0.91266  1.0000
  C   C245      1.0  0.02906  0.08377  0.59659  1.0000
  H   H438      1.0  0.01502  0.01598  0.66585  1.0000
  H   H439      1.0  0.05237  0.04936  0.55796  1.0000
  H   H440      1.0  0.06990  0.06094  0.56375  1.0000
  H   H441      1.0  0.15893  0.02510  0.73826  1.0000
  C   C246      1.0  0.16145  0.00094  0.86737  1.0000
  C   C247      1.0  0.13116  0.01885  0.88257  1.0000
  H   H442      1.0  0.01589  0.03608  0.56037  1.0000
  H   H443      1.0  0.24313  0.13203  0.61470  1.0000
  H   H444      1.0  0.00042  0.03008  0.63094  1.0000
  C   C248      1.0  0.01755  0.18603  0.77372  1.0000
  H   H445      1.0  0.11742  0.19348  0.67307  1.0000
  H   H446      1.0  0.26664  0.11484  0.63532  1.0000
  H   H447      1.0  0.03054  0.04097  0.87102  1.0000
  C   C249      1.0  0.13969  0.19827  0.69870  1.0000
  H   H448      1.0  0.20331  0.11597  0.57056  1.0000
  H   H449      1.0  0.07588  0.03583  0.56171  1.0000
  C   C250      1.0  0.22225  0.11206  0.62405  1.0000
  H   H450      1.0  0.07291  0.04427  0.52733  1.0000
  C   C251      1.0  0.14843  0.99127  0.90219  1.0000
  H   H451      1.0  0.16861  0.05549  0.89744  1.0000
  C   C252      1.0  0.09619  0.98558  0.90086  1.0000
  C   C253      1.0  0.25186  0.11126  0.63852  1.0000
  C   C254      1.0  0.04426  0.02617  0.89480  1.0000
  C   C255      1.0  0.16269  0.02048  0.89085  1.0000
  C   C256      1.0  0.03377  0.04468  0.88401  1.0000
  H   H452      1.0  0.09401  0.09100  0.48246  1.0000
  Fe  Fe27      1.0  0.00159  0.18870  0.87261  1.0000
  C   C257      1.0  0.21579  0.10503  0.57447  1.0000
  H   H453      1.0  0.99421  0.22237  0.77027  1.0000
  H   H454      1.0  0.16111  0.01313  0.85500  1.0000
  S   S56       1.0  0.01055  0.15820  0.88672  1.0000
  H   H455      1.0  0.09157  0.04830  0.90573  1.0000
  C   C258      1.0  0.23051  0.10301  0.55599  1.0000
  H   H456      1.0  0.19293  0.19987  0.54047  1.0000
  S   S57       1.0  0.10162  0.99119  0.77687  1.0000
  C   C259      1.0  0.03926  0.10384  0.89767  1.0000
  H   H457      1.0  0.04398  0.05499  0.87948  1.0000
  H   H458      1.0  0.15079  0.04850  0.87433  1.0000
  H   H459      1.0  0.01346  0.06840  0.85902  1.0000
  H   H460      1.0  0.03313  0.11794  0.88967  1.0000
  H   H461      1.0  0.04343  0.10635  0.91077  1.0000
  C   C260      1.0  0.00396  0.03448  0.59103  1.0000
  C   C261      1.0  0.01719  0.08779  0.88547  1.0000
  C   C262      1.0  0.06033  0.06969  0.49626  1.0000
  H   H462      1.0  0.25300  0.17080  0.50195  1.0000
  C   C263      1.0  0.01369  0.02502  0.57352  1.0000
  C   C264      1.0  0.00335  0.02883  0.66655  1.0000
  H   H463      1.0  0.23195  0.18164  0.49234  1.0000
  N   N16       1.0  0.07046  0.08173  0.50430  1.0000
  H   H464      1.0  0.00998  0.14755  0.77136  1.0000
  H   H465      1.0  0.03476  0.01515  0.89956  1.0000
  H   H466      1.0  0.00174  0.03338  0.68065  1.0000
  H   H467      1.0  0.10069  0.04844  0.50243  1.0000
  C   C265      1.0  0.22579  0.22567  0.52184  1.0000
  C   C266      1.0  0.15739  0.23184  0.72403  1.0000
  H   H468      1.0  0.24981  0.08033  0.49849  1.0000
  H   H469      1.0  0.30935  0.19413  0.66139  1.0000
  C   C267      1.0  0.29799  0.16792  0.66836  1.0000
  C   C268      1.0  0.01112  0.03933  0.63026  1.0000
  H   H470      1.0  0.05619  0.08738  0.60313  1.0000
  H   H471      1.0  0.06244  0.10741  0.48380  1.0000
  H   H472      1.0  0.01821  0.05250  0.91098  1.0000
  Fe  Fe28      1.0  0.10036  0.99347  0.84721  1.0000
  H   H473      1.0  0.12471  0.22344  0.68076  1.0000
  H   H474      1.0  0.06682  0.05424  0.49915  1.0000
  H   H475      1.0  0.12100  0.98911  0.69884  1.0000
  H   H476      1.0  0.13173  0.04637  0.48014  1.0000
  H   H477      1.0  0.31166  0.20006  0.61448  1.0000
  H   H478      1.0  0.00926  0.10222  0.87986  1.0000
  H   H479      1.0  0.09964  0.08400  0.50595  1.0000
  H   H480      1.0  0.18597  0.01814  0.75746  1.0000
  H   H481      1.0  0.08594  0.98712  0.70960  1.0000
  H   H482      1.0  0.01731  0.05911  0.58220  1.0000
  H   H483      1.0  0.27553  0.22489  0.60820  1.0000
  H   H484      1.0  0.07310  0.98848  0.75292  1.0000
  H   H485      1.0  0.10014  0.98514  0.72756  1.0000
  H   H486      1.0  0.16487  0.99156  0.83096  1.0000
  H   H487      1.0  0.17827  0.22249  0.68533  1.0000
  H   H488      1.0  0.00477  0.04240  0.89909  1.0000
  H   H489      1.0  0.22430  0.22877  0.49201  1.0000
  C   C269      1.0  0.17959  0.22300  0.64832  1.0000
  H   H490      1.0  0.32323  0.21430  0.63573  1.0000
  H   H491      1.0  0.32478  0.16163  0.63733  1.0000
  H   H492      1.0  0.99674  0.21308  0.74828  1.0000
  C   C270      1.0  0.32468  0.20497  0.57507  1.0000
  H   H493      1.0  0.17775  0.01323  0.78275  1.0000
  H   H494      1.0  0.99698  0.07350  0.92916  1.0000
  H   H495      1.0  0.32370  0.17844  0.60670  1.0000
  H   H496      1.0  0.99726  0.10172  0.85409  1.0000
  C   C271      1.0  0.24434  0.14581  0.48364  1.0000
  H   H497      1.0  0.21030  0.23228  0.52534  1.0000
  C   C272      1.0  0.99998  0.07177  0.86948  1.0000
  H   H498      1.0  0.23262  0.00013  0.77381  1.0000
  H   H499      1.0  0.17599  0.98466  0.91292  1.0000
  N   N17       1.0  0.25585  0.19715  0.48136  1.0000
  C   C273      1.0  0.25068  0.08248  0.48265  1.0000
  C   C274      1.0  0.09590  0.98668  0.92017  1.0000
  C   C275      1.0  0.31074  0.17763  0.48377  1.0000
  H   H500      1.0  0.99402  0.08059  0.83170  1.0000
  S   S58       1.0  0.99411  0.14576  0.85294  1.0000
  H   H501      1.0  0.21036  0.98578  0.76119  1.0000
  C   C276      1.0  0.15336  0.98510  0.86162  1.0000
  C   C277      1.0  0.18380  0.00620  0.76984  1.0000
  H   H502      1.0  0.21271  0.01791  0.78238  1.0000
  H   H503      1.0  0.22013  0.01778  0.75681  1.0000
  H   H504      1.0  0.00441  0.01550  0.57120  1.0000
  H   H505      1.0  0.18567  0.99746  0.73740  1.0000
  C   C278      1.0  0.21825  0.00857  0.77127  1.0000
  C   C279      1.0  0.20431  0.99488  0.77242  1.0000
  H   H506      1.0  0.16384  0.98384  0.79728  1.0000
  S   S59       1.0  0.09030  0.23331  0.87194  1.0000
  H   H507      1.0  0.00814  0.23303  0.74832  1.0000
  Fe  Fe29      1.0  0.19915  0.35537  0.08472  1.0000
  S   S60       1.0  0.20486  0.38480  0.07107  1.0000
  S   S61       1.0  0.16946  0.34801  0.08939  1.0000
  Fe  Fe30      1.0  0.24109  0.34061  0.09087  1.0000
  S   S62       1.0  0.24999  0.36918  0.07779  1.0000
  S   S63       1.0  0.26243  0.31383  0.09956  1.0000
  Fe  Fe31      1.0  0.22162  0.38136  0.09496  1.0000
  S   S64       1.0  0.21515  0.40615  0.11109  1.0000
  Fe  Fe32      1.0  0.23230  0.36949  0.05547  1.0000
  S   S65       1.0  0.24275  0.37444  0.02344  1.0000
  S   S66       1.0  0.21405  0.35271  0.10979  1.0000
  S   S67       1.0  0.22520  0.34014  0.06738  1.0000
  Fe  Fe33      1.0  0.11790  0.39393  0.00244  1.0000
  S   S68       1.0  0.13134  0.41920  0.00257  1.0000
  S   S69       1.0  0.12808  0.36374  0.01698  1.0000
  H   H508      1.0  0.99350  0.29513  0.38067  1.0000
  H   H509      1.0  0.11802  0.34020  0.17280  1.0000
  S   S70       1.0  0.10051  0.23783  0.30785  1.0000
  H   H510      1.0  0.29663  0.33526  0.06290  1.0000
  H   H511      1.0  0.29852  0.25161  0.12107  1.0000
  Fe  Fe34      1.0  0.10069  0.43513  0.00758  1.0000
  S   S71       1.0  0.08829  0.45473  0.03004  1.0000
  H   H512      1.0  0.24206  0.43661  0.09688  1.0000
  S   S72       1.0  0.08715  0.40904  0.00964  1.0000
  H   H513      1.0  0.29299  0.24811  0.16524  1.0000
  C   C280      1.0  0.31184  0.36910  0.05412  1.0000
  H   H514      1.0  0.05189  0.46433  0.17043  1.0000
  N   N18       1.0  0.15483  0.35440  0.15714  1.0000
  Fe  Fe35      1.0  0.08918  0.27478  0.34254  1.0000
  S   S73       1.0  0.07376  0.27924  0.31764  1.0000
  S   S74       1.0  0.08511  0.29584  0.36254  1.0000
  H   H515      1.0  0.22924  0.45027  0.07808  1.0000
  H   H516      1.0  0.19872  0.45602  0.14327  1.0000
  Fe  Fe36      1.0  0.10311  0.26914  0.30134  1.0000
  S   S75       1.0  0.11437  0.28463  0.27195  1.0000
  H   H517      1.0  0.26491  0.31743  0.99366  1.0000
  S   S76       1.0  0.11883  0.26707  0.32561  1.0000
  H   H518      1.0  0.17513  0.44261  0.98586  1.0000
  S   S77       1.0  0.00050  0.36693  0.33924  1.0000
  H   H519      1.0  0.22356  0.45741  0.11957  1.0000
  C   C281      1.0  0.20537  0.41579  0.00510  1.0000
  S   S78       1.0  0.01816  0.41743  0.32992  1.0000
  H   H520      1.0  0.18250  0.32972  0.00142  1.0000
  C   C282      1.0  0.26371  0.33239  0.98551  1.0000
  C   C283      1.0  0.20069  0.33328  0.02037  1.0000
  C   C284      1.0  0.30647  0.36578  0.03554  1.0000
  S   S79       1.0  0.13285  0.46259  0.33228  1.0000
  C   C285      1.0  0.27182  0.26305  0.13778  1.0000
  Fe  Fe37      1.0  0.13865  0.43009  0.23593  1.0000
  S   S80       1.0  0.11283  0.41585  0.24048  1.0000
  S   S81       1.0  0.13382  0.45900  0.24506  1.0000
  Fe  Fe38      1.0  0.16514  0.39878  0.21595  1.0000
  S   S82       1.0  0.14148  0.38184  0.21934  1.0000
  S   S83       1.0  0.19462  0.38518  0.20205  1.0000
  Fe  Fe39      1.0  0.12353  0.41042  0.21032  1.0000
  S   S84       1.0  0.10303  0.41192  0.19024  1.0000
  Fe  Fe40      1.0  0.13302  0.38862  0.24909  1.0000
  S   S85       1.0  0.12236  0.36894  0.27610  1.0000
  S   S86       1.0  0.14770  0.42710  0.20468  1.0000
  S   S87       1.0  0.15829  0.40317  0.24682  1.0000
  H   H521      1.0  0.11779  0.47891  0.21271  1.0000
  H   H522      1.0  0.17908  0.37888  0.99582  1.0000
  C   C286      1.0  0.09423  0.43566  0.18008  1.0000
  C   C287      1.0  0.07460  0.44108  0.17867  1.0000
  C   C288      1.0  0.06718  0.46010  0.17102  1.0000
  H   H523      1.0  0.17203  0.35930  0.98983  1.0000
  H   H524      1.0  0.21603  0.32946  0.02222  1.0000
  C   C289      1.0  0.10656  0.44917  0.17325  1.0000
  H   H525      1.0  0.06503  0.43068  0.18392  1.0000
  H   H526      1.0  0.17634  0.25017  0.27922  1.0000
  H   H527      1.0  0.05157  0.35641  0.34111  1.0000
  H   H528      1.0  0.12178  0.44501  0.17415  1.0000
  C   C290      1.0  0.13367  0.46161  0.30793  1.0000
  C   C291      1.0  0.14197  0.44453  0.30079  1.0000
  C   C292      1.0  0.14191  0.44341  0.28157  1.0000
  C   C293      1.0  0.13402  0.45957  0.26929  1.0000
  H   H529      1.0  0.27199  0.34034  0.99149  1.0000
  H   H530      1.0  0.04593  0.25023  0.39746  1.0000
  H   H531      1.0  0.14829  0.43212  0.31021  1.0000
  H   H532      1.0  0.14819  0.43017  0.27618  1.0000
  H   H533      1.0  0.23330  0.31598  0.98694  1.0000
  H   H534      1.0  0.19835  0.24266  0.39941  1.0000
  C   C294      1.0  0.02456  0.43342  0.34212  1.0000
  C   C295      1.0  0.03282  0.44918  0.33129  1.0000
  C   C296      1.0  0.03843  0.46204  0.34039  1.0000
  C   C297      1.0  0.03554  0.45947  0.36048  1.0000
  C   C298      1.0  0.02746  0.44358  0.37134  1.0000
  C   C299      1.0  0.02213  0.43053  0.36221  1.0000
  H   H535      1.0  0.03468  0.45159  0.31576  1.0000
  C   C300      1.0  0.30620  0.39030  0.05615  1.0000
  H   H536      1.0  0.02561  0.44117  0.38687  1.0000
  H   H537      1.0  0.01643  0.41808  0.37066  1.0000
  C   C301      1.0  0.11539  0.30859  0.27240  1.0000
  C   C302      1.0  0.10663  0.31674  0.28873  1.0000
  C   C303      1.0  0.10822  0.33560  0.28935  1.0000
  C   C304      1.0  0.11876  0.34632  0.27375  1.0000
  C   C305      1.0  0.12726  0.33831  0.25727  1.0000
  C   C306      1.0  0.12558  0.31943  0.25660  1.0000
  H   H538      1.0  0.09883  0.30846  0.30101  1.0000
  H   H539      1.0  0.10157  0.34174  0.30211  1.0000
  H   H540      1.0  0.13557  0.34640  0.24527  1.0000
  H   H541      1.0  0.13241  0.31314  0.24397  1.0000
  C   C307      1.0  0.06114  0.30724  0.36947  1.0000
  C   C308      1.0  0.04801  0.31278  0.35659  1.0000
  C   C309      1.0  0.02890  0.32182  0.36266  1.0000
  C   C310      1.0  0.02285  0.32490  0.38172  1.0000
  C   C311      1.0  0.03596  0.31913  0.39455  1.0000
  C   C312      1.0  0.05513  0.31068  0.38835  1.0000
  H   H542      1.0  0.05271  0.31032  0.34194  1.0000
  H   H543      1.0  0.01874  0.32602  0.35276  1.0000
  H   H544      1.0  0.03134  0.32139  0.40930  1.0000
  H   H545      1.0  0.06521  0.30641  0.39836  1.0000
  H   H546      1.0  0.30380  0.33072  0.01143  1.0000
  H   H547      1.0  0.00685  0.40805  0.28035  1.0000
  C   C313      1.0  0.10004  0.46863  0.04010  1.0000
  H   H548      1.0  0.13802  0.35028  0.13715  1.0000
  C   C314      1.0  0.12585  0.47774  0.29561  1.0000
  H   H549      1.0  0.09096  0.45861  0.28783  1.0000
  H   H550      1.0  0.14541  0.29787  0.13833  1.0000
  H   H551      1.0  0.17787  0.45826  0.12223  1.0000
  C   C315      1.0  0.04101  0.26471  0.38930  1.0000
  H   H552      1.0  0.02756  0.28600  0.31339  1.0000
  H   H553      1.0  0.03492  0.47993  0.45660  1.0000
  S   S88       1.0  0.30525  0.42817  0.00097  1.0000
  H   H554      1.0  0.16533  0.48227  0.08484  1.0000
  H   H555      1.0  0.12796  0.46292  0.02229  1.0000
  Fe  Fe41      1.0  0.99623  0.39767  0.34375  1.0000
  C   C316      1.0  0.99679  0.34668  0.27042  1.0000
  C   C317      1.0  0.20918  0.39990  0.13630  1.0000
  C   C318      1.0  0.19623  0.41304  0.14675  1.0000
  C   C319      1.0  0.19139  0.40851  0.16688  1.0000
  C   C320      1.0  0.19999  0.39101  0.17674  1.0000
  C   C321      1.0  0.21306  0.37791  0.16630  1.0000
  C   C322      1.0  0.21740  0.38219  0.14610  1.0000
  H   H556      1.0  0.18974  0.42666  0.13925  1.0000
  H   H557      1.0  0.18144  0.41877  0.17478  1.0000
  H   H558      1.0  0.21988  0.36442  0.17385  1.0000
  H   H559      1.0  0.22760  0.37206  0.13818  1.0000
  C   C323      1.0  0.15811  0.35319  0.06908  1.0000
  C   C324      1.0  0.16233  0.36796  0.05363  1.0000
  C   C325      1.0  0.15255  0.37190  0.03784  1.0000
  C   C326      1.0  0.13905  0.36069  0.03726  1.0000
  C   C327      1.0  0.13505  0.34587  0.05264  1.0000
  C   C328      1.0  0.14429  0.34235  0.06861  1.0000
  H   H560      1.0  0.17292  0.37645  0.05395  1.0000
  H   H561      1.0  0.15562  0.38332  0.02596  1.0000
  H   H562      1.0  0.12476  0.33706  0.05217  1.0000
  H   H563      1.0  0.14102  0.33088  0.08045  1.0000
  C   C329      1.0  0.28658  0.41475  0.00622  1.0000
  C   C330      1.0  0.28472  0.40355  0.99333  1.0000
  C   C331      1.0  0.27052  0.39184  0.99830  1.0000
  C   C332      1.0  0.25851  0.39103  0.01635  1.0000
  C   C333      1.0  0.25988  0.40276  0.02895  1.0000
  C   C334      1.0  0.27382  0.41473  0.02381  1.0000
  H   H564      1.0  0.00977  0.24127  0.35904  1.0000
  H   H565      1.0  0.26936  0.38289  0.98848  1.0000
  H   H566      1.0  0.25044  0.40236  0.04280  1.0000
  H   H567      1.0  0.27513  0.42355  0.03370  1.0000
  H   H568      1.0  0.00551  0.32735  0.31520  1.0000
  C   C335      1.0  0.30655  0.33826  0.10488  1.0000
  C   C336      1.0  0.28802  0.33546  0.10393  1.0000
  C   C337      1.0  0.28529  0.31753  0.10168  1.0000
  C   C338      1.0  0.30113  0.30236  0.10057  1.0000
  C   C339      1.0  0.10734  0.35660  0.19545  1.0000
  H   H569      1.0  0.30555  0.30796  0.03755  1.0000
  H   H570      1.0  0.27587  0.34719  0.10500  1.0000
  H   H571      1.0  0.29915  0.28859  0.09842  1.0000
  H   H572      1.0  0.01083  0.39417  0.30339  1.0000
  N   N19       1.0  0.16811  0.31040  0.29956  1.0000
  C   C340      1.0  0.16039  0.29305  0.29780  1.0000
  C   C341      1.0  0.15263  0.32379  0.31060  1.0000
  C   C342      1.0  0.17353  0.32116  0.27936  1.0000
  C   C343      1.0  0.18601  0.30470  0.30871  1.0000
  C   C344      1.0  0.18364  0.29274  0.32930  1.0000
  C   C345      1.0  0.17514  0.27757  0.28771  1.0000
  C   C346      1.0  0.17909  0.34122  0.27757  1.0000
  C   C347      1.0  0.13782  0.31462  0.32705  1.0000
  C   C348      1.0  0.12537  0.32961  0.33873  1.0000
  C   C349      1.0  0.20330  0.28385  0.33523  1.0000
  C   C350      1.0  0.16534  0.26154  0.28549  1.0000
  C   C351      1.0  0.18300  0.35089  0.25646  1.0000
  H   H573      1.0  0.14787  0.29779  0.29004  1.0000
  H   H574      1.0  0.15446  0.28529  0.31204  1.0000
  H   H575      1.0  0.15941  0.33317  0.31665  1.0000
  H   H576      1.0  0.14353  0.33385  0.30073  1.0000
  H   H577      1.0  0.16138  0.32334  0.27130  1.0000
  H   H578      1.0  0.18610  0.31266  0.27116  1.0000
  H   H579      1.0  0.19807  0.29678  0.29933  1.0000
  H   H580      1.0  0.19142  0.31768  0.30981  1.0000
  H   H581      1.0  0.17575  0.28082  0.33062  1.0000
  H   H582      1.0  0.17563  0.30223  0.33972  1.0000
  H   H583      1.0  0.18190  0.28371  0.27308  1.0000
  H   H584      1.0  0.18670  0.27080  0.29635  1.0000
  H   H585      1.0  0.19241  0.33985  0.28359  1.0000
  H   H586      1.0  0.16735  0.35111  0.28509  1.0000
  H   H587      1.0  0.12788  0.30871  0.32086  1.0000
  H   H588      1.0  0.14486  0.30277  0.33711  1.0000
  C   C352      1.0  0.30321  0.34555  0.01378  1.0000
  H   H589      1.0  0.21179  0.29521  0.33462  1.0000
  H   H590      1.0  0.20112  0.27575  0.35021  1.0000
  H   H591      1.0  0.21166  0.27359  0.32568  1.0000
  H   H592      1.0  0.23740  0.34402  0.00267  1.0000
  C   C353      1.0  0.06459  0.47375  0.42278  1.0000
  H   H593      1.0  0.00651  0.35663  0.29896  1.0000
  H   H594      1.0  0.19479  0.34180  0.24800  1.0000
  H   H595      1.0  0.16969  0.35366  0.25001  1.0000
  H   H596      1.0  0.18751  0.36491  0.25543  1.0000
  N   N20       1.0  0.11101  0.41775  0.08553  1.0000
  C   C354      1.0  0.10597  0.42488  0.10453  1.0000
  C   C355      1.0  0.11742  0.39607  0.08855  1.0000
  C   C356      1.0  0.12786  0.42682  0.07373  1.0000
  C   C357      1.0  0.09452  0.42376  0.07439  1.0000
  C   C358      1.0  0.07528  0.41695  0.08425  1.0000
  H   H597      1.0  0.15458  0.26731  0.27573  1.0000
  C   C359      1.0  0.13616  0.42079  0.05382  1.0000
  C   C360      1.0  0.10770  0.38423  0.10729  1.0000
  C   C361      1.0  0.11241  0.36271  0.10667  1.0000
  C   C362      1.0  0.05930  0.42628  0.07242  1.0000
  H   H598      1.0  0.31253  0.39964  0.04305  1.0000
  C   C363      1.0  0.15536  0.42769  0.04520  1.0000
  H   H599      1.0  0.11867  0.42037  0.11211  1.0000
  H   H600      1.0  0.09418  0.41822  0.11435  1.0000
  H   H601      1.0  0.11541  0.39026  0.07609  1.0000
  H   H602      1.0  0.13328  0.39211  0.08883  1.0000
  H   H603      1.0  0.13990  0.42379  0.08206  1.0000
  H   H604      1.0  0.12372  0.44273  0.07048  1.0000
  H   H605      1.0  0.09145  0.43963  0.07032  1.0000
  H   H606      1.0  0.09862  0.41837  0.06048  1.0000
  H   H607      1.0  0.07029  0.42075  0.09880  1.0000
  H   H608      1.0  0.07701  0.40116  0.08521  1.0000
  H   H609      1.0  0.01749  0.37925  0.26516  1.0000
  C   C364      1.0  0.23003  0.33141  0.98022  1.0000
  H   H610      1.0  0.12592  0.42738  0.04369  1.0000
  H   H611      1.0  0.13872  0.40501  0.05468  1.0000
  H   H612      1.0  0.11307  0.38646  0.11987  1.0000
  H   H613      1.0  0.09176  0.38847  0.10991  1.0000
  H   H614      1.0  0.10537  0.35463  0.12026  1.0000
  H   H615      1.0  0.10703  0.35966  0.09446  1.0000
  H   H616      1.0  0.12826  0.35754  0.10503  1.0000
  H   H617      1.0  0.05664  0.44220  0.07116  1.0000
  H   H618      1.0  0.06341  0.42261  0.05771  1.0000
  H   H619      1.0  0.04565  0.42100  0.07951  1.0000
  H   H620      1.0  0.09869  0.34563  0.20387  1.0000
  N   N21       1.0  0.30853  0.34514  0.03306  1.0000
  C   C365      1.0  0.20390  0.36014  0.98211  1.0000
  H   H621      1.0  0.07303  0.44330  0.42132  1.0000
  H   H622      1.0  0.17352  0.32542  0.03690  1.0000
  H   H623      1.0  0.99294  0.43176  0.41778  1.0000
  H   H624      1.0  0.17596  0.47128  0.99937  1.0000
  H   H625      1.0  0.15961  0.47884  0.12210  1.0000
  H   H626      1.0  0.02138  0.27865  0.36981  1.0000
  H   H627      1.0  0.05716  0.46120  0.24078  1.0000
  H   H628      1.0  0.11272  0.36290  0.20565  1.0000
  H   H629      1.0  0.19660  0.42946  0.00900  1.0000
  H   H630      1.0  0.27483  0.29823  0.03876  1.0000
  C   C366      1.0  0.09438  0.45212  0.12373  1.0000
  H   H631      1.0  0.20763  0.44732  0.10969  1.0000
  H   H632      1.0  0.04458  0.47421  0.33183  1.0000
  C   C367      1.0  0.08553  0.46545  0.22414  1.0000
  H   H633      1.0  0.08993  0.46798  0.12263  1.0000
  H   H634      1.0  0.06806  0.45828  0.39903  1.0000
  C   C368      1.0  0.11964  0.46991  0.03404  1.0000
  C   C369      1.0  0.17291  0.47282  0.98460  1.0000
  H   H635      1.0  0.12977  0.32054  0.13231  1.0000
  C   C370      1.0  0.12617  0.47674  0.27634  1.0000
  H   H636      1.0  0.16774  0.40919  0.12762  1.0000
  C   C371      1.0  0.20654  0.41492  0.98358  1.0000
  H   H637      1.0  0.12590  0.37135  0.15917  1.0000
  H   H638      1.0  0.29446  0.40365  0.97968  1.0000
  H   H639      1.0  0.17917  0.36622  0.13897  1.0000
  H   H640      1.0  0.00379  0.26287  0.40331  1.0000
  C   C372      1.0  0.02121  0.37849  0.27948  1.0000
  H   H641      1.0  0.26159  0.31695  0.05181  1.0000
  H   H642      1.0  0.11788  0.34182  0.32925  1.0000
  S   S89       1.0  0.04124  0.47613  0.37243  1.0000
  C   C373      1.0  0.00677  0.39364  0.28954  1.0000
  C   C374      1.0  0.16970  0.46879  0.09468  1.0000
  C   C375      1.0  0.31966  0.30513  0.10159  1.0000
  C   C376      1.0  0.07949  0.47359  0.16399  1.0000
  H   H643      1.0  0.04215  0.37890  0.32711  1.0000
  C   C377      1.0  0.19574  0.39965  0.01810  1.0000
  H   H644      1.0  0.27914  0.34474  0.04831  1.0000
  H   H645      1.0  0.02941  0.35727  0.30365  1.0000
  H   H646      1.0  0.20837  0.45279  0.98745  1.0000
  H   H647      1.0  0.07980  0.47622  0.41843  1.0000
  H   H648      1.0  0.19103  0.32617  0.05118  1.0000
  H   H649      1.0  0.07186  0.45936  0.27487  1.0000
  H   H650      1.0  0.10880  0.47837  0.15961  1.0000
  C   C378      1.0  0.32241  0.32313  0.10367  1.0000
  C   C379      1.0  0.06334  0.45609  0.41489  1.0000
  H   H651      1.0  0.14368  0.48111  0.03850  1.0000
  H   H652      1.0  0.09727  0.45727  0.21473  1.0000
  H   H653      1.0  0.00524  0.29343  0.32880  1.0000
  C   C380      1.0  0.02588  0.26394  0.37757  1.0000
  C   C381      1.0  0.12425  0.34714  0.18182  1.0000
  C   C382      1.0  0.15176  0.34352  0.14255  1.0000
  H   H654      1.0  0.18077  0.40107  0.01558  1.0000
  C   C383      1.0  0.20725  0.47845  0.09956  1.0000
  C   C384      1.0  0.24261  0.34252  0.98745  1.0000
  N   N22       1.0  0.32257  0.23894  0.15194  1.0000
  H   H655      1.0  0.02716  0.29990  0.33167  1.0000
  S   S90       1.0  0.08531  0.24406  0.35298  1.0000
  N   N23       1.0  0.20831  0.33864  0.98295  1.0000
  C   C385      1.0  0.18743  0.33735  0.19697  1.0000
  H   H656      1.0  0.16672  0.31383  0.14989  1.0000
  C   C386      1.0  0.27428  0.31322  0.04062  1.0000
  H   H657      1.0  0.32004  0.25177  0.17720  1.0000
  H   H658      1.0  0.07438  0.43938  0.23844  1.0000
  C   C387      1.0  0.19002  0.46939  0.14779  1.0000
  H   H659      1.0  0.17829  0.47370  0.30461  1.0000
  C   C388      1.0  0.16522  0.39974  0.11845  1.0000
  H   H660      1.0  0.23788  0.43037  0.98395  1.0000
  C   C389      1.0  0.16870  0.34184  0.16970  1.0000
  C   C390      1.0  0.29386  0.33572  0.04829  1.0000
  C   C391      1.0  0.16414  0.37137  0.14613  1.0000
  H   H661      1.0  0.15797  0.35137  0.19749  1.0000
  H   H662      1.0  0.18884  0.34362  0.20929  1.0000
  C   C392      1.0  0.18210  0.36967  0.98465  1.0000
  H   H663      1.0  0.13443  0.33511  0.34632  1.0000
  C   C393      1.0  0.17150  0.35029  0.18673  1.0000
  H   H664      1.0  0.00598  0.31304  0.29719  1.0000
  H   H665      1.0  0.29966  0.27121  0.13201  1.0000
  H   H666      1.0  0.11422  0.32293  0.34967  1.0000
  C   C394      1.0  0.14489  0.31363  0.13379  1.0000
  H   H667      1.0  0.19436  0.30633  0.03862  1.0000
  H   H668      1.0  0.00315  0.24539  0.32382  1.0000
  H   H669      1.0  0.99436  0.46190  0.39493  1.0000
  H   H670      1.0  0.19189  0.41390  0.98147  1.0000
  H   H671      1.0  0.13335  0.33594  0.19075  1.0000
  C   C395      1.0  0.30104  0.24304  0.15174  1.0000
  H   H672      1.0  0.29135  0.37333  0.03479  1.0000
  C   C396      1.0  0.21755  0.45781  0.10650  1.0000
  H   H673      1.0  0.16351  0.34455  0.12973  1.0000
  C   C397      1.0  0.06903  0.45393  0.23077  1.0000
  H   H674      1.0  0.09134  0.46644  0.23688  1.0000
  H   H675      1.0  0.15743  0.40881  0.10707  1.0000
  H   H676      1.0  0.17933  0.39245  0.11135  1.0000
  H   H677      1.0  0.03576  0.38250  0.27715  1.0000
  C   C398      1.0  0.29389  0.25774  0.13451  1.0000
  H   H678      1.0  0.04831  0.45313  0.41841  1.0000
  H   H679      1.0  0.09559  0.44561  0.26800  1.0000
  H   H680      1.0  0.30861  0.35223  0.10643  1.0000
  H   H681      1.0  0.17539  0.36473  0.18196  1.0000
  H   H682      1.0  0.05381  0.26959  0.37946  1.0000
  H   H683      1.0  0.20353  0.31220  0.00248  1.0000
  H   H684      1.0  0.31314  0.37103  0.99510  1.0000
  H   H685      1.0  0.09320  0.45018  0.35708  1.0000
  H   H686      1.0  0.07250  0.43831  0.36340  1.0000
  H   H687      1.0  0.21568  0.40082  0.98117  1.0000
  H   H688      1.0  0.13803  0.37216  0.17773  1.0000
  H   H689      1.0  0.19252  0.23825  0.37764  1.0000
  H   H690      1.0  0.09617  0.42495  0.36719  1.0000
  H   H691      1.0  0.15018  0.37692  0.12025  1.0000
  H   H692      1.0  0.03501  0.27500  0.39944  1.0000
  C   C399      1.0  0.18918  0.32206  0.03777  1.0000
  H   H693      1.0  0.17470  0.46731  0.15235  1.0000
  H   H694      1.0  0.06161  0.47017  0.43864  1.0000
  C   C400      1.0  0.23452  0.45117  0.09121  1.0000
  H   H695      1.0  0.20400  0.38535  0.01551  1.0000
  S   S91       1.0  0.04377  0.23861  0.32926  1.0000
  H   H696      1.0  0.29295  0.30564  0.06157  1.0000
  Fe  Fe42      1.0  0.07241  0.24772  0.32645  1.0000
  H   H697      1.0  0.19217  0.47852  0.32063  1.0000
  H   H698      1.0  0.15707  0.44320  0.10800  1.0000
  H   H699      1.0  0.18283  0.46037  0.08714  1.0000
  H   H700      1.0  0.15410  0.44317  0.04566  1.0000
  C   C401      1.0  0.08944  0.47799  0.05531  1.0000
  H   H701      1.0  0.28794  0.35300  0.01343  1.0000
  H   H702      1.0  0.13965  0.46540  0.10545  1.0000
  H   H703      1.0  0.15789  0.25493  0.29963  1.0000
  H   H704      1.0  0.20155  0.33629  0.18698  1.0000
  H   H705      1.0  0.00413  0.26636  0.35236  1.0000
  C   C402      1.0  0.13582  0.36223  0.16878  1.0000
  H   H706      1.0  0.03323  0.25482  0.36661  1.0000
  H   H707      1.0  0.18316  0.33797  0.16070  1.0000
  C   C403      1.0  0.19829  0.32798  0.00141  1.0000
  C   C404      1.0  0.15325  0.38493  0.13046  1.0000
  H   H708      1.0  0.27231  0.32304  0.02685  1.0000
  H   H709      1.0  0.15343  0.24373  0.33413  1.0000
  Fe  Fe43      1.0  0.11378  0.23656  0.33379  1.0000
  H   H710      1.0  0.30432  0.36088  0.06722  1.0000
  H   H711      1.0  0.15949  0.42583  0.02993  1.0000
  H   H712      1.0  0.26519  0.25003  0.13991  1.0000
  H   H713      1.0  0.26720  0.27317  0.12500  1.0000
  H   H714      1.0  0.22003  0.41428  0.00853  1.0000
  C   C405      1.0  0.29282  0.31468  0.04705  1.0000
  C   C406      1.0  0.17361  0.47267  0.11374  1.0000
  H   H715      1.0  0.18390  0.32273  0.20256  1.0000
  H   H716      1.0  0.11094  0.45503  0.09552  1.0000
  C   C407      1.0  0.99779  0.25376  0.36053  1.0000
  H   H717      1.0  0.08630  0.45227  0.09680  1.0000
  H   H718      1.0  0.24508  0.46117  0.08740  1.0000
  H   H719      1.0  0.21272  0.47275  0.16203  1.0000
  H   H720      1.0  0.13939  0.39295  0.13719  1.0000
  H   H721      1.0  0.14234  0.31804  0.16275  1.0000
  H   H722      1.0  0.20982  0.36421  0.99337  1.0000
  H   H723      1.0  0.29019  0.39465  0.05856  1.0000
  H   H724      1.0  0.06068  0.36159  0.31565  1.0000
  H   H725      1.0  0.16399  0.32795  0.17647  1.0000
  C   C408      1.0  0.01905  0.29779  0.32103  1.0000
  S   S92       1.0  0.99884  0.33516  0.39016  1.0000
  H   H726      1.0  0.16690  0.41924  0.05326  1.0000
  N   N24       1.0  0.03064  0.34163  0.28082  1.0000
  C   C409      1.0  0.02153  0.35796  0.29169  1.0000
  C   C410      1.0  0.03324  0.32305  0.29507  1.0000
  C   C411      1.0  0.05058  0.34517  0.27071  1.0000
  C   C412      1.0  0.01914  0.34017  0.26599  1.0000
  H   H727      1.0  0.31581  0.37377  0.02361  1.0000
  C   C413      1.0  0.06351  0.32878  0.26052  1.0000
  C   C414      1.0  0.01449  0.31636  0.30685  1.0000
  C   C415      1.0  0.15174  0.32158  0.14872  1.0000
  H   H728      1.0  0.31155  0.39255  0.06873  1.0000
  C   C416      1.0  0.07967  0.33629  0.24524  1.0000
  H   H729      1.0  0.09777  0.36816  0.18726  1.0000
  H   H730      1.0  0.19516  0.40055  0.03334  1.0000
  H   H731      1.0  0.04108  0.31089  0.28764  1.0000
  H   H732      1.0  0.04244  0.32408  0.30538  1.0000
  H   H733      1.0  0.05884  0.34796  0.28102  1.0000
  H   H734      1.0  0.04943  0.35841  0.25954  1.0000
  H   H735      1.0  0.02401  0.34893  0.25179  1.0000
  H   H736      1.0  0.02205  0.32510  0.26327  1.0000
  H   H737      1.0  0.01498  0.24039  0.39676  1.0000
  H   H738      1.0  0.10715  0.44749  0.13109  1.0000
  H   H739      1.0  0.05508  0.32210  0.25336  1.0000
  H   H740      1.0  0.07038  0.31738  0.27124  1.0000
  H   H741      1.0  0.15442  0.31619  0.11955  1.0000
  C   C417      1.0  0.32415  0.27438  0.15337  1.0000
  H   H742      1.0  0.06329  0.45228  0.21817  1.0000
  C   C418      1.0  0.00853  0.25531  0.39070  1.0000
  H   H743      1.0  0.14308  0.36938  0.33636  1.0000
  H   H744      1.0  0.16569  0.38070  0.15596  1.0000
  H   H745      1.0  0.18724  0.24734  0.33272  1.0000
  H   H746      1.0  0.26644  0.27030  0.15050  1.0000
  H   H747      1.0  0.07350  0.34635  0.23323  1.0000
  H   H748      1.0  0.08798  0.34396  0.25154  1.0000
  H   H749      1.0  0.08969  0.32404  0.23942  1.0000
  N   N25       1.0  0.09170  0.40407  0.31936  1.0000
  C   C419      1.0  0.09627  0.41813  0.30103  1.0000
  C   C420      1.0  0.10948  0.38898  0.32248  1.0000
  C   C421      1.0  0.07644  0.39377  0.31663  1.0000
  C   C422      1.0  0.08400  0.41381  0.33675  1.0000
  C   C423      1.0  0.09228  0.43189  0.33720  1.0000
  C   C424      1.0  0.07859  0.43244  0.29428  1.0000
  C   C425      1.0  0.07110  0.37709  0.33313  1.0000
  C   C426      1.0  0.12885  0.39599  0.32054  1.0000
  C   C427      1.0  0.14557  0.37894  0.32217  1.0000
  C   C428      1.0  0.08822  0.43655  0.35750  1.0000
  C   C429      1.0  0.08468  0.45007  0.28037  1.0000
  C   C430      1.0  0.05541  0.36800  0.32891  1.0000
  H   H750      1.0  0.10356  0.41020  0.28900  1.0000
  H   H751      1.0  0.10687  0.42673  0.30230  1.0000
  H   H752      1.0  0.10715  0.38000  0.33704  1.0000
  H   H753      1.0  0.11203  0.37887  0.31217  1.0000
  H   H754      1.0  0.08112  0.38779  0.30299  1.0000
  H   H755      1.0  0.06263  0.40401  0.31507  1.0000
  H   H756      1.0  0.06801  0.41863  0.33831  1.0000
  H   H757      1.0  0.08604  0.40330  0.35019  1.0000
  H   H758      1.0  0.08546  0.44458  0.32770  1.0000
  H   H759      1.0  0.10806  0.43028  0.33219  1.0000
  H   H760      1.0  0.07092  0.42524  0.28676  1.0000
  H   H761      1.0  0.06821  0.43750  0.30662  1.0000
  H   H762      1.0  0.06563  0.38245  0.34696  1.0000
  H   H763      1.0  0.08375  0.36539  0.33489  1.0000
  H   H764      1.0  0.13258  0.40505  0.30633  1.0000
  H   H765      1.0  0.12828  0.40396  0.33221  1.0000
  H   H766      1.0  0.14713  0.37059  0.31048  1.0000
  H   H767      1.0  0.15928  0.38432  0.32076  1.0000
  H   H768      1.0  0.19538  0.34880  0.02080  1.0000
  H   H769      1.0  0.15100  0.45454  0.08469  1.0000
  C   C431      1.0  0.12852  0.48020  0.04330  1.0000
  C   C432      1.0  0.15335  0.45721  0.09855  1.0000
  H   H770      1.0  0.30835  0.28004  0.15602  1.0000
  C   C433      1.0  0.09938  0.44696  0.10360  1.0000
  H   H771      1.0  0.99444  0.39911  0.41165  1.0000
  H   H772      1.0  0.07425  0.47717  0.06008  1.0000
  C   C434      1.0  0.09925  0.46803  0.16487  1.0000
  H   H773      1.0  0.19472  0.45973  0.17730  1.0000
  C   C435      1.0  0.19702  0.47209  0.16547  1.0000
  C   C436      1.0  0.31616  0.35524  0.99589  1.0000
  H   H774      1.0  0.20525  0.47958  0.08445  1.0000
  H   H775      1.0  0.15695  0.47552  0.98540  1.0000
  H   H776      1.0  0.08220  0.44522  0.13254  1.0000
  H   H777      1.0  0.99296  0.36258  0.26881  1.0000
  H   H778      1.0  0.99243  0.34622  0.24149  1.0000
  H   H779      1.0  0.07676  0.48362  0.19858  1.0000
  H   H780      1.0  0.26425  0.31272  0.83386  1.0000
  H   H781      1.0  0.24442  0.44395  0.93982  1.0000
  C   C437      1.0  0.30213  0.38893  0.85363  1.0000
  C   C438      1.0  0.04288  0.40652  0.93918  1.0000
  Fe  Fe44      1.0  0.08828  0.41673  0.97750  1.0000
  S   S93       1.0  0.10798  0.27747  0.83867  1.0000
  C   C439      1.0  0.05580  0.43958  0.79325  1.0000
  C   C440      1.0  0.26812  0.43895  0.95496  1.0000
  C   C441      1.0  0.29684  0.40795  0.69699  1.0000
  S   S94       1.0  0.29622  0.41925  0.78025  1.0000
  H   H782      1.0  0.21678  0.42595  0.91164  1.0000
  H   H783      1.0  0.22762  0.25890  0.80274  1.0000
  C   C442      1.0  0.29608  0.43030  0.88223  1.0000
  H   H784      1.0  0.99804  0.35077  0.79933  1.0000
  H   H785      1.0  0.11968  0.27285  0.87879  1.0000
  H   H786      1.0  0.07461  0.37678  0.96594  1.0000
  H   H787      1.0  0.01244  0.43182  0.88391  1.0000
  H   H788      1.0  0.28171  0.40707  0.69646  1.0000
  Fe  Fe45      1.0  0.24517  0.35329  0.86384  1.0000
  S   S95       1.0  0.24273  0.33081  0.89064  1.0000
  S   S96       1.0  0.27220  0.34798  0.84171  1.0000
  Fe  Fe46      1.0  0.20690  0.37757  0.87806  1.0000
  S   S97       1.0  0.20185  0.35709  0.90574  1.0000
  S   S98       1.0  0.18546  0.40475  0.87241  1.0000
  Fe  Fe47      1.0  0.23337  0.35606  0.90623  1.0000
  S   S99       1.0  0.24309  0.36136  0.93247  1.0000
  Fe  Fe48      1.0  0.21160  0.33425  0.88700  1.0000
  S   S100      1.0  0.19500  0.30952  0.89137  1.0000
  S   S101      1.0  0.23761  0.37817  0.87964  1.0000
  S   S102      1.0  0.21478  0.35508  0.85919  1.0000
  C   C443      1.0  0.24914  0.28858  0.86529  1.0000
  H   H789      1.0  0.02142  0.34833  0.80595  1.0000
  C   C444      1.0  0.03624  0.39271  0.93219  1.0000
  C   C445      1.0  0.04122  0.26047  0.80877  1.0000
  S   S103      1.0  0.04444  0.37662  0.83643  1.0000
  Fe  Fe49      1.0  0.13890  0.26839  0.82529  1.0000
  S   S104      1.0  0.13180  0.27128  0.79570  1.0000
  S   S105      1.0  0.16216  0.28576  0.82556  1.0000
  H   H790      1.0  0.20765  0.34301  0.95248  1.0000
  Fe  Fe50      1.0  0.10092  0.27883  0.80974  1.0000
  S   S106      1.0  0.08226  0.30481  0.79545  1.0000
  H   H791      1.0  0.28757  0.33471  0.76506  1.0000
  Fe  Fe51      1.0  0.10545  0.24631  0.84304  1.0000
  C   C446      1.0  0.05580  0.35642  0.82564  1.0000
  C   C447      1.0  0.06091  0.33824  0.83667  1.0000
  C   C448      1.0  0.07015  0.32243  0.82758  1.0000
  C   C449      1.0  0.07353  0.32462  0.80745  1.0000
  C   C450      1.0  0.06837  0.34279  0.79653  1.0000
  C   C451      1.0  0.05992  0.35869  0.80557  1.0000
  H   H792      1.0  0.05802  0.33638  0.85218  1.0000
  H   H793      1.0  0.07394  0.30845  0.83616  1.0000
  H   H794      1.0  0.07088  0.34456  0.78099  1.0000
  H   H795      1.0  0.05609  0.37267  0.79695  1.0000
  C   C452      1.0  0.17058  0.29220  0.84439  1.0000
  C   C453      1.0  0.18091  0.30754  0.83985  1.0000
  C   C454      1.0  0.18826  0.31311  0.85407  1.0000
  C   C455      1.0  0.18565  0.30319  0.87304  1.0000
  C   C456      1.0  0.17517  0.28794  0.87764  1.0000
  C   C457      1.0  0.16757  0.28253  0.86343  1.0000
  H   H796      1.0  0.18307  0.31528  0.82522  1.0000
  H   H797      1.0  0.19590  0.32508  0.85036  1.0000
  H   H798      1.0  0.17299  0.28019  0.89227  1.0000
  H   H799      1.0  0.15969  0.27066  0.86716  1.0000
  C   C458      1.0  0.26614  0.36798  0.92941  1.0000
  C   C459      1.0  0.28091  0.36298  0.91432  1.0000
  H   H800      1.0  0.05715  0.24087  0.78949  1.0000
  H   H801      1.0  0.01118  0.41847  0.79550  1.0000
  C   C460      1.0  0.28850  0.38244  0.94096  1.0000
  C   C461      1.0  0.27003  0.37773  0.94273  1.0000
  H   H802      1.0  0.27819  0.35532  0.90407  1.0000
  H   H803      1.0  0.00926  0.26172  0.86259  1.0000
  H   H804      1.0  0.29135  0.38990  0.95128  1.0000
  H   H805      1.0  0.25877  0.38159  0.95450  1.0000
  H   H806      1.0  0.02531  0.39725  0.92310  1.0000
  C   C462      1.0  0.16073  0.42885  0.92789  1.0000
  C   C463      1.0  0.15907  0.41012  0.92698  1.0000
  C   C464      1.0  0.16702  0.40246  0.91009  1.0000
  C   C465      1.0  0.17594  0.41384  0.89382  1.0000
  C   C466      1.0  0.17696  0.43279  0.89453  1.0000
  C   C467      1.0  0.16972  0.44014  0.91163  1.0000
  H   H807      1.0  0.15188  0.40144  0.93932  1.0000
  H   H808      1.0  0.16589  0.38791  0.90951  1.0000
  H   H809      1.0  0.18375  0.44164  0.88197  1.0000
  H   H810      1.0  0.99652  0.31681  0.81326  1.0000
  C   C468      1.0  0.30656  0.25481  0.60888  1.0000
  C   C469      1.0  0.24642  0.44371  0.95468  1.0000
  H   H811      1.0  0.32168  0.47135  0.63307  1.0000
  C   C470      1.0  0.28690  0.24417  0.58340  1.0000
  H   H812      1.0  0.31835  0.43222  0.84527  1.0000
  C   C471      1.0  0.30883  0.26334  0.58940  1.0000
  H   H813      1.0  0.05125  0.44082  0.77918  1.0000
  H   H814      1.0  0.22178  0.39893  0.95016  1.0000
  H   H815      1.0  0.00023  0.34628  0.82440  1.0000
  C   C472      1.0  0.28485  0.23551  0.60281  1.0000
  H   H816      1.0  0.05548  0.28346  0.83485  1.0000
  C   C473      1.0  0.05674  0.40094  0.95144  1.0000
  C   C474      1.0  0.21077  0.43006  0.94961  1.0000
  S   S107      1.0  0.03448  0.35501  0.92997  1.0000
  H   H817      1.0  0.20205  0.40831  0.92482  1.0000
  H   H818      1.0  0.23627  0.33170  0.96467  1.0000
  S   S108      1.0  0.31847  0.26054  0.62573  1.0000
  H   H819      1.0  0.01805  0.25094  0.84171  1.0000
  H   H820      1.0  0.99791  0.29240  0.84530  1.0000
  H   H821      1.0  0.14795  0.32496  0.86654  1.0000
  C   C475      1.0  0.28936  0.39897  0.79644  1.0000
  C   C476      1.0  0.30156  0.38102  0.79753  1.0000
  C   C477      1.0  0.29595  0.36533  0.81121  1.0000
  C   C478      1.0  0.27824  0.36756  0.82396  1.0000
  C   C479      1.0  0.26590  0.38541  0.82265  1.0000
  C   C480      1.0  0.27144  0.40105  0.80888  1.0000
  S   S109      1.0  0.09551  0.24841  0.81510  1.0000
  H   H822      1.0  0.30550  0.35150  0.81211  1.0000
  H   H823      1.0  0.25214  0.38719  0.83229  1.0000
  H   H824      1.0  0.26189  0.41487  0.80792  1.0000
  C   C481      1.0  0.99910  0.44203  0.88076  1.0000
  H   H825      1.0  0.01505  0.40953  0.83157  1.0000
  H   H826      1.0  0.15498  0.25420  0.74078  1.0000
  H   H827      1.0  0.16860  0.34673  0.87324  1.0000
  C   C482      1.0  0.04058  0.43213  0.80977  1.0000
  C   C483      1.0  0.29893  0.25815  0.57680  1.0000
  C   C484      1.0  0.11021  0.28241  0.88852  1.0000
  H   H828      1.0  0.32297  0.46744  0.79360  1.0000
  H   H829      1.0  0.03870  0.30403  0.85797  1.0000
  H   H830      1.0  0.02227  0.43083  0.84820  1.0000
  H   H831      1.0  0.15786  0.37128  0.87519  1.0000
  H   H832      1.0  0.04609  0.43058  0.82336  1.0000
  H   H833      1.0  0.03946  0.41761  0.80779  1.0000
  H   H834      1.0  0.26428  0.29046  0.82752  1.0000
  H   H835      1.0  0.02019  0.28945  0.86735  1.0000
  H   H836      1.0  0.27012  0.33217  0.97011  1.0000
  Fe  Fe52      1.0  0.02234  0.37008  0.86295  1.0000
  H   H837      1.0  0.32179  0.35837  0.96477  1.0000
  H   H838      1.0  0.08459  0.33369  0.88771  1.0000
  H   H839      1.0  0.07787  0.37767  0.87656  1.0000
  H   H840      1.0  0.30892  0.39121  0.67480  1.0000
  S   S110      1.0  0.31854  0.42859  0.94503  1.0000
  H   H841      1.0  0.11103  0.27523  0.90360  1.0000
  H   H842      1.0  0.09996  0.34898  0.89151  1.0000
  S   S111      1.0  0.15232  0.43851  0.94915  1.0000
  H   H843      1.0  0.32221  0.40257  0.81888  1.0000
  Fe  Fe53      1.0  0.12724  0.24049  0.80354  1.0000
  C   C485      1.0  0.99937  0.41506  0.80758  1.0000
  H   H844      1.0  0.22897  0.29200  0.84633  1.0000
  H   H845      1.0  0.01372  0.45594  0.84401  1.0000
  C   C486      1.0  0.29652  0.42888  0.90356  1.0000
  H   H846      1.0  0.20894  0.31799  0.93267  1.0000
  H   H847      1.0  0.00152  0.45703  0.87907  1.0000
  H   H848      1.0  0.28378  0.43735  0.84791  1.0000
  N   N26       1.0  0.02661  0.28846  0.82819  1.0000
  H   H849      1.0  0.23134  0.31392  0.85299  1.0000
  S   S112      1.0  0.11807  0.39960  0.97054  1.0000
  N   N27       1.0  0.00463  0.44028  0.82590  1.0000
  H   H850      1.0  0.04533  0.28495  0.88826  1.0000
  C   C487      1.0  0.06406  0.38133  0.95643  1.0000
  H   H851      1.0  0.06233  0.36175  0.87473  1.0000
  C   C488      1.0  0.11689  0.30182  0.88473  1.0000
  C   C489      1.0  0.02079  0.44606  0.81002  1.0000
  C   C490      1.0  0.12792  0.33327  0.80269  1.0000
  H   H852      1.0  0.09063  0.34437  0.85316  1.0000
  H   H853      1.0  0.02350  0.46041  0.81097  1.0000
  C   C491      1.0  0.05310  0.25663  0.78928  1.0000
  H   H854      1.0  0.28424  0.42062  0.83312  1.0000
  H   H855      1.0  0.29025  0.38281  0.86413  1.0000
  C   C492      1.0  0.11642  0.33254  0.82313  1.0000
  H   H856      1.0  0.30058  0.26503  0.56185  1.0000
  H   H857      1.0  0.18509  0.33984  0.96740  1.0000
  H   H858      1.0  0.13100  0.35113  0.83205  1.0000
  H   H859      1.0  0.30468  0.33704  0.77907  1.0000
  H   H860      1.0  0.17359  0.23866  0.64591  1.0000
  C   C493      1.0  0.18183  0.45447  0.97630  1.0000
  C   C494      1.0  0.22313  0.41282  0.94037  1.0000
  H   H861      1.0  0.14950  0.35189  0.89310  1.0000
  H   H862      1.0  0.31329  0.45296  0.62520  1.0000
  C   C495      1.0  0.22254  0.27441  0.80351  1.0000
  C   C496      1.0  0.23945  0.30025  0.84851  1.0000
  H   H863      1.0  0.14640  0.36001  0.85020  1.0000
  H   H864      1.0  0.14096  0.32176  0.80235  1.0000
  H   H865      1.0  0.12679  0.30282  0.85469  1.0000
  C   C497      1.0  0.00680  0.26205  0.84782  1.0000
  N   N28       1.0  0.24681  0.31482  0.81219  1.0000
  C   C498      1.0  0.25471  0.30431  0.83010  1.0000
  C   C499      1.0  0.26343  0.31551  0.79546  1.0000
  C   C500      1.0  0.23677  0.33476  0.81540  1.0000
  C   C501      1.0  0.23226  0.30475  0.80787  1.0000
  C   C502      1.0  0.23896  0.28303  0.80694  1.0000
  C   C503      1.0  0.13437  0.33550  0.86940  1.0000
  C   C504      1.0  0.23002  0.34877  0.79763  1.0000
  C   C505      1.0  0.27851  0.32780  0.79618  1.0000
  C   C506      1.0  0.29411  0.32820  0.77812  1.0000
  H   H866      1.0  0.24118  0.45841  0.95810  1.0000
  C   C507      1.0  0.22118  0.36871  0.80260  1.0000
  H   H867      1.0  0.23866  0.41409  0.93681  1.0000
  H   H868      1.0  0.14306  0.32676  0.83471  1.0000
  H   H869      1.0  0.27164  0.30074  0.79439  1.0000
  H   H870      1.0  0.25799  0.32074  0.78159  1.0000
  H   H871      1.0  0.24606  0.34173  0.82129  1.0000
  H   H872      1.0  0.22361  0.33395  0.82661  1.0000
  H   H873      1.0  0.21866  0.30635  0.81858  1.0000
  H   H874      1.0  0.22787  0.31173  0.79378  1.0000
  N   N29       1.0  0.30147  0.40947  0.85560  1.0000
  H   H875      1.0  0.25131  0.28084  0.79499  1.0000
  C   C508      1.0  0.00743  0.34301  0.80996  1.0000
  C   C509      1.0  0.10120  0.34709  0.86106  1.0000
  H   H876      1.0  0.21883  0.34346  0.79267  1.0000
  H   H877      1.0  0.24222  0.35060  0.78549  1.0000
  H   H878      1.0  0.27168  0.34294  0.79714  1.0000
  H   H879      1.0  0.28589  0.32181  0.80876  1.0000
  H   H880      1.0  0.30324  0.41675  0.66644  1.0000
  H   H881      1.0  0.31913  0.44356  0.65911  1.0000
  C   C510      1.0  0.31907  0.35401  0.85777  1.0000
  H   H882      1.0  0.10375  0.36192  0.85447  1.0000
  H   H883      1.0  0.05814  0.45385  0.79483  1.0000
  H   H884      1.0  0.16875  0.23749  0.71256  1.0000
  H   H885      1.0  0.21647  0.37854  0.78972  1.0000
  H   H886      1.0  0.20839  0.36792  0.81430  1.0000
  H   H887      1.0  0.23203  0.37485  0.80726  1.0000
  S   S113      1.0  0.02571  0.34206  0.88312  1.0000
  S   S114      1.0  0.01445  0.38838  0.88590  1.0000
  H   H888      1.0  0.20921  0.46228  0.96278  1.0000
  C   C511      1.0  0.02370  0.31021  0.82498  1.0000
  H   H889      1.0  0.29920  0.38826  0.83929  1.0000
  H   H890      1.0  0.17096  0.45467  0.91222  1.0000
  H   H891      1.0  0.01801  0.31913  0.79523  1.0000
  C   C512      1.0  0.11595  0.31232  0.86371  1.0000
  C   C513      1.0  0.00942  0.44182  0.84485  1.0000
  H   H892      1.0  0.32483  0.41776  0.63857  1.0000
  H   H893      1.0  0.04249  0.26481  0.84613  1.0000
  H   H894      1.0  0.24741  0.44580  0.85488  1.0000
  H   H895      1.0  0.11193  0.31830  0.82754  1.0000
  Fe  Fe54      1.0  0.01616  0.36035  0.90638  1.0000
  C   C514      1.0  0.00245  0.41982  0.82661  1.0000
  H   H896      1.0  0.03707  0.42163  0.93526  1.0000
  S   S115      1.0  0.06440  0.41908  0.95991  1.0000
  H   H897      1.0  0.13240  0.34750  0.79715  1.0000
  H   H898      1.0  0.25972  0.29628  0.86829  1.0000
  H   H899      1.0  0.04342  0.26317  0.88109  1.0000
  H   H900      1.0  0.30198  0.39630  0.70850  1.0000
  H   H901      1.0  0.16132  0.38982  0.96939  1.0000
  H   H902      1.0  0.10786  0.31037  0.89547  1.0000
  H   H903      1.0  0.09500  0.28436  0.88632  1.0000
  C   C515      1.0  0.99328  0.43884  0.86265  1.0000
  H   H904      1.0  0.12690  0.36678  0.86919  1.0000
  H   H905      1.0  0.06350  0.27545  0.86957  1.0000
  H   H906      1.0  0.22685  0.40068  0.91448  1.0000
  C   C516      1.0  0.32275  0.41680  0.82201  1.0000
  H   H907      1.0  0.06607  0.36406  0.89799  1.0000
  C   C517      1.0  0.05728  0.36750  0.94957  1.0000
  C   C518      1.0  0.13984  0.35583  0.86546  1.0000
  H   H908      1.0  0.11876  0.33088  0.79308  1.0000
  C   C519      1.0  0.07314  0.36370  0.88280  1.0000
  H   H909      1.0  0.20093  0.29578  0.94435  1.0000
  H   H910      1.0  0.26287  0.40244  0.85701  1.0000
  C   C520      1.0  0.24720  0.43124  0.85227  1.0000
  C   C521      1.0  0.10541  0.46106  0.92446  1.0000
  H   H911      1.0  0.10160  0.31167  0.86051  1.0000
  H   H912      1.0  0.23333  0.42682  0.86012  1.0000
  H   H913      1.0  0.10324  0.34380  0.82247  1.0000
  C   C522      1.0  0.28384  0.42184  0.84832  1.0000
  H   H914      1.0  0.23795  0.28647  0.87841  1.0000
  H   H915      1.0  0.24785  0.43179  0.83665  1.0000
  Fe  Fe55      1.0  0.12883  0.42631  0.97122  1.0000
  H   H916      1.0  0.06662  0.26274  0.78618  1.0000
  H   H917      1.0  0.28143  0.43786  0.87974  1.0000
  S   S116      1.0  0.27468  0.23789  0.56710  1.0000
  H   H918      1.0  0.01691  0.31561  0.83862  1.0000
  N   N30       1.0  0.11979  0.33280  0.85828  1.0000
  C   C523      1.0  0.03569  0.28912  0.86091  1.0000
  H   H919      1.0  0.03789  0.31502  0.82045  1.0000
  H   H920      1.0  0.18576  0.39380  0.96093  1.0000
  C   C524      1.0  0.26414  0.41672  0.85942  1.0000
  H   H921      1.0  0.30754  0.34987  0.86996  1.0000
  C   C525      1.0  0.30964  0.40558  0.67754  1.0000
  H   H922      1.0  0.19529  0.42930  0.95031  1.0000
  H   H923      1.0  0.02529  0.28782  0.79858  1.0000
  C   C526      1.0  0.12856  0.33608  0.83712  1.0000
  H   H924      1.0  0.25667  0.27421  0.86203  1.0000
  C   C527      1.0  0.04073  0.28068  0.84201  1.0000
  C   C528      1.0  0.09044  0.34720  0.88199  1.0000
  C   C529      1.0  0.00713  0.28251  0.83577  1.0000
  C   C530      1.0  0.01084  0.32136  0.80999  1.0000
  C   C531      1.0  0.30345  0.37685  0.92623  1.0000
  C   C532      1.0  0.19922  0.31125  0.94520  1.0000
  H   H925      1.0  0.29001  0.40149  0.88597  1.0000
  H   H926      1.0  0.31535  0.35210  0.84421  1.0000
  H   H927      1.0  0.24341  0.27475  0.82056  1.0000
  C   C533      1.0  0.15480  0.35643  0.87752  1.0000
  H   H928      1.0  0.26250  0.41629  0.87511  1.0000
  H   H929      1.0  0.06976  0.42934  0.79337  1.0000
  H   H930      1.0  0.30202  0.31342  0.77672  1.0000
  H   H931      1.0  0.29695  0.42215  0.70058  1.0000
  H   H932      1.0  0.18396  0.31812  0.94428  1.0000
  H   H933      1.0  0.31500  0.33572  0.97692  1.0000
  N   N31       1.0  0.21430  0.43114  0.96922  1.0000
  C   C534      1.0  0.32127  0.37483  0.85661  1.0000
  H   H934      1.0  0.31728  0.35268  0.70053  1.0000
  H   H935      1.0  0.04852  0.28896  0.80268  1.0000
  H   H936      1.0  0.12931  0.33218  0.88515  1.0000
  C   C535      1.0  0.04781  0.27742  0.87581  1.0000
  N   N32       1.0  0.10348  0.41485  0.90501  1.0000
  C   C536      1.0  0.09736  0.43399  0.91184  1.0000
  C   C537      1.0  0.08672  0.40952  0.89880  1.0000
  C   C538      1.0  0.10910  0.39982  0.92189  1.0000
  C   C539      1.0  0.12091  0.41479  0.88909  1.0000
  C   C540      1.0  0.11891  0.43009  0.87075  1.0000
  C   C541      1.0  0.11274  0.44082  0.91975  1.0000
  C   C542      1.0  0.11241  0.37846  0.91931  1.0000
  C   C543      1.0  0.07221  0.42621  0.88939  1.0000
  C   C544      1.0  0.05861  0.41866  0.88025  1.0000
  C   C545      1.0  0.13842  0.43026  0.85724  1.0000
  H   H937      1.0  0.21182  0.36730  0.96836  1.0000
  C   C546      1.0  0.11993  0.36493  0.93654  1.0000
  H   H938      1.0  0.08438  0.43349  0.92340  1.0000
  H   H939      1.0  0.09261  0.44573  0.90031  1.0000
  H   H940      1.0  0.09222  0.39886  0.88895  1.0000
  H   H941      1.0  0.07752  0.40217  0.91146  1.0000
  H   H942      1.0  0.09784  0.40138  0.93497  1.0000
  H   H943      1.0  0.12265  0.40200  0.92558  1.0000
  H   H944      1.0  0.13381  0.41620  0.89454  1.0000
  H   H945      1.0  0.12498  0.40071  0.88411  1.0000
  H   H946      1.0  0.11374  0.44480  0.87409  1.0000
  H   H947      1.0  0.10884  0.42661  0.86278  1.0000
  H   H948      1.0  0.11606  0.43118  0.93323  1.0000
  H   H949      1.0  0.12630  0.44132  0.90909  1.0000
  H   H950      1.0  0.12319  0.37575  0.90634  1.0000
  H   H951      1.0  0.09872  0.37436  0.91810  1.0000
  H   H952      1.0  0.06311  0.43430  0.90061  1.0000
  H   H953      1.0  0.07955  0.43651  0.87814  1.0000
  H   H954      1.0  0.06683  0.41172  0.86792  1.0000
  H   H955      1.0  0.05091  0.40813  0.89100  1.0000
  H   H956      1.0  0.04770  0.43084  0.87480  1.0000
  H   H957      1.0  0.14464  0.41577  0.85352  1.0000
  H   H958      1.0  0.13655  0.44066  0.84375  1.0000
  H   H959      1.0  0.14882  0.43474  0.86413  1.0000
  H   H960      1.0  0.29696  0.35753  0.97553  1.0000
  H   H961      1.0  0.21305  0.44351  0.93923  1.0000
  H   H962      1.0  0.29312  0.44351  0.90734  1.0000
  H   H963      1.0  0.10943  0.36671  0.95003  1.0000
  H   H964      1.0  0.12193  0.34976  0.93451  1.0000
  H   H965      1.0  0.13409  0.36785  0.93800  1.0000
  H   H966      1.0  0.06275  0.35236  0.95387  1.0000
  H   H967      1.0  0.27429  0.42441  0.95138  1.0000
  H   H968      1.0  0.04458  0.26312  0.77759  1.0000
  C   C547      1.0  0.21676  0.41199  0.92169  1.0000
  H   H969      1.0  0.21767  0.28182  0.78976  1.0000
  C   C548      1.0  0.04323  0.37306  0.93753  1.0000
  H   H970      1.0  0.13204  0.29890  0.88733  1.0000
  Fe  Fe56      1.0  0.32463  0.41634  0.75942  1.0000
  C   C549      1.0  0.29952  0.36708  0.91298  1.0000
  H   H971      1.0  0.31115  0.42200  0.90675  1.0000
  C   C550      1.0  0.03543  0.28235  0.80901  1.0000
  C   C551      1.0  0.29446  0.24091  0.61544  1.0000
  C   C552      1.0  0.31922  0.41699  0.84396  1.0000
  H   H972      1.0  0.01257  0.38475  0.81321  1.0000
  H   H973      1.0  0.31535  0.37928  0.78794  1.0000
  H   H974      1.0  0.15528  0.23507  0.68085  1.0000
  C   C553      1.0  0.17660  0.38254  0.96624  1.0000
  H   H975      1.0  0.21000  0.27569  0.81550  1.0000
  H   H976      1.0  0.31102  0.36242  0.90175  1.0000
  C   C554      1.0  0.30075  0.41002  0.87656  1.0000
  H   H977      1.0  0.05009  0.25291  0.81986  1.0000
  H   H978      1.0  0.21987  0.30635  0.96402  1.0000
  H   H979      1.0  0.13930  0.26037  0.72306  1.0000
  H   H980      1.0  0.27552  0.44964  0.94414  1.0000
  H   H981      1.0  0.28570  0.42032  0.91266  1.0000
  H   H982      1.0  0.01653  0.44803  0.79566  1.0000
  C   C555      1.0  0.20097  0.33471  0.96627  1.0000
  H   H983      1.0  0.02803  0.25403  0.81093  1.0000
  H   H984      1.0  0.31483  0.40283  0.88107  1.0000
  H   H985      1.0  0.13362  0.24360  0.74506  1.0000
  H   H986      1.0  0.99547  0.48140  0.81226  1.0000
  C   C556      1.0  0.99874  0.39372  0.80964  1.0000
  H   H987      1.0  0.11632  0.46520  0.93094  1.0000
  S   S117      1.0  0.13714  0.23672  0.83207  1.0000
  C   C557      1.0  0.20450  0.31325  0.96404  1.0000
  H   H988      1.0  0.23476  0.23695  0.51988  1.0000
  C   C558      1.0  0.99372  0.27853  0.91419  1.0000
  H   H989      1.0  0.31169  0.42769  0.81509  1.0000
  H   H990      1.0  0.09162  0.46151  0.93497  1.0000
  S   S118      1.0  0.09918  0.44422  0.97606  1.0000
  H   H991      1.0  0.10307  0.47167  0.91121  1.0000
  H   H992      1.0  0.99709  0.24835  0.91558  1.0000
  H   H993      1.0  0.00832  0.27939  0.90542  1.0000
  H   H994      1.0  0.99476  0.27709  0.92959  1.0000
  C   C559      1.0  0.14554  0.24852  0.73378  1.0000
  H   H995      1.0  0.30677  0.43932  0.87393  1.0000
  H   H996      1.0  0.19538  0.30512  0.97604  1.0000
  H   H997      1.0  0.99652  0.39069  0.79588  1.0000
  H   H998      1.0  0.99924  0.28408  0.82363  1.0000
  H   H999      1.0  0.17772  0.45649  0.96194  1.0000
  H   H1000     1.0  0.31799  0.27411  0.58413  1.0000
  H   H1001     1.0  0.17807  0.37397  0.95476  1.0000
  Fe  Fe57      1.0  0.99411  0.34304  0.88302  1.0000
  H   H1002     1.0  0.24325  0.41414  0.96764  1.0000
  C   C560      1.0  0.20424  0.45050  0.97418  1.0000
  H   H1003     1.0  0.27102  0.43952  0.96934  1.0000
  C   C561      1.0  0.23561  0.42894  0.96956  1.0000
  H   H1004     1.0  0.24242  0.35718  0.97872  1.0000
  C   C562      1.0  0.31216  0.35139  0.97721  1.0000
  H   H1005     1.0  0.13409  0.23410  0.70873  1.0000
  H   H1006     1.0  0.29230  0.23444  0.63050  1.0000
  C   C563      1.0  0.12506  0.53255  0.24693  1.0000
  C   C564      1.0  0.29387  0.70398  0.27501  1.0000
  H   H1007     1.0  0.25595  0.69964  0.28864  1.0000
  C   C565      1.0  0.03386  0.49473  0.45919  1.0000
  H   H1008     1.0  0.31210  0.67398  0.38161  1.0000
  C   C566      1.0  0.11797  0.48928  0.05871  1.0000
  S   S119      1.0  0.01675  0.71520  0.04507  1.0000
  N   N33       1.0  0.04769  0.50955  0.42406  1.0000
  H   H1009     1.0  0.12455  0.51379  0.18128  1.0000
  S   S120      1.0  0.09456  0.72721  0.16888  1.0000
  H   H1010     1.0  0.00062  0.70918  0.16596  1.0000
  S   S121      1.0  0.01707  0.61737  0.05085  1.0000
  H   H1011     1.0  0.11154  0.48453  0.18956  1.0000
  H   H1012     1.0  0.28988  0.56330  0.43890  1.0000
  H   H1013     1.0  0.13998  0.67523  0.47366  1.0000
  C   C567      1.0  0.04289  0.52715  0.40912  1.0000
  Fe  Fe58      1.0  0.08347  0.52178  0.32534  1.0000
  C   C568      1.0  0.19905  0.69761  0.46688  1.0000
  S   S122      1.0  0.08122  0.54117  0.29671  1.0000
  H   H1014     1.0  0.00003  0.70162  0.13698  1.0000
  S   S123      1.0  0.09206  0.53992  0.38497  1.0000
  S   S124      1.0  0.06431  0.52446  0.35384  1.0000
  Fe  Fe59      1.0  0.16098  0.63522  0.21472  1.0000
  S   S125      1.0  0.18615  0.61058  0.21238  1.0000
  S   S126      1.0  0.16218  0.65763  0.18760  1.0000
  Fe  Fe60      1.0  0.14310  0.61638  0.25430  1.0000
  S   S127      1.0  0.16681  0.59085  0.25406  1.0000
  S   S128      1.0  0.12192  0.61400  0.28227  1.0000
  Fe  Fe61      1.0  0.18684  0.61230  0.24315  1.0000
  S   S129      1.0  0.21342  0.60789  0.25749  1.0000
  Fe  Fe62      1.0  0.16329  0.59205  0.22360  1.0000
  S   S130      1.0  0.15881  0.56448  0.21582  1.0000
  S   S131      1.0  0.16316  0.63805  0.24472  1.0000
  S   S132      1.0  0.13820  0.61651  0.22450  1.0000
  Fe  Fe63      1.0  0.09323  0.55380  0.11020  1.0000
  S   S133      1.0  0.12468  0.54450  0.09852  1.0000
  S   S134      1.0  0.07947  0.58527  0.10508  1.0000
  Fe  Fe64      1.0  0.09035  0.51465  0.13471  1.0000
  S   S135      1.0  0.12156  0.50267  0.12524  1.0000
  Fe  Fe65      1.0  0.12718  0.53101  0.12918  1.0000
  S   S136      1.0  0.15304  0.53350  0.14165  1.0000
  Fe  Fe66      1.0  0.11597  0.51711  0.09563  1.0000
  S   S137      1.0  0.09632  0.54172  0.14099  1.0000
  S   S138      1.0  0.08418  0.52762  0.10496  1.0000
  Fe  Fe67      1.0  0.27888  0.69164  0.33256  1.0000
  C   C569      1.0  0.02561  0.52752  0.39912  1.0000
  S   S139      1.0  0.29354  0.71802  0.32092  1.0000
  Fe  Fe68      1.0  0.24707  0.67469  0.36312  1.0000
  S   S140      1.0  0.25154  0.64762  0.35103  1.0000
  S   S141      1.0  0.22675  0.67767  0.39116  1.0000
  Fe  Fe69      1.0  0.28306  0.64882  0.34804  1.0000
  Fe  Fe70      1.0  0.25320  0.66698  0.32207  1.0000
  S   S142      1.0  0.23524  0.66862  0.29879  1.0000
  S   S143      1.0  0.27848  0.67452  0.36222  1.0000
  S   S144      1.0  0.24663  0.69429  0.33461  1.0000
  Fe  Fe71      1.0  0.14260  0.62689  0.43058  1.0000
  S   S145      1.0  0.16443  0.60138  0.43960  1.0000
  S   S146      1.0  0.15041  0.64363  0.40082  1.0000
  Fe  Fe72      1.0  0.11485  0.61957  0.46868  1.0000
  Fe  Fe73      1.0  0.13913  0.58590  0.45043  1.0000
  S   S147      1.0  0.14164  0.55646  0.44202  1.0000
  S   S148      1.0  0.13761  0.63812  0.45815  1.0000
  S   S149      1.0  0.11759  0.61109  0.43976  1.0000
  H   H1015     1.0  0.01680  0.57179  0.14627  1.0000
  C   C570      1.0  0.02794  0.63538  0.12353  1.0000
  H   H1016     1.0  0.14087  0.68453  0.12516  1.0000
  C   C571      1.0  0.20568  0.66813  0.39349  1.0000
  C   C572      1.0  0.19647  0.66080  0.41187  1.0000
  C   C573      1.0  0.17986  0.65269  0.41414  1.0000
  C   C574      1.0  0.17186  0.65271  0.39806  1.0000
  C   C575      1.0  0.18098  0.66017  0.37965  1.0000
  C   C576      1.0  0.19808  0.66756  0.37733  1.0000
  H   H1017     1.0  0.20243  0.66113  0.42432  1.0000
  H   H1018     1.0  0.17306  0.64673  0.42835  1.0000
  H   H1019     1.0  0.17487  0.66017  0.36718  1.0000
  H   H1020     1.0  0.20518  0.67315  0.36308  1.0000
  H   H1021     1.0  0.29381  0.66341  0.39920  1.0000
  H   H1022     1.0  0.27263  0.63353  0.38812  1.0000
  H   H1023     1.0  0.27001  0.63304  0.42294  1.0000
  C   C577      1.0  0.22844  0.65100  0.28881  1.0000
  C   C578      1.0  0.21467  0.65710  0.27649  1.0000
  C   C579      1.0  0.20943  0.64398  0.26737  1.0000
  C   C580      1.0  0.21826  0.62460  0.27009  1.0000
  C   C581      1.0  0.23193  0.61844  0.28254  1.0000
  C   C582      1.0  0.23685  0.63150  0.29202  1.0000
  H   H1024     1.0  0.20808  0.67213  0.27385  1.0000
  H   H1025     1.0  0.19897  0.64899  0.25779  1.0000
  H   H1026     1.0  0.23892  0.60351  0.28470  1.0000
  H   H1027     1.0  0.24755  0.62658  0.30136  1.0000
  C   C583      1.0  0.15619  0.56063  0.19309  1.0000
  C   C584      1.0  0.17269  0.55552  0.17968  1.0000
  C   C585      1.0  0.17127  0.54791  0.16373  1.0000
  C   C586      1.0  0.15334  0.54527  0.16087  1.0000
  C   C587      1.0  0.13663  0.55102  0.17387  1.0000
  C   C588      1.0  0.13811  0.55840  0.19006  1.0000
  H   H1028     1.0  0.18679  0.55643  0.18219  1.0000
  H   H1029     1.0  0.18428  0.54343  0.15389  1.0000
  H   H1030     1.0  0.12271  0.54905  0.17189  1.0000
  H   H1031     1.0  0.12534  0.56164  0.20067  1.0000
  C   C589      1.0  0.10715  0.54450  0.39960  1.0000
  C   C590      1.0  0.12343  0.53135  0.40469  1.0000
  C   C591      1.0  0.13392  0.53524  0.41757  1.0000
  C   C592      1.0  0.12847  0.55238  0.42527  1.0000
  C   C593      1.0  0.11246  0.56566  0.41978  1.0000
  C   C594      1.0  0.10185  0.56168  0.40716  1.0000
  H   H1032     1.0  0.18671  0.70983  0.10774  1.0000
  H   H1033     1.0  0.14627  0.52484  0.42168  1.0000
  H   H1034     1.0  0.10799  0.57886  0.42556  1.0000
  H   H1035     1.0  0.08930  0.57196  0.40338  1.0000
  C   C595      1.0  0.09216  0.56161  0.29295  1.0000
  C   C596      1.0  0.09447  0.56920  0.30846  1.0000
  C   C597      1.0  0.10332  0.58548  0.30509  1.0000
  C   C598      1.0  0.11045  0.59386  0.28626  1.0000
  C   C599      1.0  0.10831  0.58613  0.27078  1.0000
  C   C600      1.0  0.09880  0.57033  0.27412  1.0000
  H   H1036     1.0  0.08928  0.56263  0.32305  1.0000
  H   H1037     1.0  0.10492  0.59136  0.31712  1.0000
  H   H1038     1.0  0.11363  0.59256  0.25621  1.0000
  H   H1039     1.0  0.09673  0.56475  0.26208  1.0000
  H   H1040     1.0  0.12267  0.67546  0.11773  1.0000
  C   C601      1.0  0.16688  0.69409  0.44833  1.0000
  H   H1041     1.0  0.31201  0.71308  0.23404  1.0000
  H   H1042     1.0  0.22788  0.61031  0.46157  1.0000
  H   H1043     1.0  0.28003  0.70712  0.43550  1.0000
  C   C602      1.0  0.26683  0.65844  0.24848  1.0000
  C   C603      1.0  0.03584  0.60866  0.06432  1.0000
  C   C604      1.0  0.04329  0.62118  0.07197  1.0000
  C   C605      1.0  0.05730  0.61383  0.08382  1.0000
  C   C606      1.0  0.06393  0.59395  0.08809  1.0000
  C   C607      1.0  0.05712  0.58147  0.07976  1.0000
  C   C608      1.0  0.04305  0.58883  0.06790  1.0000
  H   H1044     1.0  0.03823  0.63652  0.06876  1.0000
  H   H1045     1.0  0.06298  0.62355  0.08979  1.0000
  H   H1046     1.0  0.06235  0.56614  0.08280  1.0000
  H   H1047     1.0  0.03748  0.57910  0.06182  1.0000
  C   C609      1.0  0.11277  0.70716  0.17397  1.0000
  C   C610      1.0  0.12917  0.70313  0.16017  1.0000
  C   C611      1.0  0.14420  0.68796  0.16468  1.0000
  C   C612      1.0  0.14266  0.67621  0.18284  1.0000
  C   C613      1.0  0.12600  0.67975  0.19659  1.0000
  C   C614      1.0  0.11115  0.69537  0.19220  1.0000
  H   H1048     1.0  0.01231  0.52547  0.40974  1.0000
  H   H1049     1.0  0.15708  0.68528  0.15403  1.0000
  H   H1050     1.0  0.12476  0.67077  0.21068  1.0000
  H   H1051     1.0  0.09847  0.69839  0.20298  1.0000
  S   S150      1.0  0.13000  0.50148  0.07033  1.0000
  C   C615      1.0  0.06189  0.70134  0.07475  1.0000
  C   C616      1.0  0.04620  0.69986  0.06656  1.0000
  H   H1052     1.0  0.21450  0.64526  0.45441  1.0000
  C   C617      1.0  0.07378  0.50612  0.24475  1.0000
  C   C618      1.0  0.06450  0.52873  0.20082  1.0000
  H   H1053     1.0  0.07020  0.68843  0.08173  1.0000
  H   H1054     1.0  0.04247  0.68593  0.06734  1.0000
  C   C619      1.0  0.14764  0.49321  0.19197  1.0000
  S   S151      1.0  0.29806  0.62225  0.44806  1.0000
  C   C620      1.0  0.12705  0.50457  0.19525  1.0000
  H   H1055     1.0  0.14130  0.55262  0.26489  1.0000
  C   C621      1.0  0.22485  0.61484  0.39040  1.0000
  C   C622      1.0  0.21380  0.61480  0.37444  1.0000
  H   H1056     1.0  0.23476  0.62771  0.41836  1.0000
  H   H1057     1.0  0.24055  0.61041  0.38515  1.0000
  H   H1058     1.0  0.22230  0.62987  0.39282  1.0000
  C   C623      1.0  0.08307  0.52690  0.44849  1.0000
  H   H1059     1.0  0.19797  0.61897  0.37927  1.0000
  H   H1060     1.0  0.21831  0.62537  0.36154  1.0000
  H   H1061     1.0  0.21686  0.60034  0.37033  1.0000
  H   H1062     1.0  0.26937  0.70973  0.46968  1.0000
  H   H1063     1.0  0.02524  0.63679  0.13891  1.0000
  C   C624      1.0  0.09834  0.48815  0.06464  1.0000
  H   H1064     1.0  0.01803  0.50639  0.43622  1.0000
  H   H1065     1.0  0.12378  0.54800  0.24025  1.0000
  H   H1066     1.0  0.16505  0.51006  0.10938  1.0000
  H   H1067     1.0  0.00434  0.58886  0.18657  1.0000
  H   H1068     1.0  0.01645  0.60592  0.15416  1.0000
  H   H1069     1.0  0.14455  0.51008  0.26090  1.0000
  H   H1070     1.0  0.02920  0.72560  0.18169  1.0000
  H   H1071     1.0  0.04690  0.49581  0.46454  1.0000
  Fe  Fe74      1.0  0.00041  0.69037  0.04898  1.0000
  H   H1072     1.0  0.19201  0.66934  0.46962  1.0000
  Fe  Fe75      1.0  0.32453  0.62844  0.45606  1.0000
  H   H1073     1.0  0.22571  0.67634  0.46538  1.0000
  C   C625      1.0  0.18501  0.68299  0.47495  1.0000
  H   H1074     1.0  0.19036  0.55213  0.08984  1.0000
  H   H1075     1.0  0.13139  0.53426  0.28236  1.0000
  H   H1076     1.0  0.18005  0.68507  0.44140  1.0000
  N   N34       1.0  0.16257  0.53205  0.27950  1.0000
  H   H1077     1.0  0.20085  0.70148  0.45096  1.0000
  H   H1078     1.0  0.05568  0.52878  0.39751  1.0000
  H   H1079     1.0  0.19393  0.55525  0.27050  1.0000
  H   H1080     1.0  0.17450  0.54655  0.25130  1.0000
  S   S152      1.0  0.00099  0.66586  0.07396  1.0000
  S   S153      1.0  0.00260  0.67173  0.02683  1.0000
  H   H1081     1.0  0.29633  0.68294  0.42230  1.0000
  H   H1082     1.0  0.20308  0.53059  0.27958  1.0000
  C   C626      1.0  0.19133  0.48721  0.13149  1.0000
  H   H1083     1.0  0.03639  0.65388  0.09619  1.0000
  C   C627      1.0  0.30671  0.67017  0.39727  1.0000
  H   H1084     1.0  0.24900  0.68361  0.25789  1.0000
  H   H1085     1.0  0.02849  0.56119  0.10590  1.0000
  H   H1086     1.0  0.09682  0.52262  0.43879  1.0000
  H   H1087     1.0  0.01382  0.63031  0.10205  1.0000
  H   H1088     1.0  0.06366  0.53625  0.21295  1.0000
  N   N35       1.0  0.12747  0.62270  0.15680  1.0000
  C   C628      1.0  0.12917  0.63840  0.13931  1.0000
  C   C629      1.0  0.12042  0.60616  0.15210  1.0000
  C   C630      1.0  0.11254  0.63105  0.17245  1.0000
  C   C631      1.0  0.14625  0.61587  0.16446  1.0000
  C   C632      1.0  0.16398  0.60730  0.15065  1.0000
  C   C633      1.0  0.13494  0.65699  0.14200  1.0000
  C   C634      1.0  0.10543  0.61638  0.19034  1.0000
  C   C635      1.0  0.12698  0.60185  0.13125  1.0000
  C   C636      1.0  0.12008  0.58396  0.12916  1.0000
  C   C637      1.0  0.18242  0.60403  0.15922  1.0000
  C   C638      1.0  0.13671  0.67129  0.12302  1.0000
  C   C639      1.0  0.09173  0.62676  0.20571  1.0000
  H   H1089     1.0  0.11510  0.64273  0.13398  1.0000
  H   H1090     1.0  0.13989  0.63318  0.12720  1.0000
  H   H1091     1.0  0.12441  0.59266  0.16231  1.0000
  H   H1092     1.0  0.10430  0.60900  0.15406  1.0000
  H   H1093     1.0  0.09946  0.63929  0.16651  1.0000
  H   H1094     1.0  0.11831  0.64159  0.17801  1.0000
  H   H1095     1.0  0.15018  0.62766  0.16980  1.0000
  H   H1096     1.0  0.14458  0.60438  0.17732  1.0000
  H   H1097     1.0  0.16633  0.61690  0.13654  1.0000
  H   H1098     1.0  0.16207  0.59307  0.14853  1.0000
  H   H1099     1.0  0.12379  0.66426  0.15256  1.0000
  H   H1100     1.0  0.14911  0.65375  0.14691  1.0000
  H   H1101     1.0  0.11761  0.60734  0.19702  1.0000
  H   H1102     1.0  0.09743  0.60661  0.18645  1.0000
  H   H1103     1.0  0.12049  0.61394  0.12089  1.0000
  H   H1104     1.0  0.14289  0.59970  0.12680  1.0000
  H   H1105     1.0  0.12711  0.57102  0.13805  1.0000
  H   H1106     1.0  0.10413  0.58543  0.13356  1.0000
  H   H1107     1.0  0.12390  0.58194  0.11389  1.0000
  H   H1108     1.0  0.18085  0.59463  0.17359  1.0000
  H   H1109     1.0  0.19484  0.59693  0.14961  1.0000
  H   H1110     1.0  0.18562  0.61797  0.16076  1.0000
  H   H1111     1.0  0.14802  0.66498  0.11188  1.0000
  H   H1112     1.0  0.09910  0.63656  0.21045  1.0000
  H   H1113     1.0  0.07864  0.63525  0.20008  1.0000
  H   H1114     1.0  0.08714  0.61604  0.21846  1.0000
  C   C640      1.0  0.00095  0.71073  0.10636  1.0000
  C   C641      1.0  0.17531  0.72020  0.11507  1.0000
  H   H1115     1.0  0.99722  0.62612  0.15314  1.0000
  C   C642      1.0  0.03083  0.50945  0.44063  1.0000
  H   H1116     1.0  0.09485  0.52828  0.19324  1.0000
  H   H1117     1.0  0.25518  0.65630  0.24158  1.0000
  H   H1118     1.0  0.26775  0.71818  0.23779  1.0000
  H   H1119     1.0  0.27651  0.67361  0.27640  1.0000
  C   C643      1.0  0.27894  0.68265  0.26181  1.0000
  C   C644      1.0  0.28384  0.62809  0.41460  1.0000
  H   H1120     1.0  0.02285  0.61422  0.00936  1.0000
  C   C645      1.0  0.00198  0.61126  0.14977  1.0000
  C   C646      1.0  0.21912  0.68925  0.47206  1.0000
  H   H1121     1.0  0.20881  0.55050  0.23710  1.0000
  C   C647      1.0  0.30336  0.62288  0.38368  1.0000
  C   C648      1.0  0.18146  0.50379  0.30084  1.0000
  C   C649      1.0  0.18008  0.50529  0.10195  1.0000
  C   C650      1.0  0.01009  0.63042  0.11778  1.0000
  H   H1122     1.0  0.00610  0.58403  0.03432  1.0000
  H   H1123     1.0  0.25783  0.60139  0.41147  1.0000
  H   H1124     1.0  0.05743  0.61457  0.99349  1.0000
  H   H1125     1.0  0.01148  0.71143  0.19547  1.0000
  H   H1126     1.0  0.20638  0.51844  0.09193  1.0000
  H   H1127     1.0  0.01570  0.55861  0.39454  1.0000
  H   H1128     1.0  0.28857  0.58595  0.42262  1.0000
  H   H1129     1.0  0.04095  0.62418  0.12105  1.0000
  H   H1130     1.0  0.02786  0.54503  0.12865  1.0000
  C   C651      1.0  0.02064  0.60521  0.99950  1.0000
  H   H1131     1.0  0.00304  0.49253  0.39903  1.0000
  H   H1132     1.0  0.16621  0.48557  0.32471  1.0000
  H   H1133     1.0  0.06639  0.54192  0.42670  1.0000
  C   C652      1.0  0.32378  0.71051  0.34189  1.0000
  H   H1134     1.0  0.20548  0.49175  0.13035  1.0000
  C   C653      1.0  0.01882  0.59539  0.12175  1.0000
  H   H1135     1.0  0.07710  0.53059  0.25636  1.0000
  H   H1136     1.0  0.31461  0.72482  0.43839  1.0000
  C   C654      1.0  0.03715  0.70228  0.12663  1.0000
  H   H1137     1.0  0.16254  0.65960  0.47150  1.0000
  H   H1138     1.0  0.15184  0.71789  0.17755  1.0000
  H   H1139     1.0  0.05998  0.58981  0.99056  1.0000
  H   H1140     1.0  0.14923  0.48390  0.18110  1.0000
  C   C655      1.0  0.05683  0.70376  0.13145  1.0000
  H   H1141     1.0  0.31110  0.71908  0.19952  1.0000
  C   C656      1.0  0.07860  0.48571  0.21287  1.0000
  H   H1142     1.0  0.12619  0.51391  0.20587  1.0000
  H   H1143     1.0  0.08771  0.50734  0.26850  1.0000
  C   C657      1.0  0.07141  0.68506  0.13018  1.0000
  H   H1144     1.0  0.04036  0.69835  0.11206  1.0000
  H   H1145     1.0  0.03203  0.68958  0.13645  1.0000
  H   H1146     1.0  0.20007  0.72997  0.15904  1.0000
  C   C658      1.0  0.06574  0.52923  0.43847  1.0000
  Fe  Fe76      1.0  0.00097  0.64765  0.05227  1.0000
  H   H1147     1.0  0.18335  0.70829  0.14259  1.0000
  H   H1148     1.0  0.28518  0.72080  0.20422  1.0000
  H   H1149     1.0  0.26568  0.68815  0.23570  1.0000
  H   H1150     1.0  0.07090  0.49832  0.44073  1.0000
  C   C659      1.0  0.01930  0.72769  0.14568  1.0000
  H   H1151     1.0  0.06326  0.71538  0.12125  1.0000
  H   H1152     1.0  0.05523  0.70675  0.14620  1.0000
  Fe  Fe77      1.0  0.10889  0.48610  0.34187  1.0000
  H   H1153     1.0  0.19534  0.72772  0.12916  1.0000
  C   C660      1.0  0.29874  0.73174  0.40212  1.0000
  H   H1154     1.0  0.15163  0.73259  0.14553  1.0000
  H   H1155     1.0  0.24721  0.71096  0.26699  1.0000
  C   C661      1.0  0.29766  0.72307  0.20980  1.0000
  N   N36       1.0  0.02160  0.72003  0.12730  1.0000
  H   H1156     1.0  0.15131  0.48415  0.20565  1.0000
  C   C662      1.0  0.99654  0.64530  0.99268  1.0000
  H   H1157     1.0  0.18890  0.48553  0.17051  1.0000
  H   H1158     1.0  0.07438  0.68181  0.11536  1.0000
  H   H1159     1.0  0.08527  0.68667  0.13369  1.0000
  H   H1160     1.0  0.06592  0.67288  0.14053  1.0000
  N   N37       1.0  0.15604  0.61569  0.33865  1.0000
  C   C663      1.0  0.15910  0.63570  0.32881  1.0000
  C   C664      1.0  0.13662  0.61291  0.33585  1.0000
  C   C665      1.0  0.15689  0.61360  0.35974  1.0000
  C   C666      1.0  0.17154  0.60062  0.33022  1.0000
  C   C667      1.0  0.17395  0.60149  0.30819  1.0000
  C   C668      1.0  0.17958  0.64028  0.32751  1.0000
  C   C669      1.0  0.15229  0.59442  0.37261  1.0000
  C   C670      1.0  0.11861  0.62507  0.34646  1.0000
  C   C671      1.0  0.09992  0.62116  0.34232  1.0000
  C   C672      1.0  0.18982  0.58520  0.30170  1.0000
  C   C673      1.0  0.18017  0.66145  0.31905  1.0000
  C   C674      1.0  0.15211  0.59473  0.39373  1.0000
  H   H1161     1.0  0.14867  0.64658  0.33643  1.0000
  H   H1162     1.0  0.15583  0.63879  0.31392  1.0000
  H   H1163     1.0  0.13543  0.61660  0.32031  1.0000
  H   H1164     1.0  0.13508  0.59749  0.34014  1.0000
  H   H1165     1.0  0.14718  0.62581  0.36602  1.0000
  H   H1166     1.0  0.17158  0.61456  0.36165  1.0000
  H   H1167     1.0  0.18585  0.60102  0.33367  1.0000
  H   H1168     1.0  0.16846  0.58602  0.33699  1.0000
  H   H1169     1.0  0.17795  0.61530  0.29994  1.0000
  H   H1170     1.0  0.16041  0.59982  0.30414  1.0000
  H   H1171     1.0  0.18383  0.63754  0.34187  1.0000
  H   H1172     1.0  0.19070  0.63152  0.31815  1.0000
  H   H1173     1.0  0.16351  0.58210  0.36856  1.0000
  H   H1174     1.0  0.13798  0.59166  0.37153  1.0000
  H   H1175     1.0  0.11792  0.62161  0.36229  1.0000
  H   H1176     1.0  0.11881  0.64067  0.34170  1.0000
  H   H1177     1.0  0.09958  0.62479  0.32661  1.0000
  H   H1178     1.0  0.09864  0.60579  0.34754  1.0000
  H   H1179     1.0  0.08726  0.63016  0.34986  1.0000
  H   H1180     1.0  0.18715  0.57101  0.31020  1.0000
  H   H1181     1.0  0.19005  0.58487  0.28637  1.0000
  H   H1182     1.0  0.20421  0.58754  0.30316  1.0000
  H   H1183     1.0  0.16954  0.67094  0.32809  1.0000
  H   H1184     1.0  0.19481  0.66446  0.31860  1.0000
  H   H1185     1.0  0.17702  0.66488  0.30415  1.0000
  H   H1186     1.0  0.15037  0.58041  0.40246  1.0000
  H   H1187     1.0  0.16586  0.59817  0.39566  1.0000
  H   H1188     1.0  0.13980  0.60556  0.39913  1.0000
  H   H1189     1.0  0.04506  0.56117  0.12170  1.0000
  C   C675      1.0  0.11188  0.49105  0.20207  1.0000
  H   H1190     1.0  0.31993  0.69644  0.34748  1.0000
  H   H1191     1.0  0.12015  0.48927  0.26690  1.0000
  H   H1192     1.0  0.13048  0.71191  0.14611  1.0000
  N   N38       1.0  0.27856  0.70317  0.26374  1.0000
  C   C676      1.0  0.18162  0.54086  0.09091  1.0000
  N   N39       1.0  0.00370  0.61177  0.12840  1.0000
  H   H1193     1.0  0.17692  0.70902  0.17314  1.0000
  C   C677      1.0  0.06704  0.71931  0.07381  1.0000
  H   H1194     1.0  0.99299  0.60087  0.09610  1.0000
  C   C678      1.0  0.15025  0.69114  0.43913  1.0000
  C   C679      1.0  0.15227  0.70037  0.41786  1.0000
  H   H1195     1.0  0.26606  0.64905  0.26286  1.0000
  H   H1196     1.0  0.00937  0.54635  0.37806  1.0000
  H   H1197     1.0  0.31049  0.57149  0.46566  1.0000
  H   H1198     1.0  0.09000  0.49510  0.07641  1.0000
  C   C680      1.0  0.06619  0.51101  0.43005  1.0000
  H   H1199     1.0  0.15075  0.67551  0.44002  1.0000
  H   H1200     1.0  0.13575  0.69718  0.44641  1.0000
  C   C681      1.0  0.01659  0.49804  0.47539  1.0000
  C   C682      1.0  0.30097  0.68802  0.40673  1.0000
  H   H1201     1.0  0.19368  0.71097  0.47309  1.0000
  C   C683      1.0  0.13346  0.71382  0.47804  1.0000
  H   H1202     1.0  0.06065  0.51397  0.23896  1.0000
  H   H1203     1.0  0.14118  0.69660  0.41133  1.0000
  H   H1204     1.0  0.18409  0.52163  0.25624  1.0000
  H   H1205     1.0  0.08354  0.54079  0.45255  1.0000
  H   H1206     1.0  0.16637  0.50152  0.27923  1.0000
  H   H1207     1.0  0.16387  0.70346  0.22675  1.0000
  H   H1208     1.0  0.15015  0.71628  0.41623  1.0000
  Fe  Fe78      1.0  0.06611  0.49235  0.35816  1.0000
  H   H1209     1.0  0.11970  0.49109  0.30085  1.0000
  H   H1210     1.0  0.25063  0.61472  0.44656  1.0000
  H   H1211     1.0  0.01318  0.69980  0.10113  1.0000
  H   H1212     1.0  0.17154  0.69038  0.20697  1.0000
  H   H1213     1.0  0.04436  0.55243  0.18798  1.0000
  C   C684      1.0  0.01481  0.72195  0.18212  1.0000
  H   H1214     1.0  0.02905  0.51606  0.39018  1.0000
  H   H1215     1.0  0.28821  0.70099  0.29072  1.0000
  H   H1216     1.0  0.22068  0.54955  0.46634  1.0000
  H   H1217     1.0  0.02561  0.59014  0.00638  1.0000
  C   C685      1.0  0.28081  0.71634  0.24448  1.0000
  N   N40       1.0  0.09169  0.50019  0.21038  1.0000
  Fe  Fe79      1.0  0.15836  0.61159  0.46803  1.0000
  H   H1218     1.0  0.21144  0.62542  0.43242  1.0000
  C   C686      1.0  0.05577  0.60508  0.98387  1.0000
  H   H1219     1.0  0.07151  0.49116  0.25084  1.0000
  S   S154      1.0  0.06958  0.49753  0.15542  1.0000
  H   H1220     1.0  0.16677  0.69505  0.40986  1.0000
  H   H1221     1.0  0.31985  0.68978  0.25698  1.0000
  H   H1222     1.0  0.00078  0.72405  0.09537  1.0000
  C   C687      1.0  0.03009  0.55970  0.12115  1.0000
  H   H1223     1.0  0.21860  0.58718  0.40466  1.0000
  H   H1224     1.0  0.06373  0.49107  0.21989  1.0000
  H   H1225     1.0  0.04556  0.65777  0.11613  1.0000
  H   H1226     1.0  0.20552  0.54051  0.45461  1.0000
  S   S155      1.0  0.18418  0.61904  0.47711  1.0000
  H   H1227     1.0  0.29194  0.71652  0.47033  1.0000
  H   H1228     1.0  0.02602  0.52402  0.44462  1.0000
  H   H1229     1.0  0.02104  0.59676  0.10585  1.0000
  S   S156      1.0  0.30542  0.62432  0.35873  1.0000
  C   C688      1.0  0.21773  0.60123  0.40908  1.0000
  C   C689      1.0  0.25899  0.71014  0.27513  1.0000
  C   C690      1.0  0.22694  0.61831  0.43042  1.0000
  C   C691      1.0  0.23033  0.63984  0.45248  1.0000
  H   H1230     1.0  0.20203  0.60674  0.41369  1.0000
  C   C692      1.0  0.05067  0.49193  0.41478  1.0000
  H   H1231     1.0  0.22875  0.70012  0.46660  1.0000
  H   H1232     1.0  0.13057  0.54613  0.30746  1.0000
  C   C693      1.0  0.19174  0.52151  0.10062  1.0000
  H   H1233     1.0  0.23537  0.64010  0.46589  1.0000
  H   H1234     1.0  0.19560  0.56102  0.46637  1.0000
  H   H1235     1.0  0.08193  0.51581  0.46173  1.0000
  H   H1236     1.0  0.14183  0.57359  0.31528  1.0000
  C   C694      1.0  0.14446  0.55882  0.32373  1.0000
  H   H1237     1.0  0.03961  0.54048  0.41551  1.0000
  H   H1238     1.0  0.15806  0.56093  0.28537  1.0000
  H   H1239     1.0  0.23776  0.64948  0.44039  1.0000
  N   N41       1.0  0.22854  0.59862  0.42559  1.0000
  C   C695      1.0  0.23473  0.61925  0.44857  1.0000
  H   H1240     1.0  0.25064  0.58044  0.40856  1.0000
  H   H1241     1.0  0.31736  0.69983  0.43890  1.0000
  C   C696      1.0  0.24947  0.58987  0.41930  1.0000
  H   H1242     1.0  0.22631  0.54504  0.25295  1.0000
  H   H1243     1.0  0.15594  0.52739  0.24293  1.0000
  H   H1244     1.0  0.13246  0.55755  0.33623  1.0000
  S   S157      1.0  0.28552  0.66576  0.31790  1.0000
  H   H1245     1.0  0.22621  0.58287  0.45495  1.0000
  H   H1246     1.0  0.20394  0.59444  0.44817  1.0000
  C   C697      1.0  0.14416  0.53695  0.27107  1.0000
  C   C698      1.0  0.14508  0.54390  0.31133  1.0000
  H   H1247     1.0  0.28104  0.65400  0.23950  1.0000
  C   C699      1.0  0.09235  0.50611  0.22911  1.0000
  C   C700      1.0  0.01520  0.57480  0.13090  1.0000
  C   C701      1.0  0.26405  0.67958  0.25044  1.0000
  C   C702      1.0  0.28536  0.62855  0.39481  1.0000
  H   H1248     1.0  0.00351  0.57819  0.99516  1.0000
  H   H1249     1.0  0.17885  0.50514  0.08689  1.0000
  C   C703      1.0  0.21835  0.58628  0.44265  1.0000
  H   H1250     1.0  0.20276  0.56988  0.43061  1.0000
  H   H1251     1.0  0.99386  0.67622  0.98343  1.0000
  C   C704      1.0  0.25621  0.73012  0.28117  1.0000
  H   H1252     1.0  0.29719  0.71881  0.27225  1.0000
  H   H1253     1.0  0.19526  0.50178  0.29052  1.0000
  H   H1254     1.0  0.16153  0.71455  0.11851  1.0000
  C   C705      1.0  0.05903  0.54414  0.18381  1.0000
  C   C706      1.0  0.16087  0.54584  0.29313  1.0000
  H   H1255     1.0  0.15826  0.55640  0.32924  1.0000
  C   C707      1.0  0.07531  0.51534  0.26144  1.0000
  H   H1256     1.0  0.05882  0.53733  0.17141  1.0000
  H   H1257     1.0  0.18016  0.49884  0.13729  1.0000
  C   C708      1.0  0.30033  0.62232  0.42330  1.0000
  H   H1258     1.0  0.19331  0.52331  0.11508  1.0000
  H   H1259     1.0  0.00300  0.49677  0.47108  1.0000
  Fe  Fe80      1.0  0.09218  0.51831  0.36571  1.0000
  S   S158      1.0  0.11106  0.51736  0.33666  1.0000
  H   H1260     1.0  0.05351  0.51925  0.20457  1.0000
  H   H1261     1.0  0.08662  0.51293  0.18160  1.0000
  H   H1262     1.0  0.25890  0.58429  0.44778  1.0000
  H   H1263     1.0  0.03015  0.72972  0.09684  1.0000
  H   H1264     1.0  0.12526  0.52414  0.23569  1.0000
  C   C709      1.0  0.28502  0.70810  0.46337  1.0000
  C   C710      1.0  0.16211  0.70342  0.21184  1.0000
  S   S159      1.0  0.08718  0.72023  0.08406  1.0000
  C   C711      1.0  0.02090  0.54685  0.38596  1.0000
  H   H1265     1.0  0.17457  0.54433  0.29849  1.0000
  H   H1266     1.0  0.14804  0.52949  0.32034  1.0000
  H   H1267     1.0  0.21850  0.52567  0.24611  1.0000
  H   H1268     1.0  0.12768  0.51804  0.39908  1.0000
  C   C712      1.0  0.21478  0.56705  0.43891  1.0000
  H   H1269     1.0  0.05247  0.53234  0.44917  1.0000
  C   C713      1.0  0.26063  0.57729  0.43517  1.0000
  S   S160      1.0  0.08257  0.49037  0.32847  1.0000
  H   H1270     1.0  0.00067  0.57277  0.12967  1.0000
  H   H1271     1.0  0.17987  0.54005  0.07619  1.0000
  C   C714      1.0  0.00267  0.71473  0.12620  1.0000
  H   H1272     1.0  0.29157  0.69262  0.46641  1.0000
  C   C715      1.0  0.16756  0.72170  0.19858  1.0000
  H   H1273     1.0  0.02604  0.69982  0.16508  1.0000
  H   H1274     1.0  0.22788  0.55941  0.43057  1.0000
  H   H1275     1.0  0.15069  0.50892  0.29965  1.0000
  C   C716      1.0  0.17929  0.53478  0.26297  1.0000
  H   H1276     1.0  0.07825  0.51072  0.41744  1.0000
  C   C717      1.0  0.20881  0.55376  0.45777  1.0000
  C   C718      1.0  0.15440  0.67236  0.47795  1.0000
  C   C719      1.0  0.01502  0.71317  0.16456  1.0000
  C   C720      1.0  0.28767  0.71542  0.44174  1.0000
  H   H1277     1.0  0.99792  0.64280  0.11964  1.0000
  N   N42       1.0  0.16487  0.68921  0.47008  1.0000
  H   H1278     1.0  0.16715  0.54520  0.09950  1.0000
  C   C721      1.0  0.14376  0.52564  0.25510  1.0000
  C   C722      1.0  0.28230  0.57257  0.42740  1.0000
  C   C723      1.0  0.31344  0.72348  0.32867  1.0000
  H   H1279     1.0  0.28493  0.56484  0.41507  1.0000
  H   H1280     1.0  0.14676  0.70267  0.21204  1.0000
  H   H1281     1.0  0.11236  0.53044  0.25846  1.0000
  C   C724      1.0  0.16442  0.51139  0.28967  1.0000
  H   H1282     1.0  0.28455  0.72692  0.40671  1.0000
  H   H1283     1.0  0.25532  0.56344  0.44040  1.0000
  C   C725      1.0  0.30948  0.71401  0.43259  1.0000
  C   C726      1.0  0.31981  0.61666  0.39245  1.0000
  H   H1284     1.0  0.09619  0.52072  0.22620  1.0000
  H   H1285     1.0  0.16926  0.70921  0.44309  1.0000
  H   H1286     1.0  0.06948  0.55427  0.17933  1.0000
  C   C727      1.0  0.08526  0.51745  0.19576  1.0000
  C   C728      1.0  0.19747  0.54041  0.26723  1.0000
  C   C729      1.0  0.21374  0.54035  0.24974  1.0000
  H   H1287     1.0  0.18230  0.51361  0.31040  1.0000
  N   N43       1.0  0.99954  0.60820  0.99791  1.0000
  H   H1288     1.0  0.31806  0.65954  0.40405  1.0000
  N   N44       1.0  0.18831  0.48545  0.11181  1.0000
  H   H1289     1.0  0.26609  0.72985  0.29120  1.0000
  C   C730      1.0  0.16611  0.72153  0.17748  1.0000
  H   H1290     1.0  0.28030  0.73071  0.43948  1.0000
  H   H1291     1.0  0.02037  0.66635  0.11434  1.0000
  C   C731      1.0  0.31833  0.69843  0.40354  1.0000
  H   H1292     1.0  0.03386  0.55018  0.37528  1.0000
  N   N45       1.0  0.31450  0.71722  0.41080  1.0000
  H   H1293     1.0  0.28862  0.69739  0.40049  1.0000
  H   H1294     1.0  0.05688  0.49527  0.39919  1.0000
  C   C732      1.0  0.03281  0.65453  0.11180  1.0000
  C   C733      1.0  0.03594  0.71630  0.05662  1.0000
  H   H1295     1.0  0.01158  0.64383  0.99503  1.0000
  H   H1296     1.0  0.06192  0.51503  0.27243  1.0000
  C   C734      1.0  0.29899  0.71062  0.22961  1.0000
  H   H1297     1.0  0.03318  0.59607  0.12478  1.0000
  H   H1298     1.0  0.10416  0.49649  0.23621  1.0000
  H   H1299     1.0  0.03652  0.48777  0.41506  1.0000
  C   C735      1.0  0.17938  0.48420  0.31342  1.0000
  H   H1300     1.0  0.29335  0.67605  0.25474  1.0000
  H   H1301     1.0  0.18260  0.72224  0.19973  1.0000
  H   H1302     1.0  0.32275  0.69206  0.29832  1.0000
  C   C736      1.0  0.18123  0.72269  0.13341  1.0000
  C   C737      1.0  0.31329  0.68957  0.27229  1.0000
  C   C738      1.0  0.31833  0.61661  0.41219  1.0000
  H   H1303     1.0  0.16246  0.71911  0.47215  1.0000
  H   H1304     1.0  0.15797  0.50342  0.18661  1.0000
  H   H1305     1.0  0.13173  0.72016  0.46297  1.0000
  H   H1306     1.0  0.30287  0.72320  0.37395  1.0000
  H   H1307     1.0  0.21791  0.48787  0.09864  1.0000
  S   S161      1.0  0.09258  0.48623  0.37217  1.0000
  H   H1308     1.0  0.28145  0.59400  0.47659  1.0000
  C   C739      1.0  0.03492  0.60901  0.98031  1.0000
  H   H1309     1.0  0.30096  0.69542  0.22785  1.0000
  H   H1310     1.0  0.23179  0.72500  0.30425  1.0000
  H   H1311     1.0  0.31087  0.67467  0.27862  1.0000
  H   H1312     1.0  0.28150  0.73106  0.24632  1.0000
  H   H1313     1.0  0.32459  0.70044  0.38797  1.0000
  H   H1314     1.0  0.26478  0.64720  0.46998  1.0000
  C   C740      1.0  0.99660  0.59261  0.98834  1.0000
  H   H1315     1.0  0.31656  0.58783  0.47816  1.0000
  C   C741      1.0  0.99316  0.62746  0.98594  1.0000
  C   C742      1.0  0.06862  0.64660  0.54356  1.0000
  C   C743      1.0  0.12113  0.73158  0.58964  1.0000
  N   N46       1.0  0.03156  0.59462  0.54655  1.0000
  C   C744      1.0  0.08762  0.63774  0.53703  1.0000
  H   H1316     1.0  0.22296  0.72599  0.66978  1.0000
  S   S162      1.0  0.28960  0.66647  0.67597  1.0000
  Fe  Fe81      1.0  0.00494  0.68660  0.60629  1.0000
  S   S163      1.0  0.01827  0.69369  0.57518  1.0000
  S   S164      1.0  0.00415  0.70517  0.62846  1.0000
  Fe  Fe82      1.0  0.03018  0.66201  0.57782  1.0000
  S   S165      1.0  0.01838  0.65525  0.60952  1.0000
  H   H1317     1.0  0.27246  0.72253  0.52194  1.0000
  H   H1318     1.0  0.29510  0.59620  0.50766  1.0000
  H   H1319     1.0  0.05589  0.57228  0.55358  1.0000
  H   H1320     1.0  0.23574  0.63893  0.67400  1.0000
  C   C745      1.0  0.17672  0.73317  0.59979  1.0000
  Fe  Fe83      1.0  0.24595  0.64501  0.59269  1.0000
  S   S166      1.0  0.27193  0.63285  0.60793  1.0000
  Fe  Fe84      1.0  0.21949  0.63653  0.56759  1.0000
  S   S167      1.0  0.20421  0.66718  0.56281  1.0000
  S   S168      1.0  0.20905  0.61314  0.55777  1.0000
  Fe  Fe85      1.0  0.23387  0.67444  0.55881  1.0000
  S   S169      1.0  0.24360  0.69887  0.53659  1.0000
  S   S170      1.0  0.24945  0.64389  0.56110  1.0000
  S   S171      1.0  0.21748  0.63452  0.59952  1.0000
  C   C746      1.0  0.26753  0.69367  0.52445  1.0000
  C   C747      1.0  0.01656  0.58169  0.55172  1.0000
  S   S172      1.0  0.06190  0.65085  0.56745  1.0000
  C   C748      1.0  0.23892  0.58699  0.49951  1.0000
  C   C749      1.0  0.27547  0.67535  0.51996  1.0000
  H   H1321     1.0  0.03720  0.61959  0.52510  1.0000
  H   H1322     1.0  0.26692  0.66408  0.52433  1.0000
  C   C750      1.0  0.18805  0.61916  0.50054  1.0000
  C   C751      1.0  0.18208  0.60554  0.51637  1.0000
  C   C752      1.0  0.18808  0.60425  0.53407  1.0000
  C   C753      1.0  0.19948  0.61697  0.53629  1.0000
  C   C754      1.0  0.20447  0.63130  0.52078  1.0000
  C   C755      1.0  0.19920  0.63205  0.50289  1.0000
  H   H1323     1.0  0.17371  0.59536  0.51472  1.0000
  H   H1324     1.0  0.18421  0.59306  0.54599  1.0000
  H   H1325     1.0  0.21318  0.64121  0.52234  1.0000
  C   C756      1.0  0.24389  0.63553  0.68615  1.0000
  C   C757      1.0  0.05516  0.65153  0.53111  1.0000
  C   C758      1.0  0.06055  0.64730  0.51239  1.0000
  S   S173      1.0  0.23214  0.67612  0.58983  1.0000
  H   H1326     1.0  0.04056  0.65855  0.53591  1.0000
  H   H1327     1.0  0.00410  0.59441  0.97310  1.0000
  H   H1328     1.0  0.01451  0.57207  0.58282  1.0000
  H   H1329     1.0  0.00268  0.70753  0.67798  1.0000
  C   C759      1.0  0.28709  0.58203  0.48741  1.0000
  C   C760      1.0  0.02326  0.71808  0.62595  1.0000
  H   H1330     1.0  0.06596  0.72598  0.59724  1.0000
  H   H1331     1.0  0.00519  0.54084  0.58461  1.0000
  H   H1332     1.0  0.21561  0.57257  0.51686  1.0000
  C   C761      1.0  0.28579  0.65866  0.65555  1.0000
  C   C762      1.0  0.26774  0.66478  0.64951  1.0000
  C   C763      1.0  0.26352  0.65750  0.63450  1.0000
  C   C764      1.0  0.27724  0.64374  0.62560  1.0000
  C   C765      1.0  0.29541  0.63789  0.63144  1.0000
  C   C766      1.0  0.29984  0.64567  0.64596  1.0000
  H   H1333     1.0  0.25678  0.67477  0.65686  1.0000
  H   H1334     1.0  0.24946  0.66199  0.63022  1.0000
  H   H1335     1.0  0.30605  0.62711  0.62489  1.0000
  H   H1336     1.0  0.25360  0.60597  0.68391  1.0000
  H   H1337     1.0  0.00307  0.66256  0.96419  1.0000
  H   H1338     1.0  0.29797  0.60518  0.66626  1.0000
  H   H1339     1.0  0.08889  0.56949  0.52371  1.0000
  H   H1340     1.0  0.27579  0.58525  0.67003  1.0000
  H   H1341     1.0  0.03929  0.70817  0.60011  1.0000
  H   H1342     1.0  0.09900  0.59017  0.52399  1.0000
  H   H1343     1.0  0.14078  0.72551  0.79884  1.0000
  C   C767      1.0  0.27853  0.70836  0.51851  1.0000
  C   C768      1.0  0.03883  0.71695  0.61067  1.0000
  H   H1344     1.0  0.12406  0.65574  0.50208  1.0000
  H   H1345     1.0  0.23095  0.70126  0.66774  1.0000
  C   C769      1.0  0.15095  0.66604  0.50019  1.0000
  H   H1346     1.0  0.24987  0.70859  0.63594  1.0000
  C   C770      1.0  0.25874  0.61719  0.50132  1.0000
  C   C771      1.0  0.07935  0.63799  0.50599  1.0000
  C   C772      1.0  0.00398  0.55202  0.57152  1.0000
  H   H1347     1.0  0.03180  0.62421  0.97305  1.0000
  H   H1348     1.0  0.03410  0.59955  0.97035  1.0000
  H   H1349     1.0  0.04757  0.59880  0.60621  1.0000
  H   H1350     1.0  0.15697  0.70407  0.49446  1.0000
  H   H1351     1.0  0.26743  0.57939  0.58126  1.0000
  H   H1352     1.0  0.27978  0.56968  0.48840  1.0000
  C   C773      1.0  0.20585  0.71432  0.64100  1.0000
  H   H1353     1.0  0.14563  0.63746  0.49989  1.0000
  H   H1354     1.0  0.03976  0.62107  0.59100  1.0000
  H   H1355     1.0  0.28741  0.57404  0.51746  1.0000
  H   H1356     1.0  0.29860  0.56989  0.67111  1.0000
  H   H1357     1.0  0.30782  0.60342  0.74912  1.0000
  H   H1358     1.0  0.31863  0.61225  0.57355  1.0000
  C   C774      1.0  0.28388  0.57361  0.67944  1.0000
  C   C775      1.0  0.09297  0.63337  0.51830  1.0000
  H   H1359     1.0  0.00007  0.62776  0.97058  1.0000
  H   H1360     1.0  0.22941  0.60121  0.49683  1.0000
  C   C776      1.0  0.27312  0.63142  0.49715  1.0000
  H   H1361     1.0  0.05056  0.57361  0.53056  1.0000
  H   H1362     1.0  0.31397  0.64125  0.65006  1.0000
  C   C777      1.0  0.00507  0.63919  0.51495  1.0000
  H   H1363     1.0  0.32093  0.50128  0.77807  1.0000
  H   H1364     1.0  0.05899  0.59622  0.57210  1.0000
  H   H1365     1.0  0.09809  0.63385  0.54662  1.0000
  H   H1366     1.0  0.32056  0.57972  0.59321  1.0000
  H   H1367     1.0  0.25008  0.71041  0.68736  1.0000
  H   H1368     1.0  0.03290  0.55670  0.56879  1.0000
  H   H1369     1.0  0.06466  0.65601  0.60893  1.0000
  C   C778      1.0  0.28386  0.58776  0.50747  1.0000
  H   H1370     1.0  0.27750  0.62828  0.69949  1.0000
  H   H1371     1.0  0.16400  0.72909  0.78464  1.0000
  C   C779      1.0  0.22868  0.71939  0.61090  1.0000
  C   C780      1.0  0.23495  0.71577  0.66312  1.0000
  H   H1372     1.0  0.00156  0.62612  0.54472  1.0000
  C   C781      1.0  0.19628  0.68190  0.65695  1.0000
  C   C782      1.0  0.05399  0.72702  0.60911  1.0000
  C   C783      1.0  0.26600  0.65011  0.48413  1.0000
  H   H1373     1.0  0.26893  0.62211  0.66863  1.0000
  C   C784      1.0  0.27425  0.55594  0.68309  1.0000
  H   H1374     1.0  0.30661  0.61135  0.71256  1.0000
  H   H1375     1.0  0.30021  0.59607  0.60326  1.0000
  H   H1376     1.0  0.25178  0.65740  0.49103  1.0000
  H   H1377     1.0  0.31853  0.62251  0.59409  1.0000
  S   S174      1.0  0.31888  0.65025  0.71936  1.0000
  H   H1378     1.0  0.28117  0.57645  0.54785  1.0000
  H   H1379     1.0  0.05002  0.65101  0.50286  1.0000
  H   H1380     1.0  0.01421  0.64909  0.51678  1.0000
  H   H1381     1.0  0.19719  0.68381  0.67158  1.0000
  H   H1382     1.0  0.03503  0.61966  0.55692  1.0000
  C   C785      1.0  0.25290  0.71537  0.67153  1.0000
  C   C786      1.0  0.04354  0.59555  0.57816  1.0000
  H   H1383     1.0  0.04242  0.58025  0.58345  1.0000
  H   H1384     1.0  0.14330  0.67823  0.50756  1.0000
  H   H1385     1.0  0.24951  0.58521  0.48619  1.0000
  N   N47       1.0  0.11609  0.67824  0.59083  1.0000
  C   C787      1.0  0.11273  0.69816  0.59577  1.0000
  C   C788      1.0  0.10125  0.66682  0.60357  1.0000
  C   C789      1.0  0.13593  0.66813  0.59493  1.0000
  C   C790      1.0  0.11591  0.67880  0.56985  1.0000
  C   C791      1.0  0.09736  0.68982  0.56211  1.0000
  C   C792      1.0  0.12736  0.71136  0.58460  1.0000
  C   C793      1.0  0.14166  0.64662  0.59256  1.0000
  C   C794      1.0  0.08067  0.67814  0.60999  1.0000
  C   C795      1.0  0.06635  0.66456  0.61940  1.0000
  C   C796      1.0  0.09980  0.69046  0.54042  1.0000
  H   H1386     1.0  0.09033  0.57564  0.54643  1.0000
  C   C797      1.0  0.16141  0.63772  0.59825  1.0000
  H   H1387     1.0  0.11285  0.69700  0.61142  1.0000
  H   H1388     1.0  0.09819  0.70626  0.59357  1.0000
  H   H1389     1.0  0.09963  0.65503  0.59655  1.0000
  H   H1390     1.0  0.10630  0.65948  0.61732  1.0000
  H   H1391     1.0  0.13725  0.66897  0.60986  1.0000
  H   H1392     1.0  0.14747  0.67542  0.58524  1.0000
  H   H1393     1.0  0.12856  0.68469  0.56064  1.0000
  H   H1394     1.0  0.11772  0.66396  0.56691  1.0000
  H   H1395     1.0  0.09370  0.70487  0.56473  1.0000
  H   H1396     1.0  0.08506  0.68225  0.56890  1.0000
  H   H1397     1.0  0.14194  0.70566  0.58840  1.0000
  H   H1398     1.0  0.12844  0.71281  0.56883  1.0000
  H   H1399     1.0  0.14282  0.64515  0.57735  1.0000
  H   H1400     1.0  0.13099  0.63793  0.60165  1.0000
  H   H1401     1.0  0.08118  0.68694  0.62074  1.0000
  H   H1402     1.0  0.07472  0.68800  0.59786  1.0000
  H   H1403     1.0  0.07134  0.65465  0.63211  1.0000
  H   H1404     1.0  0.05196  0.67308  0.62425  1.0000
  H   H1405     1.0  0.23523  0.55705  0.50431  1.0000
  H   H1406     1.0  0.10280  0.67564  0.53712  1.0000
  H   H1407     1.0  0.08620  0.69818  0.53528  1.0000
  H   H1408     1.0  0.11179  0.69811  0.53257  1.0000
  H   H1409     1.0  0.27657  0.65998  0.48146  1.0000
  H   H1410     1.0  0.21616  0.72057  0.60365  1.0000
  S   S175      1.0  0.13511  0.59328  0.48033  1.0000
  H   H1411     1.0  0.17278  0.64556  0.58914  1.0000
  H   H1412     1.0  0.16113  0.63818  0.61360  1.0000
  H   H1413     1.0  0.16534  0.62247  0.59617  1.0000
  S   S176      1.0  0.17660  0.67584  0.61392  1.0000
  H   H1414     1.0  0.21797  0.57396  0.49133  1.0000
  H   H1415     1.0  0.23577  0.70399  0.61245  1.0000
  C   C798      1.0  0.02291  0.72969  0.63947  1.0000
  C   C799      1.0  0.28498  0.57946  0.69870  1.0000
  H   H1416     1.0  0.29535  0.56760  0.70563  1.0000
  H   H1417     1.0  0.27564  0.60136  0.56885  1.0000
  C   C800      1.0  0.24336  0.73083  0.59660  1.0000
  H   H1418     1.0  0.99588  0.61258  0.52903  1.0000
  H   H1419     1.0  0.18447  0.67982  0.49080  1.0000
  C   C801      1.0  0.00628  0.62128  0.53064  1.0000
  H   H1420     1.0  0.32358  0.51208  0.73797  1.0000
  H   H1421     1.0  0.02943  0.60196  0.51619  1.0000
  H   H1422     1.0  0.14660  0.69868  0.63658  1.0000
  H   H1423     1.0  0.27422  0.55175  0.66914  1.0000
  H   H1424     1.0  0.01660  0.57493  0.53917  1.0000
  C   C802      1.0  0.26398  0.60293  0.53400  1.0000
  C   C803      1.0  0.17045  0.70083  0.61292  1.0000
  H   H1425     1.0  0.28735  0.62497  0.48966  1.0000
  H   H1426     1.0  0.17868  0.48540  0.97528  1.0000
  C   C804      1.0  0.03800  0.60579  0.59553  1.0000
  H   H1427     1.0  0.27742  0.60728  0.73707  1.0000
  H   H1428     1.0  0.26292  0.61108  0.71269  1.0000
  H   H1429     1.0  0.19290  0.70764  0.58896  1.0000
  C   C805      1.0  0.31627  0.59259  0.60029  1.0000
  C   C806      1.0  0.30505  0.68673  0.50292  1.0000
  H   H1430     1.0  0.31370  0.58605  0.71390  1.0000
  H   H1431     1.0  0.18129  0.68753  0.65415  1.0000
  H   H1432     1.0  0.25900  0.55915  0.69050  1.0000
  H   H1433     1.0  0.30683  0.61924  0.67843  1.0000
  H   H1434     1.0  0.28227  0.54359  0.69198  1.0000
  H   H1435     1.0  0.28125  0.58182  0.73653  1.0000
  C   C807      1.0  0.26483  0.59209  0.56978  1.0000
  C   C808      1.0  0.27305  0.61449  0.69903  1.0000
  H   H1436     1.0  0.20088  0.71710  0.65592  1.0000
  H   H1437     1.0  0.26544  0.70530  0.66522  1.0000
  H   H1438     1.0  0.25003  0.60019  0.57395  1.0000
  N   N48       1.0  0.26395  0.59832  0.51451  1.0000
  C   C809      1.0  0.26662  0.58544  0.55062  1.0000
  H   H1439     1.0  0.25489  0.57047  0.52189  1.0000
  H   H1440     1.0  0.23650  0.58975  0.52872  1.0000
  H   H1441     1.0  0.27582  0.61091  0.53330  1.0000
  H   H1442     1.0  0.25553  0.57627  0.55257  1.0000
  H   H1443     1.0  0.10742  0.62597  0.51355  1.0000
  S   S177      1.0  0.08462  0.63121  0.48310  1.0000
  H   H1444     1.0  0.01081  0.73102  0.65115  1.0000
  C   C810      1.0  0.15495  0.70829  0.62621  1.0000
  H   H1445     1.0  0.06635  0.60064  0.51656  1.0000
  C   C811      1.0  0.02704  0.60916  0.52894  1.0000
  C   C812      1.0  0.30108  0.59068  0.75005  1.0000
  H   H1446     1.0  0.27509  0.63536  0.51051  1.0000
  H   H1447     1.0  0.00179  0.59016  0.55492  1.0000
  C   C813      1.0  0.08767  0.58152  0.53152  1.0000
  H   H1448     1.0  0.22544  0.68623  0.64495  1.0000
  C   C814      1.0  0.30438  0.60438  0.67916  1.0000
  C   C815      1.0  0.01823  0.56560  0.56957  1.0000
  H   H1449     1.0  0.26039  0.70664  0.58323  1.0000
  C   C816      1.0  0.23903  0.72095  0.64079  1.0000
  Fe  Fe86      1.0  0.20396  0.66575  0.59416  1.0000
  N   N49       1.0  0.22186  0.72522  0.63050  1.0000
  C   C817      1.0  0.18110  0.71331  0.59945  1.0000
  H   H1450     1.0  0.20420  0.64239  0.49074  1.0000
  H   H1451     1.0  0.25724  0.61495  0.48702  1.0000
  C   C818      1.0  0.29736  0.70480  0.50809  1.0000
  H   H1452     1.0  0.31318  0.52432  0.70547  1.0000
  C   C819      1.0  0.21069  0.69221  0.64176  1.0000
  Fe  Fe87      1.0  0.31804  0.65850  0.68754  1.0000
  C   C820      1.0  0.29419  0.67191  0.50906  1.0000
  H   H1453     1.0  0.06707  0.60616  0.53951  1.0000
  S   S178      1.0  0.00489  0.65462  0.56893  1.0000
  H   H1454     1.0  0.31267  0.57796  0.74838  1.0000
  C   C821      1.0  0.05122  0.58269  0.54106  1.0000
  C   C822      1.0  0.24876  0.58585  0.51704  1.0000
  H   H1455     1.0  0.29205  0.58799  0.76454  1.0000
  H   H1456     1.0  0.01546  0.60858  0.57030  1.0000
  H   H1457     1.0  0.02274  0.60514  0.60254  1.0000
  C   C823      1.0  0.22620  0.57165  0.50329  1.0000
  H   H1458     1.0  0.27075  0.57875  0.70840  1.0000
  C   C824      1.0  0.28854  0.59437  0.73453  1.0000
  C   C825      1.0  0.06772  0.59429  0.53175  1.0000
  H   H1459     1.0  0.24959  0.64852  0.68667  1.0000
  C   C826      1.0  0.26043  0.61856  0.68319  1.0000
  C   C827      1.0  0.30084  0.59782  0.71407  1.0000
  C   C828      1.0  0.13848  0.65035  0.50643  1.0000
  H   H1460     1.0  0.23375  0.63195  0.69977  1.0000
  H   H1461     1.0  0.25019  0.61259  0.53868  1.0000
  N   N50       1.0  0.29068  0.59875  0.69744  1.0000
  H   H1462     1.0  0.16480  0.66008  0.50548  1.0000
  C   C829      1.0  0.03069  0.60532  0.56272  1.0000
  H   H1463     1.0  0.30009  0.65793  0.50520  1.0000
  H   H1464     1.0  0.21000  0.68881  0.62764  1.0000
  H   H1465     1.0  0.19963  0.66627  0.65634  1.0000
  H   H1466     1.0  0.24428  0.62479  0.50739  1.0000
  H   H1467     1.0  0.11927  0.73096  0.60543  1.0000
  H   H1468     1.0  0.19274  0.71964  0.63413  1.0000
  H   H1469     1.0  0.21823  0.68529  0.48793  1.0000
  C   C830      1.0  0.15052  0.72813  0.62648  1.0000
  H   H1470     1.0  0.31166  0.54972  0.79014  1.0000
  H   H1471     1.0  0.13632  0.64597  0.52234  1.0000
  H   H1472     1.0  0.24039  0.71995  0.57153  1.0000
  H   H1473     1.0  0.00710  0.54476  0.55881  1.0000
  H   H1474     1.0  0.00992  0.63515  0.50044  1.0000
  H   H1475     1.0  0.30571  0.71629  0.50340  1.0000
  H   H1476     1.0  0.99520  0.70287  0.70369  1.0000
  H   H1477     1.0  0.25668  0.72997  0.66864  1.0000
  H   H1478     1.0  0.32493  0.54250  0.68886  1.0000
  H   H1479     1.0  0.01888  0.48707  0.48842  1.0000
  H   H1480     1.0  0.12573  0.72405  0.50551  1.0000
  C   C831      1.0  0.99253  0.66349  0.97778  1.0000
  H   H1481     1.0  0.32375  0.57594  0.68155  1.0000
  H   H1482     1.0  0.26194  0.72998  0.56867  1.0000
  H   H1483     1.0  0.31913  0.53122  0.76171  1.0000
  H   H1484     1.0  0.31502  0.56330  0.49001  1.0000
  C   C832      1.0  0.12478  0.72962  0.49011  1.0000
  H   H1485     1.0  0.99465  0.64809  0.65051  1.0000
  C   C833      1.0  0.25201  0.72121  0.57899  1.0000
  H   H1486     1.0  0.32389  0.54574  0.72272  1.0000
  C   C834      1.0  0.32468  0.59135  0.67676  1.0000
  H   H1487     1.0  0.12485  0.70213  0.48345  1.0000
  C   C835      1.0  0.32433  0.60969  0.58721  1.0000
  H   H1488     1.0  0.25542  0.73190  0.60351  1.0000
  H   H1489     1.0  0.32161  0.58921  0.61418  1.0000
  H   H1490     1.0  0.24696  0.73330  0.63673  1.0000
  H   H1491     1.0  0.99333  0.66826  0.66197  1.0000
  H   H1492     1.0  0.06575  0.60800  0.96999  1.0000
  C   C836      1.0  0.30862  0.57575  0.47995  1.0000
  H   H1493     1.0  0.99272  0.64462  0.67639  1.0000
  H   H1494     1.0  0.01501  0.51252  0.47914  1.0000
  C   C837      1.0  0.15518  0.70664  0.47912  1.0000
  Fe  Fe88      1.0  0.08123  0.78132  0.11372  1.0000
  S   S179      1.0  0.10019  0.77329  0.08656  1.0000
  S   S180      1.0  0.06453  0.81148  0.11257  1.0000
  H   H1495     1.0  0.00289  0.85473  0.11209  1.0000
  Fe  Fe89      1.0  0.12368  0.76499  0.10471  1.0000
  S   S181      1.0  0.15314  0.77403  0.09315  1.0000
  S   S182      1.0  0.07183  0.75264  0.12399  1.0000
  S   S183      1.0  0.10499  0.77432  0.13121  1.0000
  C   C838      1.0  0.32120  0.90023  0.29077  1.0000
  C   C839      1.0  0.27126  0.88244  0.25775  1.0000
  H   H1496     1.0  0.08271  0.85667  0.98287  1.0000
  C   C840      1.0  0.09741  0.85137  0.00759  1.0000
  C   C841      1.0  0.09159  0.90394  0.46357  1.0000
  C   C842      1.0  0.18929  0.74305  0.16199  1.0000
  H   H1497     1.0  0.03040  0.90903  0.00517  1.0000
  S   S184      1.0  0.26454  0.91947  0.20812  1.0000
  H   H1498     1.0  0.21793  0.83682  0.01851  1.0000
  H   H1499     1.0  0.31379  0.89438  0.28184  1.0000
  H   H1500     1.0  0.23061  0.96142  0.99521  1.0000
  Fe  Fe90      1.0  0.24191  0.86250  0.08541  1.0000
  S   S185      1.0  0.23470  0.89044  0.09618  1.0000
  S   S186      1.0  0.26205  0.86156  0.05691  1.0000
  Fe  Fe91      1.0  0.21412  0.84303  0.11877  1.0000
  S   S187      1.0  0.20621  0.86960  0.13257  1.0000
  S   S188      1.0  0.19645  0.81925  0.13324  1.0000
  Fe  Fe92      1.0  0.20408  0.88526  0.10243  1.0000
  S   S189      1.0  0.17732  0.90579  0.09457  1.0000
  Fe  Fe93      1.0  0.23796  0.87199  0.12511  1.0000
  S   S190      1.0  0.26124  0.87765  0.13967  1.0000
  S   S191      1.0  0.21099  0.85881  0.08912  1.0000
  S   S192      1.0  0.24616  0.84387  0.11386  1.0000
  Fe  Fe94      1.0  0.10614  0.91209  0.00742  1.0000
  S   S193      1.0  0.11907  0.93851  0.00472  1.0000
  S   S194      1.0  0.08723  0.90163  0.03547  1.0000
  Fe  Fe95      1.0  0.14730  0.91969  0.99554  1.0000
  S   S195      1.0  0.17563  0.91714  0.00552  1.0000
  S   S196      1.0  0.13469  0.89297  0.99997  1.0000
  C   C843      1.0  0.17633  0.90812  0.06999  1.0000
  C   C844      1.0  0.19269  0.90132  0.05728  1.0000
  C   C845      1.0  0.19228  0.90420  0.03754  1.0000
  C   C846      1.0  0.17521  0.91303  0.03048  1.0000
  C   C847      1.0  0.15851  0.91905  0.04328  1.0000
  C   C848      1.0  0.15917  0.91689  0.06299  1.0000
  H   H1501     1.0  0.20593  0.89447  0.06255  1.0000
  H   H1502     1.0  0.20526  0.89971  0.02772  1.0000
  H   H1503     1.0  0.14530  0.92598  0.03790  1.0000
  H   H1504     1.0  0.14645  0.92218  0.07274  1.0000
  H   H1505     1.0  0.00999  0.96005  0.07859  1.0000
  H   H1506     1.0  0.29252  0.98032  0.15334  1.0000
  C   C849      1.0  0.28760  0.87755  0.06979  1.0000
  C   C850      1.0  0.28256  0.87232  0.05414  1.0000
  C   C851      1.0  0.29394  0.87589  0.03588  1.0000
  C   C852      1.0  0.30978  0.88533  0.03305  1.0000
  H   H1507     1.0  0.13052  0.74341  0.18726  1.0000
  H   H1508     1.0  0.27910  0.87458  0.08402  1.0000
  C   C853      1.0  0.26138  0.89046  0.15808  1.0000
  C   C854      1.0  0.24462  0.89645  0.17077  1.0000
  C   C855      1.0  0.24579  0.90552  0.18589  1.0000
  C   C856      1.0  0.26363  0.90893  0.18832  1.0000
  C   C857      1.0  0.28031  0.90336  0.17535  1.0000
  C   C858      1.0  0.27921  0.89398  0.16047  1.0000
  H   H1509     1.0  0.23083  0.89375  0.16917  1.0000
  H   H1510     1.0  0.23279  0.90981  0.19585  1.0000
  H   H1511     1.0  0.29410  0.90593  0.17702  1.0000
  H   H1512     1.0  0.29226  0.88934  0.15074  1.0000
  H   H1513     1.0  0.28013  0.95540  0.02875  1.0000
  H   H1514     1.0  0.00491  0.91091  0.10525  1.0000
  H   H1515     1.0  0.06454  0.91082  0.00487  1.0000
  C   C859      1.0  0.02404  0.89927  0.03580  1.0000
  C   C860      1.0  0.03139  0.89449  0.05299  1.0000
  C   C861      1.0  0.05079  0.89546  0.05278  1.0000
  C   C862      1.0  0.06281  0.90135  0.03543  1.0000
  C   C863      1.0  0.05537  0.90632  0.01831  1.0000
  C   C864      1.0  0.03604  0.90528  0.01851  1.0000
  H   H1516     1.0  0.02221  0.88984  0.06638  1.0000
  H   H1517     1.0  0.05653  0.89152  0.06606  1.0000
  C   C865      1.0  0.18381  0.80829  0.12104  1.0000
  C   C866      1.0  0.16533  0.80423  0.12984  1.0000
  C   C867      1.0  0.15554  0.79417  0.12129  1.0000
  C   C868      1.0  0.16429  0.78775  0.10398  1.0000
  C   C869      1.0  0.18268  0.79197  0.09512  1.0000
  C   C870      1.0  0.19237  0.80222  0.10354  1.0000
  H   H1518     1.0  0.15864  0.80873  0.14345  1.0000
  H   H1519     1.0  0.14138  0.79111  0.12824  1.0000
  H   H1520     1.0  0.18961  0.78706  0.08175  1.0000
  H   H1521     1.0  0.20667  0.80503  0.09672  1.0000
  C   C871      1.0  0.03932  0.81616  0.11441  1.0000
  C   C872      1.0  0.02854  0.80146  0.11724  1.0000
  C   C873      1.0  0.00835  0.80615  0.11798  1.0000
  C   C874      1.0  0.12005  0.77341  0.17856  1.0000
  C   C875      1.0  0.00991  0.83994  0.11330  1.0000
  C   C876      1.0  0.02992  0.83534  0.11276  1.0000
  H   H1522     1.0  0.03575  0.78660  0.11875  1.0000
  C   C877      1.0  0.31638  0.96969  0.29498  1.0000
  H   H1523     1.0  0.00785  0.78168  0.08887  1.0000
  H   H1524     1.0  0.03818  0.84672  0.11080  1.0000
  H   H1525     1.0  0.31068  0.91178  0.29728  1.0000
  S   S197      1.0  0.32134  0.94337  0.00459  1.0000
  H   H1526     1.0  0.99987  0.79497  0.12009  1.0000
  H   H1527     1.0  0.08726  0.91432  0.45083  1.0000
  H   H1528     1.0  0.19224  0.76068  0.13263  1.0000
  H   H1529     1.0  0.26084  0.86994  0.23850  1.0000
  H   H1530     1.0  0.14486  0.83997  0.99069  1.0000
  H   H1531     1.0  0.20702  0.93097  0.07734  1.0000
  H   H1532     1.0  0.15861  0.76102  0.18190  1.0000
  H   H1533     1.0  0.24070  0.94029  0.98464  1.0000
  H   H1534     1.0  0.03370  0.74696  0.04738  1.0000
  H   H1535     1.0  0.31826  0.88828  0.01883  1.0000
  H   H1536     1.0  0.31312  0.96342  0.06874  1.0000
  H   H1537     1.0  0.28204  0.90346  0.00333  1.0000
  H   H1538     1.0  0.02796  0.95349  0.01257  1.0000
  H   H1539     1.0  0.27637  0.85313  0.25350  1.0000
  C   C878      1.0  0.23549  0.73597  0.29142  1.0000
  C   C879      1.0  0.29744  0.93300  0.11492  1.0000
  H   H1540     1.0  0.28949  0.82144  0.20358  1.0000
  H   H1541     1.0  0.28252  0.76441  0.37816  1.0000
  H   H1542     1.0  0.26319  0.87636  0.00908  1.0000
  H   H1543     1.0  0.15578  0.76964  0.15775  1.0000
  H   H1544     1.0  0.26032  0.96082  0.00674  1.0000
  H   H1545     1.0  0.27041  0.84604  0.22152  1.0000
  Fe  Fe96      1.0  0.29160  0.92736  0.21397  1.0000
  C   C880      1.0  0.02725  0.73535  0.11052  1.0000
  H   H1546     1.0  0.22003  0.76210  0.15923  1.0000
  H   H1547     1.0  0.31105  0.75174  0.31113  1.0000
  H   H1548     1.0  0.26233  0.85088  0.17949  1.0000
  H   H1549     1.0  0.29054  0.87134  0.02386  1.0000
  H   H1550     1.0  0.30734  0.92110  0.12230  1.0000
  C   C881      1.0  0.09239  0.86336  0.98857  1.0000
  H   H1551     1.0  0.27333  0.93484  0.10013  1.0000
  H   H1552     1.0  0.10623  0.90560  0.46503  1.0000
  C   C882      1.0  0.08647  0.78639  0.02901  1.0000
  C   C883      1.0  0.28442  0.75062  0.37291  1.0000
  H   H1553     1.0  0.16421  0.75132  0.13387  1.0000
  H   H1554     1.0  0.19129  0.74549  0.17609  1.0000
  C   C884      1.0  0.27433  0.86768  0.24454  1.0000
  H   H1555     1.0  0.07353  0.81489  0.01729  1.0000
  H   H1556     1.0  0.14796  0.85014  0.01036  1.0000
  H   H1557     1.0  0.03427  0.96148  0.05091  1.0000
  H   H1558     1.0  0.30672  0.87186  0.18931  1.0000
  C   C885      1.0  0.21575  0.85233  0.01915  1.0000
  H   H1559     1.0  0.29484  0.82831  0.23801  1.0000
  H   H1560     1.0  0.30724  0.96233  0.30690  1.0000
  C   C886      1.0  0.30165  0.73643  0.37986  1.0000
  H   H1561     1.0  0.08884  0.82445  0.07817  1.0000
  H   H1562     1.0  0.17803  0.86480  0.00687  1.0000
  H   H1563     1.0  0.10489  0.83689  0.00478  1.0000
  H   H1564     1.0  0.24578  0.84979  0.02220  1.0000
  H   H1565     1.0  0.09219  0.88914  0.46106  1.0000
  H   H1566     1.0  0.31295  0.83996  0.24119  1.0000
  H   H1567     1.0  0.31465  0.74311  0.37373  1.0000
  C   C887      1.0  0.18624  0.85427  0.99745  1.0000
  H   H1568     1.0  0.06824  0.84603  0.01647  1.0000
  H   H1569     1.0  0.07704  0.77952  0.02316  1.0000
  C   C888      1.0  0.28323  0.92376  0.10836  1.0000
  H   H1570     1.0  0.28416  0.88072  0.26459  1.0000
  C   C889      1.0  0.31392  0.94638  0.14541  1.0000
  H   H1571     1.0  0.16140  0.82664  0.00649  1.0000
  H   H1572     1.0  0.07276  0.86522  0.02555  1.0000
  H   H1573     1.0  0.02728  0.97772  0.01616  1.0000
  C   C890      1.0  0.26231  0.97410  0.18039  1.0000
  H   H1574     1.0  0.23496  0.95610  0.03281  1.0000
  C   C891      1.0  0.29189  0.87010  0.22802  1.0000
  H   H1575     1.0  0.25514  0.83283  0.19980  1.0000
  H   H1576     1.0  0.00707  0.74007  0.14641  1.0000
  H   H1577     1.0  0.30375  0.87218  0.23466  1.0000
  H   H1578     1.0  0.10759  0.85858  0.01193  1.0000
  H   H1579     1.0  0.22909  0.84679  0.04454  1.0000
  C   C892      1.0  0.00605  0.93157  0.07862  1.0000
  H   H1580     1.0  0.28794  0.88393  0.21829  1.0000
  H   H1581     1.0  0.32308  0.85308  0.27630  1.0000
  H   H1582     1.0  0.21137  0.82036  0.99154  1.0000
  H   H1583     1.0  0.01682  0.76106  0.07725  1.0000
  H   H1584     1.0  0.18997  0.84059  0.00734  1.0000
  H   H1585     1.0  0.02446  0.85345  0.07302  1.0000
  N   N51       1.0  0.29885  0.85384  0.21665  1.0000
  C   C893      1.0  0.21646  0.86518  0.99896  1.0000
  H   H1586     1.0  0.22562  0.74850  0.13968  1.0000
  H   H1587     1.0  0.06143  0.94406  0.02051  1.0000
  H   H1588     1.0  0.22000  0.77443  0.13479  1.0000
  H   H1589     1.0  0.05953  0.96322  0.00015  1.0000
  H   H1590     1.0  0.10387  0.81515  0.03140  1.0000
  H   H1591     1.0  0.23192  0.86402  0.99182  1.0000
  H   H1592     1.0  0.29677  0.83930  0.18303  1.0000
  H   H1593     1.0  0.30169  0.93229  0.04796  1.0000
  C   C894      1.0  0.19505  0.76072  0.14714  1.0000
  H   H1594     1.0  0.02604  0.82820  0.07235  1.0000
  C   C895      1.0  0.05661  0.73580  0.06409  1.0000
  H   H1595     1.0  0.06066  0.74965  0.06288  1.0000
  C   C896      1.0  0.09590  0.84420  0.05034  1.0000
  C   C897      1.0  0.06226  0.83912  0.05632  1.0000
  H   H1596     1.0  0.29438  0.98000  0.10919  1.0000
  C   C898      1.0  0.27357  0.96025  0.16691  1.0000
  C   C899      1.0  0.31884  0.74160  0.32142  1.0000
  H   H1597     1.0  0.11014  0.84324  0.04056  1.0000
  H   H1598     1.0  0.10471  0.77135  0.18195  1.0000
  H   H1599     1.0  0.01217  0.84654  0.05698  1.0000
  H   H1600     1.0  0.22971  0.87050  0.03059  1.0000
  H   H1601     1.0  0.27368  0.94228  0.99451  1.0000
  H   H1602     1.0  0.09125  0.85984  0.05101  1.0000
  C   C900      1.0  0.00025  0.92656  0.10047  1.0000
  C   C901      1.0  0.27344  0.94471  0.04024  1.0000
  C   C902      1.0  0.25904  0.94724  0.00256  1.0000
  C   C903      1.0  0.21064  0.93945  0.06274  1.0000
  C   C904      1.0  0.26708  0.83646  0.18786  1.0000
  H   H1603     1.0  0.12167  0.78505  0.16581  1.0000
  H   H1604     1.0  0.12182  0.80986  0.06142  1.0000
  C   C905      1.0  0.24427  0.95301  0.98853  1.0000
  C   C906      1.0  0.01796  0.76767  0.08943  1.0000
  H   H1605     1.0  0.19875  0.94044  0.05472  1.0000
  H   H1606     1.0  0.25857  0.88036  0.26929  1.0000
  H   H1607     1.0  0.06101  0.85078  0.06472  1.0000
  H   H1608     1.0  0.12154  0.81362  0.08527  1.0000
  H   H1609     1.0  0.04319  0.83369  0.03817  1.0000
  H   H1610     1.0  0.09079  0.80761  0.05432  1.0000
  H   H1611     1.0  0.00733  0.93448  0.10783  1.0000
  H   H1612     1.0  0.08928  0.77748  0.04305  1.0000
  Fe  Fe97      1.0  0.09781  0.74453  0.13867  1.0000
  H   H1613     1.0  0.31674  0.96423  0.10706  1.0000
  H   H1614     1.0  0.27998  0.93717  0.14179  1.0000
  H   H1615     1.0  0.21194  0.88021  0.00189  1.0000
  H   H1616     1.0  0.02185  0.92634  0.07508  1.0000
  H   H1617     1.0  0.25019  0.88959  0.99003  1.0000
  H   H1618     1.0  0.30887  0.93300  0.15378  1.0000
  H   H1619     1.0  0.23421  0.82736  0.99135  1.0000
  H   H1620     1.0  0.01249  0.76230  0.12025  1.0000
  C   C907      1.0  0.26393  0.88714  0.99561  1.0000
  H   H1621     1.0  0.27006  0.82577  0.17811  1.0000
  H   H1622     1.0  0.31673  0.95369  0.15637  1.0000
  C   C908      1.0  0.28653  0.94676  0.12902  1.0000
  C   C909      1.0  0.30679  0.83599  0.22990  1.0000
  H   H1623     1.0  0.20141  0.85641  0.02795  1.0000
  H   H1624     1.0  0.27456  0.86502  0.20175  1.0000
  H   H1625     1.0  0.26788  0.91613  0.98534  1.0000
  H   H1626     1.0  0.27417  0.95622  0.12267  1.0000
  H   H1627     1.0  0.26280  0.95305  0.16354  1.0000
  H   H1628     1.0  0.06065  0.96858  0.02312  1.0000
  H   H1629     1.0  0.27350  0.98137  0.14062  1.0000
  C   C910      1.0  0.23102  0.85512  0.02965  1.0000
  H   H1630     1.0  0.27598  0.88134  0.98477  1.0000
  H   H1631     1.0  0.30807  0.88985  0.07929  1.0000
  H   H1632     1.0  0.28703  0.75363  0.35691  1.0000
  H   H1633     1.0  0.12857  0.75054  0.16226  1.0000
  C   C911      1.0  0.02599  0.95571  0.04269  1.0000
  H   H1634     1.0  0.21170  0.95414  0.06431  1.0000
  N   N52       1.0  0.13914  0.86400  0.10396  1.0000
  C   C912      1.0  0.12665  0.88376  0.10235  1.0000
  C   C913      1.0  0.15171  0.86192  0.11891  1.0000
  C   C914      1.0  0.15248  0.86289  0.08484  1.0000
  C   C915      1.0  0.12764  0.84788  0.10853  1.0000
  C   C916      1.0  0.10733  0.85111  0.12132  1.0000
  C   C917      1.0  0.11544  0.88963  0.08517  1.0000
  C   C918      1.0  0.16686  0.84373  0.08329  1.0000
  C   C919      1.0  0.14119  0.86279  0.13983  1.0000
  C   C920      1.0  0.15540  0.86319  0.15274  1.0000
  C   C921      1.0  0.09970  0.83218  0.12834  1.0000
  C   C922      1.0  0.09897  0.90666  0.08792  1.0000
  C   C923      1.0  0.17840  0.84404  0.06295  1.0000
  H   H1635     1.0  0.13575  0.89493  0.10085  1.0000
  H   H1636     1.0  0.11602  0.88536  0.11571  1.0000
  H   H1637     1.0  0.16169  0.84786  0.11991  1.0000
  H   H1638     1.0  0.16118  0.87302  0.11458  1.0000
  H   H1639     1.0  0.16105  0.87475  0.08107  1.0000
  H   H1640     1.0  0.14404  0.86491  0.07308  1.0000
  H   H1641     1.0  0.12511  0.84447  0.09507  1.0000
  H   H1642     1.0  0.13626  0.83440  0.11532  1.0000
  H   H1643     1.0  0.09688  0.86120  0.11293  1.0000
  H   H1644     1.0  0.10733  0.85725  0.13410  1.0000
  H   H1645     1.0  0.12538  0.89413  0.07166  1.0000
  H   H1646     1.0  0.10930  0.87750  0.08310  1.0000
  H   H1647     1.0  0.15923  0.83126  0.08691  1.0000
  H   H1648     1.0  0.17752  0.84149  0.09292  1.0000
  H   H1649     1.0  0.12987  0.87580  0.14078  1.0000
  H   H1650     1.0  0.13465  0.84970  0.14581  1.0000
  H   H1651     1.0  0.14769  0.86316  0.16780  1.0000
  H   H1652     1.0  0.16712  0.85034  0.15253  1.0000
  H   H1653     1.0  0.16193  0.87641  0.14786  1.0000
  H   H1654     1.0  0.08464  0.83490  0.13634  1.0000
  H   H1655     1.0  0.09959  0.82531  0.11598  1.0000
  H   H1656     1.0  0.10886  0.82204  0.13808  1.0000
  H   H1657     1.0  0.08803  0.90274  0.10076  1.0000
  H   H1658     1.0  0.10470  0.91923  0.08960  1.0000
  H   H1659     1.0  0.09177  0.91081  0.07507  1.0000
  H   H1660     1.0  0.18910  0.83047  0.06233  1.0000
  H   H1661     1.0  0.16868  0.84542  0.05244  1.0000
  H   H1662     1.0  0.18634  0.85632  0.05905  1.0000
  C   C924      1.0  0.07643  0.80684  0.03156  1.0000
  C   C925      1.0  0.04328  0.84375  0.04775  1.0000
  H   H1663     1.0  0.06255  0.80559  0.04156  1.0000
  H   H1664     1.0  0.03294  0.77040  0.08778  1.0000
  C   C926      1.0  0.09963  0.83361  0.07077  1.0000
  C   C927      1.0  0.30619  0.97232  0.11734  1.0000
  H   H1665     1.0  0.10041  0.78661  0.01880  1.0000
  N   N53       1.0  0.00451  0.96038  0.05006  1.0000
  C   C928      1.0  0.31490  0.89043  0.04868  1.0000
  C   C929      1.0  0.21652  0.76137  0.14517  1.0000
  C   C930      1.0  0.07890  0.85024  0.02315  1.0000
  H   H1666     1.0  0.22288  0.94171  0.02424  1.0000
  C   C931      1.0  0.08903  0.81666  0.04007  1.0000
  H   H1667     1.0  0.13124  0.83000  0.06476  1.0000
  H   H1668     1.0  0.04155  0.85852  0.03921  1.0000
  H   H1669     1.0  0.25893  0.74157  0.26856  1.0000
  H   H1670     1.0  0.27447  0.91588  0.12089  1.0000
  C   C932      1.0  0.99912  0.82543  0.11549  1.0000
  C   C933      1.0  0.11979  0.82106  0.07044  1.0000
  C   C934      1.0  0.02545  0.84287  0.06356  1.0000
  H   H1671     1.0  0.18679  0.77418  0.15200  1.0000
  H   H1672     1.0  0.06163  0.82575  0.06732  1.0000
  H   H1673     1.0  0.08520  0.87822  0.99054  1.0000
  S   S198      1.0  0.32264  0.98097  0.17589  1.0000
  S   S199      1.0  0.29037  0.95759  0.21816  1.0000
  H   H1674     1.0  0.28376  0.94925  0.17486  1.0000
  S   S200      1.0  0.30499  0.91480  0.24046  1.0000
  H   H1675     1.0  0.03112  0.93986  0.04531  1.0000
  C   C935      1.0  0.15481  0.75685  0.16936  1.0000
  C   C936      1.0  0.28539  0.83619  0.19566  1.0000
  C   C937      1.0  0.28455  0.97119  0.14835  1.0000
  H   H1676     1.0  0.09831  0.84453  0.07996  1.0000
  H   H1677     1.0  0.28154  0.92551  0.06608  1.0000
  C   C938      1.0  0.30397  0.88624  0.06711  1.0000
  H   H1678     1.0  0.30575  0.94049  0.10183  1.0000
  H   H1679     1.0  0.24089  0.92872  0.06134  1.0000
  N   N54       1.0  0.08131  0.83735  0.04226  1.0000
  H   H1680     1.0  0.25977  0.95233  0.04761  1.0000
  C   C939      1.0  0.28678  0.93742  0.05512  1.0000
  H   H1681     1.0  0.25077  0.90262  0.02791  1.0000
  H   H1682     1.0  0.22860  0.91474  0.05182  1.0000
  H   H1683     1.0  0.32328  0.98251  0.05176  1.0000
  H   H1684     1.0  0.12356  0.77781  0.19109  1.0000
  H   H1685     1.0  0.28433  0.92306  0.02237  1.0000
  N   N55       1.0  0.29829  0.95889  0.13490  1.0000
  C   C940      1.0  0.01254  0.75452  0.10854  1.0000
  C   C941      1.0  0.25149  0.91419  0.01495  1.0000
  C   C942      1.0  0.22984  0.92962  0.05238  1.0000
  H   H1686     1.0  0.25491  0.96586  0.19369  1.0000
  H   H1687     1.0  0.23738  0.91601  0.01009  1.0000
  S   S201      1.0  0.32007  0.92558  0.19379  1.0000
  H   H1688     1.0  0.26838  0.91532  0.04329  1.0000
  H   H1689     1.0  0.29134  0.91329  0.09898  1.0000
  C   C943      1.0  0.27032  0.92790  0.03154  1.0000
  C   C944      1.0  0.03281  0.96228  0.02093  1.0000
  N   N56       1.0  0.25399  0.93259  0.02019  1.0000
  C   C945      1.0  0.28160  0.85096  0.20934  1.0000
  S   S202      1.0  0.99997  0.89815  0.03517  1.0000
  Fe  Fe98      1.0  0.31954  0.95519  0.19920  1.0000
  C   C946      1.0  0.23516  0.94090  0.03178  1.0000
  H   H1690     1.0  0.28708  0.94926  0.06257  1.0000
  S   S203      1.0  0.30108  0.95323  0.27192  1.0000
  H   H1691     1.0  0.23405  0.74990  0.29626  1.0000
  H   H1692     1.0  0.26837  0.89729  0.24949  1.0000
  C   C947      1.0  0.15554  0.84126  0.99927  1.0000
  C   C948      1.0  0.13318  0.75460  0.17434  1.0000
  C   C949      1.0  0.17184  0.85061  0.98591  1.0000
  C   C950      1.0  0.05493  0.95933  0.01596  1.0000
  C   C951      1.0  0.31616  0.96769  0.27608  1.0000
  Fe  Fe99      1.0  0.30680  0.94494  0.24241  1.0000
  C   C952      1.0  0.26755  0.90604  0.99922  1.0000
  H   H1693     1.0  0.31462  0.96499  0.04312  1.0000
  C   C953      1.0  0.32202  0.96710  0.05437  1.0000
  Fe  Fe100     1.0  0.09265  0.74371  0.09810  1.0000
  H   H1694     1.0  0.22503  0.73766  0.28157  1.0000
  C   C954      1.0  0.04133  0.73422  0.05533  1.0000
  C   C955      1.0  0.31376  0.86015  0.19966  1.0000
  C   C956      1.0  0.00112  0.95363  0.07160  1.0000
  H   H1695     1.0  0.99762  0.75218  0.10930  1.0000
  H   H1696     1.0  0.29680  0.74554  0.40749  1.0000
  N   N57       1.0  0.16902  0.73968  0.16321  1.0000
  H   H1697     1.0  0.00240  0.93575  0.03849  1.0000
  N   N58       1.0  0.20423  0.86150  0.98581  1.0000
  H   H1698     1.0  0.18731  0.89014  0.98227  1.0000
  H   H1699     1.0  0.29601  0.73856  0.21058  1.0000
  H   H1700     1.0  0.31506  0.79578  0.24090  1.0000
  H   H1701     1.0  0.32430  0.98237  0.13330  1.0000
  H   H1702     1.0  0.04117  0.73921  0.11135  1.0000
  C   C957      1.0  0.16569  0.73729  0.14392  1.0000
  H   H1703     1.0  0.00360  0.73517  0.18264  1.0000
  H   H1704     1.0  0.32024  0.84840  0.19132  1.0000
  H   H1705     1.0  0.31916  0.81673  0.20839  1.0000
  H   H1706     1.0  0.15774  0.73414  0.20414  1.0000
  C   C958      1.0  0.32309  0.82107  0.22065  1.0000
  C   C959      1.0  0.99679  0.98176  0.04643  1.0000
  H   H1707     1.0  0.99572  0.87757  0.15432  1.0000
  H   H1708     1.0  0.99706  0.96654  0.01157  1.0000
  H   H1709     1.0  0.99842  0.92345  0.07206  1.0000
  C   C960      1.0  0.99343  0.94976  0.04130  1.0000
  H   H1710     1.0  0.17352  0.73415  0.10500  1.0000
  H   H1711     1.0  0.27093  0.74445  0.37793  1.0000
  H   H1712     1.0  0.32533  0.88227  0.20820  1.0000
  C   C961      1.0  0.22339  0.82724  0.98246  1.0000
  H   H1713     1.0  0.27224  0.98179  0.18452  1.0000
  S   S204      1.0  0.11838  0.73442  0.11336  1.0000
  H   H1714     1.0  0.03230  0.73371  0.14593  1.0000
  Fe  Fe101     1.0  0.17565  0.87243  0.76106  1.0000
  S   S205      1.0  0.14873  0.85962  0.76542  1.0000
  S   S206      1.0  0.19703  0.85759  0.78123  1.0000
  Fe  Fe102     1.0  0.16240  0.90380  0.72817  1.0000
  S   S207      1.0  0.13443  0.89356  0.73072  1.0000
  S   S208      1.0  0.16936  0.92894  0.70483  1.0000
  Fe  Fe103     1.0  0.13363  0.89047  0.76250  1.0000
  S   S209      1.0  0.10830  0.90118  0.78406  1.0000
  Fe  Fe104     1.0  0.15220  0.86394  0.73305  1.0000
  S   S210      1.0  0.15259  0.84368  0.71242  1.0000
  S   S211      1.0  0.16025  0.90299  0.75983  1.0000
  S   S212      1.0  0.18058  0.87427  0.72888  1.0000
  H   H1715     1.0  0.03824  0.95078  0.52297  1.0000
  Fe  Fe105     1.0  0.99956  0.91928  0.56440  1.0000
  Fe  Fe106     1.0  0.24479  0.86886  0.89471  1.0000
  S   S213      1.0  0.24445  0.89949  0.87972  1.0000
  S   S214      1.0  0.22527  0.85632  0.92085  1.0000
  Fe  Fe107     1.0  0.28028  0.85325  0.86753  1.0000
  S   S215      1.0  0.28276  0.88244  0.84986  1.0000
  S   S216      1.0  0.30049  0.82481  0.86631  1.0000
  Fe  Fe108     1.0  0.27689  0.89263  0.87844  1.0000
  S   S217      1.0  0.29725  0.91107  0.88280  1.0000
  Fe  Fe109     1.0  0.25024  0.88668  0.85263  1.0000
  S   S218      1.0  0.23356  0.90172  0.82842  1.0000
  S   S219      1.0  0.27654  0.86309  0.89571  1.0000
  S   S220      1.0  0.24841  0.85652  0.86793  1.0000
  H   H1716     1.0  0.12952  0.79661  0.73635  1.0000
  H   H1717     1.0  0.02429  0.75975  0.55820  1.0000
  H   H1718     1.0  0.00116  0.87143  0.63817  1.0000
  H   H1719     1.0  0.15875  0.77201  0.78455  1.0000
  Fe  Fe110     1.0  0.11595  0.94370  0.97351  1.0000
  Fe  Fe111     1.0  0.09796  0.79144  0.66109  1.0000
  S   S221      1.0  0.11885  0.80566  0.63775  1.0000
  S   S222      1.0  0.09362  0.80016  0.69064  1.0000
  Fe  Fe112     1.0  0.08530  0.77095  0.63301  1.0000
  S   S223      1.0  0.10516  0.78503  0.60808  1.0000
  C   C962      1.0  0.16729  0.97739  0.90663  1.0000
  Fe  Fe113     1.0  0.12698  0.77720  0.62762  1.0000
  S   S224      1.0  0.15759  0.76513  0.61496  1.0000
  Fe  Fe114     1.0  0.09493  0.81183  0.62068  1.0000
  S   S225      1.0  0.08732  0.84169  0.60418  1.0000
  S   S226      1.0  0.10794  0.76203  0.65233  1.0000
  S   S227      1.0  0.07324  0.79895  0.64422  1.0000
  C   C963      1.0  0.19612  0.77680  0.64033  1.0000
  C   C964      1.0  0.04284  0.77845  0.56117  1.0000
  C   C965      1.0  0.11350  0.94998  0.69993  1.0000
  H   H1720     1.0  0.99705  0.95246  0.59503  1.0000
  H   H1721     1.0  0.11830  0.79080  0.78036  1.0000
  H   H1722     1.0  0.24123  0.96987  0.96028  1.0000
  H   H1723     1.0  0.26168  0.89589  0.78971  1.0000
  H   H1724     1.0  0.08746  0.87928  0.49640  1.0000
  H   H1725     1.0  0.16741  0.76146  0.76377  1.0000
  C   C966      1.0  0.16131  0.79782  0.74979  1.0000
  C   C967      1.0  0.16272  0.95955  0.92119  1.0000
  H   H1726     1.0  0.22150  0.88422  0.94889  1.0000
  H   H1727     1.0  0.11960  0.96517  0.75083  1.0000
  H   H1728     1.0  0.10586  0.86426  0.97778  1.0000
  H   H1729     1.0  0.99527  0.92797  0.65887  1.0000
  H   H1730     1.0  0.03709  0.87667  0.56747  1.0000
  N   N59       1.0  0.06803  0.89387  0.51821  1.0000
  C   C968      1.0  0.06840  0.84304  0.59187  1.0000
  C   C969      1.0  0.05995  0.86096  0.58273  1.0000
  C   C970      1.0  0.04388  0.86266  0.57399  1.0000
  C   C971      1.0  0.03674  0.84623  0.57363  1.0000
  C   C972      1.0  0.04529  0.82824  0.58263  1.0000
  C   C973      1.0  0.06099  0.82664  0.59193  1.0000
  H   H1731     1.0  0.06564  0.87357  0.58278  1.0000
  H   H1732     1.0  0.03948  0.81562  0.58291  1.0000
  H   H1733     1.0  0.06729  0.81274  0.59919  1.0000
  H   H1734     1.0  0.18949  0.87826  0.96276  1.0000
  H   H1735     1.0  0.07968  0.92878  0.51198  1.0000
  C   C974      1.0  0.06501  0.92965  0.52089  1.0000
  H   H1736     1.0  0.11115  0.81729  0.75466  1.0000
  C   C975      1.0  0.20014  0.86438  0.92446  1.0000
  C   C976      1.0  0.19208  0.88399  0.92275  1.0000
  C   C977      1.0  0.17221  0.88972  0.92970  1.0000
  C   C978      1.0  0.16046  0.87579  0.93770  1.0000
  C   C979      1.0  0.16833  0.85633  0.93793  1.0000
  C   C980      1.0  0.18817  0.85063  0.93178  1.0000
  H   H1737     1.0  0.20134  0.89464  0.91721  1.0000
  H   H1738     1.0  0.16608  0.90483  0.92925  1.0000
  H   H1739     1.0  0.15927  0.84555  0.94391  1.0000
  H   H1740     1.0  0.19435  0.83546  0.93316  1.0000
  C   C981      1.0  0.30324  0.92269  0.94156  1.0000
  C   C982      1.0  0.28913  0.91234  0.94034  1.0000
  C   C983      1.0  0.28736  0.90834  0.92255  1.0000
  C   C984      1.0  0.29934  0.91517  0.90565  1.0000
  C   C985      1.0  0.00465  0.79104  0.59079  1.0000
  H   H1741     1.0  0.27941  0.90745  0.95320  1.0000
  H   H1742     1.0  0.27645  0.90035  0.92186  1.0000
  H   H1743     1.0  0.15936  0.96765  0.83935  1.0000
  C   C986      1.0  0.11322  0.95391  0.92531  1.0000
  H   H1744     1.0  0.12088  0.93993  0.90055  1.0000
  H   H1745     1.0  0.11972  0.94155  0.93464  1.0000
  C   C987      1.0  0.13535  0.83283  0.70612  1.0000
  C   C988      1.0  0.14164  0.82149  0.69162  1.0000
  C   C989      1.0  0.12883  0.81206  0.68630  1.0000
  C   C990      1.0  0.10956  0.81352  0.69568  1.0000
  C   C991      1.0  0.10319  0.82494  0.71018  1.0000
  C   C992      1.0  0.11594  0.83479  0.71519  1.0000
  H   H1746     1.0  0.15659  0.81991  0.68445  1.0000
  H   H1747     1.0  0.13403  0.80318  0.67529  1.0000
  H   H1748     1.0  0.08834  0.82611  0.71759  1.0000
  H   H1749     1.0  0.11083  0.84364  0.72622  1.0000
  C   C993      1.0  0.20567  0.87034  0.79515  1.0000
  C   C994      1.0  0.21487  0.86001  0.81055  1.0000
  C   C995      1.0  0.22334  0.86946  0.82095  1.0000
  C   C996      1.0  0.22254  0.88937  0.81615  1.0000
  C   C997      1.0  0.21287  0.89978  0.80111  1.0000
  C   C998      1.0  0.20444  0.89033  0.79066  1.0000
  H   H1750     1.0  0.21563  0.84459  0.81431  1.0000
  H   H1751     1.0  0.23052  0.86134  0.83265  1.0000
  H   H1752     1.0  0.21213  0.91521  0.79733  1.0000
  H   H1753     1.0  0.19741  0.89846  0.77884  1.0000
  C   C999      1.0  0.10667  0.92611  0.78262  1.0000
  C   C1000     1.0  0.09702  0.93524  0.79818  1.0000
  C   C1001     1.0  0.09576  0.95521  0.79676  1.0000
  C   C1002     1.0  0.10364  0.96610  0.77957  1.0000
  C   C1003     1.0  0.11331  0.95692  0.76409  1.0000
  C   C1004     1.0  0.11506  0.93696  0.76575  1.0000
  H   H1754     1.0  0.09060  0.92688  0.81134  1.0000
  H   H1755     1.0  0.08835  0.96220  0.80882  1.0000
  H   H1756     1.0  0.02515  0.83428  0.62509  1.0000
  H   H1757     1.0  0.12262  0.92994  0.75385  1.0000
  C   C1005     1.0  0.14847  0.94192  0.69586  1.0000
  C   C1006     1.0  0.13031  0.94086  0.70720  1.0000
  C   C1007     1.0  0.01130  0.79008  0.62414  1.0000
  C   C1008     1.0  0.14975  0.95294  0.67725  1.0000
  H   H1758     1.0  0.12921  0.93312  0.72172  1.0000
  H   H1759     1.0  0.17634  0.95039  0.92510  1.0000
  H   H1760     1.0  0.16381  0.95390  0.66841  1.0000
  C   C1009     1.0  0.21603  0.84795  0.97272  1.0000
  S   S228      1.0  0.10043  0.91894  0.97703  1.0000
  C   C1010     1.0  0.20494  0.75556  0.64560  1.0000
  H   H1761     1.0  0.06008  0.96083  0.51711  1.0000
  C   C1011     1.0  0.00338  0.79697  0.55625  1.0000
  H   H1762     1.0  0.19386  0.82258  0.76011  1.0000
  C   C1012     1.0  0.13588  0.76352  0.71969  1.0000
  H   H1763     1.0  0.16024  0.95639  0.77111  1.0000
  S   S229      1.0  0.14558  0.92739  0.96402  1.0000
  C   C1013     1.0  0.01193  0.84553  0.62645  1.0000
  C   C1014     1.0  0.05569  0.87876  0.52028  1.0000
  H   H1764     1.0  0.04312  0.78457  0.54565  1.0000
  Fe  Fe115     1.0  0.99936  0.87787  0.56128  1.0000
  H   H1765     1.0  0.05434  0.87785  0.49046  1.0000
  H   H1766     1.0  0.06661  0.92866  0.53608  1.0000
  H   H1767     1.0  0.05246  0.95170  0.49903  1.0000
  H   H1768     1.0  0.32241  0.93134  0.89380  1.0000
  H   H1769     1.0  0.16497  0.86435  0.97793  1.0000
  C   C1015     1.0  0.08285  0.89408  0.49986  1.0000
  H   H1770     1.0  0.09825  0.87130  0.56528  1.0000
  H   H1771     1.0  0.28539  0.89067  0.77513  1.0000
  H   H1772     1.0  0.15680  0.75726  0.73831  1.0000
  H   H1773     1.0  0.20213  0.74953  0.61824  1.0000
  C   C1016     1.0  0.19768  0.88040  0.97332  1.0000
  S   S230      1.0  0.02366  0.93605  0.56324  1.0000
  H   H1774     1.0  0.24585  0.82078  0.95796  1.0000
  C   C1017     1.0  0.17118  0.80606  0.76265  1.0000
  H   H1775     1.0  0.18742  0.97360  0.75013  1.0000
  C   C1018     1.0  0.06189  0.76451  0.56312  1.0000
  H   H1776     1.0  0.03795  0.74833  0.64861  1.0000
  C   C1019     1.0  0.21360  0.74649  0.62735  1.0000
  H   H1777     1.0  0.06467  0.86413  0.52112  1.0000
  C   C1020     1.0  0.21392  0.89138  0.96128  1.0000
  C   C1021     1.0  0.13279  0.96235  0.66993  1.0000
  H   H1778     1.0  0.08189  0.85749  0.54478  1.0000
  H   H1779     1.0  0.18417  0.77845  0.63222  1.0000
  C   C1022     1.0  0.07688  0.90790  0.48158  1.0000
  H   H1780     1.0  0.01279  0.76504  0.61198  1.0000
  H   H1781     1.0  0.04520  0.87850  0.53406  1.0000
  C   C1023     1.0  0.02506  0.76832  0.56911  1.0000
  H   H1782     1.0  0.04686  0.91786  0.50731  1.0000
  C   C1024     1.0  0.23341  0.81468  0.96735  1.0000
  C   C1025     1.0  0.20558  0.91216  0.95329  1.0000
  C   C1026     1.0  0.04301  0.95912  0.57531  1.0000
  H   H1783     1.0  0.04343  0.91178  0.53251  1.0000
  H   H1784     1.0  0.06288  0.75185  0.55628  1.0000
  C   C1027     1.0  0.13525  0.78295  0.74542  1.0000
  N   N60       1.0  0.14522  0.78702  0.76017  1.0000
  S   S231      1.0  0.13610  0.88196  0.94819  1.0000
  H   H1785     1.0  0.01432  0.90733  0.62394  1.0000
  H   H1786     1.0  0.15825  0.77873  0.72053  1.0000
  H   H1787     1.0  0.03492  0.89489  0.50128  1.0000
  H   H1788     1.0  0.11790  0.83274  0.78883  1.0000
  C   C1028     1.0  0.15061  0.73617  0.79313  1.0000
  H   H1789     1.0  0.09700  0.82282  0.78795  1.0000
  H   H1790     1.0  0.15437  0.74061  0.80552  1.0000
  H   H1791     1.0  0.05467  0.95509  0.56390  1.0000
  H   H1792     1.0  0.32215  0.74327  0.68604  1.0000
  H   H1793     1.0  0.00511  0.79036  0.54322  1.0000
  H   H1794     1.0  0.01964  0.86812  0.52144  1.0000
  C   C1029     1.0  0.04555  0.97127  0.58718  1.0000
  H   H1795     1.0  0.10724  0.73875  0.58479  1.0000
  Fe  Fe116     1.0  0.13036  0.90236  0.96926  1.0000
  C   C1030     1.0  0.15394  0.76867  0.77211  1.0000
  H   H1796     1.0  0.02357  0.86653  0.49637  1.0000
  N   N61       1.0  0.17086  0.88907  0.86406  1.0000
  C   C1031     1.0  0.16628  0.89792  0.84424  1.0000
  C   C1032     1.0  0.18385  0.90048  0.86912  1.0000
  C   C1033     1.0  0.18227  0.86901  0.86304  1.0000
  C   C1034     1.0  0.15298  0.88765  0.87940  1.0000
  C   C1035     1.0  0.13485  0.90349  0.87680  1.0000
  C   C1036     1.0  0.15669  0.88559  0.83502  1.0000
  C   C1037     1.0  0.19071  0.85817  0.88125  1.0000
  C   C1038     1.0  0.17559  0.92188  0.87031  1.0000
  C   C1039     1.0  0.19122  0.93192  0.87319  1.0000
  C   C1040     1.0  0.11917  0.90180  0.89476  1.0000
  C   C1041     1.0  0.14805  0.89740  0.81765  1.0000
  C   C1042     1.0  0.19906  0.83712  0.87979  1.0000
  H   H1797     1.0  0.17981  0.90073  0.83406  1.0000
  H   H1798     1.0  0.15690  0.91227  0.84420  1.0000
  H   H1799     1.0  0.18778  0.89413  0.88349  1.0000
  H   H1800     1.0  0.19776  0.89974  0.85866  1.0000
  H   H1801     1.0  0.19458  0.86946  0.85080  1.0000
  H   H1802     1.0  0.17312  0.85965  0.86017  1.0000
  H   H1803     1.0  0.14803  0.87375  0.88068  1.0000
  H   H1804     1.0  0.15652  0.88726  0.89382  1.0000
  H   H1805     1.0  0.12852  0.90198  0.86455  1.0000
  H   H1806     1.0  0.13818  0.91819  0.87390  1.0000
  H   H1807     1.0  0.16775  0.87362  0.82981  1.0000
  H   H1808     1.0  0.14508  0.87927  0.84557  1.0000
  H   H1809     1.0  0.17937  0.85855  0.89429  1.0000
  H   H1810     1.0  0.20278  0.86467  0.88301  1.0000
  H   H1811     1.0  0.17015  0.92983  0.85705  1.0000
  H   H1812     1.0  0.16377  0.92300  0.88293  1.0000
  H   H1813     1.0  0.18504  0.94716  0.87427  1.0000
  H   H1814     1.0  0.19683  0.92484  0.88666  1.0000
  H   H1815     1.0  0.20344  0.93154  0.86082  1.0000
  H   H1816     1.0  0.10630  0.91315  0.89251  1.0000
  H   H1817     1.0  0.11464  0.88753  0.89775  1.0000
  H   H1818     1.0  0.12452  0.90370  0.90749  1.0000
  H   H1819     1.0  0.14199  0.88797  0.81100  1.0000
  H   H1820     1.0  0.13612  0.90905  0.82209  1.0000
  H   H1821     1.0  0.15937  0.90371  0.80662  1.0000
  H   H1822     1.0  0.20557  0.83002  0.89276  1.0000
  H   H1823     1.0  0.18751  0.82938  0.87901  1.0000
  H   H1824     1.0  0.21057  0.83609  0.86688  1.0000
  N   N62       1.0  0.27193  0.83566  0.78991  1.0000
  C   C1043     1.0  0.26779  0.85741  0.78636  1.0000
  C   C1044     1.0  0.25785  0.82860  0.78132  1.0000
  C   C1045     1.0  0.26803  0.82878  0.81144  1.0000
  C   C1046     1.0  0.29262  0.82737  0.78210  1.0000
  C   C1047     1.0  0.30321  0.83950  0.76413  1.0000
  C   C1048     1.0  0.27771  0.86708  0.79799  1.0000
  C   C1049     1.0  0.26918  0.80675  0.81822  1.0000
  C   C1050     1.0  0.25876  0.83457  0.75929  1.0000
  C   C1051     1.0  0.24298  0.82753  0.75272  1.0000
  C   C1052     1.0  0.27691  0.88851  0.78994  1.0000
  C   C1053     1.0  0.26945  0.80115  0.83982  1.0000
  H   H1825     1.0  0.25196  0.86276  0.78985  1.0000
  H   H1826     1.0  0.27159  0.86348  0.77091  1.0000
  H   H1827     1.0  0.26019  0.81261  0.78406  1.0000
  H   H1828     1.0  0.24271  0.83348  0.78839  1.0000
  H   H1829     1.0  0.25345  0.83587  0.81787  1.0000
  H   H1830     1.0  0.27855  0.83300  0.81843  1.0000
  H   H1831     1.0  0.30191  0.82472  0.79327  1.0000
  H   H1832     1.0  0.29340  0.81282  0.77875  1.0000
  H   H1833     1.0  0.03937  0.85075  0.51173  1.0000
  H   H1834     1.0  0.29444  0.84475  0.75258  1.0000
  H   H1835     1.0  0.27009  0.86582  0.81320  1.0000
  H   H1836     1.0  0.29307  0.86014  0.79793  1.0000
  H   H1837     1.0  0.28243  0.79857  0.81061  1.0000
  H   H1838     1.0  0.25629  0.80217  0.81558  1.0000
  H   H1839     1.0  0.25665  0.85042  0.75479  1.0000
  H   H1840     1.0  0.27282  0.82786  0.75162  1.0000
  H   H1841     1.0  0.22841  0.83398  0.75964  1.0000
  H   H1842     1.0  0.24399  0.83190  0.73688  1.0000
  H   H1843     1.0  0.24466  0.81159  0.75634  1.0000
  S   S232      1.0  0.07374  0.75029  0.61990  1.0000
  H   H1844     1.0  0.06799  0.89023  0.54883  1.0000
  H   H1845     1.0  0.12705  0.75971  0.78947  1.0000
  H   H1846     1.0  0.25660  0.80922  0.84813  1.0000
  H   H1847     1.0  0.26932  0.78550  0.84449  1.0000
  H   H1848     1.0  0.28279  0.80420  0.84318  1.0000
  H   H1849     1.0  0.15327  0.96375  0.93450  1.0000
  S   S233      1.0  0.30372  0.92862  0.96412  1.0000
  C   C1054     1.0  0.18737  0.81643  0.75061  1.0000
  C   C1055     1.0  0.13046  0.79861  0.77349  1.0000
  H   H1850     1.0  0.17297  0.78837  0.74153  1.0000
  C   C1056     1.0  0.12095  0.81880  0.76403  1.0000
  C   C1057     1.0  0.02560  0.95206  0.57813  1.0000
  H   H1851     1.0  0.05797  0.96120  0.75272  1.0000
  H   H1852     1.0  0.19947  0.92041  0.96522  1.0000
  C   C1058     1.0  0.17083  0.97299  0.72089  1.0000
  C   C1059     1.0  0.16156  0.74058  0.61346  1.0000
  C   C1060     1.0  0.04419  0.88054  0.50390  1.0000
  N   N63       1.0  0.10822  0.89852  0.67403  1.0000
  C   C1061     1.0  0.09718  0.88972  0.69292  1.0000
  C   C1062     1.0  0.10947  0.88611  0.65926  1.0000
  C   C1063     1.0  0.12806  0.89956  0.67727  1.0000
  C   C1064     1.0  0.09819  0.91857  0.66692  1.0000
  C   C1065     1.0  0.07742  0.92008  0.66295  1.0000
  C   C1066     1.0  0.09003  0.90287  0.70841  1.0000
  C   C1067     1.0  0.14251  0.90633  0.65908  1.0000
  C   C1068     1.0  0.12180  0.86570  0.66284  1.0000
  C   C1069     1.0  0.12209  0.85450  0.64699  1.0000
  C   C1070     1.0  0.06719  0.94102  0.65929  1.0000
  C   C1071     1.0  0.08257  0.89145  0.72797  1.0000
  C   C1072     1.0  0.16303  0.90272  0.66347  1.0000
  H   H1853     1.0  0.10631  0.87644  0.69944  1.0000
  H   H1854     1.0  0.08432  0.88471  0.69071  1.0000
  H   H1855     1.0  0.09477  0.88394  0.65853  1.0000
  H   H1856     1.0  0.11491  0.89348  0.64454  1.0000
  H   H1857     1.0  0.13495  0.88542  0.68478  1.0000
  H   H1858     1.0  0.12696  0.90970  0.68725  1.0000
  H   H1859     1.0  0.09778  0.92838  0.67705  1.0000
  H   H1860     1.0  0.10664  0.92495  0.65316  1.0000
  H   H1861     1.0  0.06831  0.91226  0.67516  1.0000
  H   H1862     1.0  0.07811  0.91393  0.64991  1.0000
  H   H1863     1.0  0.10171  0.90978  0.71027  1.0000
  H   H1864     1.0  0.07799  0.91448  0.70428  1.0000
  H   H1865     1.0  0.13832  0.92203  0.65403  1.0000
  H   H1866     1.0  0.14318  0.89868  0.64713  1.0000
  H   H1867     1.0  0.13704  0.86629  0.66319  1.0000
  H   H1868     1.0  0.11563  0.85742  0.67669  1.0000
  H   H1869     1.0  0.12800  0.86225  0.63267  1.0000
  H   H1870     1.0  0.13149  0.84018  0.64965  1.0000
  H   H1871     1.0  0.10732  0.85219  0.64686  1.0000
  H   H1872     1.0  0.07597  0.94965  0.64741  1.0000
  H   H1873     1.0  0.05293  0.94182  0.65521  1.0000
  H   H1874     1.0  0.06470  0.94741  0.67250  1.0000
  H   H1875     1.0  0.07751  0.90123  0.73871  1.0000
  H   H1876     1.0  0.07028  0.88478  0.72703  1.0000
  H   H1877     1.0  0.09430  0.88000  0.73310  1.0000
  H   H1878     1.0  0.17294  0.90863  0.65062  1.0000
  H   H1879     1.0  0.16336  0.90984  0.67554  1.0000
  H   H1880     1.0  0.16838  0.88703  0.66740  1.0000
  H   H1881     1.0  0.22310  0.81370  0.95821  1.0000
  H   H1882     1.0  0.13184  0.82738  0.75527  1.0000
  H   H1883     1.0  0.13238  0.74046  0.58249  1.0000
  H   H1884     1.0  0.13987  0.97218  0.78236  1.0000
  H   H1885     1.0  0.08329  0.95631  0.74264  1.0000
  N   N64       1.0  0.00591  0.78147  0.57373  1.0000
  H   H1886     1.0  0.10928  0.73470  0.48889  1.0000
  H   H1887     1.0  0.15608  0.80979  0.73865  1.0000
  N   N65       1.0  0.03767  0.88549  0.63372  1.0000
  C   C1073     1.0  0.05459  0.89316  0.62032  1.0000
  C   C1074     1.0  0.04397  0.87592  0.65266  1.0000
  C   C1075     1.0  0.03165  0.87131  0.62452  1.0000
  H   H1888     1.0  0.03131  0.87258  0.66386  1.0000
  C   C1076     1.0  0.32233  0.82785  0.75570  1.0000
  C   C1077     1.0  0.05005  0.90671  0.60141  1.0000
  C   C1078     1.0  0.14053  0.75354  0.78049  1.0000
  C   C1079     1.0  0.05934  0.85720  0.65217  1.0000
  C   C1080     1.0  0.06583  0.84970  0.67164  1.0000
  C   C1081     1.0  0.16832  0.97820  0.78347  1.0000
  C   C1082     1.0  0.06855  0.91254  0.58875  1.0000
  C   C1083     1.0  0.05493  0.91309  0.51949  1.0000
  H   H1889     1.0  0.06598  0.88102  0.61594  1.0000
  H   H1890     1.0  0.06170  0.90097  0.62781  1.0000
  H   H1891     1.0  0.05028  0.88597  0.65825  1.0000
  H   H1892     1.0  0.17765  0.79441  0.77335  1.0000
  H   H1893     1.0  0.04423  0.86009  0.62058  1.0000
  H   H1894     1.0  0.02682  0.87850  0.61074  1.0000
  C   C1084     1.0  0.03049  0.97693  0.60174  1.0000
  C   C1085     1.0  0.03095  0.86554  0.50871  1.0000
  H   H1895     1.0  0.03631  0.92543  0.63496  1.0000
  H   H1896     1.0  0.30663  0.85227  0.76812  1.0000
  H   H1897     1.0  0.04325  0.89978  0.59292  1.0000
  H   H1898     1.0  0.04001  0.92010  0.60440  1.0000
  H   H1899     1.0  0.02841  0.75742  0.58185  1.0000
  C   C1086     1.0  0.31558  0.92906  0.92472  1.0000
  H   H1900     1.0  0.05346  0.84558  0.64867  1.0000
  H   H1901     1.0  0.07242  0.85970  0.64135  1.0000
  H   H1902     1.0  0.07200  0.86061  0.67602  1.0000
  H   H1903     1.0  0.05353  0.84559  0.68288  1.0000
  H   H1904     1.0  0.07724  0.83673  0.67050  1.0000
  H   H1905     1.0  0.26545  0.95727  0.96219  1.0000
  H   H1906     1.0  0.19330  0.74823  0.65488  1.0000
  H   H1907     1.0  0.22492  0.75496  0.61930  1.0000
  H   H1908     1.0  0.07986  0.89972  0.58636  1.0000
  H   H1909     1.0  0.06532  0.92040  0.57450  1.0000
  H   H1910     1.0  0.07425  0.92213  0.59552  1.0000
  C   C1087     1.0  0.10570  0.86700  0.55132  1.0000
  C   C1088     1.0  0.31338  0.92561  0.90684  1.0000
  H   H1911     1.0  0.14784  0.95590  0.81456  1.0000
  H   H1912     1.0  0.30755  0.84568  0.82717  1.0000
  H   H1913     1.0  0.18067  0.97338  0.84469  1.0000
  H   H1914     1.0  0.31975  0.81518  0.75078  1.0000
  C   C1089     1.0  0.16537  0.97910  0.84299  1.0000
  S   S234      1.0  0.01716  0.84815  0.56199  1.0000
  H   H1915     1.0  0.12639  0.75392  0.72944  1.0000
  C   C1090     1.0  0.01056  0.95766  0.59275  1.0000
  H   H1916     1.0  0.22487  0.89197  0.96980  1.0000
  C   C1091     1.0  0.01498  0.86102  0.63650  1.0000
  H   H1917     1.0  0.31629  0.83215  0.89914  1.0000
  H   H1918     1.0  0.19890  0.80632  0.74309  1.0000
  H   H1919     1.0  0.11660  0.87634  0.54443  1.0000
  H   H1920     1.0  0.16781  0.93997  0.80286  1.0000
  C   C1092     1.0  0.01608  0.77972  0.60688  1.0000
  H   H1921     1.0  0.99571  0.79101  0.63061  1.0000
  H   H1922     1.0  0.21723  0.91918  0.94355  1.0000
  H   H1923     1.0  0.13683  0.80030  0.78571  1.0000
  H   H1924     1.0  0.03191  0.77844  0.60161  1.0000
  H   H1925     1.0  0.18521  0.74278  0.58958  1.0000
  H   H1926     1.0  0.05906  0.97648  0.58487  1.0000
  H   H1927     1.0  0.00112  0.97466  0.61541  1.0000
  H   H1928     1.0  0.12220  0.77650  0.75255  1.0000
  H   H1929     1.0  0.99964  0.83863  0.63495  1.0000
  H   H1930     1.0  0.17915  0.84082  0.97561  1.0000
  H   H1931     1.0  0.12671  0.77598  0.71215  1.0000
  C   C1093     1.0  0.06919  0.96555  0.74033  1.0000
  C   C1094     1.0  0.15469  0.96432  0.78331  1.0000
  H   H1932     1.0  0.01476  0.80482  0.61965  1.0000
  H   H1933     1.0  0.18156  0.82845  0.73978  1.0000
  C   C1095     1.0  0.15342  0.94911  0.80159  1.0000
  C   C1096     1.0  0.09120  0.86845  0.53807  1.0000
  C   C1097     1.0  0.11377  0.95295  0.90600  1.0000
  H   H1934     1.0  0.07621  0.92308  0.48282  1.0000
  C   C1098     1.0  0.03823  0.73966  0.63801  1.0000
  H   H1935     1.0  0.20726  0.78508  0.63145  1.0000
  H   H1936     1.0  0.13654  0.74813  0.76884  1.0000
  C   C1099     1.0  0.10874  0.83038  0.77920  1.0000
  S   S235      1.0  0.00428  0.90398  0.53907  1.0000
  C   C1100     1.0  0.05389  0.73831  0.62280  1.0000
  H   H1937     1.0  0.00981  0.80508  0.58606  1.0000
  H   H1938     1.0  0.09953  0.94879  0.70885  1.0000
  C   C1101     1.0  0.14814  0.77027  0.73102  1.0000
  H   H1939     1.0  0.28311  0.89517  0.79925  1.0000
  H   H1940     1.0  0.09952  0.86462  0.52420  1.0000
  C   C1102     1.0  0.01294  0.97021  0.60432  1.0000
  H   H1941     1.0  0.25584  0.97864  0.97288  1.0000
  H   H1942     1.0  0.08823  0.89931  0.53406  1.0000
  H   H1943     1.0  0.23600  0.74557  0.59123  1.0000
  H   H1944     1.0  0.01485  0.80598  0.55325  1.0000
  H   H1945     1.0  0.21648  0.75502  0.65385  1.0000
  S   S236      1.0  0.10479  0.97247  0.95636  1.0000
  C   C1103     1.0  0.10451  0.97084  0.93242  1.0000
  H   H1946     1.0  0.22912  0.85369  0.96438  1.0000
  H   H1947     1.0  0.00095  0.93889  0.63388  1.0000
  H   H1948     1.0  0.16068  0.81664  0.77046  1.0000
  C   C1104     1.0  0.02068  0.90143  0.63727  1.0000
  S   S237      1.0  0.10695  0.96700  0.86947  1.0000
  C   C1105     1.0  0.10534  0.96876  0.89371  1.0000
  H   H1949     1.0  0.15357  0.97197  0.87284  1.0000
  H   H1950     1.0  0.00853  0.85191  0.61186  1.0000
  H   H1951     1.0  0.14545  0.75545  0.70872  1.0000
  C   C1106     1.0  0.05319  0.94942  0.51459  1.0000
  C   C1107     1.0  0.11465  0.96069  0.68131  1.0000
  H   H1952     1.0  0.07426  0.77195  0.55606  1.0000
  C   C1108     1.0  0.07852  0.88884  0.53522  1.0000
  H   H1953     1.0  0.06306  0.75959  0.57855  1.0000
  H   H1954     1.0  0.14318  0.93979  0.80092  1.0000
  H   H1955     1.0  0.15950  0.97159  0.71315  1.0000
  H   H1956     1.0  0.01807  0.85388  0.65098  1.0000
  H   H1957     1.0  0.19399  0.91266  0.94509  1.0000
  H   H1958     1.0  0.02008  0.78207  0.63522  1.0000
  H   H1959     1.0  0.20783  0.84709  0.96163  1.0000
  H   H1960     1.0  0.19009  0.78299  0.65365  1.0000
  H   H1961     1.0  0.04221  0.79033  0.56885  1.0000
  H   H1962     1.0  0.23891  0.79994  0.97457  1.0000
  S   S238      1.0  0.99652  0.89247  0.58641  1.0000
  H   H1963     1.0  0.11337  0.85189  0.55431  1.0000
  H   H1964     1.0  0.15533  0.95090  0.91496  1.0000
  S   S239      1.0  0.09282  0.97175  0.67338  1.0000
  H   H1965     1.0  0.13375  0.97072  0.65554  1.0000
  H   H1966     1.0  0.00881  0.89568  0.64805  1.0000
  H   H1967     1.0  0.01025  0.94631  0.65192  1.0000
  H   H1968     1.0  0.09637  0.89813  0.50181  1.0000
  C   C1109     1.0  0.00668  0.93379  0.64756  1.0000
  H   H1969     1.0  0.18266  0.96877  0.78415  1.0000
  H   H1970     1.0  0.17634  0.97238  0.89360  1.0000
  H   H1971     1.0  0.99570  0.83518  0.53770  1.0000
  H   H1972     1.0  0.15045  0.97667  0.74667  1.0000
  H   H1973     1.0  0.13247  0.74207  0.48493  1.0000
  H   H1974     1.0  0.17782  0.95826  0.72681  1.0000
  C   C1110     1.0  0.25223  0.96548  0.96986  1.0000
  H   H1975     1.0  0.10205  0.84469  0.77199  1.0000
  C   C1111     1.0  0.31733  0.81961  0.84583  1.0000
  H   H1976     1.0  0.06538  0.96317  0.72698  1.0000
  H   H1977     1.0  0.00453  0.74244  0.59204  1.0000
  H   H1978     1.0  0.02948  0.91340  0.65916  1.0000
  C   C1112     1.0  0.31755  0.83215  0.82820  1.0000
  C   C1113     1.0  0.02484  0.91841  0.64495  1.0000
  H   H1979     1.0  0.18177  0.98040  0.71042  1.0000
  H   H1980     1.0  0.13823  0.98274  0.89979  1.0000
  H   H1981     1.0  0.06251  0.90667  0.47918  1.0000
  H   H1982     1.0  0.13886  0.73368  0.63709  1.0000
  Fe  Fe117     1.0  0.38229  0.11975  0.22446  1.0000
  S   S240      1.0  0.35449  0.10843  0.23575  1.0000
  S   S241      1.0  0.40981  0.11187  0.23684  1.0000
  Fe  Fe118     1.0  0.36765  0.14538  0.18917  1.0000
  H   H1983     1.0  0.42571  0.22951  0.08763  1.0000
  S   S242      1.0  0.37591  0.16402  0.16042  1.0000
  H   H1984     1.0  0.56913  0.18808  0.02383  1.0000
  Fe  Fe119     1.0  0.35559  0.10646  0.20478  1.0000
  S   S243      1.0  0.35191  0.07960  0.19592  1.0000
  S   S244      1.0  0.36797  0.15074  0.21858  1.0000
  S   S245      1.0  0.38442  0.11540  0.19426  1.0000
  Fe  Fe120     1.0  0.39915  0.03311  0.06743  1.0000
  S   S246      1.0  0.42541  0.02337  0.08190  1.0000
  S   S247      1.0  0.40120  0.01738  0.04236  1.0000
  Fe  Fe121     1.0  0.38126  0.06146  0.09554  1.0000
  S   S248      1.0  0.40592  0.05305  0.11191  1.0000
  S   S249      1.0  0.35862  0.08573  0.10586  1.0000
  Fe  Fe122     1.0  0.42467  0.05458  0.08277  1.0000
  S   S250      1.0  0.45013  0.07081  0.07226  1.0000
  Fe  Fe123     1.0  0.40399  0.02300  0.10952  1.0000
  C   C1114     1.0  0.42537  0.07603  0.47737  1.0000
  S   S251      1.0  0.40001  0.06447  0.06622  1.0000
  S   S252      1.0  0.37780  0.03124  0.09518  1.0000
  C   C1115     1.0  0.37595  0.18419  0.46599  1.0000
  Fe  Fe124     1.0  0.40069  0.02162  0.31696  1.0000
  S   S253      1.0  0.37014  0.03588  0.31603  1.0000
  S   S254      1.0  0.42492  0.03656  0.29934  1.0000
  Fe  Fe125     1.0  0.36510  0.02627  0.34812  1.0000
  S   S255      1.0  0.34852  0.04847  0.36674  1.0000
  Fe  Fe126     1.0  0.36527  0.00700  0.31335  1.0000
  S   S256      1.0  0.39626  0.01352  0.34926  1.0000
  H   H1985     1.0  0.34718  0.11469  0.13022  1.0000
  H   H1986     1.0  0.34537  0.11258  0.16538  1.0000
  Fe  Fe127     1.0  0.37046  0.13993  0.43406  1.0000
  S   S257      1.0  0.35155  0.11889  0.43439  1.0000
  S   S258      1.0  0.37460  0.16520  0.41032  1.0000
  Fe  Fe128     1.0  0.37657  0.09660  0.44273  1.0000
  S   S259      1.0  0.38706  0.06941  0.42981  1.0000
  C   C1116     1.0  0.43440  0.06126  0.44864  1.0000
  S   S260      1.0  0.39647  0.11758  0.44033  1.0000
  H   H1987     1.0  0.42992  0.04758  0.45682  1.0000
  H   H1988     1.0  0.33982  0.11481  0.37471  1.0000
  H   H1989     1.0  0.36498  0.05344  0.13632  1.0000
  H   H1990     1.0  0.37970  0.99301  0.22355  1.0000
  C   C1117     1.0  0.35136  0.00701  0.03038  1.0000
  H   H1991     1.0  0.37179  0.00448  0.18771  1.0000
  C   C1118     1.0  0.44050  0.02857  0.35910  1.0000
  Fe  Fe129     1.0  0.51240  0.18603  0.09803  1.0000
  S   S261      1.0  0.52193  0.19056  0.06614  1.0000
  S   S262      1.0  0.51491  0.21320  0.10793  1.0000
  Fe  Fe130     1.0  0.49769  0.14896  0.09684  1.0000
  S   S263      1.0  0.50703  0.15153  0.06483  1.0000
  S   S264      1.0  0.47951  0.12648  0.11384  1.0000
  Fe  Fe131     1.0  0.53412  0.15910  0.06976  1.0000
  Fe  Fe132     1.0  0.49416  0.18269  0.06439  1.0000
  S   S265      1.0  0.52602  0.15457  0.10213  1.0000
  S   S266      1.0  0.48339  0.18003  0.09601  1.0000
  H   H1992     1.0  0.44347  0.09133  0.25182  1.0000
  C   C1119     1.0  0.36165  0.17251  0.33421  1.0000
  H   H1993     1.0  0.36683  0.17382  0.30323  1.0000
  H   H1994     1.0  0.45748  0.20908  0.07830  1.0000
  C   C1120     1.0  0.53201  0.21754  0.12023  1.0000
  Fe  Fe133     1.0  0.38832  0.98644  0.34486  1.0000
  H   H1995     1.0  0.40415  0.11524  0.39790  1.0000
  H   H1996     1.0  0.42881  0.02153  0.36880  1.0000
  C   C1121     1.0  0.53666  0.20545  0.13713  1.0000
  C   C1122     1.0  0.34788  0.00285  0.15295  1.0000
  H   H1997     1.0  0.53110  0.19212  0.14200  1.0000
  C   C1123     1.0  0.58562  0.11701  0.00630  1.0000
  C   C1124     1.0  0.59321  0.13356  0.00516  1.0000
  C   C1125     1.0  0.58620  0.14511  0.01943  1.0000
  C   C1126     1.0  0.57139  0.14034  0.03472  1.0000
  C   C1127     1.0  0.56307  0.12437  0.03529  1.0000
  C   C1128     1.0  0.57017  0.11274  0.02107  1.0000
  H   H1998     1.0  0.37678  0.07874  0.30663  1.0000
  H   H1999     1.0  0.55171  0.12053  0.04709  1.0000
  H   H2000     1.0  0.56414  0.10001  0.02194  1.0000
  C   C1129     1.0  0.36159  0.05595  0.25256  1.0000
  H   H2001     1.0  0.35755  0.13090  0.34469  1.0000
  C   C1130     1.0  0.43005  0.15509  0.06893  1.0000
  C   C1131     1.0  0.35592  0.17516  0.39685  1.0000
  C   C1132     1.0  0.33985  0.16636  0.39876  1.0000
  C   C1133     1.0  0.33965  0.98897  0.26426  1.0000
  C   C1134     1.0  0.53655  0.18257  0.01033  1.0000
  C   C1135     1.0  0.35736  0.19231  0.38374  1.0000
  H   H2002     1.0  0.33862  0.15313  0.40879  1.0000
  C   C1136     1.0  0.62507  0.03597  0.00078  1.0000
  H   H2003     1.0  0.36973  0.19920  0.38217  1.0000
  C   C1137     1.0  0.35872  0.05364  0.38500  1.0000
  C   C1138     1.0  0.37530  0.04196  0.39108  1.0000
  C   C1139     1.0  0.38355  0.04682  0.40506  1.0000
  C   C1140     1.0  0.37540  0.06346  0.41306  1.0000
  C   C1141     1.0  0.35862  0.07504  0.40721  1.0000
  C   C1142     1.0  0.35027  0.07008  0.39332  1.0000
  H   H2004     1.0  0.38175  0.02908  0.38510  1.0000
  H   H2005     1.0  0.39640  0.03766  0.40960  1.0000
  H   H2006     1.0  0.35215  0.08786  0.41326  1.0000
  H   H2007     1.0  0.43244  0.03542  0.42598  1.0000
  C   C1143     1.0  0.38417  0.00930  0.03262  1.0000
  C   C1144     1.0  0.39113  0.99813  0.01799  1.0000
  C   C1145     1.0  0.36416  0.01360  0.03889  1.0000
  H   H2008     1.0  0.35856  0.02244  0.04989  1.0000
  C   C1146     1.0  0.45818  0.08589  0.08432  1.0000
  C   C1147     1.0  0.45219  0.08609  0.10402  1.0000
  C   C1148     1.0  0.45900  0.09835  0.11293  1.0000
  C   C1149     1.0  0.47173  0.11069  0.10225  1.0000
  C   C1150     1.0  0.47789  0.11024  0.08260  1.0000
  C   C1151     1.0  0.47120  0.09791  0.07373  1.0000
  H   H2009     1.0  0.44257  0.07654  0.11241  1.0000
  H   H2010     1.0  0.45456  0.09804  0.12820  1.0000
  H   H2011     1.0  0.48791  0.11927  0.07418  1.0000
  H   H2012     1.0  0.47611  0.09770  0.05852  1.0000
  C   C1152     1.0  0.50547  0.13257  0.02344  1.0000
  C   C1153     1.0  0.36619  0.00671  0.14371  1.0000
  H   H2013     1.0  0.51098  0.11886  0.03252  1.0000
  H   H2014     1.0  0.61751  0.11778  0.06661  1.0000
  H   H2015     1.0  0.36751  0.02059  0.13497  1.0000
  C   C1154     1.0  0.62560  0.10591  0.05881  1.0000
  C   C1155     1.0  0.37870  0.18753  0.16068  1.0000
  C   C1156     1.0  0.38280  0.20002  0.14322  1.0000
  H   H2016     1.0  0.64634  0.23228  0.16506  1.0000
  C   C1157     1.0  0.37917  0.21279  0.17796  1.0000
  C   C1158     1.0  0.37690  0.19396  0.17803  1.0000
  H   H2017     1.0  0.38394  0.19523  0.12975  1.0000
  H   H2018     1.0  0.47651  0.22504  0.09525  1.0000
  H   H2019     1.0  0.37366  0.18451  0.19153  1.0000
  H   H2020     1.0  0.33977  0.11898  0.34010  1.0000
  C   C1159     1.0  0.35839  0.99532  0.01616  1.0000
  C   C1160     1.0  0.35643  0.08420  0.13089  1.0000
  C   C1161     1.0  0.35061  0.10086  0.13921  1.0000
  C   C1162     1.0  0.34958  0.09965  0.15912  1.0000
  C   C1163     1.0  0.35364  0.08170  0.17085  1.0000
  C   C1164     1.0  0.35893  0.06507  0.16254  1.0000
  C   C1165     1.0  0.36067  0.06634  0.14262  1.0000
  H   H2021     1.0  0.37080  0.10633  0.05549  1.0000
  H   H2022     1.0  0.36721  0.06312  0.23784  1.0000
  H   H2023     1.0  0.36184  0.05116  0.17143  1.0000
  C   C1166     1.0  0.41341  0.09030  0.25352  1.0000
  C   C1167     1.0  0.39840  0.08005  0.26218  1.0000
  C   C1168     1.0  0.40173  0.06325  0.27600  1.0000
  C   C1169     1.0  0.42006  0.05676  0.28127  1.0000
  C   C1170     1.0  0.43509  0.06684  0.27222  1.0000
  C   C1171     1.0  0.43176  0.08356  0.25853  1.0000
  H   H2024     1.0  0.38422  0.08520  0.25838  1.0000
  H   H2025     1.0  0.39015  0.05538  0.28251  1.0000
  H   H2026     1.0  0.44934  0.06183  0.27603  1.0000
  H   H2027     1.0  0.45188  0.10321  0.47252  1.0000
  S   S267      1.0  0.56491  0.15372  0.05357  1.0000
  H   H2028     1.0  0.55509  0.15449  0.99219  1.0000
  H   H2029     1.0  0.44927  0.01827  0.34977  1.0000
  H   H2030     1.0  0.36337  0.17070  0.12211  1.0000
  H   H2031     1.0  0.62870  0.17081  0.01658  1.0000
  C   C1172     1.0  0.44891  0.05580  0.43053  1.0000
  H   H2032     1.0  0.61984  0.20879  0.15486  1.0000
  C   C1173     1.0  0.61167  0.19725  0.15517  1.0000
  C   C1174     1.0  0.51430  0.16408  0.00391  1.0000
  H   H2033     1.0  0.37422  0.13088  0.04674  1.0000
  H   H2034     1.0  0.49034  0.19966  0.99759  1.0000
  C   C1175     1.0  0.33227  0.15037  0.33407  1.0000
  H   H2035     1.0  0.39050  0.09712  0.14132  1.0000
  H   H2036     1.0  0.53319  0.13533  0.00619  1.0000
  C   C1176     1.0  0.64890  0.19272  0.06168  1.0000
  H   H2037     1.0  0.36083  0.16151  0.34754  1.0000
  H   H2038     1.0  0.45801  0.15488  0.07657  1.0000
  H   H2039     1.0  0.34487  0.03981  0.24277  1.0000
  C   C1177     1.0  0.54643  0.16579  0.98276  1.0000
  H   H2040     1.0  0.38247  0.10680  0.39729  1.0000
  H   H2041     1.0  0.47142  0.11788  0.44208  1.0000
  H   H2042     1.0  0.38671  0.00647  0.25091  1.0000
  H   H2043     1.0  0.54768  0.20434  0.03226  1.0000
  H   H2044     1.0  0.40935  0.99207  0.24258  1.0000
  C   C1178     1.0  0.45186  0.15478  0.06370  1.0000
  H   H2045     1.0  0.52431  0.18742  0.02157  1.0000
  H   H2046     1.0  0.41645  0.09034  0.13561  1.0000
  C   C1179     1.0  0.37785  0.08981  0.33216  1.0000
  H   H2047     1.0  0.55106  0.01124  0.01933  1.0000
  H   H2048     1.0  0.44925  0.12802  0.43253  1.0000
  N   N66       1.0  0.40794  0.07932  0.34873  1.0000
  C   C1180     1.0  0.39379  0.07328  0.33934  1.0000
  C   C1181     1.0  0.41946  0.06158  0.35903  1.0000
  C   C1182     1.0  0.39630  0.09089  0.36386  1.0000
  C   C1183     1.0  0.42117  0.09160  0.33468  1.0000
  C   C1184     1.0  0.42679  0.08777  0.31367  1.0000
  C   C1185     1.0  0.48808  0.17189  0.15605  1.0000
  C   C1186     1.0  0.40789  0.09636  0.37717  1.0000
  C   C1187     1.0  0.43191  0.04693  0.34654  1.0000
  H   H2049     1.0  0.45000  0.03181  0.36788  1.0000
  C   C1188     1.0  0.44242  0.09917  0.30218  1.0000
  C   C1189     1.0  0.65037  0.09858  0.03021  1.0000
  C   C1190     1.0  0.39559  0.11188  0.38829  1.0000
  H   H2050     1.0  0.38623  0.06227  0.34962  1.0000
  H   H2051     1.0  0.40128  0.06589  0.32709  1.0000
  H   H2052     1.0  0.42975  0.06552  0.36645  1.0000
  H   H2053     1.0  0.40952  0.05376  0.37050  1.0000
  H   H2054     1.0  0.38511  0.08297  0.37329  1.0000
  H   H2055     1.0  0.38825  0.10467  0.35700  1.0000
  H   H2056     1.0  0.41457  0.10715  0.33349  1.0000
  H   H2057     1.0  0.43483  0.09032  0.34023  1.0000
  H   H2058     1.0  0.41408  0.09230  0.30622  1.0000
  H   H2059     1.0  0.43230  0.07238  0.31298  1.0000
  H   H2060     1.0  0.34269  0.16898  0.11257  1.0000
  H   H2061     1.0  0.41057  0.00330  0.27190  1.0000
  H   H2062     1.0  0.42103  0.10185  0.36882  1.0000
  H   H2063     1.0  0.41231  0.08358  0.38795  1.0000
  H   H2064     1.0  0.42328  0.04263  0.33770  1.0000
  H   H2065     1.0  0.44421  0.05309  0.33706  1.0000
  C   C1191     1.0  0.34243  0.04979  0.25306  1.0000
  H   H2066     1.0  0.33591  0.01110  0.03475  1.0000
  H   H2067     1.0  0.64416  0.14532  0.05884  1.0000
  H   H2068     1.0  0.45590  0.09444  0.30843  1.0000
  H   H2069     1.0  0.44587  0.09670  0.28708  1.0000
  H   H2070     1.0  0.43733  0.11484  0.30203  1.0000
  H   H2071     1.0  0.49185  0.18577  0.15698  1.0000
  C   C1192     1.0  0.32794  0.21878  0.16279  1.0000
  N   N67       1.0  0.52933  0.17656  0.99468  1.0000
  H   H2072     1.0  0.39113  0.12535  0.37832  1.0000
  H   H2073     1.0  0.35971  0.06586  0.26292  1.0000
  H   H2074     1.0  0.35761  0.11603  0.27715  1.0000
  Fe  Fe134     1.0  0.34321  0.12004  0.46596  1.0000
  H   H2075     1.0  0.62350  0.14131  0.04102  1.0000
  H   H2076     1.0  0.40572  0.10433  0.15436  1.0000
  H   H2077     1.0  0.43921  0.09511  0.43723  1.0000
  H   H2078     1.0  0.50289  0.17149  0.01429  1.0000
  H   H2079     1.0  0.34897  0.18410  0.33629  1.0000
  H   H2080     1.0  0.64032  0.12648  0.07924  1.0000
  H   H2081     1.0  0.38123  0.19487  0.45354  1.0000
  H   H2082     1.0  0.41633  0.15102  0.47197  1.0000
  H   H2083     1.0  0.34258  0.21023  0.12671  1.0000
  C   C1193     1.0  0.38271  0.99278  0.14599  1.0000
  S   S268      1.0  0.59570  0.10096  0.99007  1.0000
  H   H2084     1.0  0.32710  0.22173  0.19264  1.0000
  H   H2085     1.0  0.39393  0.13177  0.13097  1.0000
  C   C1194     1.0  0.40046  0.13062  0.07093  1.0000
  H   H2086     1.0  0.34406  0.21401  0.36269  1.0000
  H   H2087     1.0  0.56669  0.21344  0.01442  1.0000
  C   C1195     1.0  0.34180  0.13141  0.34582  1.0000
  H   H2088     1.0  0.62839  0.15789  0.99771  1.0000
  H   H2089     1.0  0.63961  0.09727  0.02167  1.0000
  H   H2090     1.0  0.49696  0.16001  0.16463  1.0000
  C   C1196     1.0  0.63328  0.13149  0.03167  1.0000
  C   C1197     1.0  0.38322  0.22527  0.16052  1.0000
  H   H2091     1.0  0.42326  0.16909  0.07355  1.0000
  H   H2092     1.0  0.65244  0.22756  0.18890  1.0000
  C   C1198     1.0  0.35835  0.16977  0.10884  1.0000
  H   H2093     1.0  0.33554  0.04660  0.45461  1.0000
  C   C1199     1.0  0.55869  0.20123  0.01953  1.0000
  C   C1200     1.0  0.64805  0.14297  0.01757  1.0000
  H   H2094     1.0  0.39302  0.16975  0.33082  1.0000
  C   C1201     1.0  0.44793  0.08954  0.44898  1.0000
  H   H2095     1.0  0.57737  0.01087  0.99127  1.0000
  H   H2096     1.0  0.37083  0.15291  0.28066  1.0000
  H   H2097     1.0  0.36691  0.13917  0.11205  1.0000
  C   C1202     1.0  0.61043  0.09810  0.05156  1.0000
  H   H2098     1.0  0.58278  0.08863  0.06196  1.0000
  H   H2099     1.0  0.54530  0.16997  0.01820  1.0000
  H   H2100     1.0  0.41367  0.10496  0.10118  1.0000
  H   H2101     1.0  0.49987  0.12911  0.01158  1.0000
  H   H2102     1.0  0.60488  0.10836  0.03945  1.0000
  H   H2103     1.0  0.33736  0.07911  0.38881  1.0000
  H   H2104     1.0  0.54139  0.02062  0.99744  1.0000
  H   H2105     1.0  0.34274  0.06982  0.44923  1.0000
  H   H2106     1.0  0.33229  0.07696  0.23567  1.0000
  H   H2107     1.0  0.46320  0.08649  0.44148  1.0000
  H   H2108     1.0  0.45921  0.14179  0.05741  1.0000
  C   C1203     1.0  0.59313  0.09464  0.06748  1.0000
  H   H2109     1.0  0.56873  0.21187  0.08686  1.0000
  C   C1204     1.0  0.36957  0.15184  0.10081  1.0000
  H   H2110     1.0  0.34863  0.99648  0.25239  1.0000
  H   H2111     1.0  0.45842  0.18451  0.15515  1.0000
  H   H2112     1.0  0.37421  0.12890  0.25953  1.0000
  H   H2113     1.0  0.42112  0.07043  0.44379  1.0000
  H   H2114     1.0  0.37231  0.04308  0.25692  1.0000
  H   H2115     1.0  0.56096  0.19528  0.99140  1.0000
  H   H2116     1.0  0.39197  0.10225  0.07920  1.0000
  H   H2117     1.0  0.52803  0.14592  0.02746  1.0000
  N   N68       1.0  0.44183  0.07127  0.46126  1.0000
  C   C1205     1.0  0.57069  0.04206  0.97895  1.0000
  C   C1206     1.0  0.45560  0.12303  0.44588  1.0000
  H   H2118     1.0  0.38867  0.11318  0.10786  1.0000
  N   N69       1.0  0.34414  0.15685  0.31472  1.0000
  C   C1207     1.0  0.38519  0.21883  0.14312  1.0000
  C   C1208     1.0  0.52184  0.14411  0.01530  1.0000
  H   H2119     1.0  0.45340  0.13546  0.45340  1.0000
  H   H2120     1.0  0.63155  0.09447  0.07009  1.0000
  H   H2121     1.0  0.37476  0.15113  0.31667  1.0000
  C   C1209     1.0  0.38571  0.11714  0.07297  1.0000
  C   C1210     1.0  0.37984  0.18100  0.33243  1.0000
  C   C1211     1.0  0.54742  0.21126  0.14845  1.0000
  C   C1212     1.0  0.63771  0.16138  0.00651  1.0000
  C   C1213     1.0  0.43073  0.22764  0.07283  1.0000
  C   C1214     1.0  0.44577  0.10706  0.45909  1.0000
  C   C1215     1.0  0.40448  0.10190  0.14003  1.0000
  Fe  Fe135     1.0  0.34012  0.13911  0.22747  1.0000
  H   H2122     1.0  0.62001  0.18685  0.06950  1.0000
  H   H2123     1.0  0.41973  0.12436  0.12493  1.0000
  C   C1216     1.0  0.44349  0.22235  0.03462  1.0000
  H   H2124     1.0  0.42927  0.14121  0.09824  1.0000
  H   H2125     1.0  0.41399  0.12350  0.06251  1.0000
  H   H2126     1.0  0.37193  0.12164  0.08243  1.0000
  C   C1217     1.0  0.40555  0.12044  0.12540  1.0000
  S   S269      1.0  0.47788  0.19957  0.04103  1.0000
  H   H2127     1.0  0.42725  0.01358  0.25219  1.0000
  H   H2128     1.0  0.61687  0.08424  0.04654  1.0000
  H   H2129     1.0  0.38415  0.10256  0.32416  1.0000
  S   S270      1.0  0.36687  0.09601  0.47453  1.0000
  C   C1218     1.0  0.44865  0.21591  0.06757  1.0000
  C   C1219     1.0  0.39137  0.15281  0.09482  1.0000
  C   C1220     1.0  0.38107  0.11643  0.05345  1.0000
  C   C1221     1.0  0.40297  0.11768  0.10537  1.0000
  H   H2130     1.0  0.37924  0.18689  0.34561  1.0000
  H   H2131     1.0  0.47127  0.05575  0.45661  1.0000
  H   H2132     1.0  0.55033  0.20218  0.16188  1.0000
  H   H2133     1.0  0.46104  0.04439  0.43482  1.0000
  H   H2134     1.0  0.36025  0.12847  0.31140  1.0000
  C   C1222     1.0  0.36425  0.01020  0.20088  1.0000
  H   H2135     1.0  0.49336  0.14075  0.03248  1.0000
  N   N70       1.0  0.39715  0.01448  0.20829  1.0000
  C   C1223     1.0  0.39539  0.03161  0.19219  1.0000
  C   C1224     1.0  0.37772  0.00817  0.21576  1.0000
  C   C1225     1.0  0.40325  0.02088  0.22442  1.0000
  C   C1226     1.0  0.41248  0.99800  0.20219  1.0000
  H   H2136     1.0  0.33517  0.01374  0.15097  1.0000
  C   C1227     1.0  0.41403  0.04018  0.18348  1.0000
  C   C1228     1.0  0.40203  0.00693  0.24409  1.0000
  C   C1229     1.0  0.50290  0.20717  0.99201  1.0000
  H   H2137     1.0  0.59265  0.21917  0.12785  1.0000
  C   C1230     1.0  0.37839  0.99079  0.01013  1.0000
  C   C1231     1.0  0.41025  0.05722  0.16735  1.0000
  C   C1232     1.0  0.41166  0.01343  0.25800  1.0000
  H   H2138     1.0  0.38392  0.04340  0.19733  1.0000
  H   H2139     1.0  0.39049  0.02815  0.17993  1.0000
  H   H2140     1.0  0.38532  0.16999  0.46474  1.0000
  H   H2141     1.0  0.36894  0.01697  0.22657  1.0000
  H   H2142     1.0  0.39436  0.03502  0.22715  1.0000
  H   H2143     1.0  0.41849  0.02331  0.22025  1.0000
  C   C1233     1.0  0.33992  0.99098  0.28308  1.0000
  H   H2144     1.0  0.59615  0.05136  0.99850  1.0000
  H   H2145     1.0  0.54014  0.21261  0.99860  1.0000
  H   H2146     1.0  0.33863  0.00558  0.22245  1.0000
  H   H2147     1.0  0.41920  0.04559  0.19442  1.0000
  H   H2148     1.0  0.42572  0.02930  0.17727  1.0000
  H   H2149     1.0  0.60489  0.13711  0.99362  1.0000
  S   S271      1.0  0.40565  0.99752  0.13390  1.0000
  H   H2150     1.0  0.35832  0.02564  0.19646  1.0000
  H   H2151     1.0  0.33736  0.18675  0.19038  1.0000
  H   H2152     1.0  0.33487  0.14043  0.37375  1.0000
  H   H2153     1.0  0.40653  0.99508  0.01272  1.0000
  H   H2154     1.0  0.40749  0.00135  0.17246  1.0000
  H   H2155     1.0  0.33298  0.04643  0.21637  1.0000
  H   H2156     1.0  0.39444  0.11117  0.04368  1.0000
  H   H2157     1.0  0.50650  0.16186  0.99297  1.0000
  H   H2158     1.0  0.39897  0.06882  0.17295  1.0000
  H   H2159     1.0  0.42381  0.06303  0.16127  1.0000
  H   H2160     1.0  0.40540  0.05269  0.15561  1.0000
  H   H2161     1.0  0.40447  0.02801  0.26080  1.0000
  H   H2162     1.0  0.34393  0.21470  0.16149  1.0000
  H   H2163     1.0  0.42708  0.00210  0.19893  1.0000
  N   N71       1.0  0.43945  0.15224  0.16497  1.0000
  C   C1234     1.0  0.42650  0.16613  0.17718  1.0000
  C   C1235     1.0  0.43366  0.15657  0.14533  1.0000
  C   C1236     1.0  0.43560  0.13230  0.17439  1.0000
  C   C1237     1.0  0.46078  0.15255  0.16317  1.0000
  C   C1238     1.0  0.46649  0.17203  0.16367  1.0000
  C   C1239     1.0  0.42805  0.16145  0.19887  1.0000
  C   C1240     1.0  0.44547  0.11588  0.16294  1.0000
  C   C1241     1.0  0.43523  0.17688  0.13345  1.0000
  C   C1242     1.0  0.42866  0.17941  0.11414  1.0000
  H   H2164     1.0  0.35887  0.07218  0.32760  1.0000
  C   C1243     1.0  0.41886  0.17870  0.20884  1.0000
  C   C1244     1.0  0.44354  0.09613  0.17524  1.0000
  H   H2165     1.0  0.41109  0.16645  0.17649  1.0000
  H   H2166     1.0  0.42879  0.18112  0.17152  1.0000
  H   H2167     1.0  0.44287  0.14641  0.13605  1.0000
  H   H2168     1.0  0.41848  0.15434  0.14670  1.0000
  H   H2169     1.0  0.41974  0.13217  0.17738  1.0000
  H   H2170     1.0  0.44042  0.12803  0.18862  1.0000
  H   H2171     1.0  0.46704  0.14201  0.17492  1.0000
  H   H2172     1.0  0.46896  0.14742  0.14970  1.0000
  H   H2173     1.0  0.34000  0.17746  0.28863  1.0000
  C   C1245     1.0  0.36852  0.12545  0.27513  1.0000
  H   H2174     1.0  0.42021  0.14945  0.20624  1.0000
  H   H2175     1.0  0.44333  0.15696  0.20100  1.0000
  H   H2176     1.0  0.46110  0.11628  0.15774  1.0000
  H   H2177     1.0  0.43834  0.11722  0.15042  1.0000
  H   H2178     1.0  0.42615  0.18834  0.14113  1.0000
  H   H2179     1.0  0.45050  0.17893  0.13005  1.0000
  H   H2180     1.0  0.43852  0.16941  0.10513  1.0000
  H   H2181     1.0  0.41366  0.17671  0.11631  1.0000
  H   H2182     1.0  0.42903  0.19437  0.10637  1.0000
  H   H2183     1.0  0.32849  0.16173  0.34316  1.0000
  H   H2184     1.0  0.35588  0.09602  0.31400  1.0000
  C   C1246     1.0  0.36678  0.08375  0.31926  1.0000
  H   H2185     1.0  0.40333  0.18312  0.20752  1.0000
  H   H2186     1.0  0.50670  0.21176  0.00423  1.0000
  H   H2187     1.0  0.42647  0.19104  0.20244  1.0000
  H   H2188     1.0  0.45021  0.08472  0.16646  1.0000
  H   H2189     1.0  0.45106  0.09360  0.18776  1.0000
  H   H2190     1.0  0.42805  0.09503  0.18055  1.0000
  N   N72       1.0  0.60539  0.20924  0.10100  1.0000
  H   H2191     1.0  0.59626  0.20177  0.16148  1.0000
  C   C1247     1.0  0.59129  0.19565  0.10335  1.0000
  C   C1248     1.0  0.60678  0.21175  0.12089  1.0000
  C   C1249     1.0  0.62531  0.20089  0.09146  1.0000
  C   C1250     1.0  0.62756  0.19849  0.07027  1.0000
  C   C1251     1.0  0.61326  0.19308  0.13494  1.0000
  C   C1252     1.0  0.57947  0.19827  0.08699  1.0000
  C   C1253     1.0  0.56819  0.18187  0.09003  1.0000
  S   S272      1.0  0.33867  0.13610  0.19740  1.0000
  H   H2192     1.0  0.33700  0.13332  0.30483  1.0000
  H   H2193     1.0  0.65022  0.19031  0.04672  1.0000
  C   C1254     1.0  0.65630  0.21879  0.11968  1.0000
  H   H2194     1.0  0.59892  0.18042  0.10567  1.0000
  H   H2195     1.0  0.58008  0.19708  0.11654  1.0000
  H   H2196     1.0  0.36349  0.15129  0.08806  1.0000
  S   S273      1.0  0.39639  0.99307  0.31276  1.0000
  H   H2197     1.0  0.63601  0.20958  0.09232  1.0000
  H   H2198     1.0  0.63036  0.18632  0.09939  1.0000
  H   H2199     1.0  0.38075  0.11755  0.28250  1.0000
  H   H2200     1.0  0.34830  0.15192  0.27381  1.0000
  H   H2201     1.0  0.62863  0.18690  0.13008  1.0000
  H   H2202     1.0  0.60429  0.18202  0.13608  1.0000
  H   H2203     1.0  0.42777  0.05922  0.41182  1.0000
  H   H2204     1.0  0.58878  0.19880  0.07264  1.0000
  H   H2205     1.0  0.55970  0.18432  0.07829  1.0000
  H   H2206     1.0  0.57818  0.16784  0.08972  1.0000
  H   H2207     1.0  0.55797  0.18127  0.10396  1.0000
  H   H2208     1.0  0.45479  0.16767  0.05283  1.0000
  H   H2209     1.0  0.36080  0.18354  0.46527  1.0000
  H   H2210     1.0  0.42489  0.15457  0.05564  1.0000
  H   H2211     1.0  0.45001  0.04309  0.40548  1.0000
  H   H2212     1.0  0.36706  0.09397  0.34472  1.0000
  H   H2213     1.0  0.49169  0.17009  0.14070  1.0000
  H   H2214     1.0  0.65555  0.17925  0.07030  1.0000
  H   H2215     1.0  0.59265  0.15750  0.01887  1.0000
  C   C1255     1.0  0.65090  0.13130  0.06643  1.0000
  H   H2216     1.0  0.39240  0.16509  0.08263  1.0000
  H   H2217     1.0  0.59790  0.08426  0.08003  1.0000
  C   C1256     1.0  0.52014  0.19383  0.98178  1.0000
  H   H2218     1.0  0.65265  0.20783  0.13190  1.0000
  N   N73       1.0  0.40450  0.13482  0.08930  1.0000
  H   H2219     1.0  0.38084  0.19290  0.31988  1.0000
  H   H2220     1.0  0.56580  0.05519  0.98574  1.0000
  C   C1257     1.0  0.34702  1.00000  0.20944  1.0000
  C   C1258     1.0  0.33277  0.12871  0.36709  1.0000
  H   H2221     1.0  0.62394  0.12849  0.02266  1.0000
  H   H2222     1.0  0.41985  0.17472  0.22438  1.0000
  C   C1259     1.0  0.42518  0.13816  0.08536  1.0000
  C   C1260     1.0  0.34984  0.13993  0.30420  1.0000
  S   S274      1.0  0.35462  0.00631  0.28616  1.0000
  C   C1261     1.0  0.36233  0.16339  0.31635  1.0000
  H   H2223     1.0  0.41334  0.98555  0.21419  1.0000
  H   H2224     1.0  0.39557  0.14428  0.06134  1.0000
  H   H2225     1.0  0.46347  0.17472  0.17869  1.0000
  H   H2226     1.0  0.61769  0.18403  0.16459  1.0000
  C   C1262     1.0  0.55389  0.22901  0.14284  1.0000
  H   H2227     1.0  0.50945  0.22356  0.03515  1.0000
  H   H2228     1.0  0.64901  0.07230  0.05253  1.0000
  C   C1263     1.0  0.34283  0.20070  0.37272  1.0000
  H   H2229     1.0  0.37759  0.21775  0.19143  1.0000
  H   H2230     1.0  0.58543  0.10841  0.07215  1.0000
  H   H2231     1.0  0.39622  0.15720  0.10665  1.0000
  N   N74       1.0  0.64166  0.11292  0.04352  1.0000
  H   H2232     1.0  0.62036  0.02259  0.00946  1.0000
  C   C1264     1.0  0.54916  0.19861  0.00346  1.0000
  C   C1265     1.0  0.45516  0.21341  0.04840  1.0000
  H   H2233     1.0  0.45499  0.06836  0.42166  1.0000
  H   H2234     1.0  0.43526  0.12480  0.08194  1.0000
  S   S275      1.0  0.35658  0.99866  0.34545  1.0000
  C   C1266     1.0  0.35939  0.14412  0.28273  1.0000
  H   H2235     1.0  0.38833  0.22842  0.12960  1.0000
  H   H2236     1.0  0.39621  0.98782  0.09751  1.0000
  S   S276      1.0  0.35980  0.14328  0.46493  1.0000
  C   C1267     1.0  0.43914  0.04790  0.41772  1.0000
  H   H2237     1.0  0.33722  0.00268  0.19879  1.0000
  H   H2238     1.0  0.47618  0.23068  0.12830  1.0000
  C   C1268     1.0  0.57093  0.02480  0.99599  1.0000
  C   C1269     1.0  0.32675  0.19198  0.37462  1.0000
  H   H2239     1.0  0.33460  0.19868  0.31222  1.0000
  C   C1270     1.0  0.60990  0.04728  0.98871  1.0000
  H   H2240     1.0  0.33823  0.04191  0.26779  1.0000
  H   H2241     1.0  0.35813  0.23082  0.09797  1.0000
  H   H2242     1.0  0.45605  0.22003  0.12702  1.0000
  C   C1271     1.0  0.32638  0.06740  0.24884  1.0000
  H   H2243     1.0  0.54358  0.03683  0.01259  1.0000
  H   H2244     1.0  0.36030  0.18297  0.09804  1.0000
  C   C1272     1.0  0.45892  0.05786  0.46866  1.0000
  Fe  Fe136     1.0  0.38441  0.11936  0.47145  1.0000
  H   H2245     1.0  0.62185  0.21199  0.06112  1.0000
  C   C1273     1.0  0.33167  0.17254  0.30303  1.0000
  C   C1274     1.0  0.34596  0.98512  0.16484  1.0000
  H   H2246     1.0  0.65064  0.06243  0.02121  1.0000
  H   H2247     1.0  0.34232  0.21757  0.09184  1.0000
  H   H2248     1.0  0.57951  0.02661  0.00639  1.0000
  H   H2249     1.0  0.62704  0.04493  0.01074  1.0000
  H   H2250     1.0  0.41311  0.08597  0.47131  1.0000
  C   C1275     1.0  0.33398  0.22414  0.12079  1.0000
  S   S277      1.0  0.34175  0.98773  0.00543  1.0000
  H   H2251     1.0  0.43020  0.11323  0.46277  1.0000
  H   H2252     1.0  0.59574  0.22798  0.07571  1.0000
  H   H2253     1.0  0.65708  0.20427  0.06134  1.0000
  C   C1276     1.0  0.40984  0.98985  0.18498  1.0000
  H   H2254     1.0  0.44835  0.22042  0.01980  1.0000
  H   H2255     1.0  0.64861  0.16935  0.99665  1.0000
  H   H2256     1.0  0.65692  0.13434  0.00678  1.0000
  C   C1277     1.0  0.34278  0.22920  0.09954  1.0000
  H   H2257     1.0  0.65785  0.14727  0.02526  1.0000
  H   H2258     1.0  0.33537  0.00788  0.10699  1.0000
  C   C1278     1.0  0.55046  0.02335  0.00695  1.0000
  C   C1279     1.0  0.59784  0.22884  0.09025  1.0000
  H   H2259     1.0  0.61724  0.22124  0.12014  1.0000
  H   H2260     1.0  0.60762  0.02053  0.98096  1.0000
  H   H2261     1.0  0.45543  0.04320  0.47445  1.0000
  C   C1280     1.0  0.32947  0.99614  0.10368  1.0000
  C   C1281     1.0  0.33053  0.06202  0.45582  1.0000
  H   H2262     1.0  0.35194  0.98424  0.21305  1.0000
  H   H2263     1.0  0.43704  0.17165  0.47857  1.0000
  H   H2264     1.0  0.32647  0.06318  0.47132  1.0000
  C   C1282     1.0  0.46262  0.23323  0.12233  1.0000
  C   C1283     1.0  0.65719  0.11582  0.05325  1.0000
  H   H2265     1.0  0.61498  0.06077  0.98101  1.0000
  H   H2266     1.0  0.63920  0.03222  0.99134  1.0000
  H   H2267     1.0  0.34184  0.98479  0.09954  1.0000
  H   H2268     1.0  0.47345  0.07736  0.47769  1.0000
  Fe  Fe137     1.0  0.48202  0.18949  0.56421  1.0000
  S   S278      1.0  0.47135  0.17100  0.59189  1.0000
  S   S279      1.0  0.49372  0.21480  0.56872  1.0000
  Fe  Fe138     1.0  0.46263  0.16984  0.54060  1.0000
  S   S280      1.0  0.45102  0.15025  0.56696  1.0000
  S   S281      1.0  0.45419  0.17120  0.51139  1.0000
  Fe  Fe139     1.0  0.44331  0.17634  0.58114  1.0000
  C   C1284     1.0  0.63554  0.02494  0.78510  1.0000
  Fe  Fe140     1.0  0.48043  0.14695  0.57489  1.0000
  S   S282      1.0  0.49474  0.11807  0.58926  1.0000
  S   S283      1.0  0.45319  0.19627  0.55441  1.0000
  S   S284      1.0  0.49294  0.16499  0.54750  1.0000
  H   H2269     1.0  0.53294  0.00991  0.52300  1.0000
  S   S285      1.0  0.62822  0.20252  0.62958  1.0000
  C   C1285     1.0  0.64579  0.06655  0.65158  1.0000
  Fe  Fe141     1.0  0.58167  0.01393  0.82774  1.0000
  C   C1286     1.0  0.37679  0.19028  0.48472  1.0000
  H   H2270     1.0  0.54619  0.15501  0.61510  1.0000
  S   S286      1.0  0.56389  0.02338  0.64924  1.0000
  C   C1287     1.0  0.63692  0.12765  0.64465  1.0000
  H   H2271     1.0  0.56658  0.13287  0.96787  1.0000
  H   H2272     1.0  0.59538  0.08240  0.82597  1.0000
  C   C1288     1.0  0.53919  0.99544  0.77903  1.0000
  S   S287      1.0  0.62560  0.10640  0.93900  1.0000
  H   H2273     1.0  0.39007  0.19934  0.51329  1.0000
  H   H2274     1.0  0.33687  0.16721  0.65378  1.0000
  S   S288      1.0  0.62161  0.12166  0.73815  1.0000
  S   S289      1.0  0.57650  0.03331  0.79979  1.0000
  Fe  Fe142     1.0  0.58924  0.03254  0.62795  1.0000
  S   S290      1.0  0.62030  0.01784  0.62548  1.0000
  Fe  Fe143     1.0  0.59677  0.06306  0.59285  1.0000
  S   S291      1.0  0.62846  0.05057  0.58732  1.0000
  S   S292      1.0  0.58526  0.08987  0.57308  1.0000
  Fe  Fe144     1.0  0.61914  0.02168  0.59387  1.0000
  Fe  Fe145     1.0  0.62656  0.04808  0.61927  1.0000
  C   C1289     1.0  0.63728  0.17701  0.66142  1.0000
  S   S293      1.0  0.58761  0.03446  0.59690  1.0000
  S   S294      1.0  0.59542  0.06238  0.62428  1.0000
  C   C1290     1.0  0.37005  0.13374  0.55911  1.0000
  H   H2275     1.0  0.32667  0.18618  0.52527  1.0000
  H   H2276     1.0  0.63501  0.03760  0.77330  1.0000
  C   C1291     1.0  0.56011  0.14478  0.95732  1.0000
  H   H2277     1.0  0.35342  0.14783  0.62224  1.0000
  C   C1292     1.0  0.56356  0.99321  0.60862  1.0000
  C   C1293     1.0  0.57713  0.17005  0.61576  1.0000
  H   H2278     1.0  0.51053  0.22643  0.59620  1.0000
  C   C1294     1.0  0.35239  0.19955  0.52283  1.0000
  C   C1295     1.0  0.32637  0.19183  0.61022  1.0000
  S   S295      1.0  0.57719  0.23284  0.56418  1.0000
  C   C1296     1.0  0.51801  0.21561  0.56946  1.0000
  H   H2279     1.0  0.64477  0.12121  0.89377  1.0000
  C   C1297     1.0  0.60561  0.08491  0.79544  1.0000
  C   C1298     1.0  0.60562  0.07782  0.77879  1.0000
  C   C1299     1.0  0.59591  0.06251  0.77996  1.0000
  C   C1300     1.0  0.58674  0.05387  0.79786  1.0000
  C   C1301     1.0  0.58670  0.06103  0.81442  1.0000
  C   C1302     1.0  0.59579  0.07674  0.81314  1.0000
  H   H2280     1.0  0.61321  0.08403  0.76506  1.0000
  H   H2281     1.0  0.59609  0.05694  0.76714  1.0000
  H   H2282     1.0  0.57952  0.05455  0.82826  1.0000
  H   H2283     1.0  0.63801  0.10219  0.88518  1.0000
  C   C1303     1.0  0.63711  0.05123  0.91248  1.0000
  C   C1304     1.0  0.62269  0.15670  0.80325  1.0000
  C   C1305     1.0  0.60686  0.05935  0.89995  1.0000
  C   C1306     1.0  0.62044  0.06444  0.90868  1.0000
  H   H2284     1.0  0.59380  0.06951  0.89749  1.0000
  H   H2285     1.0  0.61781  0.07844  0.91281  1.0000
  C   C1307     1.0  0.59370  0.04881  0.54350  1.0000
  H   H2286     1.0  0.55338  0.98881  0.77153  1.0000
  S   S296      1.0  0.59108  0.03465  0.88602  1.0000
  H   H2287     1.0  0.62931  0.01415  0.89381  1.0000
  H   H2288     1.0  0.59941  0.10607  0.62319  1.0000
  H   H2289     1.0  0.63798  0.08456  0.85772  1.0000
  H   H2290     1.0  0.59507  0.16270  0.52455  1.0000
  H   H2291     1.0  0.54525  0.13653  0.60226  1.0000
  C   C1308     1.0  0.62641  0.19475  0.65450  1.0000
  C   C1309     1.0  0.61493  0.20620  0.66747  1.0000
  C   C1310     1.0  0.61485  0.20019  0.68730  1.0000
  C   C1311     1.0  0.62573  0.18246  0.69424  1.0000
  C   C1312     1.0  0.65066  0.02497  0.79711  1.0000
  H   H2292     1.0  0.59233  0.98648  0.94009  1.0000
  H   H2293     1.0  0.58340  0.00171  0.77109  1.0000
  H   H2294     1.0  0.60615  0.20919  0.69732  1.0000
  H   H2295     1.0  0.63568  0.05122  0.85693  1.0000
  H   H2296     1.0  0.51270  0.09512  0.55436  1.0000
  C   C1313     1.0  0.52013  0.11187  0.58572  1.0000
  C   C1314     1.0  0.53182  0.12162  0.57039  1.0000
  C   C1315     1.0  0.55191  0.11496  0.56681  1.0000
  C   C1316     1.0  0.56032  0.09861  0.57856  1.0000
  C   C1317     1.0  0.54873  0.08926  0.59426  1.0000
  C   C1318     1.0  0.52868  0.09595  0.59784  1.0000
  H   H2297     1.0  0.52533  0.13388  0.56095  1.0000
  H   H2298     1.0  0.56086  0.12223  0.55465  1.0000
  H   H2299     1.0  0.55514  0.07673  0.60349  1.0000
  H   H2300     1.0  0.51968  0.08862  0.60990  1.0000
  C   C1319     1.0  0.43939  0.15612  0.50722  1.0000
  C   C1320     1.0  0.43400  0.14061  0.52113  1.0000
  C   C1321     1.0  0.42240  0.12887  0.51729  1.0000
  C   C1322     1.0  0.57392  0.04311  0.54578  1.0000
  C   C1323     1.0  0.60597  0.12887  0.59883  1.0000
  S   S297      1.0  0.56366  0.01234  0.85738  1.0000
  H   H2301     1.0  0.43890  0.13755  0.53480  1.0000
  H   H2302     1.0  0.60412  0.03476  0.93781  1.0000
  H   H2303     1.0  0.38044  0.11990  0.56014  1.0000
  H   H2304     1.0  0.60943  0.13797  0.60781  1.0000
  H   H2305     1.0  0.58347  0.00923  0.92611  1.0000
  H   H2306     1.0  0.64381  0.13089  0.80516  1.0000
  H   H2307     1.0  0.51121  0.98854  0.79177  1.0000
  H   H2308     1.0  0.34292  0.19286  0.66255  1.0000
  H   H2309     1.0  0.36743  0.20459  0.48499  1.0000
  H   H2310     1.0  0.64533  0.15717  0.68651  1.0000
  H   H2311     1.0  0.35728  0.17050  0.50099  1.0000
  H   H2312     1.0  0.60405  0.98672  0.78018  1.0000
  C   C1324     1.0  0.41699  0.05873  0.49064  1.0000
  H   H2313     1.0  0.65719  0.17326  0.84512  1.0000
  C   C1325     1.0  0.42808  0.20799  0.61530  1.0000
  N   N75       1.0  0.58935  0.04343  0.96475  1.0000
  H   H2314     1.0  0.44199  0.19897  0.61198  1.0000
  H   H2315     1.0  0.58861  0.18801  0.55545  1.0000
  C   C1326     1.0  0.55349  0.99273  0.70249  1.0000
  H   H2316     1.0  0.54148  0.99982  0.79214  1.0000
  H   H2317     1.0  0.65850  0.00555  0.87242  1.0000
  C   C1327     1.0  0.65234  0.99916  0.69633  1.0000
  C   C1328     1.0  0.46708  0.06426  0.48404  1.0000
  H   H2318     1.0  0.54848  0.01724  0.50069  1.0000
  S   S298      1.0  0.64911  0.13866  0.75875  1.0000
  H   H2319     1.0  0.38838  0.16032  0.59335  1.0000
  H   H2320     1.0  0.49776  0.98787  0.90153  1.0000
  H   H2321     1.0  0.62118  0.05924  0.83859  1.0000
  H   H2322     1.0  0.64293  0.13938  0.86069  1.0000
  C   C1329     1.0  0.35803  0.17732  0.62076  1.0000
  H   H2323     1.0  0.60885  0.00255  0.92803  1.0000
  H   H2324     1.0  0.57553  0.02969  0.70395  1.0000
  H   H2325     1.0  0.52053  0.03588  0.54669  1.0000
  H   H2326     1.0  0.49789  0.00120  0.87740  1.0000
  C   C1330     1.0  0.64046  0.03328  0.90651  1.0000
  H   H2327     1.0  0.61342  0.16682  0.81249  1.0000
  C   C1331     1.0  0.59063  0.03289  0.94841  1.0000
  H   H2328     1.0  0.51036  0.07063  0.53655  1.0000
  H   H2329     1.0  0.64625  0.16816  0.65139  1.0000
  C   C1332     1.0  0.55474  0.22516  0.56726  1.0000
  H   H2330     1.0  0.59399  0.05648  0.55518  1.0000
  H   H2331     1.0  0.49956  0.10724  0.52401  1.0000
  C   C1333     1.0  0.58974  0.06439  0.95618  1.0000
  C   C1334     1.0  0.52771  0.05747  0.56824  1.0000
  S   S299      1.0  0.63909  0.08105  0.71185  1.0000
  C   C1335     1.0  0.51395  0.10971  0.52533  1.0000
  H   H2332     1.0  0.41122  0.20668  0.53229  1.0000
  H   H2333     1.0  0.37657  0.20295  0.54743  1.0000
  H   H2334     1.0  0.52367  0.11008  0.51112  1.0000
  C   C1336     1.0  0.63332  0.06224  0.84401  1.0000
  C   C1337     1.0  0.38763  0.19036  0.54385  1.0000
  C   C1338     1.0  0.52446  0.04146  0.60332  1.0000
  C   C1339     1.0  0.57351  0.09652  0.93949  1.0000
  Fe  Fe146     1.0  0.59159  0.01237  0.86732  1.0000
  C   C1340     1.0  0.62686  0.08173  0.85060  1.0000
  H   H2335     1.0  0.36675  0.18743  0.61063  1.0000
  H   H2336     1.0  0.34884  0.20262  0.53772  1.0000
  C   C1341     1.0  0.53275  0.21208  0.55387  1.0000
  H   H2337     1.0  0.60511  0.03572  0.54431  1.0000
  H   H2338     1.0  0.53545  0.16743  0.95605  1.0000
  H   H2339     1.0  0.55384  0.04488  0.51322  1.0000
  C   C1342     1.0  0.55762  0.06109  0.54384  1.0000
  H   H2340     1.0  0.56163  0.10373  0.93138  1.0000
  C   C1343     1.0  0.64526  0.04264  0.80750  1.0000
  H   H2341     1.0  0.64033  0.16061  0.83147  1.0000
  H   H2342     1.0  0.65632  0.01275  0.74730  1.0000
  H   H2343     1.0  0.59874  0.00175  0.66398  1.0000
  H   H2344     1.0  0.39198  0.19186  0.48412  1.0000
  H   H2345     1.0  0.39082  0.14945  0.54065  1.0000
  H   H2346     1.0  0.34815  0.16195  0.53522  1.0000
  C   C1344     1.0  0.41576  0.13259  0.49965  1.0000
  C   C1345     1.0  0.53558  0.03886  0.54192  1.0000
  H   H2347     1.0  0.53686  0.09726  0.54154  1.0000
  Fe  Fe147     1.0  0.63933  0.14505  0.73012  1.0000
  C   C1346     1.0  0.58467  0.13527  0.59546  1.0000
  H   H2348     1.0  0.55843  0.00910  0.52248  1.0000
  H   H2349     1.0  0.35538  0.13064  0.55992  1.0000
  C   C1347     1.0  0.62967  0.06309  0.66565  1.0000
  H   H2350     1.0  0.55815  0.00389  0.61841  1.0000
  H   H2351     1.0  0.56184  0.21541  0.53999  1.0000
  H   H2352     1.0  0.57096  0.15416  0.95039  1.0000
  C   C1348     1.0  0.58612  0.99906  0.67461  1.0000
  H   H2353     1.0  0.40750  0.19888  0.55796  1.0000
  H   H2354     1.0  0.60366  0.17124  0.62534  1.0000
  C   C1349     1.0  0.34814  0.20372  0.65036  1.0000
  H   H2355     1.0  0.38526  0.17780  0.55538  1.0000
  H   H2356     1.0  0.63923  0.01154  0.77895  1.0000
  Fe  Fe148     1.0  0.62464  0.10386  0.97072  1.0000
  H   H2357     1.0  0.37743  0.13907  0.52826  1.0000
  H   H2358     1.0  0.59546  0.99418  0.73905  1.0000
  C   C1350     1.0  0.37625  0.14692  0.54024  1.0000
  H   H2359     1.0  0.35699  0.17112  0.55167  1.0000
  H   H2360     1.0  0.38288  0.13645  0.60153  1.0000
  C   C1351     1.0  0.60156  0.99516  0.56200  1.0000
  C   C1352     1.0  0.52518  0.07370  0.53543  1.0000
  H   H2361     1.0  0.60772  0.09822  0.60014  1.0000
  C   C1353     1.0  0.63686  0.17081  0.68127  1.0000
  C   C1354     1.0  0.65722  0.08130  0.67373  1.0000
  H   H2362     1.0  0.55905  0.07057  0.55363  1.0000
  C   C1355     1.0  0.36141  0.16594  0.53764  1.0000
  H   H2363     1.0  0.53192  0.03081  0.61412  1.0000
  H   H2364     1.0  0.64194  0.00283  0.68612  1.0000
  H   H2365     1.0  0.51380  0.98635  0.75823  1.0000
  H   H2366     1.0  0.36992  0.14056  0.57154  1.0000
  S   S300      1.0  0.62503  0.17523  0.71914  1.0000
  C   C1356     1.0  0.59217  0.98785  0.55055  1.0000
  H   H2367     1.0  0.35783  0.21253  0.51398  1.0000
  H   H2368     1.0  0.62425  0.09345  0.83820  1.0000
  C   C1357     1.0  0.59389  0.00185  0.93589  1.0000
  H   H2369     1.0  0.55114  0.04501  0.58439  1.0000
  H   H2370     1.0  0.41125  0.07049  0.51721  1.0000
  H   H2371     1.0  0.34589  0.21533  0.62086  1.0000
  H   H2372     1.0  0.37896  0.21915  0.57703  1.0000
  C   C1358     1.0  0.48324  0.04871  0.49139  1.0000
  C   C1359     1.0  0.62116  0.98836  0.56276  1.0000
  N   N76       1.0  0.36778  0.18173  0.52172  1.0000
  C   C1360     1.0  0.59449  0.98855  0.76947  1.0000
  H   H2373     1.0  0.52184  0.05575  0.60768  1.0000
  H   H2374     1.0  0.52875  0.04586  0.51274  1.0000
  H   H2375     1.0  0.57122  0.03363  0.55986  1.0000
  C   C1361     1.0  0.58902  0.18002  0.62457  1.0000
  C   C1362     1.0  0.33297  0.19883  0.51693  1.0000
  H   H2376     1.0  0.46873  0.98571  0.88924  1.0000
  C   C1363     1.0  0.54037  0.22769  0.58338  1.0000
  C   C1364     1.0  0.52272  0.09404  0.54048  1.0000
  N   N77       1.0  0.62837  0.01183  0.72494  1.0000
  H   H2377     1.0  0.52807  0.07123  0.57260  1.0000
  C   C1365     1.0  0.61960  0.00533  0.74561  1.0000
  C   C1366     1.0  0.61297  0.01966  0.71255  1.0000
  H   H2378     1.0  0.63115  0.99842  0.75426  1.0000
  H   H2379     1.0  0.47763  0.03524  0.49835  1.0000
  C   C1367     1.0  0.65039  0.10821  0.88698  1.0000
  C   C1368     1.0  0.59567  0.03440  0.72060  1.0000
  C   C1369     1.0  0.63577  0.14108  0.81487  1.0000
  C   C1370     1.0  0.40337  0.06488  0.50850  1.0000
  N   N78       1.0  0.33751  0.18726  0.62665  1.0000
  C   C1371     1.0  0.49625  0.22536  0.97815  1.0000
  C   C1372     1.0  0.58148  0.04178  0.70645  1.0000
  C   C1373     1.0  0.58816  0.98601  0.69186  1.0000
  C   C1374     1.0  0.62696  0.02828  0.89758  1.0000
  C   C1375     1.0  0.55141  0.00525  0.68513  1.0000
  H   H2380     1.0  0.61166  0.01792  0.75243  1.0000
  H   H2381     1.0  0.60706  0.00778  0.70952  1.0000
  C   C1376     1.0  0.64974  0.15000  0.82284  1.0000
  H   H2382     1.0  0.38964  0.14846  0.61791  1.0000
  H   H2383     1.0  0.63019  0.03889  0.73233  1.0000
  H   H2384     1.0  0.64138  0.11983  0.85038  1.0000
  C   C1377     1.0  0.32906  0.12698  0.51082  1.0000
  H   H2385     1.0  0.59716  0.05821  0.52939  1.0000
  H   H2386     1.0  0.55653  0.13848  0.94602  1.0000
  H   H2387     1.0  0.60078  0.04683  0.72335  1.0000
  H   H2388     1.0  0.58742  0.02783  0.73432  1.0000
  C   C1378     1.0  0.40749  0.19469  0.54405  1.0000
  C   C1379     1.0  0.37053  0.17525  0.50263  1.0000
  H   H2389     1.0  0.35355  0.16240  0.59864  1.0000
  C   C1380     1.0  0.32877  0.13312  0.52804  1.0000
  H   H2390     1.0  0.57579  0.06968  0.93060  1.0000
  H   H2391     1.0  0.53117  0.20258  0.97347  1.0000
  H   H2392     1.0  0.61906  0.05599  0.66269  1.0000
  H   H2393     1.0  0.63513  0.14244  0.63611  1.0000
  C   C1381     1.0  0.38159  0.15061  0.60582  1.0000
  H   H2394     1.0  0.59397  0.18838  0.52067  1.0000
  H   H2395     1.0  0.64865  0.07473  0.81682  1.0000
  H   H2396     1.0  0.51209  0.05651  0.57021  1.0000
  H   H2397     1.0  0.56924  0.05231  0.71247  1.0000
  H   H2398     1.0  0.58871  0.04900  0.69245  1.0000
  H   H2399     1.0  0.39117  0.07626  0.50433  1.0000
  H   H2400     1.0  0.34274  0.12143  0.50258  1.0000
  H   H2401     1.0  0.51034  0.03742  0.60345  1.0000
  H   H2402     1.0  0.60130  0.16848  0.59176  1.0000
  H   H2403     1.0  0.54462  0.02640  0.54961  1.0000
  C   C1382     1.0  0.60604  0.99038  0.74900  1.0000
  H   H2404     1.0  0.33518  0.19814  0.50139  1.0000
  H   H2405     1.0  0.53919  0.02713  0.57992  1.0000
  H   H2406     1.0  0.33425  0.21904  0.59373  1.0000
  C   C1383     1.0  0.43291  0.15975  0.48947  1.0000
  S   S301      1.0  0.40072  0.11749  0.49603  1.0000
  C   C1384     1.0  0.42113  0.14809  0.48570  1.0000
  H   H2407     1.0  0.36553  0.17273  0.63343  1.0000
  H   H2408     1.0  0.57847  0.03902  0.94038  1.0000
  H   H2409     1.0  0.51193  0.12396  0.52972  1.0000
  H   H2410     1.0  0.56200  0.17807  0.61745  1.0000
  C   C1385     1.0  0.36026  0.15910  0.61174  1.0000
  H   H2411     1.0  0.65334  0.02296  0.90928  1.0000
  H   H2412     1.0  0.58170  0.18207  0.63934  1.0000
  H   H2413     1.0  0.63068  0.04208  0.81617  1.0000
  C   C1386     1.0  0.63945  0.02762  0.72434  1.0000
  C   C1387     1.0  0.54104  0.03803  0.52007  1.0000
  H   H2414     1.0  0.57506  0.03446  0.53446  1.0000
  H   H2415     1.0  0.56148  0.06927  0.52907  1.0000
  C   C1388     1.0  0.38669  0.18633  0.52384  1.0000
  C   C1389     1.0  0.53705  0.04174  0.58336  1.0000
  H   H2416     1.0  0.53182  0.07487  0.51993  1.0000
  H   H2417     1.0  0.59371  0.00608  0.57021  1.0000
  H   H2418     1.0  0.39899  0.17469  0.52003  1.0000
  H   H2419     1.0  0.41837  0.11692  0.52819  1.0000
  H   H2420     1.0  0.38111  0.21355  0.61036  1.0000
  C   C1390     1.0  0.34446  0.22275  0.65769  1.0000
  H   H2421     1.0  0.39731  0.05235  0.51755  1.0000
  H   H2422     1.0  0.59072  0.19432  0.61574  1.0000
  Fe  Fe149     1.0  0.64831  0.10315  0.72487  1.0000
  H   H2423     1.0  0.38193  0.16218  0.50202  1.0000
  C   C1391     1.0  0.41175  0.20447  0.60985  1.0000
  C   C1392     1.0  0.42637  0.22318  0.62529  1.0000
  H   H2424     1.0  0.52003  0.17696  0.59937  1.0000
  H   H2425     1.0  0.61634  0.12966  0.58506  1.0000
  S   S302      1.0  0.61839  0.10339  0.79467  1.0000
  N   N79       1.0  0.59131  0.13374  0.68524  1.0000
  C   C1393     1.0  0.59672  0.11540  0.69901  1.0000
  C   C1394     1.0  0.60912  0.13776  0.67071  1.0000
  C   C1395     1.0  0.58530  0.14998  0.69671  1.0000
  C   C1396     1.0  0.57487  0.13307  0.67543  1.0000
  C   C1397     1.0  0.57346  0.11317  0.67124  1.0000
  C   C1398     1.0  0.58111  0.11103  0.71709  1.0000
  C   C1399     1.0  0.57995  0.17051  0.68515  1.0000
  C   C1400     1.0  0.61758  0.12339  0.65666  1.0000
  H   H2426     1.0  0.62621  0.13327  0.82664  1.0000
  C   C1401     1.0  0.55857  0.11526  0.65827  1.0000
  C   C1402     1.0  0.58487  0.09000  0.72691  1.0000
  C   C1403     1.0  0.57068  0.18496  0.69863  1.0000
  H   H2427     1.0  0.61009  0.11579  0.70429  1.0000
  H   H2428     1.0  0.60075  0.10276  0.69168  1.0000
  H   H2429     1.0  0.60618  0.15195  0.66126  1.0000
  H   H2430     1.0  0.62083  0.13864  0.67833  1.0000
  H   H2431     1.0  0.59697  0.15029  0.70469  1.0000
  H   H2432     1.0  0.57232  0.14766  0.70785  1.0000
  H   H2433     1.0  0.56064  0.13805  0.68424  1.0000
  H   H2434     1.0  0.57545  0.14347  0.66160  1.0000
  H   H2435     1.0  0.56882  0.10352  0.68484  1.0000
  H   H2436     1.0  0.58740  0.10571  0.66420  1.0000
  H   H2437     1.0  0.58126  0.11997  0.72783  1.0000
  H   H2438     1.0  0.56638  0.11434  0.71340  1.0000
  H   H2439     1.0  0.56960  0.17094  0.67557  1.0000
  H   H2440     1.0  0.59306  0.17559  0.67625  1.0000
  H   H2441     1.0  0.62015  0.10836  0.66432  1.0000
  H   H2442     1.0  0.60757  0.12475  0.64645  1.0000
  H   H2443     1.0  0.60630  0.21978  0.66223  1.0000
  S   S303      1.0  0.65374  0.05612  0.92524  1.0000
  H   H2444     1.0  0.53323  0.00852  0.76938  1.0000
  H   H2445     1.0  0.55772  0.10084  0.65570  1.0000
  H   H2446     1.0  0.54400  0.12183  0.66517  1.0000
  H   H2447     1.0  0.56280  0.12431  0.64415  1.0000
  H   H2448     1.0  0.57352  0.08748  0.73979  1.0000
  H   H2449     1.0  0.58455  0.08039  0.71691  1.0000
  H   H2450     1.0  0.59912  0.08639  0.73172  1.0000
  H   H2451     1.0  0.58031  0.18469  0.70893  1.0000
  H   H2452     1.0  0.56826  0.19972  0.69008  1.0000
  H   H2453     1.0  0.62048  0.03562  0.96254  1.0000
  H   H2454     1.0  0.55662  0.17556  0.97483  1.0000
  C   C1404     1.0  0.64146  0.07717  0.68801  1.0000
  H   H2455     1.0  0.54081  0.99065  0.71326  1.0000
  H   H2456     1.0  0.53714  0.01258  0.68255  1.0000
  H   H2457     1.0  0.32881  0.22708  0.66329  1.0000
  S   S304      1.0  0.60858  0.01586  0.83747  1.0000
  H   H2458     1.0  0.57551  0.13268  0.60979  1.0000
  H   H2459     1.0  0.62460  0.10404  0.61224  1.0000
  H   H2460     1.0  0.57698  0.99321  0.55013  1.0000
  C   C1405     1.0  0.60988  0.04116  0.89458  1.0000
  C   C1406     1.0  0.54372  0.15234  0.60136  1.0000
  C   C1407     1.0  0.54545  0.01730  0.51642  1.0000
  H   H2461     1.0  0.57730  0.15539  0.62428  1.0000
  C   C1408     1.0  0.55090  0.21716  0.55264  1.0000
  H   H2462     1.0  0.60398  0.06603  0.94681  1.0000
  H   H2463     1.0  0.60094  0.00328  0.96281  1.0000
  C   C1409     1.0  0.60954  0.10805  0.60928  1.0000
  H   H2464     1.0  0.64585  0.02401  0.84307  1.0000
  H   H2465     1.0  0.49531  0.04559  0.47938  1.0000
  H   H2466     1.0  0.61538  0.06519  0.69470  1.0000
  H   H2467     1.0  0.56649  0.00109  0.59367  1.0000
  H   H2468     1.0  0.65123  0.01133  0.80764  1.0000
  S   S305      1.0  0.64978  0.05869  0.62922  1.0000
  H   H2469     1.0  0.62102  0.02510  0.79424  1.0000
  H   H2470     1.0  0.32801  0.19093  0.57003  1.0000
  H   H2471     1.0  0.34224  0.13199  0.53287  1.0000
  H   H2472     1.0  0.61315  0.14991  0.79744  1.0000
  H   H2473     1.0  0.35274  0.22127  0.66946  1.0000
  H   H2474     1.0  0.42962  0.08406  0.48684  1.0000
  H   H2475     1.0  0.61311  0.08164  0.86109  1.0000
  Fe  Fe150     1.0  0.65060  0.08190  0.94024  1.0000
  H   H2476     1.0  0.48900  0.05373  0.50222  1.0000
  H   H2477     1.0  0.65221  0.98772  0.72698  1.0000
  H   H2478     1.0  0.61941  0.02687  0.69811  1.0000
  C   C1410     1.0  0.49895  0.98655  0.88625  1.0000
  Fe  Fe151     1.0  0.63420  0.11325  0.76508  1.0000
  C   C1411     1.0  0.33808  0.20582  0.63279  1.0000
  H   H2479     1.0  0.64309  0.03540  0.70937  1.0000
  C   C1412     1.0  0.62765  0.06825  0.68379  1.0000
  C   C1413     1.0  0.39379  0.21619  0.61438  1.0000
  C   C1414     1.0  0.58522  0.17013  0.59408  1.0000
  H   H2480     1.0  0.55885  0.04187  0.97121  1.0000
  S   S306      1.0  0.41333  0.18572  0.59722  1.0000
  N   N80       1.0  0.53701  0.05751  0.54740  1.0000
  Fe  Fe152     1.0  0.64772  0.12517  0.93583  1.0000
  C   C1415     1.0  0.56764  0.00838  0.67112  1.0000
  H   H2481     1.0  0.65432  0.23015  0.62949  1.0000
  N   N81       1.0  0.57946  0.15565  0.58505  1.0000
  C   C1416     1.0  0.55809  0.16056  0.58385  1.0000
  C   C1417     1.0  0.59068  0.15654  0.56472  1.0000
  C   C1418     1.0  0.58568  0.17555  0.55050  1.0000
  C   C1419     1.0  0.52276  0.16123  0.59929  1.0000
  C   C1420     1.0  0.59785  0.17463  0.53050  1.0000
  H   H2482     1.0  0.58153  0.12499  0.58750  1.0000
  H   H2483     1.0  0.55337  0.17650  0.58080  1.0000
  H   H2484     1.0  0.55532  0.15513  0.57149  1.0000
  H   H2485     1.0  0.58853  0.14454  0.55828  1.0000
  H   H2486     1.0  0.60649  0.15449  0.56460  1.0000
  H   H2487     1.0  0.58040  0.18507  0.58674  1.0000
  H   H2488     1.0  0.57027  0.17831  0.54885  1.0000
  H   H2489     1.0  0.51950  0.15884  0.58569  1.0000
  H   H2490     1.0  0.51273  0.15443  0.61146  1.0000
  H   H2491     1.0  0.61352  0.17250  0.53112  1.0000
  C   C1421     1.0  0.65194  0.12765  0.85319  1.0000
  H   H2492     1.0  0.64291  0.05597  0.79660  1.0000
  C   C1422     1.0  0.60719  0.03576  0.97387  1.0000
  C   C1423     1.0  0.52195  0.22333  0.58425  1.0000
  C   C1424     1.0  0.33539  0.20406  0.59148  1.0000
  C   C1425     1.0  0.57355  0.07487  0.94443  1.0000
  C   C1426     1.0  0.64150  0.99481  0.71735  1.0000
  H   H2493     1.0  0.64508  0.23062  0.67550  1.0000
  H   H2494     1.0  0.64773  0.12612  0.65412  1.0000
  H   H2495     1.0  0.41879  0.18170  0.54238  1.0000
  H   H2496     1.0  0.59313  0.98932  0.61237  1.0000
  H   H2497     1.0  0.42857  0.04716  0.49573  1.0000
  S   S307      1.0  0.63332  0.99722  0.57721  1.0000
  H   H2498     1.0  0.52974  0.20666  0.54214  1.0000
  H   H2499     1.0  0.53139  0.14631  0.97361  1.0000
  H   H2500     1.0  0.36405  0.19937  0.64621  1.0000
  S   S308      1.0  0.64797  0.15246  0.91411  1.0000
  C   C1427     1.0  0.39220  0.23161  0.62388  1.0000
  H   H2501     1.0  0.63148  0.16484  0.79093  1.0000
  H   H2502     1.0  0.55651  0.18161  0.70683  1.0000
  H   H2503     1.0  0.35079  0.19813  0.58665  1.0000
  H   H2504     1.0  0.64257  0.11722  0.63460  1.0000
  C   C1428     1.0  0.58998  0.01110  0.95385  1.0000
  H   H2505     1.0  0.45578  0.06706  0.49669  1.0000
  H   H2506     1.0  0.49166  0.22162  0.96583  1.0000
  S   S309      1.0  0.64428  0.12529  0.96755  1.0000
  H   H2507     1.0  0.40847  0.05272  0.48291  1.0000
  C   C1429     1.0  0.54173  0.15632  0.96730  1.0000
  H   H2508     1.0  0.32900  0.21644  0.56303  1.0000
  H   H2509     1.0  0.58745  0.09947  0.93039  1.0000
  Fe  Fe153     1.0  0.61014  0.23077  0.61858  1.0000
  H   H2510     1.0  0.65706  0.04815  0.74245  1.0000
  H   H2511     1.0  0.57532  0.00892  0.96162  1.0000
  H   H2512     1.0  0.65881  0.09726  0.89682  1.0000
  H   H2513     1.0  0.57125  0.10265  0.95283  1.0000
  H   H2514     1.0  0.58841  0.07286  0.96775  1.0000
  H   H2515     1.0  0.51435  0.18917  0.97071  1.0000
  C   C1430     1.0  0.65192  0.06222  0.82839  1.0000
  H   H2516     1.0  0.55905  0.07263  0.95262  1.0000
  H   H2517     1.0  0.43900  0.22574  0.62960  1.0000
  S   S310      1.0  0.64875  0.07820  0.97237  1.0000
  H   H2518     1.0  0.65798  0.15852  0.81024  1.0000
  C   C1431     1.0  0.32743  0.17395  0.64285  1.0000
  H   H2519     1.0  0.35949  0.23188  0.56448  1.0000
  C   C1432     1.0  0.65860  0.02117  0.73257  1.0000
  H   H2520     1.0  0.55218  0.98463  0.60950  1.0000
  C   C1433     1.0  0.37101  0.23364  0.57175  1.0000
  Fe  Fe154     1.0  0.61468  0.98383  0.84076  1.0000
  H   H2521     1.0  0.64324  0.42801  0.17759  1.0000
  H   H2522     1.0  0.65122  0.37104  0.35091  1.0000
  H   H2523     1.0  0.55886  0.46617  0.10003  1.0000
  H   H2524     1.0  0.59498  0.39139  0.20980  1.0000
  C   C1434     1.0  0.60224  0.26301  0.07475  1.0000
  Fe  Fe155     1.0  0.38847  0.26744  0.13154  1.0000
  S   S311      1.0  0.36794  0.27121  0.11099  1.0000
  S   S312      1.0  0.38491  0.24905  0.16085  1.0000
  Fe  Fe156     1.0  0.41368  0.29397  0.10467  1.0000
  S   S313      1.0  0.39551  0.30001  0.08170  1.0000
  S   S314      1.0  0.44143  0.30554  0.09906  1.0000
  Fe  Fe157     1.0  0.37019  0.30241  0.10583  1.0000
  S   S315      1.0  0.34564  0.32763  0.10333  1.0000
  Fe  Fe158     1.0  0.39488  0.26834  0.08872  1.0000
  H   H2525     1.0  0.55954  0.29258  0.20721  1.0000
  S   S316      1.0  0.38852  0.29901  0.12842  1.0000
  S   S317      1.0  0.41527  0.26197  0.10972  1.0000
  Fe  Fe159     1.0  0.61275  0.28165  0.12656  1.0000
  H   H2526     1.0  0.63873  0.46478  0.42979  1.0000
  Fe  Fe160     1.0  0.57366  0.30725  0.13613  1.0000
  S   S318      1.0  0.56774  0.28945  0.16549  1.0000
  S   S319      1.0  0.55007  0.33342  0.13279  1.0000
  Fe  Fe161     1.0  0.59850  0.29035  0.16716  1.0000
  S   S320      1.0  0.60468  0.29663  0.19479  1.0000
  Fe  Fe162     1.0  0.57914  0.26388  0.15068  1.0000
  S   S321      1.0  0.60385  0.30935  0.13846  1.0000
  S   S322      1.0  0.58295  0.28162  0.12109  1.0000
  Fe  Fe163     1.0  0.45422  0.40577  0.08328  1.0000
  S   S323      1.0  0.46037  0.39111  0.05767  1.0000
  S   S324      1.0  0.43414  0.39209  0.10832  1.0000
  Fe  Fe164     1.0  0.48142  0.43475  0.06428  1.0000
  S   S325      1.0  0.48926  0.42148  0.03740  1.0000
  S   S326      1.0  0.49858  0.45863  0.06234  1.0000
  Fe  Fe165     1.0  0.45741  0.42091  0.04046  1.0000
  S   S327      1.0  0.43732  0.43315  0.01837  1.0000
  Fe  Fe166     1.0  0.49121  0.39303  0.05775  1.0000
  S   S328      1.0  0.51593  0.36750  0.05596  1.0000
  S   S329      1.0  0.44938  0.43579  0.06625  1.0000
  S   S330      1.0  0.48512  0.40638  0.08419  1.0000
  H   H2527     1.0  0.53553  0.24441  0.10127  1.0000
  H   H2528     1.0  0.55899  0.38034  0.47417  1.0000
  H   H2529     1.0  0.63580  0.41355  0.40866  1.0000
  Fe  Fe167     1.0  0.63103  0.38760  0.26553  1.0000
  H   H2530     1.0  0.64257  0.47666  0.23677  1.0000
  S   S331      1.0  0.60449  0.38541  0.28809  1.0000
  H   H2531     1.0  0.33179  0.34999  0.99628  1.0000
  C   C1435     1.0  0.62223  0.46847  0.26213  1.0000
  C   C1436     1.0  0.64775  0.23808  0.12009  1.0000
  S   S332      1.0  0.63017  0.39853  0.23423  1.0000
  H   H2532     1.0  0.56253  0.37858  0.19932  1.0000
  C   C1437     1.0  0.62841  0.44765  0.13854  1.0000
  S   S333      1.0  0.56435  0.45265  0.33463  1.0000
  S   S334      1.0  0.60938  0.26268  0.15557  1.0000
  H   H2533     1.0  0.45231  0.24527  0.12821  1.0000
  H   H2534     1.0  0.61335  0.47447  0.27479  1.0000
  H   H2535     1.0  0.58705  0.26852  0.08101  1.0000
  C   C1438     1.0  0.51465  0.23750  0.03187  1.0000
  H   H2536     1.0  0.52312  0.47714  0.21337  1.0000
  C   C1439     1.0  0.60667  0.46518  0.18736  1.0000
  C   C1440     1.0  0.60450  0.45287  0.20515  1.0000
  C   C1441     1.0  0.61967  0.44713  0.21560  1.0000
  H   H2537     1.0  0.58103  0.35788  0.20228  1.0000
  C   C1442     1.0  0.65367  0.23728  0.17470  1.0000
  H   H2538     1.0  0.59114  0.44741  0.21075  1.0000
  H   H2539     1.0  0.61771  0.43784  0.22943  1.0000
  C   C1443     1.0  0.59441  0.40457  0.30066  1.0000
  C   C1444     1.0  0.60206  0.42160  0.29689  1.0000
  C   C1445     1.0  0.59310  0.43661  0.30726  1.0000
  C   C1446     1.0  0.57652  0.43451  0.32132  1.0000
  C   C1447     1.0  0.56913  0.41744  0.32508  1.0000
  C   C1448     1.0  0.57804  0.40256  0.31484  1.0000
  H   H2540     1.0  0.61464  0.42328  0.28585  1.0000
  H   H2541     1.0  0.59882  0.44980  0.30424  1.0000
  H   H2542     1.0  0.55635  0.41575  0.33588  1.0000
  H   H2543     1.0  0.57207  0.38947  0.31779  1.0000
  H   H2544     1.0  0.35552  0.39182  0.09928  1.0000
  C   C1449     1.0  0.42474  0.41990  0.00863  1.0000
  C   C1450     1.0  0.43346  0.40212  0.00326  1.0000
  H   H2545     1.0  0.54244  0.45668  0.21132  1.0000
  H   H2546     1.0  0.35017  0.23891  0.13297  1.0000
  H   H2547     1.0  0.54129  0.32878  0.22498  1.0000
  H   H2548     1.0  0.55360  0.48089  0.27414  1.0000
  H   H2549     1.0  0.44762  0.39536  0.00659  1.0000
  H   H2550     1.0  0.65294  0.47126  0.18504  1.0000
  H   H2551     1.0  0.64200  0.43819  0.31928  1.0000
  H   H2552     1.0  0.35955  0.35116  0.12365  1.0000
  C   C1451     1.0  0.61730  0.31475  0.19657  1.0000
  C   C1452     1.0  0.62886  0.32381  0.18059  1.0000
  H   H2553     1.0  0.63767  0.24181  0.13257  1.0000
  C   C1453     1.0  0.63800  0.34264  0.20079  1.0000
  C   C1454     1.0  0.62600  0.33400  0.21669  1.0000
  C   C1455     1.0  0.61580  0.32007  0.21459  1.0000
  H   H2554     1.0  0.63024  0.31984  0.16666  1.0000
  C   C1456     1.0  0.64747  0.39283  0.15138  1.0000
  H   H2555     1.0  0.62497  0.33767  0.23069  1.0000
  H   H2556     1.0  0.60692  0.31315  0.22707  1.0000
  C   C1457     1.0  0.54035  0.34108  0.11143  1.0000
  C   C1458     1.0  0.52256  0.35366  0.11203  1.0000
  C   C1459     1.0  0.51454  0.36089  0.09529  1.0000
  C   C1460     1.0  0.52466  0.35642  0.07755  1.0000
  C   C1461     1.0  0.54224  0.34331  0.07702  1.0000
  C   C1462     1.0  0.55000  0.33547  0.09398  1.0000
  H   H2557     1.0  0.51492  0.35786  0.12551  1.0000
  H   H2558     1.0  0.50045  0.36980  0.09620  1.0000
  H   H2559     1.0  0.55005  0.33952  0.06341  1.0000
  H   H2560     1.0  0.56369  0.32563  0.09343  1.0000
  H   H2561     1.0  0.58514  0.37746  0.46867  1.0000
  C   C1463     1.0  0.43919  0.32938  0.10236  1.0000
  C   C1464     1.0  0.42250  0.33860  0.11304  1.0000
  C   C1465     1.0  0.42136  0.35756  0.11574  1.0000
  C   C1466     1.0  0.43661  0.36755  0.10721  1.0000
  C   C1467     1.0  0.45358  0.35797  0.09730  1.0000
  C   C1468     1.0  0.45488  0.33896  0.09491  1.0000
  H   H2562     1.0  0.41049  0.33115  0.11925  1.0000
  H   H2563     1.0  0.40846  0.36471  0.12396  1.0000
  H   H2564     1.0  0.46585  0.36516  0.09157  1.0000
  H   H2565     1.0  0.46801  0.33179  0.08702  1.0000
  H   H2566     1.0  0.56238  0.38527  0.23182  1.0000
  C   C1469     1.0  0.33423  0.32398  0.05309  1.0000
  C   C1470     1.0  0.59064  0.43525  0.43092  1.0000
  C   C1471     1.0  0.50307  0.35737  0.18565  1.0000
  C   C1472     1.0  0.63463  0.47518  0.40024  1.0000
  H   H2567     1.0  0.34984  0.28154  0.15983  1.0000
  C   C1473     1.0  0.33469  0.23998  0.13205  1.0000
  N   N82       1.0  0.64001  0.41301  0.15554  1.0000
  C   C1474     1.0  0.63738  0.45310  0.20807  1.0000
  C   C1475     1.0  0.53037  0.28934  0.11670  1.0000
  H   H2568     1.0  0.57264  0.36449  0.45792  1.0000
  H   H2569     1.0  0.51846  0.24155  0.01600  1.0000
  H   H2570     1.0  0.57471  0.47926  0.24181  1.0000
  C   C1476     1.0  0.42550  0.23379  0.03992  1.0000
  C   C1477     1.0  0.57187  0.37833  0.46266  1.0000
  H   H2571     1.0  0.64832  0.34416  0.17032  1.0000
  H   H2572     1.0  0.55374  0.46140  0.40742  1.0000
  N   N83       1.0  0.55661  0.35338  0.19149  1.0000
  C   C1478     1.0  0.62848  0.47190  0.42035  1.0000
  H   H2573     1.0  0.51819  0.27006  0.06725  1.0000
  H   H2574     1.0  0.49897  0.31010  0.19752  1.0000
  H   H2575     1.0  0.36533  0.37239  0.12903  1.0000
  N   N84       1.0  0.47930  0.26325  0.07167  1.0000
  C   C1479     1.0  0.48708  0.28182  0.06800  1.0000
  C   C1480     1.0  0.45976  0.26692  0.06541  1.0000
  H   H2576     1.0  0.56190  0.37552  0.16648  1.0000
  C   C1481     1.0  0.49888  0.25309  0.03978  1.0000
  C   C1482     1.0  0.45615  0.28324  0.04802  1.0000
  C   C1483     1.0  0.43796  0.28237  0.04065  1.0000
  S   S335      1.0  0.65219  0.35942  0.20263  1.0000
  H   H2577     1.0  0.47635  0.29265  0.07544  1.0000
  H   H2578     1.0  0.48887  0.28842  0.05257  1.0000
  H   H2579     1.0  0.45686  0.25350  0.06221  1.0000
  H   H2580     1.0  0.44789  0.27100  0.07732  1.0000
  C   C1484     1.0  0.55792  0.35818  0.22595  1.0000
  H   H2581     1.0  0.34760  0.37193  0.09382  1.0000
  H   H2582     1.0  0.50451  0.26679  0.03536  1.0000
  H   H2583     1.0  0.48616  0.25409  0.03290  1.0000
  S   S336      1.0  0.63342  0.42367  0.46614  1.0000
  H   H2584     1.0  0.45408  0.29742  0.05257  1.0000
  H   H2585     1.0  0.46832  0.28264  0.03576  1.0000
  H   H2586     1.0  0.42532  0.28218  0.05253  1.0000
  H   H2587     1.0  0.43473  0.29515  0.02943  1.0000
  H   H2588     1.0  0.44016  0.26923  0.03421  1.0000
  C   C1485     1.0  0.55300  0.41434  0.05836  1.0000
  H   H2589     1.0  0.34800  0.39320  0.02970  1.0000
  C   C1486     1.0  0.54140  0.41864  0.04199  1.0000
  C   C1487     1.0  0.56196  0.44794  0.40254  1.0000
  H   H2590     1.0  0.33288  0.32346  0.02388  1.0000
  C   C1488     1.0  0.65217  0.41801  0.16794  1.0000
  H   H2591     1.0  0.56217  0.39994  0.05778  1.0000
  H   H2592     1.0  0.55327  0.41624  0.46100  1.0000
  H   H2593     1.0  0.58522  0.40280  0.18819  1.0000
  H   H2594     1.0  0.63078  0.43002  0.42533  1.0000
  N   N85       1.0  0.54865  0.41187  0.09570  1.0000
  C   C1489     1.0  0.56804  0.39856  0.09430  1.0000
  C   C1490     1.0  0.55118  0.43090  0.09950  1.0000
  C   C1491     1.0  0.53936  0.41458  0.07811  1.0000
  H   H2595     1.0  0.53470  0.47416  0.46899  1.0000
  C   C1492     1.0  0.56743  0.37720  0.09450  1.0000
  C   C1493     1.0  0.56485  0.44240  0.08393  1.0000
  S   S337      1.0  0.63927  0.27626  0.10364  1.0000
  H   H2596     1.0  0.64806  0.38228  0.16500  1.0000
  C   C1494     1.0  0.58751  0.36596  0.08798  1.0000
  H   H2597     1.0  0.57523  0.39879  0.10650  1.0000
  H   H2598     1.0  0.57815  0.40344  0.08119  1.0000
  C   C1495     1.0  0.49726  0.46374  0.09984  1.0000
  H   H2599     1.0  0.49968  0.34786  0.19972  1.0000
  H   H2600     1.0  0.53057  0.40317  0.07954  1.0000
  H   H2601     1.0  0.61249  0.46484  0.25388  1.0000
  H   H2602     1.0  0.38337  0.42704  0.98966  1.0000
  H   H2603     1.0  0.55589  0.25371  0.12049  1.0000
  H   H2604     1.0  0.56216  0.37024  0.10940  1.0000
  H   H2605     1.0  0.55757  0.37594  0.08505  1.0000
  H   H2606     1.0  0.57817  0.43329  0.07781  1.0000
  H   H2607     1.0  0.55698  0.45015  0.07202  1.0000
  C   C1496     1.0  0.61949  0.41364  0.16643  1.0000
  Fe  Fe168     1.0  0.61751  0.45232  0.47311  1.0000
  H   H2608     1.0  0.53065  0.34012  0.17673  1.0000
  C   C1497     1.0  0.52495  0.35520  0.17886  1.0000
  C   C1498     1.0  0.63928  0.46641  0.19081  1.0000
  C   C1499     1.0  0.53515  0.36109  0.19319  1.0000
  H   H2609     1.0  0.59303  0.37154  0.07268  1.0000
  H   H2610     1.0  0.59782  0.36696  0.09709  1.0000
  H   H2611     1.0  0.58667  0.35054  0.08930  1.0000
  H   H2612     1.0  0.39192  0.38273  0.02931  1.0000
  H   H2613     1.0  0.49641  0.46860  0.12855  1.0000
  H   H2614     1.0  0.53321  0.32171  0.20632  1.0000
  C   C1500     1.0  0.65167  0.25229  0.10410  1.0000
  Fe  Fe169     1.0  0.65489  0.41258  0.23525  1.0000
  H   H2615     1.0  0.55619  0.42868  0.11355  1.0000
  H   H2616     1.0  0.58261  0.36550  0.23430  1.0000
  H   H2617     1.0  0.50248  0.31108  0.07601  1.0000
  H   H2618     1.0  0.62858  0.45780  0.10781  1.0000
  H   H2619     1.0  0.51702  0.42743  0.12571  1.0000
  C   C1501     1.0  0.50139  0.40399  0.13268  1.0000
  H   H2620     1.0  0.52881  0.42835  0.07693  1.0000
  H   H2621     1.0  0.54196  0.36189  0.22969  1.0000
  H   H2622     1.0  0.59164  0.44892  0.42059  1.0000
  C   C1502     1.0  0.55038  0.47114  0.46978  1.0000
  H   H2623     1.0  0.49829  0.39288  0.12578  1.0000
  C   C1503     1.0  0.51329  0.30012  0.06887  1.0000
  H   H2624     1.0  0.36350  0.37091  0.02439  1.0000
  H   H2625     1.0  0.56259  0.42512  0.05543  1.0000
  H   H2626     1.0  0.62490  0.47654  0.12188  1.0000
  H   H2627     1.0  0.51526  0.30508  0.05304  1.0000
  C   C1504     1.0  0.55968  0.45121  0.46501  1.0000
  C   C1505     1.0  0.65325  0.42683  0.31329  1.0000
  H   H2628     1.0  0.55141  0.41823  0.02802  1.0000
  H   H2629     1.0  0.43731  0.47671  0.00251  1.0000
  H   H2630     1.0  0.54227  0.45043  0.44440  1.0000
  H   H2631     1.0  0.63192  0.45495  0.26706  1.0000
  H   H2632     1.0  0.64351  0.35161  0.32986  1.0000
  H   H2633     1.0  0.60820  0.40641  0.43392  1.0000
  C   C1506     1.0  0.57048  0.39488  0.44557  1.0000
  C   C1507     1.0  0.46685  0.23781  0.10035  1.0000
  H   H2634     1.0  0.56282  0.34273  0.23149  1.0000
  H   H2635     1.0  0.52734  0.29898  0.07354  1.0000
  H   H2636     1.0  0.59601  0.43726  0.44361  1.0000
  H   H2637     1.0  0.32712  0.31119  0.05828  1.0000
  H   H2638     1.0  0.61249  0.44809  0.14159  1.0000
  N   N86       1.0  0.48074  0.30895  0.14578  1.0000
  C   C1508     1.0  0.48031  0.33023  0.13837  1.0000
  C   C1509     1.0  0.49479  0.29734  0.13192  1.0000
  C   C1510     1.0  0.46069  0.30487  0.14688  1.0000
  C   C1511     1.0  0.48576  0.30314  0.16575  1.0000
  C   C1512     1.0  0.50627  0.30505  0.16786  1.0000
  C   C1513     1.0  0.46365  0.34421  0.14845  1.0000
  C   C1514     1.0  0.45871  0.28335  0.14973  1.0000
  H   H2639     1.0  0.54253  0.39917  0.12594  1.0000
  C   C1515     1.0  0.54625  0.32163  0.21227  1.0000
  C   C1516     1.0  0.50893  0.29979  0.18890  1.0000
  C   C1517     1.0  0.46701  0.36501  0.14219  1.0000
  C   C1518     1.0  0.43745  0.28129  0.15276  1.0000
  H   H2640     1.0  0.47928  0.33354  0.12278  1.0000
  H   H2641     1.0  0.49394  0.33454  0.13917  1.0000
  H   H2642     1.0  0.49879  0.28221  0.13930  1.0000
  H   H2643     1.0  0.48774  0.29635  0.11986  1.0000
  H   H2644     1.0  0.45508  0.31212  0.13346  1.0000
  H   H2645     1.0  0.45038  0.31112  0.15877  1.0000
  H   H2646     1.0  0.47499  0.31119  0.17602  1.0000
  H   H2647     1.0  0.48475  0.28778  0.17138  1.0000
  H   H2648     1.0  0.50914  0.31990  0.16250  1.0000
  H   H2649     1.0  0.51740  0.29491  0.15999  1.0000
  H   H2650     1.0  0.44967  0.34357  0.14453  1.0000
  H   H2651     1.0  0.46230  0.34066  0.16432  1.0000
  H   H2652     1.0  0.46474  0.27462  0.16238  1.0000
  H   H2653     1.0  0.46631  0.27698  0.13685  1.0000
  H   H2654     1.0  0.51080  0.31550  0.10829  1.0000
  S   S338      1.0  0.60057  0.47476  0.45310  1.0000
  H   H2655     1.0  0.60087  0.41472  0.41057  1.0000
  H   H2656     1.0  0.56973  0.41771  0.41290  1.0000
  H   H2657     1.0  0.49061  0.25197  0.09828  1.0000
  H   H2658     1.0  0.50625  0.28495  0.19511  1.0000
  H   H2659     1.0  0.52408  0.30027  0.18977  1.0000
  H   H2660     1.0  0.51861  0.31324  0.13061  1.0000
  H   H2661     1.0  0.46949  0.36906  0.12626  1.0000
  H   H2662     1.0  0.45408  0.37492  0.14809  1.0000
  H   H2663     1.0  0.47975  0.36694  0.14752  1.0000
  H   H2664     1.0  0.42920  0.28665  0.16600  1.0000
  H   H2665     1.0  0.43072  0.28947  0.14027  1.0000
  H   H2666     1.0  0.43635  0.26591  0.15431  1.0000
  H   H2667     1.0  0.58815  0.35264  0.13570  1.0000
  C   C1519     1.0  0.63299  0.40808  0.34918  1.0000
  H   H2668     1.0  0.57542  0.32733  0.20145  1.0000
  H   H2669     1.0  0.56298  0.32488  0.18373  1.0000
  C   C1520     1.0  0.35861  0.37598  0.10026  1.0000
  C   C1521     1.0  0.57139  0.45733  0.09218  1.0000
  C   C1522     1.0  0.62714  0.42632  0.35874  1.0000
  H   H2670     1.0  0.50860  0.42244  0.10576  1.0000
  C   C1523     1.0  0.55472  0.30066  0.21936  1.0000
  H   H2671     1.0  0.54360  0.29366  0.23001  1.0000
  C   C1524     1.0  0.62381  0.47259  0.18048  1.0000
  C   C1525     1.0  0.60640  0.43630  0.35725  1.0000
  H   H2672     1.0  0.53733  0.44267  0.39227  1.0000
  H   H2673     1.0  0.62576  0.39665  0.35916  1.0000
  H   H2674     1.0  0.62606  0.41098  0.33625  1.0000
  H   H2675     1.0  0.43166  0.38037  0.98756  1.0000
  H   H2676     1.0  0.56110  0.36615  0.25235  1.0000
  H   H2677     1.0  0.48750  0.41362  0.13687  1.0000
  H   H2678     1.0  0.59176  0.37548  0.13964  1.0000
  H   H2679     1.0  0.63526  0.38718  0.32054  1.0000
  H   H2680     1.0  0.57836  0.41318  0.46200  1.0000
  H   H2681     1.0  0.58319  0.23446  0.09782  1.0000
  C   C1526     1.0  0.56116  0.33169  0.19664  1.0000
  H   H2682     1.0  0.62806  0.42213  0.37426  1.0000
  H   H2683     1.0  0.63686  0.43692  0.35221  1.0000
  C   C1527     1.0  0.61039  0.24459  0.08750  1.0000
  H   H2684     1.0  0.56078  0.43231  0.38009  1.0000
  H   H2685     1.0  0.55211  0.45784  0.37513  1.0000
  H   H2686     1.0  0.64963  0.47050  0.39424  1.0000
  C   C1528     1.0  0.56507  0.36265  0.20396  1.0000
  C   C1529     1.0  0.59642  0.40266  0.19676  1.0000
  H   H2687     1.0  0.59405  0.41677  0.20146  1.0000
  H   H2688     1.0  0.52618  0.27970  0.10885  1.0000
  C   C1530     1.0  0.51538  0.41579  0.11860  1.0000
  H   H2689     1.0  0.41659  0.24068  0.02915  1.0000
  H   H2690     1.0  0.60513  0.44188  0.34195  1.0000
  H   H2691     1.0  0.59611  0.42619  0.36353  1.0000
  H   H2692     1.0  0.60246  0.44867  0.36506  1.0000
  H   H2693     1.0  0.50658  0.24337  0.06836  1.0000
  H   H2694     1.0  0.59564  0.36122  0.17313  1.0000
  C   C1531     1.0  0.61666  0.39839  0.18498  1.0000
  H   H2695     1.0  0.33450  0.24283  0.09268  1.0000
  H   H2696     1.0  0.54662  0.42801  0.42407  1.0000
  S   S339      1.0  0.58834  0.46899  0.17361  1.0000
  H   H2697     1.0  0.53203  0.40770  0.04396  1.0000
  C   C1532     1.0  0.59510  0.35961  0.14411  1.0000
  C   C1533     1.0  0.36298  0.38644  0.02412  1.0000
  H   H2698     1.0  0.54805  0.47572  0.23332  1.0000
  H   H2699     1.0  0.57877  0.47265  0.27556  1.0000
  C   C1534     1.0  0.49319  0.24794  0.06189  1.0000
  H   H2700     1.0  0.33943  0.34476  0.02689  1.0000
  H   H2701     1.0  0.62351  0.43792  0.40206  1.0000
  C   C1535     1.0  0.53537  0.40313  0.11301  1.0000
  H   H2702     1.0  0.58149  0.45010  0.10231  1.0000
  H   H2703     1.0  0.53514  0.28080  0.13012  1.0000
  H   H2704     1.0  0.49636  0.35317  0.17500  1.0000
  H   H2705     1.0  0.53709  0.44097  0.10106  1.0000
  C   C1536     1.0  0.47650  0.25594  0.09314  1.0000
  H   H2706     1.0  0.55995  0.35316  0.16097  1.0000
  C   C1537     1.0  0.50672  0.28056  0.07428  1.0000
  C   C1538     1.0  0.42443  0.39371  0.99238  1.0000
  H   H2707     1.0  0.60278  0.26034  0.06003  1.0000
  C   C1539     1.0  0.56574  0.35960  0.17080  1.0000
  H   H2708     1.0  0.55196  0.44075  0.47565  1.0000
  H   H2709     1.0  0.64610  0.25198  0.17688  1.0000
  C   C1540     1.0  0.56801  0.41459  0.45203  1.0000
  C   C1541     1.0  0.40658  0.40291  0.98689  1.0000
  H   H2710     1.0  0.58350  0.39213  0.43455  1.0000
  H   H2711     1.0  0.50752  0.39694  0.14585  1.0000
  C   C1542     1.0  0.55247  0.44490  0.38661  1.0000
  H   H2712     1.0  0.57698  0.45004  0.39607  1.0000
  S   S340      1.0  0.65371  0.40387  0.26718  1.0000
  C   C1543     1.0  0.51356  0.30532  0.12174  1.0000
  H   H2713     1.0  0.56187  0.46312  0.43478  1.0000
  C   C1544     1.0  0.56656  0.36954  0.23665  1.0000
  H   H2714     1.0  0.60971  0.41199  0.15698  1.0000
  H   H2715     1.0  0.50544  0.27628  0.09008  1.0000
  Fe  Fe170     1.0  0.57684  0.47920  0.33181  1.0000
  C   C1545     1.0  0.53904  0.23497  0.11431  1.0000
  H   H2716     1.0  0.61103  0.35483  0.14078  1.0000
  H   H2717     1.0  0.46768  0.26755  0.10095  1.0000
  H   H2718     1.0  0.36688  0.39343  0.00892  1.0000
  H   H2719     1.0  0.61836  0.38385  0.18136  1.0000
  H   H2720     1.0  0.59252  0.33810  0.16963  1.0000
  S   S341      1.0  0.56611  0.23651  0.15815  1.0000
  H   H2721     1.0  0.48609  0.45496  0.10422  1.0000
  H   H2722     1.0  0.53231  0.38949  0.11050  1.0000
  H   H2723     1.0  0.62732  0.39806  0.19418  1.0000
  N   N87       1.0  0.38578  0.38020  0.07036  1.0000
  C   C1546     1.0  0.40634  0.37118  0.06311  1.0000
  C   C1547     1.0  0.38505  0.40059  0.07324  1.0000
  C   C1548     1.0  0.37924  0.36854  0.08975  1.0000
  C   C1549     1.0  0.37204  0.37981  0.05730  1.0000
  C   C1550     1.0  0.37724  0.38916  0.03596  1.0000
  C   C1551     1.0  0.40965  0.34985  0.06061  1.0000
  H   H2724     1.0  0.49669  0.37255  0.18706  1.0000
  C   C1552     1.0  0.40015  0.41212  0.05978  1.0000
  C   C1553     1.0  0.39579  0.43313  0.06250  1.0000
  C   C1554     1.0  0.43017  0.34353  0.05021  1.0000
  H   H2725     1.0  0.56730  0.29984  0.22641  1.0000
  H   H2726     1.0  0.41596  0.37197  0.07312  1.0000
  H   H2727     1.0  0.41221  0.37939  0.04903  1.0000
  H   H2728     1.0  0.37042  0.40936  0.07213  1.0000
  H   H2729     1.0  0.38737  0.40063  0.08806  1.0000
  H   H2730     1.0  0.38968  0.36765  0.09941  1.0000
  H   H2731     1.0  0.37918  0.35343  0.08860  1.0000
  H   H2732     1.0  0.37017  0.36478  0.05784  1.0000
  H   H2733     1.0  0.35727  0.38737  0.06263  1.0000
  H   H2734     1.0  0.65197  0.47716  0.27114  1.0000
  H   H2735     1.0  0.37635  0.40487  0.03475  1.0000
  H   H2736     1.0  0.40790  0.34030  0.07486  1.0000
  H   H2737     1.0  0.39947  0.34750  0.05209  1.0000
  C   C1555     1.0  0.35600  0.31688  0.05185  1.0000
  C   C1556     1.0  0.58806  0.35389  0.16570  1.0000
  H   H2738     1.0  0.41488  0.40592  0.06312  1.0000
  H   H2739     1.0  0.40047  0.41190  0.04448  1.0000
  H   H2740     1.0  0.39603  0.43407  0.07761  1.0000
  H   H2741     1.0  0.40700  0.44091  0.05293  1.0000
  H   H2742     1.0  0.38146  0.44032  0.05871  1.0000
  H   H2743     1.0  0.43229  0.32811  0.04912  1.0000
  H   H2744     1.0  0.43256  0.35205  0.03543  1.0000
  H   H2745     1.0  0.44104  0.34540  0.05827  1.0000
  H   H2746     1.0  0.62550  0.23980  0.08059  1.0000
  H   H2747     1.0  0.55767  0.39441  0.43940  1.0000
  H   H2748     1.0  0.39943  0.44218  0.00839  1.0000
  H   H2749     1.0  0.53244  0.37713  0.19082  1.0000
  H   H2750     1.0  0.65379  0.42782  0.12827  1.0000
  C   C1557     1.0  0.60913  0.47809  0.42814  1.0000
  C   C1558     1.0  0.56186  0.43046  0.41929  1.0000
  H   H2751     1.0  0.57897  0.46707  0.08035  1.0000
  C   C1559     1.0  0.50554  0.46773  0.08040  1.0000
  H   H2752     1.0  0.52750  0.36459  0.16455  1.0000
  C   C1560     1.0  0.65067  0.38042  0.32034  1.0000
  H   H2753     1.0  0.35889  0.30845  0.06602  1.0000
  C   C1561     1.0  0.53879  0.47263  0.20803  1.0000
  C   C1562     1.0  0.63912  0.33763  0.18271  1.0000
  C   C1563     1.0  0.60563  0.41907  0.42239  1.0000
  H   H2754     1.0  0.34059  0.37123  0.12846  1.0000
  C   C1564     1.0  0.39730  0.42004  0.99337  1.0000
  H   H2755     1.0  0.52742  0.35683  0.20799  1.0000
  H   H2756     1.0  0.36384  0.32923  0.04824  1.0000
  C   C1565     1.0  0.55797  0.44971  0.44429  1.0000
  H   H2757     1.0  0.61057  0.24854  0.10149  1.0000
  S   S342      1.0  0.39704  0.25199  0.06486  1.0000
  H   H2758     1.0  0.54272  0.29568  0.10754  1.0000
  H   H2759     1.0  0.34369  0.24846  0.16335  1.0000
  H   H2760     1.0  0.33085  0.25412  0.12289  1.0000
  N   N88       1.0  0.56991  0.43215  0.43647  1.0000
  C   C1566     1.0  0.62508  0.42558  0.41412  1.0000
  C   C1567     1.0  0.41924  0.23677  0.05894  1.0000
  C   C1568     1.0  0.35590  0.36711  0.12165  1.0000
  H   H2761     1.0  0.53220  0.43316  0.04144  1.0000
  H   H2762     1.0  0.64870  0.46255  0.11658  1.0000
  Fe  Fe171     1.0  0.65267  0.37258  0.22879  1.0000
  H   H2763     1.0  0.61107  0.27422  0.07369  1.0000
  H   H2764     1.0  0.45300  0.23975  0.09522  1.0000
  C   C1569     1.0  0.51972  0.47955  0.07492  1.0000
  C   C1570     1.0  0.40638  0.42854  0.00410  1.0000
  H   H2765     1.0  0.64759  0.35947  0.30419  1.0000
  H   H2766     1.0  0.61372  0.42794  0.17087  1.0000
  H   H2767     1.0  0.36156  0.30739  0.04089  1.0000
  C   C1571     1.0  0.55027  0.24047  0.12534  1.0000
  C   C1572     1.0  0.63300  0.46192  0.12002  1.0000
  S   S343      1.0  0.65146  0.36027  0.26029  1.0000
  C   C1573     1.0  0.32805  0.25268  0.16218  1.0000
  H   H2768     1.0  0.63171  0.42147  0.12739  1.0000
  H   H2769     1.0  0.63727  0.38863  0.14395  1.0000
  C   C1574     1.0  0.65259  0.35961  0.31771  1.0000
  C   C1575     1.0  0.50310  0.47155  0.11358  1.0000
  H   H2770     1.0  0.57490  0.44812  0.46718  1.0000
  C   C1576     1.0  0.63914  0.42687  0.13673  1.0000
  H   H2771     1.0  0.48685  0.23464  0.06450  1.0000
  H   H2772     1.0  0.52785  0.23583  0.03823  1.0000
  H   H2773     1.0  0.63235  0.45263  0.15044  1.0000
  H   H2774     1.0  0.41362  0.47047  0.98527  1.0000
  H   H2775     1.0  0.32862  0.28426  0.17843  1.0000
  H   H2776     1.0  0.56636  0.47620  0.21187  1.0000
  H   H2777     1.0  0.32969  0.27722  0.13774  1.0000
  N   N89       1.0  0.65453  0.40091  0.34451  1.0000
  H   H2778     1.0  0.65448  0.38924  0.37481  1.0000
  H   H2779     1.0  0.64579  0.41810  0.30737  1.0000
  C   C1577     1.0  0.55107  0.48137  0.21765  1.0000
  H   H2780     1.0  0.54185  0.47713  0.19215  1.0000
  S   S344      1.0  0.60733  0.48277  0.31896  1.0000
  H   H2781     1.0  0.65749  0.40488  0.17804  1.0000
  S   S345      1.0  0.65737  0.44284  0.21953  1.0000
  H   H2782     1.0  0.33185  0.29353  0.10015  1.0000
  H   H2783     1.0  0.32953  0.33330  0.06411  1.0000
  C   C1578     1.0  0.33386  0.28608  0.16265  1.0000
  C   C1579     1.0  0.63400  0.48312  0.24922  1.0000
  H   H2784     1.0  0.65769  0.44516  0.28565  1.0000
  H   H2785     1.0  0.52610  0.48286  0.05989  1.0000
  C   C1580     1.0  0.32912  0.33461  0.03328  1.0000
  H   H2786     1.0  0.55754  0.48245  0.45966  1.0000
  H   H2787     1.0  0.62551  0.48221  0.16677  1.0000
  C   C1581     1.0  0.65789  0.38133  0.33883  1.0000
  H   H2788     1.0  0.33042  0.30159  0.15636  1.0000
  C   C1582     1.0  0.51734  0.48333  0.10811  1.0000
  H   H2789     1.0  0.32773  0.36498  0.05360  1.0000
  H   H2790     1.0  0.48369  0.23439  0.98582  1.0000
  Fe  Fe172     1.0  0.61790  0.41125  0.49502  1.0000
  S   S346      1.0  0.60023  0.43956  0.50071  1.0000
  S   S347      1.0  0.60510  0.38415  0.50138  1.0000
  Fe  Fe173     1.0  0.62426  0.44190  0.51496  1.0000
  S   S348      1.0  0.64094  0.41266  0.51114  1.0000
  C   C1583     1.0  0.35171  0.47291  0.68542  1.0000
  Fe  Fe174     1.0  0.34722  0.30763  0.65144  1.0000
  Fe  Fe175     1.0  0.37905  0.27596  0.63665  1.0000
  S   S349      1.0  0.36894  0.27971  0.60858  1.0000
  H   H2791     1.0  0.44963  0.25438  0.63291  1.0000
  Fe  Fe176     1.0  0.36531  0.31115  0.60934  1.0000
  S   S350      1.0  0.37730  0.33257  0.58471  1.0000
  S   S351      1.0  0.37779  0.30736  0.63607  1.0000
  Fe  Fe177     1.0  0.57735  0.26473  0.62162  1.0000
  S   S352      1.0  0.58267  0.27639  0.58998  1.0000
  S   S353      1.0  0.55451  0.27962  0.64264  1.0000
  Fe  Fe178     1.0  0.35799  0.39355  0.73486  1.0000
  Fe  Fe179     1.0  0.61398  0.27014  0.59348  1.0000
  Fe  Fe180     1.0  0.65481  0.42791  0.48289  1.0000
  H   H2792     1.0  0.40046  0.28115  0.68927  1.0000
  S   S354      1.0  0.60842  0.26012  0.62538  1.0000
  C   C1584     1.0  0.44384  0.25983  0.52702  1.0000
  Fe  Fe181     1.0  0.50451  0.37305  0.59318  1.0000
  S   S355      1.0  0.50922  0.35656  0.56912  1.0000
  S   S356      1.0  0.52457  0.36798  0.61441  1.0000
  Fe  Fe182     1.0  0.46671  0.39742  0.58287  1.0000
  S   S357      1.0  0.46811  0.38278  0.55801  1.0000
  S   S358      1.0  0.44040  0.41902  0.59176  1.0000
  Fe  Fe183     1.0  0.47738  0.35553  0.57792  1.0000
  S   S359      1.0  0.46675  0.32732  0.58318  1.0000
  Fe  Fe184     1.0  0.49960  0.38527  0.55166  1.0000
  S   S360      1.0  0.51371  0.39692  0.52184  1.0000
  S   S361      1.0  0.47350  0.36995  0.60336  1.0000
  S   S362      1.0  0.49749  0.40201  0.57512  1.0000
  S   S363      1.0  0.36424  0.41136  0.92980  1.0000
  C   C1585     1.0  0.54629  0.30410  0.63436  1.0000
  C   C1586     1.0  0.54145  0.31697  0.64736  1.0000
  C   C1587     1.0  0.53506  0.33660  0.64107  1.0000
  C   C1588     1.0  0.53272  0.34334  0.62192  1.0000
  C   C1589     1.0  0.53739  0.33047  0.60891  1.0000
  C   C1590     1.0  0.54441  0.31091  0.61507  1.0000
  H   H2793     1.0  0.54288  0.31176  0.66229  1.0000
  H   H2794     1.0  0.53156  0.34650  0.65116  1.0000
  H   H2795     1.0  0.53596  0.33563  0.59403  1.0000
  H   H2796     1.0  0.54793  0.30104  0.60502  1.0000
  H   H2797     1.0  0.38948  0.31969  0.53633  1.0000
  C   C1591     1.0  0.62271  0.25537  0.67577  1.0000
  N   N90       1.0  0.52486  0.29106  0.55348  1.0000
  H   H2798     1.0  0.41900  0.46964  0.62612  1.0000
  H   H2799     1.0  0.34752  0.35989  0.63098  1.0000
  H   H2800     1.0  0.39092  0.45884  0.97203  1.0000
  C   C1592     1.0  0.40239  0.33076  0.58324  1.0000
  C   C1593     1.0  0.41146  0.34640  0.57382  1.0000
  C   C1594     1.0  0.43127  0.34548  0.57359  1.0000
  C   C1595     1.0  0.44217  0.32871  0.58231  1.0000
  C   C1596     1.0  0.43330  0.31276  0.59091  1.0000
  C   C1597     1.0  0.41340  0.31388  0.59170  1.0000
  H   H2801     1.0  0.40303  0.35946  0.56723  1.0000
  H   H2802     1.0  0.43802  0.35781  0.56680  1.0000
  H   H2803     1.0  0.44174  0.29972  0.59748  1.0000
  H   H2804     1.0  0.40657  0.30168  0.59888  1.0000
  S   S364      1.0  0.34239  0.39227  0.97170  1.0000
  C   C1598     1.0  0.42587  0.45741  0.58832  1.0000
  C   C1599     1.0  0.44251  0.44345  0.58532  1.0000
  C   C1600     1.0  0.46061  0.44911  0.57929  1.0000
  N   N91       1.0  0.34465  0.40624  0.65882  1.0000
  H   H2805     1.0  0.37766  0.46137  0.79805  1.0000
  H   H2806     1.0  0.41181  0.45315  0.59254  1.0000
  H   H2807     1.0  0.47346  0.43849  0.57675  1.0000
  C   C1601     1.0  0.34436  0.33730  0.68750  1.0000
  Fe  Fe185     1.0  0.33640  0.39980  0.94132  1.0000
  S   S365      1.0  0.33694  0.45535  0.69281  1.0000
  C   C1602     1.0  0.39102  0.45659  0.76954  1.0000
  C   C1603     1.0  0.38732  0.46629  0.78522  1.0000
  C   C1604     1.0  0.45047  0.25743  0.59011  1.0000
  H   H2808     1.0  0.35836  0.39219  0.62275  1.0000
  C   C1605     1.0  0.50929  0.30877  0.55213  1.0000
  C   C1606     1.0  0.40379  0.46290  0.75303  1.0000
  H   H2809     1.0  0.34420  0.43574  0.81544  1.0000
  H   H2810     1.0  0.61580  0.26737  0.66567  1.0000
  H   H2811     1.0  0.40728  0.45523  0.74109  1.0000
  C   C1607     1.0  0.50336  0.44659  0.53026  1.0000
  C   C1608     1.0  0.57970  0.38772  0.50776  1.0000
  C   C1609     1.0  0.57044  0.37223  0.51731  1.0000
  C   C1610     1.0  0.55015  0.37503  0.52258  1.0000
  C   C1611     1.0  0.53909  0.39320  0.51757  1.0000
  C   C1612     1.0  0.54834  0.40853  0.50776  1.0000
  C   C1613     1.0  0.56857  0.40587  0.50310  1.0000
  H   H2812     1.0  0.39164  0.23731  0.54572  1.0000
  H   H2813     1.0  0.54304  0.36304  0.52987  1.0000
  H   H2814     1.0  0.53975  0.42248  0.50385  1.0000
  H   H2815     1.0  0.49906  0.44597  0.59683  1.0000
  S   S366      1.0  0.38239  0.43467  0.77259  1.0000
  H   H2816     1.0  0.38840  0.33965  0.69682  1.0000
  S   S367      1.0  0.34956  0.27546  0.65469  1.0000
  H   H2817     1.0  0.33308  0.37809  0.84440  1.0000
  H   H2818     1.0  0.52378  0.27766  0.61378  1.0000
  C   C1614     1.0  0.36522  0.47378  0.69645  1.0000
  C   C1615     1.0  0.57899  0.39883  0.55409  1.0000
  C   C1616     1.0  0.33284  0.34991  0.69955  1.0000
  H   H2819     1.0  0.57999  0.46374  0.52847  1.0000
  H   H2820     1.0  0.36688  0.35075  0.64474  1.0000
  H   H2821     1.0  0.53231  0.26249  0.54618  1.0000
  H   H2822     1.0  0.48468  0.25174  0.54206  1.0000
  H   H2823     1.0  0.45849  0.26915  0.58233  1.0000
  C   C1617     1.0  0.34252  0.42185  0.81228  1.0000
  Fe  Fe186     1.0  0.34649  0.43982  0.93536  1.0000
  H   H2824     1.0  0.58046  0.29665  0.52034  1.0000
  H   H2825     1.0  0.50428  0.30891  0.52289  1.0000
  H   H2826     1.0  0.49845  0.27636  0.62033  1.0000
  H   H2827     1.0  0.56269  0.39877  0.63750  1.0000
  H   H2828     1.0  0.39269  0.41261  0.68085  1.0000
  H   H2829     1.0  0.51876  0.32613  0.52401  1.0000
  H   H2830     1.0  0.36711  0.31869  0.55307  1.0000
  H   H2831     1.0  0.53665  0.29030  0.57908  1.0000
  H   H2832     1.0  0.65108  0.42362  0.54444  1.0000
  H   H2833     1.0  0.52827  0.47372  0.58542  1.0000
  H   H2834     1.0  0.59330  0.27764  0.53602  1.0000
  H   H2835     1.0  0.48956  0.34575  0.54042  1.0000
  H   H2836     1.0  0.54351  0.30269  0.52772  1.0000
  H   H2837     1.0  0.55203  0.47171  0.48460  1.0000
  C   C1618     1.0  0.44433  0.46840  0.64954  1.0000
  C   C1619     1.0  0.44554  0.48229  0.58153  1.0000
  S   S368      1.0  0.37252  0.36585  0.72341  1.0000
  H   H2838     1.0  0.45198  0.26593  0.53499  1.0000
  H   H2839     1.0  0.63337  0.36268  0.53213  1.0000
  H   H2840     1.0  0.45093  0.23900  0.50749  1.0000
  C   C1620     1.0  0.36134  0.35516  0.70960  1.0000
  H   H2841     1.0  0.37229  0.30590  0.53322  1.0000
  C   C1621     1.0  0.58058  0.28950  0.53555  1.0000
  H   H2842     1.0  0.44310  0.46693  0.91815  1.0000
  Fe  Fe187     1.0  0.36512  0.42574  0.75374  1.0000
  H   H2843     1.0  0.38542  0.45521  0.91611  1.0000
  H   H2844     1.0  0.51178  0.44405  0.51598  1.0000
  Fe  Fe188     1.0  0.33899  0.28097  0.62625  1.0000
  H   H2845     1.0  0.42041  0.44670  0.92840  1.0000
  H   H2846     1.0  0.40000  0.45083  0.67929  1.0000
  C   C1622     1.0  0.63952  0.24287  0.66476  1.0000
  H   H2847     1.0  0.41789  0.42974  0.90360  1.0000
  S   S369      1.0  0.35267  0.43624  0.96527  1.0000
  H   H2848     1.0  0.34714  0.46164  0.78075  1.0000
  C   C1623     1.0  0.37289  0.34258  0.69752  1.0000
  N   N92       1.0  0.41554  0.47101  0.95488  1.0000
  C   C1624     1.0  0.64224  0.34848  0.53680  1.0000
  H   H2849     1.0  0.34873  0.42187  0.62965  1.0000
  Fe  Fe189     1.0  0.36840  0.40675  0.96075  1.0000
  H   H2850     1.0  0.37682  0.44653  0.62927  1.0000
  C   C1625     1.0  0.65884  0.42193  0.57223  1.0000
  H   H2851     1.0  0.58217  0.29999  0.54410  1.0000
  H   H2852     1.0  0.54618  0.30939  0.54927  1.0000
  H   H2853     1.0  0.51545  0.44847  0.61176  1.0000
  C   C1626     1.0  0.65533  0.30549  0.62115  1.0000
  H   H2854     1.0  0.57595  0.38394  0.55692  1.0000
  H   H2855     1.0  0.58730  0.40167  0.53926  1.0000
  H   H2856     1.0  0.37832  0.24063  0.62720  1.0000
  H   H2857     1.0  0.43087  0.46159  0.79693  1.0000
  H   H2858     1.0  0.55274  0.40972  0.57148  1.0000
  C   C1627     1.0  0.63732  0.44304  0.59252  1.0000
  H   H2859     1.0  0.63424  0.38300  0.61282  1.0000
  H   H2860     1.0  0.39508  0.29776  0.56666  1.0000
  C   C1628     1.0  0.55991  0.41313  0.55631  1.0000
  S   S370      1.0  0.34461  0.46712  0.91329  1.0000
  H   H2861     1.0  0.37732  0.37970  0.67149  1.0000
  H   H2862     1.0  0.43064  0.40819  0.89437  1.0000
  H   H2863     1.0  0.37211  0.47486  0.84055  1.0000
  C   C1629     1.0  0.36208  0.36168  0.63255  1.0000
  C   C1630     1.0  0.50796  0.28496  0.58967  1.0000
  H   H2864     1.0  0.62778  0.26128  0.68645  1.0000
  H   H2865     1.0  0.63479  0.28814  0.61959  1.0000
  C   C1631     1.0  0.64480  0.29738  0.61150  1.0000
  H   H2866     1.0  0.45007  0.46706  0.97062  1.0000
  H   H2867     1.0  0.38860  0.42750  0.89135  1.0000
  C   C1632     1.0  0.34565  0.46438  0.85328  1.0000
  S   S371      1.0  0.35297  0.39835  0.76562  1.0000
  H   H2868     1.0  0.57538  0.43499  0.55830  1.0000
  C   C1633     1.0  0.52139  0.27586  0.54375  1.0000
  C   C1634     1.0  0.34127  0.35883  0.71048  1.0000
  C   C1635     1.0  0.41316  0.47835  0.75252  1.0000
  H   H2869     1.0  0.61285  0.46068  0.58081  1.0000
  H   H2870     1.0  0.37583  0.25898  0.55141  1.0000
  H   H2871     1.0  0.54133  0.45015  0.52578  1.0000
  C   C1636     1.0  0.51157  0.27345  0.60934  1.0000
  H   H2872     1.0  0.56319  0.27405  0.55895  1.0000
  C   C1637     1.0  0.54380  0.29721  0.54327  1.0000
  H   H2873     1.0  0.64904  0.26824  0.64653  1.0000
  S   S372      1.0  0.63992  0.45758  0.48790  1.0000
  C   C1638     1.0  0.42738  0.47679  0.58640  1.0000
  H   H2874     1.0  0.50308  0.30028  0.59135  1.0000
  H   H2875     1.0  0.61161  0.24653  0.68356  1.0000
  C   C1639     1.0  0.44094  0.25060  0.57641  1.0000
  H   H2876     1.0  0.43398  0.23585  0.54807  1.0000
  H   H2877     1.0  0.52374  0.28056  0.52786  1.0000
  Fe  Fe190     1.0  0.34310  0.43535  0.72015  1.0000
  H   H2878     1.0  0.40959  0.40719  0.91304  1.0000
  H   H2879     1.0  0.36218  0.42348  0.66644  1.0000
  C   C1640     1.0  0.56367  0.43412  0.55065  1.0000
  H   H2880     1.0  0.37346  0.32413  0.67718  1.0000
  H   H2881     1.0  0.36401  0.24099  0.58419  1.0000
  S   S373      1.0  0.37287  0.41922  0.72357  1.0000
  H   H2882     1.0  0.57014  0.43585  0.53512  1.0000
  C   C1641     1.0  0.40037  0.47388  0.89286  1.0000
  C   C1642     1.0  0.36448  0.33380  0.68640  1.0000
  C   C1643     1.0  0.39452  0.39867  0.67592  1.0000
  C   C1644     1.0  0.38393  0.46711  0.90426  1.0000
  N   N93       1.0  0.59879  0.34739  0.60573  1.0000
  C   C1645     1.0  0.61743  0.35209  0.60850  1.0000
  C   C1646     1.0  0.59502  0.32893  0.61912  1.0000
  C   C1647     1.0  0.60176  0.34364  0.58539  1.0000
  C   C1648     1.0  0.58167  0.36347  0.60860  1.0000
  C   C1649     1.0  0.58155  0.37594  0.62372  1.0000
  C   C1650     1.0  0.62547  0.36843  0.59330  1.0000
  C   C1651     1.0  0.58487  0.33679  0.57993  1.0000
  C   C1652     1.0  0.59296  0.32865  0.64096  1.0000
  C   C1653     1.0  0.59397  0.30810  0.65217  1.0000
  C   C1654     1.0  0.56196  0.38908  0.62771  1.0000
  H   H2883     1.0  0.39090  0.46369  0.94684  1.0000
  C   C1655     1.0  0.58872  0.33577  0.55851  1.0000
  H   H2884     1.0  0.62901  0.33911  0.60832  1.0000
  H   H2885     1.0  0.61607  0.35595  0.62284  1.0000
  H   H2886     1.0  0.58128  0.32515  0.61752  1.0000
  H   H2887     1.0  0.60662  0.31678  0.61510  1.0000
  H   H2888     1.0  0.61507  0.33269  0.58249  1.0000
  H   H2889     1.0  0.60419  0.35693  0.57484  1.0000
  H   H2890     1.0  0.58034  0.37376  0.59488  1.0000
  H   H2891     1.0  0.56797  0.35758  0.61247  1.0000
  H   H2892     1.0  0.59268  0.38528  0.61837  1.0000
  H   H2893     1.0  0.58463  0.36709  0.63759  1.0000
  H   H2894     1.0  0.63253  0.36290  0.57981  1.0000
  H   H2895     1.0  0.61382  0.38076  0.58982  1.0000
  H   H2896     1.0  0.57101  0.34681  0.58311  1.0000
  H   H2897     1.0  0.58324  0.32212  0.58783  1.0000
  H   H2898     1.0  0.60454  0.33450  0.64455  1.0000
  H   H2899     1.0  0.57865  0.33703  0.64627  1.0000
  H   H2900     1.0  0.59140  0.30827  0.66786  1.0000
  H   H2901     1.0  0.58284  0.30112  0.64918  1.0000
  H   H2902     1.0  0.60850  0.29948  0.64812  1.0000
  H   H2903     1.0  0.55057  0.38036  0.63478  1.0000
  H   H2904     1.0  0.55791  0.39801  0.61412  1.0000
  C   C1656     1.0  0.36554  0.47565  0.90009  1.0000
  H   H2905     1.0  0.51035  0.24540  0.53436  1.0000
  H   H2906     1.0  0.50690  0.44415  0.55919  1.0000
  H   H2907     1.0  0.59138  0.34985  0.54969  1.0000
  H   H2908     1.0  0.60155  0.32454  0.55509  1.0000
  H   H2909     1.0  0.57595  0.33207  0.55466  1.0000
  N   N94       1.0  0.40008  0.43855  0.84999  1.0000
  C   C1657     1.0  0.40871  0.45379  0.83493  1.0000
  C   C1658     1.0  0.37927  0.44633  0.85803  1.0000
  C   C1659     1.0  0.41149  0.43373  0.86627  1.0000
  C   C1660     1.0  0.40157  0.42015  0.84251  1.0000
  C   C1661     1.0  0.39482  0.42191  0.82313  1.0000
  C   C1662     1.0  0.43066  0.44860  0.82706  1.0000
  H   H2910     1.0  0.50091  0.26006  0.56464  1.0000
  C   C1663     1.0  0.36704  0.46080  0.84411  1.0000
  C   C1664     1.0  0.39830  0.40216  0.81720  1.0000
  H   H2911     1.0  0.34376  0.44701  0.65110  1.0000
  C   C1665     1.0  0.63054  0.44288  0.56095  1.0000
  H   H2912     1.0  0.40658  0.46730  0.84090  1.0000
  H   H2913     1.0  0.40105  0.45787  0.82245  1.0000
  H   H2914     1.0  0.37126  0.43432  0.86497  1.0000
  H   H2915     1.0  0.37879  0.45439  0.86973  1.0000
  H   H2916     1.0  0.41304  0.44718  0.87052  1.0000
  H   H2917     1.0  0.42655  0.42643  0.86154  1.0000
  H   H2918     1.0  0.41676  0.41218  0.84098  1.0000
  H   H2919     1.0  0.39304  0.41021  0.85317  1.0000
  H   H2920     1.0  0.40285  0.43129  0.81136  1.0000
  H   H2921     1.0  0.37911  0.42748  0.82443  1.0000
  H   H2922     1.0  0.43920  0.44887  0.83815  1.0000
  H   H2923     1.0  0.43443  0.43413  0.82295  1.0000
  C   C1666     1.0  0.40308  0.42053  0.88472  1.0000
  C   C1667     1.0  0.42736  0.45098  0.95537  1.0000
  H   H2924     1.0  0.55106  0.41037  0.54672  1.0000
  H   H2925     1.0  0.36804  0.45569  0.83057  1.0000
  H   H2926     1.0  0.39298  0.40356  0.80351  1.0000
  H   H2927     1.0  0.41401  0.39602  0.81488  1.0000
  H   H2928     1.0  0.39041  0.39207  0.82834  1.0000
  H   H2929     1.0  0.41624  0.46489  0.68317  1.0000
  C   C1668     1.0  0.33743  0.42145  0.64285  1.0000
  C   C1669     1.0  0.42227  0.43841  0.94287  1.0000
  H   H2930     1.0  0.43453  0.47841  0.65864  1.0000
  C   C1670     1.0  0.49821  0.25764  0.53625  1.0000
  N   N95       1.0  0.43440  0.45236  0.64834  1.0000
  C   C1671     1.0  0.43053  0.44047  0.66816  1.0000
  C   C1672     1.0  0.44700  0.43936  0.63502  1.0000
  H   H2931     1.0  0.43392  0.23838  0.58456  1.0000
  C   C1673     1.0  0.41584  0.46110  0.64075  1.0000
  C   C1674     1.0  0.40349  0.44661  0.63885  1.0000
  C   C1675     1.0  0.41446  0.45010  0.68290  1.0000
  S   S374      1.0  0.63419  0.29139  0.57872  1.0000
  C   C1676     1.0  0.46801  0.43151  0.63872  1.0000
  C   C1677     1.0  0.47824  0.41638  0.62623  1.0000
  C   C1678     1.0  0.38460  0.45708  0.63210  1.0000
  C   C1679     1.0  0.41467  0.43866  0.70324  1.0000
  S   S375      1.0  0.39698  0.39318  0.97106  1.0000
  H   H2932     1.0  0.44393  0.43644  0.67459  1.0000
  H   H2933     1.0  0.42665  0.42653  0.66744  1.0000
  H   H2934     1.0  0.44035  0.42659  0.63572  1.0000
  H   H2935     1.0  0.44785  0.44679  0.61986  1.0000
  H   H2936     1.0  0.45708  0.46257  0.65687  1.0000
  C   C1680     1.0  0.37481  0.39419  0.67538  1.0000
  H   H2937     1.0  0.54761  0.44247  0.58475  1.0000
  S   S376      1.0  0.33285  0.32642  0.67418  1.0000
  H   H2938     1.0  0.39977  0.43708  0.65273  1.0000
  H   H2939     1.0  0.41139  0.43752  0.62806  1.0000
  H   H2940     1.0  0.36640  0.46379  0.70980  1.0000
  H   H2941     1.0  0.46955  0.25282  0.50594  1.0000
  H   H2942     1.0  0.57894  0.35805  0.52047  1.0000
  H   H2943     1.0  0.49603  0.27996  0.58571  1.0000
  H   H2944     1.0  0.47654  0.44331  0.63522  1.0000
  H   H2945     1.0  0.46827  0.42459  0.65393  1.0000
  H   H2946     1.0  0.49356  0.41164  0.62828  1.0000
  H   H2947     1.0  0.47103  0.40358  0.63025  1.0000
  H   H2948     1.0  0.47800  0.42235  0.61079  1.0000
  H   H2949     1.0  0.40851  0.43325  0.94985  1.0000
  H   H2950     1.0  0.46713  0.25923  0.64485  1.0000
  H   H2951     1.0  0.64729  0.38635  0.58853  1.0000
  H   H2952     1.0  0.34375  0.46975  0.86701  1.0000
  H   H2953     1.0  0.33228  0.38497  0.65062  1.0000
  H   H2954     1.0  0.42823  0.43894  0.70819  1.0000
  H   H2955     1.0  0.49194  0.43749  0.53434  1.0000
  Fe  Fe191     1.0  0.32643  0.42213  0.97436  1.0000
  C   C1681     1.0  0.62563  0.44984  0.57834  1.0000
  N   N96       1.0  0.43840  0.31474  0.65337  1.0000
  C   C1682     1.0  0.43199  0.32744  0.63554  1.0000
  C   C1683     1.0  0.45162  0.29686  0.64754  1.0000
  C   C1684     1.0  0.42064  0.30993  0.66746  1.0000
  C   C1685     1.0  0.44947  0.32467  0.66272  1.0000
  C   C1686     1.0  0.46702  0.33261  0.64933  1.0000
  C   C1687     1.0  0.42056  0.34787  0.63801  1.0000
  C   C1688     1.0  0.42447  0.29627  0.68650  1.0000
  C   C1689     1.0  0.44174  0.28196  0.64244  1.0000
  C   C1690     1.0  0.45691  0.26581  0.63468  1.0000
  C   C1691     1.0  0.47732  0.34231  0.66009  1.0000
  C   C1692     1.0  0.41677  0.35989  0.61863  1.0000
  C   C1693     1.0  0.40601  0.28925  0.69782  1.0000
  H   H2956     1.0  0.42253  0.32048  0.62978  1.0000
  H   H2957     1.0  0.44462  0.32910  0.62372  1.0000
  H   H2958     1.0  0.46269  0.30084  0.63474  1.0000
  H   H2959     1.0  0.46012  0.28916  0.65901  1.0000
  H   H2960     1.0  0.41145  0.30378  0.66050  1.0000
  H   H2961     1.0  0.41128  0.32323  0.67178  1.0000
  H   H2962     1.0  0.43968  0.33658  0.66938  1.0000
  H   H2963     1.0  0.45530  0.31456  0.67494  1.0000
  H   H2964     1.0  0.46230  0.34344  0.63716  1.0000
  H   H2965     1.0  0.47782  0.32089  0.64343  1.0000
  H   H2966     1.0  0.40631  0.34702  0.64749  1.0000
  H   H2967     1.0  0.42863  0.35587  0.64417  1.0000
  H   H2968     1.0  0.42954  0.30399  0.69575  1.0000
  H   H2969     1.0  0.43559  0.28342  0.68395  1.0000
  H   H2970     1.0  0.43253  0.27521  0.65537  1.0000
  H   H2971     1.0  0.43246  0.28869  0.63147  1.0000
  H   H2972     1.0  0.40814  0.23532  0.57369  1.0000
  H   H2973     1.0  0.49682  0.26685  0.52202  1.0000
  C   C1694     1.0  0.36168  0.38198  0.63594  1.0000
  H   H2974     1.0  0.48313  0.33181  0.67205  1.0000
  H   H2975     1.0  0.48964  0.34799  0.65003  1.0000
  H   H2976     1.0  0.46726  0.35453  0.66593  1.0000
  H   H2977     1.0  0.40766  0.35316  0.61226  1.0000
  H   H2978     1.0  0.40912  0.37461  0.62052  1.0000
  H   H2979     1.0  0.43061  0.36119  0.60850  1.0000
  H   H2980     1.0  0.40912  0.27951  0.71136  1.0000
  H   H2981     1.0  0.39463  0.30157  0.70164  1.0000
  H   H2982     1.0  0.63356  0.23748  0.65442  1.0000
  Fe  Fe192     1.0  0.58616  0.24535  0.58672  1.0000
  S   S377      1.0  0.61543  0.45202  0.54353  1.0000
  H   H2983     1.0  0.52979  0.43329  0.57771  1.0000
  C   C1695     1.0  0.50625  0.31910  0.53154  1.0000
  H   H2984     1.0  0.58804  0.39989  0.56443  1.0000
  H   H2985     1.0  0.49509  0.30546  0.55999  1.0000
  S   S378      1.0  0.40641  0.25482  0.64091  1.0000
  H   H2986     1.0  0.51238  0.31949  0.55958  1.0000
  H   H2987     1.0  0.37706  0.28466  0.56497  1.0000
  H   H2988     1.0  0.33289  0.34420  0.86005  1.0000
  H   H2989     1.0  0.37228  0.35896  0.61913  1.0000
  H   H2990     1.0  0.48917  0.28155  0.55083  1.0000
  C   C1696     1.0  0.40845  0.23518  0.62935  1.0000
  C   C1697     1.0  0.56208  0.28125  0.54401  1.0000
  H   H2991     1.0  0.49615  0.46190  0.52923  1.0000
  H   H2992     1.0  0.53355  0.26757  0.57596  1.0000
  C   C1698     1.0  0.43801  0.42065  0.94065  1.0000
  H   H2993     1.0  0.36634  0.39379  0.69012  1.0000
  H   H2994     1.0  0.40171  0.40657  0.88151  1.0000
  C   C1699     1.0  0.48827  0.33490  0.53214  1.0000
  H   H2995     1.0  0.46508  0.27143  0.62046  1.0000
  H   H2996     1.0  0.56170  0.27017  0.53558  1.0000
  H   H2997     1.0  0.51490  0.25779  0.60897  1.0000
  C   C1700     1.0  0.52670  0.28303  0.57433  1.0000
  H   H2998     1.0  0.48664  0.34232  0.51729  1.0000
  C   C1701     1.0  0.55489  0.46839  0.55154  1.0000
  H   H2999     1.0  0.47503  0.32870  0.53891  1.0000
  S   S379      1.0  0.33428  0.31329  0.62441  1.0000
  N   N97       1.0  0.41449  0.26171  0.55490  1.0000
  C   C1702     1.0  0.42747  0.25009  0.54056  1.0000
  C   C1703     1.0  0.40031  0.24958  0.56749  1.0000
  C   C1704     1.0  0.40429  0.27991  0.54405  1.0000
  C   C1705     1.0  0.42593  0.26714  0.56764  1.0000
  H   H3000     1.0  0.56438  0.46704  0.56236  1.0000
  C   C1706     1.0  0.53672  0.44619  0.57496  1.0000
  C   C1707     1.0  0.38857  0.29261  0.55650  1.0000
  C   C1708     1.0  0.38480  0.24549  0.55751  1.0000
  H   H3001     1.0  0.63568  0.33708  0.53375  1.0000
  H   H3002     1.0  0.40180  0.38723  0.68629  1.0000
  C   C1709     1.0  0.37883  0.31026  0.54391  1.0000
  H   H3003     1.0  0.41894  0.24663  0.53096  1.0000
  H   H3004     1.0  0.33074  0.42058  0.68299  1.0000
  H   H3005     1.0  0.35427  0.41028  0.81715  1.0000
  H   H3006     1.0  0.39263  0.25619  0.58024  1.0000
  H   H3007     1.0  0.39768  0.27660  0.53276  1.0000
  H   H3008     1.0  0.41491  0.28925  0.53605  1.0000
  H   H3009     1.0  0.43367  0.27912  0.55986  1.0000
  H   H3010     1.0  0.41597  0.27302  0.57994  1.0000
  C   C1710     1.0  0.32584  0.45660  0.62954  1.0000
  H   H3011     1.0  0.46087  0.24524  0.59647  1.0000
  C   C1711     1.0  0.64718  0.42890  0.55789  1.0000
  C   C1712     1.0  0.43700  0.46309  0.80932  1.0000
  C   C1713     1.0  0.64715  0.30134  0.59143  1.0000
  H   H3012     1.0  0.41462  0.46722  0.89595  1.0000
  H   H3013     1.0  0.43931  0.26270  0.60194  1.0000
  C   C1714     1.0  0.50146  0.26936  0.55024  1.0000
  S   S380      1.0  0.61812  0.24036  0.58679  1.0000
  H   H3014     1.0  0.45152  0.42488  0.93166  1.0000
  H   H3015     1.0  0.34395  0.42325  0.79645  1.0000
  H   H3016     1.0  0.42585  0.44285  0.97033  1.0000
  C   C1715     1.0  0.34631  0.38667  0.65370  1.0000
  H   H3017     1.0  0.43762  0.27170  0.51631  1.0000
  H   H3018     1.0  0.37383  0.41152  0.64695  1.0000
  C   C1716     1.0  0.41617  0.41618  0.89980  1.0000
  C   C1717     1.0  0.33084  0.40720  0.67764  1.0000
  H   H3019     1.0  0.40384  0.39916  0.66149  1.0000
  H   H3020     1.0  0.34916  0.37509  0.66617  1.0000
  H   H3021     1.0  0.38747  0.46758  0.61862  1.0000
  C   C1718     1.0  0.56673  0.47449  0.53132  1.0000
  H   H3022     1.0  0.49684  0.46842  0.60486  1.0000
  H   H3023     1.0  0.44307  0.45129  0.95126  1.0000
  H   H3024     1.0  0.52211  0.42572  0.54692  1.0000
  H   H3025     1.0  0.43306  0.41068  0.93373  1.0000
  H   H3026     1.0  0.37638  0.38270  0.63792  1.0000
  C   C1719     1.0  0.64079  0.37576  0.60024  1.0000
  C   C1720     1.0  0.53305  0.45311  0.54006  1.0000
  C   C1721     1.0  0.51640  0.44129  0.54550  1.0000
  C   C1722     1.0  0.46212  0.46851  0.57743  1.0000
  H   H3027     1.0  0.40226  0.44523  0.71322  1.0000
  H   H3028     1.0  0.54312  0.48088  0.55401  1.0000
  H   H3029     1.0  0.42355  0.48264  0.73994  1.0000
  C   C1723     1.0  0.36399  0.40972  0.66111  1.0000
  H   H3030     1.0  0.41340  0.42348  0.70378  1.0000
  H   H3031     1.0  0.44111  0.41277  0.95496  1.0000
  S   S381      1.0  0.33641  0.44387  0.74923  1.0000
  N   N98       1.0  0.54667  0.45017  0.55429  1.0000
  H   H3032     1.0  0.57549  0.41773  0.49536  1.0000
  H   H3033     1.0  0.33737  0.47535  0.84335  1.0000
  C   C1724     1.0  0.33646  0.47322  0.78696  1.0000
  H   H3034     1.0  0.64183  0.34627  0.55255  1.0000
  C   C1725     1.0  0.52113  0.46299  0.58190  1.0000
  H   H3035     1.0  0.40664  0.47169  0.64962  1.0000
  H   H3036     1.0  0.33965  0.45089  0.85622  1.0000
  H   H3037     1.0  0.45302  0.46038  0.80532  1.0000
  H   H3038     1.0  0.45985  0.47276  0.61932  1.0000
  H   H3039     1.0  0.47616  0.47279  0.57334  1.0000
  C   C1726     1.0  0.39435  0.46939  0.95866  1.0000
  C   C1727     1.0  0.50733  0.45595  0.59998  1.0000
  H   H3040     1.0  0.51240  0.47047  0.57063  1.0000
  H   H3041     1.0  0.63348  0.44865  0.60585  1.0000
  H   H3042     1.0  0.65248  0.36368  0.60434  1.0000
  H   H3043     1.0  0.52586  0.46848  0.53738  1.0000
  H   H3044     1.0  0.50806  0.23389  0.97266  1.0000
  H   H3045     1.0  0.33218  0.36829  0.71987  1.0000
  H   H3046     1.0  0.45267  0.24519  0.56513  1.0000
  C   C1728     1.0  0.45833  0.24542  0.51598  1.0000
  H   H3047     1.0  0.35429  0.47508  0.97294  1.0000
  H   H3048     1.0  0.65479  0.25423  0.61842  1.0000
  H   H3049     1.0  0.37520  0.46482  0.64334  1.0000
  H   H3050     1.0  0.55811  0.47606  0.51982  1.0000
  C   C1729     1.0  0.41893  0.47927  0.97120  1.0000
  H   H3051     1.0  0.34216  0.47739  0.79835  1.0000
  C   C1730     1.0  0.44066  0.48045  0.92399  1.0000
  H   H3052     1.0  0.45193  0.47911  0.93277  1.0000
  H   H3053     1.0  0.65348  0.30232  0.63669  1.0000
  C   C1731     1.0  0.65394  0.42904  0.58957  1.0000
  H   H3054     1.0  0.33587  0.39534  0.68899  1.0000
  H   H3055     1.0  0.33242  0.40904  0.84982  1.0000
  S   S382      1.0  0.32861  0.40952  0.72969  1.0000
  C   C1732     1.0  0.44005  0.48099  0.97125  1.0000
  C   C1733     1.0  0.39635  0.48198  0.78459  1.0000
  C   C1734     1.0  0.65580  0.25431  0.65444  1.0000
  C   C1735     1.0  0.33163  0.44232  0.64713  1.0000
  H   H3056     1.0  0.33817  0.45657  0.61729  1.0000
  H   H3057     1.0  0.43221  0.47806  0.81218  1.0000
  C   C1736     1.0  0.45095  0.48130  0.63016  1.0000
  H   H3058     1.0  0.32587  0.37575  0.87005  1.0000
  S   S383      1.0  0.32731  0.38128  0.92395  1.0000
  H   H3059     1.0  0.35823  0.48143  0.94689  1.0000
  H   H3060     1.0  0.41008  0.48346  0.92592  1.0000
  S   S384      1.0  0.57840  0.23428  0.61824  1.0000
  H   H3061     1.0  0.34914  0.23433  0.64596  1.0000
  H   H3062     1.0  0.54319  0.23376  0.59478  1.0000
  H   H3063     1.0  0.46567  0.23372  0.52610  1.0000
  Fe  Fe193     1.0  0.48642  0.67069  0.34111  1.0000
  S   S385      1.0  0.47816  0.69073  0.36248  1.0000
  S   S386      1.0  0.47127  0.67119  0.31667  1.0000
  Fe  Fe194     1.0  0.52136  0.64809  0.35829  1.0000
  S   S387      1.0  0.51616  0.66611  0.38138  1.0000
  S   S388      1.0  0.54854  0.62592  0.35338  1.0000
  Fe  Fe195     1.0  0.48487  0.66409  0.38415  1.0000
  S   S389      1.0  0.46603  0.66084  0.41344  1.0000
  Fe  Fe196     1.0  0.50998  0.69121  0.35796  1.0000
  S   S390      1.0  0.52016  0.71948  0.35388  1.0000
  S   S391      1.0  0.49053  0.64376  0.36314  1.0000
  S   S392      1.0  0.51770  0.67350  0.33457  1.0000
  C   C1737     1.0  0.52482  0.56479  0.21860  1.0000
  H   H3064     1.0  0.65001  0.66641  0.24650  1.0000
  H   H3065     1.0  0.43229  0.71539  0.35570  1.0000
  H   H3066     1.0  0.52521  0.56919  0.20283  1.0000
  Fe  Fe197     1.0  0.64418  0.63996  0.18916  1.0000
  H   H3067     1.0  0.52837  0.61439  0.99645  1.0000
  Fe  Fe198     1.0  0.61900  0.62197  0.01005  1.0000
  S   S393      1.0  0.59624  0.61091  0.03429  1.0000
  S   S394      1.0  0.61444  0.65407  0.00064  1.0000
  Fe  Fe199     1.0  0.59374  0.51212  0.30534  1.0000
  S   S395      1.0  0.56333  0.50751  0.31670  1.0000
  C   C1738     1.0  0.64081  0.67045  0.32072  1.0000
  S   S396      1.0  0.60821  0.67144  0.24660  1.0000
  C   C1739     1.0  0.61329  0.70016  0.26340  1.0000
  N   N99       1.0  0.58013  0.55121  0.40625  1.0000
  Fe  Fe200     1.0  0.56563  0.51991  0.34178  1.0000
  S   S397      1.0  0.53988  0.54044  0.35399  1.0000
  S   S398      1.0  0.59529  0.52671  0.32947  1.0000
  Fe  Fe201     1.0  0.58817  0.52105  0.11188  1.0000
  S   S399      1.0  0.55716  0.53640  0.11553  1.0000
  S   S400      1.0  0.61136  0.52852  0.08632  1.0000
  H   H3068     1.0  0.59812  0.64455  0.15220  1.0000
  H   H3069     1.0  0.56152  0.69634  0.22398  1.0000
  H   H3070     1.0  0.57539  0.71444  0.32381  1.0000
  C   C1740     1.0  0.65623  0.51384  0.23271  1.0000
  C   C1741     1.0  0.41732  0.62115  0.46978  1.0000
  Fe  Fe202     1.0  0.56195  0.53653  0.14538  1.0000
  S   S401      1.0  0.54899  0.56189  0.16068  1.0000
  C   C1742     1.0  0.61425  0.51463  0.20168  1.0000
  S   S402      1.0  0.59320  0.52273  0.14130  1.0000
  S   S403      1.0  0.61017  0.62024  0.23491  1.0000
  Fe  Fe203     1.0  0.60651  0.62441  0.20407  1.0000
  S   S404      1.0  0.57847  0.62150  0.19627  1.0000
  C   C1743     1.0  0.46389  0.59588  0.44052  1.0000
  Fe  Fe204     1.0  0.36213  0.64340  0.43921  1.0000
  S   S405      1.0  0.35504  0.61363  0.44773  1.0000
  S   S406      1.0  0.38099  0.65189  0.41070  1.0000
  H   H3071     1.0  0.56730  0.57634  0.98224  1.0000
  S   S407      1.0  0.55134  0.50868  0.15676  1.0000
  C   C1744     1.0  0.55399  0.60431  0.10901  1.0000
  C   C1745     1.0  0.55502  0.67396  0.21250  1.0000
  C   C1746     1.0  0.59678  0.62373  0.13498  1.0000
  S   S408      1.0  0.65844  0.65672  0.16176  1.0000
  S   S409      1.0  0.65711  0.71631  0.28041  1.0000
  H   H3072     1.0  0.55833  0.56559  0.42687  1.0000
  H   H3073     1.0  0.54379  0.66486  0.21474  1.0000
  H   H3074     1.0  0.62924  0.63980  0.06302  1.0000
  C   C1747     1.0  0.41356  0.60837  0.43406  1.0000
  H   H3075     1.0  0.57825  0.51229  0.19263  1.0000
  H   H3076     1.0  0.54756  0.61342  0.12017  1.0000
  C   C1748     1.0  0.55920  0.57771  0.16968  1.0000
  C   C1749     1.0  0.57847  0.57423  0.17271  1.0000
  C   C1750     1.0  0.58502  0.58745  0.18083  1.0000
  C   C1751     1.0  0.57226  0.60409  0.18575  1.0000
  C   C1752     1.0  0.55325  0.60738  0.18246  1.0000
  C   C1753     1.0  0.54680  0.59436  0.17453  1.0000
  H   H3077     1.0  0.58816  0.56134  0.16905  1.0000
  H   H3078     1.0  0.59975  0.58475  0.18338  1.0000
  H   H3079     1.0  0.54329  0.62012  0.18617  1.0000
  H   H3080     1.0  0.53195  0.59721  0.17225  1.0000
  C   C1754     1.0  0.61280  0.54043  0.26534  1.0000
  C   C1755     1.0  0.62657  0.54132  0.27608  1.0000
  C   C1756     1.0  0.59347  0.52279  0.21002  1.0000
  N   N100      1.0  0.54386  0.68639  0.26453  1.0000
  C   C1757     1.0  0.63275  0.55928  0.11554  1.0000
  H   H3081     1.0  0.62737  0.53191  0.28983  1.0000
  C   C1758     1.0  0.65052  0.62337  0.13513  1.0000
  H   H3082     1.0  0.63575  0.69759  0.33165  1.0000
  H   H3083     1.0  0.33087  0.70878  0.27716  1.0000
  C   C1759     1.0  0.58225  0.53191  0.44096  1.0000
  C   C1760     1.0  0.62259  0.68437  0.25445  1.0000
  H   H3084     1.0  0.58529  0.67702  0.30769  1.0000
  C   C1761     1.0  0.47984  0.60550  0.42683  1.0000
  H   H3085     1.0  0.60305  0.56676  0.39061  1.0000
  H   H3086     1.0  0.42532  0.61529  0.42451  1.0000
  H   H3087     1.0  0.61783  0.53249  0.38690  1.0000
  C   C1762     1.0  0.57907  0.51024  0.20823  1.0000
  C   C1763     1.0  0.60071  0.58749  0.04758  1.0000
  C   C1764     1.0  0.61916  0.57610  0.04589  1.0000
  C   C1765     1.0  0.62226  0.55785  0.05760  1.0000
  C   C1766     1.0  0.60694  0.55094  0.07099  1.0000
  C   C1767     1.0  0.58846  0.56224  0.07229  1.0000
  C   C1768     1.0  0.58538  0.58047  0.06072  1.0000
  H   H3088     1.0  0.63108  0.58142  0.03577  1.0000
  H   H3089     1.0  0.63659  0.54914  0.05644  1.0000
  H   H3090     1.0  0.57652  0.55698  0.08225  1.0000
  H   H3091     1.0  0.57107  0.58922  0.06207  1.0000
  H   H3092     1.0  0.64728  0.60953  0.13337  1.0000
  C   C1769     1.0  0.54591  0.50360  0.21402  1.0000
  H   H3093     1.0  0.47093  0.58455  0.45109  1.0000
  H   H3094     1.0  0.39445  0.58974  0.43119  1.0000
  H   H3095     1.0  0.34758  0.70986  0.42934  1.0000
  C   C1770     1.0  0.40620  0.59716  0.42220  1.0000
  C   C1771     1.0  0.61553  0.65377  0.34173  1.0000
  H   H3096     1.0  0.57888  0.57663  0.41821  1.0000
  H   H3097     1.0  0.45723  0.58918  0.43169  1.0000
  H   H3098     1.0  0.59782  0.70443  0.26491  1.0000
  C   C1772     1.0  0.54590  0.60230  0.35332  1.0000
  C   C1773     1.0  0.56249  0.58833  0.34992  1.0000
  C   C1774     1.0  0.56080  0.56919  0.35044  1.0000
  C   C1775     1.0  0.54252  0.56407  0.35392  1.0000
  C   C1776     1.0  0.52596  0.57802  0.35736  1.0000
  C   C1777     1.0  0.52763  0.59710  0.35704  1.0000
  H   H3099     1.0  0.57666  0.59229  0.34707  1.0000
  H   H3100     1.0  0.57360  0.55843  0.34802  1.0000
  H   H3101     1.0  0.51176  0.57408  0.36022  1.0000
  H   H3102     1.0  0.51478  0.60769  0.35980  1.0000
  C   C1778     1.0  0.44223  0.65926  0.41235  1.0000
  C   C1779     1.0  0.42718  0.66340  0.42759  1.0000
  C   C1780     1.0  0.40821  0.66152  0.42708  1.0000
  C   C1781     1.0  0.40437  0.65512  0.41152  1.0000
  C   C1782     1.0  0.41947  0.65088  0.39641  1.0000
  C   C1783     1.0  0.43830  0.65317  0.39668  1.0000
  H   H3103     1.0  0.43017  0.66815  0.43974  1.0000
  H   H3104     1.0  0.39658  0.66502  0.43870  1.0000
  H   H3105     1.0  0.41677  0.64519  0.38475  1.0000
  H   H3106     1.0  0.44986  0.64971  0.38500  1.0000
  C   C1784     1.0  0.54397  0.71745  0.35774  1.0000
  C   C1785     1.0  0.55463  0.69963  0.36466  1.0000
  C   C1786     1.0  0.57357  0.69839  0.36781  1.0000
  C   C1787     1.0  0.58209  0.71488  0.36355  1.0000
  H   H3107     1.0  0.54788  0.72149  0.23825  1.0000
  N   N101      1.0  0.43101  0.60383  0.46324  1.0000
  H   H3108     1.0  0.54834  0.68678  0.36757  1.0000
  H   H3109     1.0  0.58176  0.68459  0.37313  1.0000
  C   C1788     1.0  0.56189  0.65438  0.99939  1.0000
  H   H3110     1.0  0.53707  0.58191  0.12343  1.0000
  C   C1789     1.0  0.46008  0.69398  0.30628  1.0000
  C   C1790     1.0  0.45427  0.69617  0.28849  1.0000
  H   H3111     1.0  0.56530  0.66755  0.24774  1.0000
  C   C1791     1.0  0.52300  0.69614  0.26492  1.0000
  H   H3112     1.0  0.43220  0.50166  0.99100  1.0000
  C   C1792     1.0  0.45680  0.70989  0.31548  1.0000
  H   H3113     1.0  0.45676  0.68392  0.28131  1.0000
  Fe  Fe205     1.0  0.33643  0.65661  0.47495  1.0000
  H   H3114     1.0  0.46127  0.70835  0.32915  1.0000
  C   C1793     1.0  0.44891  0.61070  0.45109  1.0000
  H   H3115     1.0  0.53592  0.69639  0.22582  1.0000
  H   H3116     1.0  0.54917  0.60643  0.41729  1.0000
  N   N102      1.0  0.54466  0.58196  0.29001  1.0000
  C   C1794     1.0  0.54333  0.56083  0.29468  1.0000
  C   C1795     1.0  0.56088  0.58521  0.29860  1.0000
  C   C1796     1.0  0.52591  0.59262  0.29987  1.0000
  C   C1797     1.0  0.54739  0.58980  0.26864  1.0000
  C   C1798     1.0  0.55908  0.57563  0.25507  1.0000
  C   C1799     1.0  0.52527  0.55587  0.28936  1.0000
  C   C1800     1.0  0.52535  0.61413  0.30024  1.0000
  C   C1801     1.0  0.58162  0.57523  0.29125  1.0000
  C   C1802     1.0  0.59609  0.57923  0.30210  1.0000
  C   C1803     1.0  0.56594  0.58634  0.23500  1.0000
  C   C1804     1.0  0.52757  0.53448  0.28877  1.0000
  C   C1805     1.0  0.50479  0.62446  0.30660  1.0000
  H   H3117     1.0  0.54292  0.55539  0.31041  1.0000
  H   H3118     1.0  0.55650  0.55194  0.28780  1.0000
  H   H3119     1.0  0.56174  0.60077  0.29590  1.0000
  H   H3120     1.0  0.55780  0.58077  0.31442  1.0000
  H   H3121     1.0  0.52236  0.58546  0.31518  1.0000
  H   H3122     1.0  0.51361  0.59206  0.29296  1.0000
  H   H3123     1.0  0.53317  0.59516  0.26374  1.0000
  H   H3124     1.0  0.55439  0.60277  0.26545  1.0000
  H   H3125     1.0  0.54997  0.56561  0.25353  1.0000
  H   H3126     1.0  0.57197  0.56667  0.26047  1.0000
  H   H3127     1.0  0.51230  0.55955  0.30033  1.0000
  H   H3128     1.0  0.52225  0.56416  0.27521  1.0000
  H   H3129     1.0  0.53121  0.62180  0.28587  1.0000
  H   H3130     1.0  0.53400  0.61522  0.31091  1.0000
  H   H3131     1.0  0.58270  0.55942  0.29332  1.0000
  H   H3132     1.0  0.58619  0.58105  0.27583  1.0000
  H   H3133     1.0  0.59546  0.59496  0.30070  1.0000
  H   H3134     1.0  0.59307  0.57277  0.31754  1.0000
  H   H3135     1.0  0.61101  0.57279  0.29605  1.0000
  H   H3136     1.0  0.57668  0.59515  0.23557  1.0000
  H   H3137     1.0  0.57302  0.57588  0.22526  1.0000
  H   H3138     1.0  0.55356  0.59588  0.22888  1.0000
  H   H3139     1.0  0.52771  0.52595  0.30348  1.0000
  H   H3140     1.0  0.51511  0.53187  0.28340  1.0000
  H   H3141     1.0  0.54112  0.52953  0.27907  1.0000
  H   H3142     1.0  0.49856  0.61738  0.32114  1.0000
  H   H3143     1.0  0.50511  0.63960  0.30734  1.0000
  H   H3144     1.0  0.49532  0.62459  0.29622  1.0000
  H   H3145     1.0  0.62793  0.53719  0.35197  1.0000
  H   H3146     1.0  0.56932  0.66446  0.21335  1.0000
  H   H3147     1.0  0.58992  0.53755  0.20179  1.0000
  H   H3148     1.0  0.57536  0.51972  0.44033  1.0000
  H   H3149     1.0  0.60889  0.51362  0.44882  1.0000
  H   H3150     1.0  0.65416  0.63383  0.10477  1.0000
  H   H3151     1.0  0.44485  0.62356  0.44019  1.0000
  C   C1806     1.0  0.62098  0.65655  0.30561  1.0000
  H   H3152     1.0  0.62875  0.64447  0.34656  1.0000
  C   C1807     1.0  0.56452  0.65838  0.28463  1.0000
  C   C1808     1.0  0.55012  0.67535  0.24800  1.0000
  H   H3153     1.0  0.61889  0.50001  0.20969  1.0000
  H   H3154     1.0  0.57647  0.66675  0.28111  1.0000
  H   H3155     1.0  0.62809  0.55861  0.36098  1.0000
  H   H3156     1.0  0.47366  0.61642  0.41533  1.0000
  H   H3157     1.0  0.65148  0.65685  0.32271  1.0000
  H   H3158     1.0  0.50769  0.69426  0.29472  1.0000
  C   C1809     1.0  0.59672  0.52426  0.45480  1.0000
  H   H3159     1.0  0.51393  0.68564  0.26418  1.0000
  H   H3160     1.0  0.38064  0.71485  0.41360  1.0000
  H   H3161     1.0  0.57211  0.69450  0.25634  1.0000
  H   H3162     1.0  0.53888  0.72908  0.26100  1.0000
  H   H3163     1.0  0.45912  0.72351  0.40928  1.0000
  Fe  Fe206     1.0  0.64100  0.60831  0.22365  1.0000
  H   H3164     1.0  0.62359  0.57524  0.22687  1.0000
  H   H3165     1.0  0.41817  0.58636  0.41621  1.0000
  H   H3166     1.0  0.60948  0.66302  0.35293  1.0000
  C   C1810     1.0  0.55017  0.68722  0.22747  1.0000
  C   C1811     1.0  0.63731  0.63896  0.30273  1.0000
  H   H3167     1.0  0.43695  0.63851  0.47482  1.0000
  H   H3168     1.0  0.58657  0.64156  0.37270  1.0000
  H   H3169     1.0  0.54510  0.50862  0.19846  1.0000
  N   N103      1.0  0.39964  0.68002  0.34124  1.0000
  C   C1812     1.0  0.41114  0.66472  0.32991  1.0000
  C   C1813     1.0  0.38881  0.69559  0.32799  1.0000
  C   C1814     1.0  0.41355  0.68778  0.34934  1.0000
  C   C1815     1.0  0.38506  0.67198  0.35763  1.0000
  C   C1816     1.0  0.37035  0.66204  0.35207  1.0000
  C   C1817     1.0  0.42079  0.64598  0.34181  1.0000
  C   C1818     1.0  0.40491  0.70543  0.35944  1.0000
  C   C1819     1.0  0.40128  0.70731  0.31139  1.0000
  H   H3170     1.0  0.55891  0.70185  0.27784  1.0000
  C   C1820     1.0  0.35747  0.65313  0.36998  1.0000
  C   C1821     1.0  0.43256  0.63199  0.32868  1.0000
  C   C1822     1.0  0.42036  0.71143  0.36747  1.0000
  H   H3171     1.0  0.42313  0.67041  0.31926  1.0000
  H   H3172     1.0  0.40203  0.66073  0.32118  1.0000
  H   H3173     1.0  0.37966  0.68935  0.32113  1.0000
  H   H3174     1.0  0.37856  0.70596  0.33630  1.0000
  H   H3175     1.0  0.42583  0.69165  0.33789  1.0000
  H   H3176     1.0  0.42028  0.67647  0.36017  1.0000
  H   H3177     1.0  0.39244  0.66174  0.36870  1.0000
  H   H3178     1.0  0.37620  0.68358  0.36531  1.0000
  H   H3179     1.0  0.37774  0.65039  0.34386  1.0000
  H   H3180     1.0  0.36064  0.67266  0.34326  1.0000
  H   H3181     1.0  0.43093  0.64909  0.34993  1.0000
  H   H3182     1.0  0.40980  0.63850  0.35209  1.0000
  H   H3183     1.0  0.39315  0.70222  0.37166  1.0000
  H   H3184     1.0  0.39911  0.71797  0.34921  1.0000
  H   H3185     1.0  0.40909  0.71598  0.31706  1.0000
  H   H3186     1.0  0.41200  0.69783  0.30250  1.0000
  H   H3187     1.0  0.34633  0.70608  0.35887  1.0000
  C   C1823     1.0  0.33875  0.71601  0.34834  1.0000
  C   C1824     1.0  0.55135  0.53563  0.21452  1.0000
  H   H3188     1.0  0.35013  0.66410  0.37910  1.0000
  H   H3189     1.0  0.34620  0.64730  0.36566  1.0000
  H   H3190     1.0  0.42310  0.62798  0.32036  1.0000
  H   H3191     1.0  0.44433  0.63856  0.31855  1.0000
  H   H3192     1.0  0.43927  0.61870  0.33752  1.0000
  H   H3193     1.0  0.59286  0.52393  0.22523  1.0000
  H   H3194     1.0  0.61794  0.70142  0.20355  1.0000
  H   H3195     1.0  0.65857  0.62068  0.14729  1.0000
  H   H3196     1.0  0.47421  0.70610  0.42447  1.0000
  H   H3197     1.0  0.33766  0.72743  0.38896  1.0000
  S   S410      1.0  0.61350  0.65418  0.19784  1.0000
  H   H3198     1.0  0.57117  0.54308  0.44732  1.0000
  H   H3199     1.0  0.56189  0.65637  0.31571  1.0000
  H   H3200     1.0  0.57363  0.63086  0.11799  1.0000
  H   H3201     1.0  0.57820  0.67847  0.33304  1.0000
  H   H3202     1.0  0.64369  0.52359  0.23953  1.0000
  H   H3203     1.0  0.56923  0.65870  0.98438  1.0000
  H   H3204     1.0  0.55540  0.61373  0.09471  1.0000
  H   H3205     1.0  0.55302  0.63785  0.30880  1.0000
  H   H3206     1.0  0.60811  0.62818  0.33497  1.0000
  H   H3207     1.0  0.61296  0.69520  0.30776  1.0000
  H   H3208     1.0  0.54097  0.66416  0.24994  1.0000
  N   N104      1.0  0.58975  0.60304  0.11230  1.0000
  H   H3209     1.0  0.60147  0.52651  0.41530  1.0000
  H   H3210     1.0  0.60825  0.62329  0.37069  1.0000
  H   H3211     1.0  0.52688  0.73180  0.39107  1.0000
  C   C1825     1.0  0.56802  0.73264  0.24906  1.0000
  H   H3212     1.0  0.54649  0.50865  0.41512  1.0000
  H   H3213     1.0  0.52548  0.60045  0.10651  1.0000
  C   C1826     1.0  0.53014  0.54291  0.22371  1.0000
  C   C1827     1.0  0.57485  0.70523  0.31352  1.0000
  H   H3214     1.0  0.56030  0.54434  0.21875  1.0000
  N   N105      1.0  0.62075  0.66614  0.32234  1.0000
  H   H3215     1.0  0.60159  0.61188  0.14648  1.0000
  H   H3216     1.0  0.63107  0.72059  0.19172  1.0000
  C   C1828     1.0  0.63967  0.55411  0.26878  1.0000
  H   H3217     1.0  0.52307  0.52335  0.42079  1.0000
  S   S411      1.0  0.62916  0.48840  0.36270  1.0000
  H   H3218     1.0  0.36620  0.64115  0.37860  1.0000
  C   C1829     1.0  0.56648  0.62004  0.99381  1.0000
  H   H3219     1.0  0.54105  0.67935  0.29556  1.0000
  H   H3220     1.0  0.40383  0.65823  0.47805  1.0000
  H   H3221     1.0  0.40332  0.61696  0.47753  1.0000
  H   H3222     1.0  0.60135  0.55174  0.23910  1.0000
  C   C1830     1.0  0.63087  0.70504  0.19294  1.0000
  H   H3223     1.0  0.61860  0.59573  0.11970  1.0000
  H   H3224     1.0  0.61547  0.51386  0.18625  1.0000
  H   H3225     1.0  0.58590  0.49496  0.21189  1.0000
  H   H3226     1.0  0.39737  0.73044  0.28707  1.0000
  H   H3227     1.0  0.62248  0.66711  0.29199  1.0000
  Fe  Fe207     1.0  0.35845  0.61565  0.47746  1.0000
  H   H3228     1.0  0.57115  0.58253  0.12714  1.0000
  S   S412      1.0  0.33127  0.65804  0.44515  1.0000
  H   H3229     1.0  0.35576  0.69967  0.40769  1.0000
  H   H3230     1.0  0.49082  0.59454  0.41990  1.0000
  S   S413      1.0  0.36802  0.64437  0.46814  1.0000
  C   C1831     1.0  0.59525  0.61283  0.09177  1.0000
  C   C1832     1.0  0.60122  0.63993  0.34325  1.0000
  C   C1833     1.0  0.59530  0.63055  0.36416  1.0000
  H   H3231     1.0  0.60592  0.69229  0.33311  1.0000
  H   H3232     1.0  0.64963  0.69571  0.21405  1.0000
  S   S414      1.0  0.63672  0.61044  0.19316  1.0000
  C   C1834     1.0  0.59369  0.55744  0.38793  1.0000
  C   C1835     1.0  0.56719  0.53928  0.40189  1.0000
  C   C1836     1.0  0.54714  0.53875  0.41511  1.0000
  C   C1837     1.0  0.55779  0.58426  0.39925  1.0000
  C   C1838     1.0  0.60709  0.54107  0.37798  1.0000
  C   C1839     1.0  0.53759  0.52311  0.41158  1.0000
  C   C1840     1.0  0.54243  0.59878  0.40933  1.0000
  C   C1841     1.0  0.61863  0.54924  0.35876  1.0000
  H   H3233     1.0  0.58535  0.56640  0.37691  1.0000
  H   H3234     1.0  0.56406  0.54435  0.38698  1.0000
  H   H3235     1.0  0.57489  0.52423  0.40200  1.0000
  H   H3236     1.0  0.53728  0.55270  0.41211  1.0000
  H   H3237     1.0  0.54810  0.53599  0.43055  1.0000
  H   H3238     1.0  0.56801  0.59252  0.38867  1.0000
  H   H3239     1.0  0.55051  0.57726  0.39123  1.0000
  H   H3240     1.0  0.59852  0.53127  0.37501  1.0000
  H   H3241     1.0  0.53573  0.52561  0.39630  1.0000
  H   H3242     1.0  0.53525  0.60961  0.39842  1.0000
  H   H3243     1.0  0.53120  0.59146  0.41946  1.0000
  C   C1842     1.0  0.63335  0.62763  0.28873  1.0000
  H   H3244     1.0  0.60878  0.55763  0.34877  1.0000
  C   C1843     1.0  0.64268  0.67875  0.25307  1.0000
  H   H3245     1.0  0.51974  0.53698  0.21822  1.0000
  C   C1844     1.0  0.59266  0.53961  0.42058  1.0000
  H   H3246     1.0  0.33375  0.61232  0.38388  1.0000
  H   H3247     1.0  0.58790  0.64736  0.33762  1.0000
  H   H3248     1.0  0.60501  0.63993  0.05983  1.0000
  C   C1845     1.0  0.57352  0.49177  0.24880  1.0000
  H   H3249     1.0  0.53262  0.73219  0.43225  1.0000
  C   C1846     1.0  0.60704  0.68522  0.32054  1.0000
  Fe  Fe208     1.0  0.54971  0.50667  0.12652  1.0000
  H   H3250     1.0  0.40129  0.61966  0.43856  1.0000
  H   H3251     1.0  0.38188  0.71294  0.29052  1.0000
  H   H3252     1.0  0.33112  0.61205  0.41880  1.0000
  H   H3253     1.0  0.51993  0.71540  0.42705  1.0000
  H   H3254     1.0  0.63892  0.62913  0.31660  1.0000
  H   H3255     1.0  0.57431  0.63909  0.15457  1.0000
  C   C1847     1.0  0.65323  0.68885  0.26073  1.0000
  H   H3256     1.0  0.55947  0.70457  0.31387  1.0000
  H   H3257     1.0  0.58635  0.61959  0.36476  1.0000
  H   H3258     1.0  0.58109  0.71193  0.29884  1.0000
  C   C1848     1.0  0.57140  0.73269  0.35665  1.0000
  H   H3259     1.0  0.62040  0.56168  0.98790  1.0000
  H   H3260     1.0  0.53494  0.57198  0.22304  1.0000
  C   C1849     1.0  0.55729  0.70035  0.26324  1.0000
  C   C1850     1.0  0.58595  0.68492  0.31898  1.0000
  H   H3261     1.0  0.40769  0.59004  0.46152  1.0000
  H   H3262     1.0  0.58432  0.65425  0.13304  1.0000
  C   C1851     1.0  0.57383  0.59205  0.11289  1.0000
  H   H3263     1.0  0.57867  0.63703  0.30578  1.0000
  H   H3264     1.0  0.42633  0.69954  0.37835  1.0000
  H   H3265     1.0  0.62406  0.52415  0.20284  1.0000
  H   H3266     1.0  0.60792  0.63698  0.09428  1.0000
  C   C1852     1.0  0.64912  0.69280  0.19971  1.0000
  H   H3267     1.0  0.60178  0.58198  0.13465  1.0000
  C   C1853     1.0  0.56893  0.56917  0.41369  1.0000
  H   H3268     1.0  0.54499  0.58239  0.09784  1.0000
  C   C1854     1.0  0.54473  0.67186  0.28295  1.0000
  C   C1855     1.0  0.61511  0.57198  0.10791  1.0000
  H   H3269     1.0  0.56759  0.64779  0.27476  1.0000
  H   H3270     1.0  0.58282  0.62352  0.08701  1.0000
  H   H3271     1.0  0.57139  0.61191  0.13806  1.0000
  C   C1856     1.0  0.58777  0.64150  0.14422  1.0000
  C   C1857     1.0  0.62140  0.48436  0.38790  1.0000
  C   C1858     1.0  0.64379  0.70462  0.26979  1.0000
  C   C1859     1.0  0.58196  0.61764  0.12558  1.0000
  S   S415      1.0  0.59711  0.52382  0.27354  1.0000
  C   C1860     1.0  0.47324  0.71356  0.40948  1.0000
  C   C1861     1.0  0.62382  0.71040  0.27075  1.0000
  Fe  Fe209     1.0  0.62024  0.64872  0.22763  1.0000
  H   H3272     1.0  0.53362  0.66253  0.28514  1.0000
  H   H3273     1.0  0.60441  0.56251  0.10927  1.0000
  H   H3274     1.0  0.60324  0.54821  0.42220  1.0000
  H   H3275     1.0  0.59750  0.58896  0.99975  1.0000
  C   C1862     1.0  0.53956  0.59142  0.10922  1.0000
  H   H3276     1.0  0.60982  0.62701  0.12459  1.0000
  C   C1863     1.0  0.38852  0.72109  0.29805  1.0000
  C   C1864     1.0  0.51348  0.70538  0.28303  1.0000
  N   N106      1.0  0.55865  0.60174  0.99586  1.0000
  H   H3277     1.0  0.61640  0.72267  0.27739  1.0000
  H   H3278     1.0  0.53640  0.49652  0.08419  1.0000
  H   H3279     1.0  0.48869  0.73113  0.38610  1.0000
  C   C1865     1.0  0.55439  0.59331  0.01698  1.0000
  C   C1866     1.0  0.54669  0.57401  0.02180  1.0000
  H   H3280     1.0  0.45145  0.56478  0.46728  1.0000
  C   C1867     1.0  0.55184  0.63736  0.00087  1.0000
  H   H3281     1.0  0.56787  0.49702  0.27826  1.0000
  S   S416      1.0  0.65146  0.63645  0.21867  1.0000
  C   C1868     1.0  0.54745  0.56442  0.04271  1.0000
  C   C1869     1.0  0.42064  0.59508  0.45200  1.0000
  H   H3282     1.0  0.61991  0.62154  0.29462  1.0000
  C   C1870     1.0  0.56451  0.64675  0.30495  1.0000
  H   H3283     1.0  0.64444  0.56770  0.11388  1.0000
  H   H3284     1.0  0.48714  0.61267  0.43474  1.0000
  H   H3285     1.0  0.59192  0.49784  0.38658  1.0000
  H   H3286     1.0  0.55248  0.53978  0.19859  1.0000
  C   C1871     1.0  0.49670  0.72175  0.27896  1.0000
  H   H3287     1.0  0.56740  0.59147  0.02375  1.0000
  H   H3288     1.0  0.54324  0.60341  0.02487  1.0000
  H   H3289     1.0  0.55510  0.56360  0.01253  1.0000
  H   H3290     1.0  0.53135  0.57669  0.01980  1.0000
  C   C1872     1.0  0.60645  0.58864  0.11941  1.0000
  C   C1873     1.0  0.44159  0.48747  0.98964  1.0000
  H   H3291     1.0  0.54504  0.63362  0.01612  1.0000
  C   C1874     1.0  0.61772  0.63094  0.06581  1.0000
  H   H3292     1.0  0.50991  0.56971  0.22599  1.0000
  C   C1875     1.0  0.61228  0.62397  0.08745  1.0000
  H   H3293     1.0  0.59849  0.60229  0.08182  1.0000
  H   H3294     1.0  0.57828  0.58233  0.10212  1.0000
  H   H3295     1.0  0.55457  0.70188  0.42845  1.0000
  H   H3296     1.0  0.53945  0.57436  0.05272  1.0000
  H   H3297     1.0  0.54074  0.55132  0.04614  1.0000
  H   H3298     1.0  0.56271  0.56002  0.04500  1.0000
  H   H3299     1.0  0.40030  0.60728  0.41006  1.0000
  H   H3300     1.0  0.63833  0.54731  0.10724  1.0000
  H   H3301     1.0  0.60705  0.65186  0.30659  1.0000
  S   S417      1.0  0.52387  0.49294  0.12612  1.0000
  H   H3302     1.0  0.45691  0.61586  0.46005  1.0000
  H   H3303     1.0  0.55568  0.68271  0.19781  1.0000
  H   H3304     1.0  0.56171  0.52181  0.24672  1.0000
  H   H3305     1.0  0.57272  0.65053  0.00915  1.0000
  C   C1876     1.0  0.55877  0.50950  0.24135  1.0000
  H   H3306     1.0  0.32957  0.68791  0.41057  1.0000
  C   C1877     1.0  0.36791  0.72410  0.40788  1.0000
  H   H3307     1.0  0.60266  0.53623  0.45753  1.0000
  C   C1878     1.0  0.53092  0.72475  0.42090  1.0000
  C   C1879     1.0  0.62446  0.56580  0.24058  1.0000
  H   H3308     1.0  0.65048  0.50777  0.22256  1.0000
  H   H3309     1.0  0.47381  0.70249  0.40071  1.0000
  C   C1880     1.0  0.61184  0.55256  0.24754  1.0000
  H   H3310     1.0  0.52130  0.70730  0.25194  1.0000
  H   H3311     1.0  0.58939  0.51700  0.46873  1.0000
  H   H3312     1.0  0.54399  0.50741  0.24902  1.0000
  H   H3313     1.0  0.62542  0.61494  0.09247  1.0000
  H   H3314     1.0  0.63182  0.63707  0.27461  1.0000
  H   H3315     1.0  0.64831  0.54855  0.20802  1.0000
  H   H3316     1.0  0.53510  0.59194  0.98860  1.0000
  H   H3317     1.0  0.63689  0.67655  0.35022  1.0000
  H   H3318     1.0  0.55106  0.66687  0.00372  1.0000
  H   H3319     1.0  0.62320  0.61850  0.05815  1.0000
  N   N107      1.0  0.55901  0.51436  0.21989  1.0000
  C   C1881     1.0  0.60210  0.49042  0.39583  1.0000
  C   C1882     1.0  0.44180  0.73010  0.28916  1.0000
  Fe  Fe210     1.0  0.64682  0.65067  0.99771  1.0000
  H   H3320     1.0  0.52399  0.71114  0.28853  1.0000
  H   H3321     1.0  0.54025  0.64234  0.99201  1.0000
  C   C1883     1.0  0.57372  0.58805  0.98494  1.0000
  H   H3322     1.0  0.41378  0.63229  0.45728  1.0000
  C   C1884     1.0  0.44545  0.71426  0.27981  1.0000
  H   H3323     1.0  0.62873  0.55295  0.13095  1.0000
  S   S418      1.0  0.60637  0.71301  0.36587  1.0000
  H   H3324     1.0  0.54873  0.70268  0.40521  1.0000
  Fe  Fe211     1.0  0.60549  0.49667  0.34465  1.0000
  H   H3325     1.0  0.65053  0.55463  0.27693  1.0000
  H   H3326     1.0  0.61981  0.57755  0.09245  1.0000
  C   C1885     1.0  0.55161  0.72122  0.25242  1.0000
  C   C1886     1.0  0.63859  0.56636  0.25105  1.0000
  H   H3327     1.0  0.64559  0.61557  0.28633  1.0000
  C   C1887     1.0  0.64312  0.68248  0.33527  1.0000
  H   H3328     1.0  0.42973  0.58195  0.44716  1.0000
  C   C1888     1.0  0.55019  0.71164  0.41539  1.0000
  H   H3329     1.0  0.52800  0.53887  0.23963  1.0000
  H   H3330     1.0  0.58094  0.72600  0.23962  1.0000
  C   C1889     1.0  0.52562  0.48731  0.08867  1.0000
  H   H3331     1.0  0.41383  0.72415  0.37450  1.0000
  H   H3332     1.0  0.62967  0.70207  0.17878  1.0000
  Fe  Fe212     1.0  0.58232  0.49466  0.15049  1.0000
  C   C1890     1.0  0.33295  0.72553  0.40483  1.0000
  H   H3333     1.0  0.65131  0.64391  0.29648  1.0000
  H   H3334     1.0  0.63774  0.50020  0.26890  1.0000
  H   H3335     1.0  0.62367  0.49587  0.24368  1.0000
  H   H3336     1.0  0.64572  0.67825  0.30600  1.0000
  S   S419      1.0  0.57580  0.49090  0.35840  1.0000
  H   H3337     1.0  0.53089  0.50673  0.22194  1.0000
  H   H3338     1.0  0.58103  0.49207  0.42181  1.0000
  H   H3339     1.0  0.44110  0.71592  0.26599  1.0000
  H   H3340     1.0  0.45680  0.48880  0.98929  1.0000
  S   S420      1.0  0.65102  0.61887  0.00912  1.0000
  C   C1891     1.0  0.35082  0.71335  0.41340  1.0000
  H   H3341     1.0  0.64768  0.67752  0.20136  1.0000
  C   C1892     1.0  0.64718  0.48953  0.26026  1.0000
  H   H3342     1.0  0.63667  0.63323  0.13884  1.0000
  C   C1893     1.0  0.54026  0.60564  0.98767  1.0000
  H   H3343     1.0  0.50363  0.71366  0.40105  1.0000
  C   C1894     1.0  0.44744  0.72786  0.30703  1.0000
  H   H3344     1.0  0.58815  0.49559  0.24596  1.0000
  H   H3345     1.0  0.58777  0.56726  0.00716  1.0000
  S   S421      1.0  0.62186  0.61616  0.98016  1.0000
  C   C1895     1.0  0.49006  0.72445  0.40117  1.0000
  H   H3346     1.0  0.37680  0.73033  0.30639  1.0000
  H   H3347     1.0  0.56178  0.72022  0.40859  1.0000
  H   H3348     1.0  0.57872  0.61731  0.00175  1.0000
  S   S422      1.0  0.58048  0.49131  0.12076  1.0000
  S   S423      1.0  0.65508  0.58212  0.24188  1.0000
  H   H3349     1.0  0.34193  0.68368  0.27995  1.0000
  H   H3350     1.0  0.48598  0.71670  0.27305  1.0000
  C   C1896     1.0  0.59167  0.57839  0.99454  1.0000
  C   C1897     1.0  0.59601  0.48736  0.41583  1.0000
  H   H3351     1.0  0.48941  0.72693  0.29255  1.0000
  C   C1898     1.0  0.56805  0.48525  0.27050  1.0000
  H   H3352     1.0  0.37190  0.72773  0.39197  1.0000
  H   H3353     1.0  0.49005  0.73274  0.42842  1.0000
  C   C1899     1.0  0.60788  0.56855  0.98054  1.0000
  H   H3354     1.0  0.65863  0.61414  0.05909  1.0000
  C   C1900     1.0  0.32807  0.69387  0.28254  1.0000
  H   H3355     1.0  0.57203  0.73326  0.26294  1.0000
  H   H3356     1.0  0.42696  0.56309  0.47882  1.0000
  Fe  Fe213     1.0  0.42005  0.52206  0.79257  1.0000
  S   S424      1.0  0.39441  0.52117  0.81633  1.0000
  Fe  Fe214     1.0  0.43667  0.55031  0.80985  1.0000
  S   S425      1.0  0.41189  0.55096  0.83466  1.0000
  S   S426      1.0  0.46005  0.56908  0.80445  1.0000
  Fe  Fe215     1.0  0.41582  0.51893  0.83576  1.0000
  H   H3357     1.0  0.34262  0.62314  0.61414  1.0000
  Fe  Fe216     1.0  0.39337  0.55308  0.81239  1.0000
  S   S427      1.0  0.36658  0.57540  0.80886  1.0000
  S   S428      1.0  0.44188  0.51799  0.81210  1.0000
  S   S429      1.0  0.41783  0.55426  0.78748  1.0000
  Fe  Fe217     1.0  0.38049  0.54548  0.59590  1.0000
  S   S430      1.0  0.40914  0.55294  0.58055  1.0000
  S   S431      1.0  0.35493  0.55288  0.58031  1.0000
  Fe  Fe218     1.0  0.39494  0.53057  0.63388  1.0000
  S   S432      1.0  0.42467  0.53702  0.62120  1.0000
  S   S433      1.0  0.39141  0.51752  0.66541  1.0000
  Fe  Fe219     1.0  0.40910  0.56479  0.60683  1.0000
  S   S434      1.0  0.41980  0.59280  0.60191  1.0000
  Fe  Fe220     1.0  0.42182  0.52443  0.59630  1.0000
  S   S435      1.0  0.44804  0.50595  0.58169  1.0000
  S   S436      1.0  0.37944  0.55952  0.62128  1.0000
  S   S437      1.0  0.39306  0.51582  0.61005  1.0000
  Fe  Fe221     1.0  0.36183  0.65428  0.67739  1.0000
  S   S438      1.0  0.38630  0.65784  0.65263  1.0000
  Fe  Fe222     1.0  0.34134  0.66939  0.71410  1.0000
  H   H3358     1.0  0.33384  0.59487  0.68569  1.0000
  S   S439      1.0  0.36665  0.64579  0.70799  1.0000
  H   H3359     1.0  0.47475  0.72492  0.80655  1.0000
  H   H3360     1.0  0.54393  0.58146  0.84131  1.0000
  H   H3361     1.0  0.33958  0.72350  0.75098  1.0000
  S   S440      1.0  0.60020  0.66395  0.94838  1.0000
  Fe  Fe223     1.0  0.53502  0.63609  0.88406  1.0000
  S   S441      1.0  0.53643  0.61761  0.86200  1.0000
  S   S442      1.0  0.55333  0.62287  0.90759  1.0000
  Fe  Fe224     1.0  0.50857  0.66928  0.86328  1.0000
  S   S443      1.0  0.50851  0.65372  0.83953  1.0000
  S   S444      1.0  0.49431  0.70045  0.86095  1.0000
  Fe  Fe225     1.0  0.50443  0.62835  0.86304  1.0000
  S   S445      1.0  0.48165  0.60958  0.86573  1.0000
  Fe  Fe226     1.0  0.54030  0.64449  0.84044  1.0000
  S   S446      1.0  0.56217  0.64344  0.81313  1.0000
  S   S447      1.0  0.50247  0.64464  0.88717  1.0000
  S   S448      1.0  0.54082  0.66220  0.86218  1.0000
  Fe  Fe227     1.0  0.61930  0.64791  0.97051  1.0000
  H   H3362     1.0  0.43819  0.49012  0.62419  1.0000
  C   C1901     1.0  0.46305  0.49523  0.63288  1.0000
  S   S449      1.0  0.60794  0.71271  0.78006  1.0000
  H   H3363     1.0  0.53132  0.53676  0.86995  1.0000
  H   H3364     1.0  0.35871  0.65833  0.54633  1.0000
  S   S450      1.0  0.37792  0.59153  0.49334  1.0000
  S   S451      1.0  0.42282  0.50632  0.76755  1.0000
  C   C1902     1.0  0.57560  0.66227  0.80491  1.0000
  C   C1903     1.0  0.57821  0.67376  0.81725  1.0000
  C   C1904     1.0  0.58876  0.68887  0.80997  1.0000
  C   C1905     1.0  0.59620  0.69290  0.79027  1.0000
  C   C1906     1.0  0.59389  0.68115  0.77810  1.0000
  C   C1907     1.0  0.58383  0.66580  0.78541  1.0000
  H   H3365     1.0  0.57239  0.67083  0.83240  1.0000
  H   H3366     1.0  0.59101  0.69746  0.81956  1.0000
  H   H3367     1.0  0.59980  0.68401  0.76290  1.0000
  H   H3368     1.0  0.58208  0.65686  0.77583  1.0000
  C   C1908     1.0  0.43146  0.71507  0.85148  1.0000
  S   S452      1.0  0.63226  0.72407  0.85892  1.0000
  C   C1909     1.0  0.49102  0.72804  0.89598  1.0000
  C   C1910     1.0  0.47019  0.70560  0.85720  1.0000
  C   C1911     1.0  0.45780  0.69223  0.86451  1.0000
  C   C1912     1.0  0.43834  0.69714  0.86199  1.0000
  C   C1913     1.0  0.36704  0.57398  0.75293  1.0000
  C   C1914     1.0  0.36368  0.49100  0.88463  1.0000
  H   H3369     1.0  0.46307  0.67830  0.87250  1.0000
  H   H3370     1.0  0.42861  0.68704  0.86812  1.0000
  C   C1915     1.0  0.58717  0.65241  0.93715  1.0000
  C   C1916     1.0  0.57362  0.66360  0.92587  1.0000
  C   C1917     1.0  0.56324  0.65487  0.91654  1.0000
  C   C1918     1.0  0.56641  0.63481  0.91833  1.0000
  C   C1919     1.0  0.58006  0.62367  0.92948  1.0000
  C   C1920     1.0  0.59029  0.63237  0.93890  1.0000
  H   H3371     1.0  0.57110  0.67912  0.92438  1.0000
  H   H3372     1.0  0.55273  0.66364  0.90807  1.0000
  H   H3373     1.0  0.58268  0.60815  0.93091  1.0000
  H   H3374     1.0  0.60068  0.62358  0.94744  1.0000
  C   C1921     1.0  0.37631  0.68689  0.74066  1.0000
  H   H3375     1.0  0.40547  0.68435  0.74568  1.0000
  H   H3376     1.0  0.37936  0.67377  0.73477  1.0000
  C   C1922     1.0  0.36060  0.56241  0.55560  1.0000
  C   C1923     1.0  0.37924  0.55758  0.54536  1.0000
  C   C1924     1.0  0.38418  0.56648  0.52620  1.0000
  C   C1925     1.0  0.37053  0.58028  0.51711  1.0000
  C   C1926     1.0  0.35168  0.58483  0.52711  1.0000
  C   C1927     1.0  0.34667  0.57573  0.54629  1.0000
  H   H3377     1.0  0.38987  0.54688  0.55216  1.0000
  H   H3378     1.0  0.39869  0.56271  0.51846  1.0000
  H   H3379     1.0  0.34103  0.59536  0.52013  1.0000
  H   H3380     1.0  0.51590  0.60713  0.96160  1.0000
  C   C1928     1.0  0.63832  0.63095  0.90755  1.0000
  H   H3381     1.0  0.42918  0.62147  0.49570  1.0000
  C   C1929     1.0  0.40931  0.61040  0.61632  1.0000
  C   C1930     1.0  0.41578  0.62802  0.61115  1.0000
  C   C1931     1.0  0.40835  0.64244  0.62231  1.0000
  C   C1932     1.0  0.39434  0.63942  0.63876  1.0000
  C   C1933     1.0  0.38760  0.62184  0.64394  1.0000
  C   C1934     1.0  0.39510  0.60727  0.63270  1.0000
  H   H3382     1.0  0.42676  0.63047  0.59853  1.0000
  H   H3383     1.0  0.41363  0.65594  0.61824  1.0000
  H   H3384     1.0  0.37694  0.61932  0.65672  1.0000
  H   H3385     1.0  0.39007  0.59365  0.63674  1.0000
  C   C1935     1.0  0.41653  0.73264  0.65797  1.0000
  S   S453      1.0  0.41947  0.49589  0.86212  1.0000
  C   C1936     1.0  0.35909  0.48595  0.96045  1.0000
  H   H3386     1.0  0.33427  0.72473  0.67221  1.0000
  H   H3387     1.0  0.34947  0.58466  0.65453  1.0000
  H   H3388     1.0  0.55267  0.60557  0.81191  1.0000
  H   H3389     1.0  0.51364  0.54092  0.90307  1.0000
  C   C1937     1.0  0.58258  0.53355  0.82246  1.0000
  C   C1938     1.0  0.46429  0.58188  0.82127  1.0000
  C   C1939     1.0  0.47791  0.59433  0.81530  1.0000
  C   C1940     1.0  0.48273  0.60369  0.82850  1.0000
  C   C1941     1.0  0.47437  0.60027  0.84797  1.0000
  C   C1942     1.0  0.46027  0.58837  0.85380  1.0000
  C   C1943     1.0  0.45512  0.57937  0.84053  1.0000
  H   H3390     1.0  0.48496  0.59654  0.80040  1.0000
  H   H3391     1.0  0.49324  0.61316  0.82371  1.0000
  H   H3392     1.0  0.45351  0.58579  0.86878  1.0000
  H   H3393     1.0  0.44449  0.56999  0.84534  1.0000
  C   C1944     1.0  0.36254  0.58164  0.78493  1.0000
  C   C1945     1.0  0.35017  0.59880  0.77912  1.0000
  C   C1946     1.0  0.34637  0.60362  0.76019  1.0000
  C   C1947     1.0  0.36903  0.71650  0.68711  1.0000
  C   C1948     1.0  0.38737  0.70994  0.75462  1.0000
  C   C1949     1.0  0.37119  0.56938  0.77168  1.0000
  H   H3394     1.0  0.34353  0.60838  0.78929  1.0000
  C   C1950     1.0  0.37969  0.48842  0.96054  1.0000
  H   H3395     1.0  0.38067  0.55609  0.77604  1.0000
  C   C1951     1.0  0.37616  0.50034  0.67274  1.0000
  C   C1952     1.0  0.36258  0.49955  0.66173  1.0000
  H   H3396     1.0  0.54364  0.55606  0.86751  1.0000
  H   H3397     1.0  0.56912  0.56230  0.82598  1.0000
  H   H3398     1.0  0.48702  0.53593  0.82640  1.0000
  H   H3399     1.0  0.34650  0.50378  0.72498  1.0000
  H   H3400     1.0  0.39702  0.53676  0.71256  1.0000
  H   H3401     1.0  0.58071  0.53558  0.80722  1.0000
  H   H3402     1.0  0.62787  0.60631  0.92716  1.0000
  C   C1953     1.0  0.32715  0.52953  0.70007  1.0000
  H   H3403     1.0  0.41743  0.70204  0.68915  1.0000
  H   H3404     1.0  0.54039  0.70825  0.86292  1.0000
  H   H3405     1.0  0.43268  0.49862  0.89759  1.0000
  C   C1954     1.0  0.38013  0.49746  0.87299  1.0000
  C   C1955     1.0  0.65132  0.71639  0.94770  1.0000
  H   H3406     1.0  0.54571  0.57569  0.80604  1.0000
  H   H3407     1.0  0.59333  0.69730  0.89077  1.0000
  H   H3408     1.0  0.42148  0.72600  0.62900  1.0000
  H   H3409     1.0  0.64625  0.61510  0.93462  1.0000
  H   H3410     1.0  0.61650  0.66591  0.89465  1.0000
  C   C1956     1.0  0.51447  0.55647  0.89879  1.0000
  C   C1957     1.0  0.62903  0.62822  0.89098  1.0000
  H   H3411     1.0  0.49899  0.56107  0.87545  1.0000
  H   H3412     1.0  0.43650  0.55826  0.51102  1.0000
  C   C1958     1.0  0.44370  0.49673  0.90689  1.0000
  C   C1959     1.0  0.46319  0.72367  0.84709  1.0000
  H   H3413     1.0  0.39756  0.69544  0.70627  1.0000
  C   C1960     1.0  0.35450  0.59099  0.74721  1.0000
  H   H3414     1.0  0.38823  0.48770  0.69839  1.0000
  S   S454      1.0  0.40680  0.71760  0.76094  1.0000
  H   H3415     1.0  0.62880  0.64200  0.91551  1.0000
  H   H3416     1.0  0.60451  0.61160  0.84689  1.0000
  C   C1961     1.0  0.40859  0.64733  0.49029  1.0000
  H   H3417     1.0  0.45826  0.49328  0.89809  1.0000
  H   H3418     1.0  0.38401  0.49804  0.73100  1.0000
  H   H3419     1.0  0.33152  0.55156  0.80099  1.0000
  C   C1962     1.0  0.53765  0.70997  0.78879  1.0000
  C   C1963     1.0  0.52823  0.69264  0.80043  1.0000
  H   H3420     1.0  0.33974  0.48531  0.65964  1.0000
  H   H3421     1.0  0.34945  0.49775  0.88147  1.0000
  C   C1964     1.0  0.53437  0.71730  0.83388  1.0000
  C   C1965     1.0  0.54787  0.71411  0.84844  1.0000
  C   C1966     1.0  0.52899  0.67802  0.78760  1.0000
  H   H3422     1.0  0.59794  0.65543  0.89070  1.0000
  C   C1967     1.0  0.40968  0.48783  0.76836  1.0000
  H   H3423     1.0  0.55861  0.71795  0.81031  1.0000
  C   C1968     1.0  0.44033  0.56796  0.47990  1.0000
  H   H3424     1.0  0.64864  0.66015  0.87761  1.0000
  H   H3425     1.0  0.53403  0.71307  0.77406  1.0000
  H   H3426     1.0  0.55354  0.70455  0.78656  1.0000
  H   H3427     1.0  0.51283  0.69672  0.80672  1.0000
  H   H3428     1.0  0.53632  0.68515  0.81218  1.0000
  H   H3429     1.0  0.57971  0.62377  0.85076  1.0000
  C   C1969     1.0  0.41497  0.66579  0.68739  1.0000
  H   H3430     1.0  0.33764  0.52086  0.78918  1.0000
  C   C1970     1.0  0.58922  0.69354  0.87820  1.0000
  H   H3431     1.0  0.45463  0.50450  0.64336  1.0000
  H   H3432     1.0  0.53046  0.70333  0.83389  1.0000
  H   H3433     1.0  0.33683  0.61690  0.75583  1.0000
  H   H3434     1.0  0.40946  0.51324  0.70812  1.0000
  H   H3435     1.0  0.48382  0.51735  0.84722  1.0000
  H   H3436     1.0  0.52374  0.66499  0.79648  1.0000
  H   H3437     1.0  0.51965  0.68426  0.77656  1.0000
  H   H3438     1.0  0.54405  0.67355  0.78032  1.0000
  H   H3439     1.0  0.36764  0.70898  0.67562  1.0000
  H   H3440     1.0  0.52024  0.58503  0.80908  1.0000
  C   C1971     1.0  0.53034  0.55250  0.86457  1.0000
  H   H3441     1.0  0.46128  0.55956  0.49947  1.0000
  H   H3442     1.0  0.59719  0.53628  0.82265  1.0000
  N   N108      1.0  0.35617  0.62273  0.57298  1.0000
  H   H3443     1.0  0.39351  0.48909  0.79690  1.0000
  H   H3444     1.0  0.38699  0.68091  0.68245  1.0000
  C   C1972     1.0  0.33809  0.51604  0.73211  1.0000
  Fe  Fe228     1.0  0.34413  0.62750  0.71097  1.0000
  H   H3445     1.0  0.57586  0.68716  0.88294  1.0000
  H   H3446     1.0  0.39971  0.63405  0.73429  1.0000
  C   C1973     1.0  0.59503  0.62582  0.84776  1.0000
  H   H3447     1.0  0.48424  0.69926  0.90503  1.0000
  H   H3448     1.0  0.35063  0.64499  0.63169  1.0000
  H   H3449     1.0  0.58193  0.49742  0.51531  1.0000
  H   H3450     1.0  0.45003  0.54034  0.49702  1.0000
  H   H3451     1.0  0.35923  0.49936  0.77222  1.0000
  H   H3452     1.0  0.56116  0.70365  0.84451  1.0000
  C   C1974     1.0  0.37788  0.61630  0.56987  1.0000
  C   C1975     1.0  0.38607  0.60138  0.55621  1.0000
  C   C1976     1.0  0.59891  0.63452  0.86380  1.0000
  C   C1977     1.0  0.43576  0.58971  0.48111  1.0000
  H   H3453     1.0  0.40682  0.68823  0.66432  1.0000
  H   H3454     1.0  0.41657  0.49945  0.93784  1.0000
  C   C1978     1.0  0.40792  0.59988  0.54964  1.0000
  C   C1979     1.0  0.53829  0.60538  0.80860  1.0000
  H   H3455     1.0  0.34902  0.49984  0.96149  1.0000
  C   C1980     1.0  0.65044  0.72074  0.96773  1.0000
  C   C1981     1.0  0.33980  0.53410  0.77853  1.0000
  C   C1982     1.0  0.38972  0.73352  0.69803  1.0000
  H   H3456     1.0  0.37436  0.51565  0.71219  1.0000
  H   H3457     1.0  0.59762  0.63549  0.83367  1.0000
  C   C1983     1.0  0.64146  0.61225  0.92199  1.0000
  H   H3458     1.0  0.38537  0.62891  0.56462  1.0000
  H   H3459     1.0  0.38280  0.60948  0.58376  1.0000
  H   H3460     1.0  0.37953  0.60487  0.54304  1.0000
  H   H3461     1.0  0.38320  0.58702  0.56393  1.0000
  S   S455      1.0  0.32773  0.68362  0.48777  1.0000
  H   H3462     1.0  0.58174  0.51841  0.82945  1.0000
  H   H3463     1.0  0.36797  0.62446  0.60771  1.0000
  H   H3464     1.0  0.37546  0.63940  0.53576  1.0000
  H   H3465     1.0  0.50573  0.72373  0.81613  1.0000
  S   S456      1.0  0.32721  0.62796  0.48675  1.0000
  C   C1984     1.0  0.64482  0.65309  0.86703  1.0000
  C   C1985     1.0  0.35395  0.71487  0.74985  1.0000
  H   H3466     1.0  0.42326  0.59097  0.49327  1.0000
  H   H3467     1.0  0.41331  0.58852  0.54059  1.0000
  H   H3468     1.0  0.41142  0.61375  0.54099  1.0000
  H   H3469     1.0  0.41547  0.59595  0.56221  1.0000
  H   H3470     1.0  0.33458  0.54772  0.75004  1.0000
  N   N109      1.0  0.52994  0.55715  0.84324  1.0000
  H   H3471     1.0  0.56056  0.50533  0.53193  1.0000
  H   H3472     1.0  0.55148  0.60562  0.95691  1.0000
  C   C1986     1.0  0.34680  0.60569  0.58315  1.0000
  H   H3473     1.0  0.64287  0.66469  0.85433  1.0000
  H   H3474     1.0  0.58790  0.64774  0.86523  1.0000
  H   H3475     1.0  0.37479  0.52344  0.75248  1.0000
  H   H3476     1.0  0.41410  0.65466  0.49954  1.0000
  S   S457      1.0  0.34150  0.63416  0.67972  1.0000
  H   H3477     1.0  0.43021  0.66802  0.68483  1.0000
  H   H3478     1.0  0.37949  0.49300  0.97434  1.0000
  C   C1987     1.0  0.38073  0.51364  0.72532  1.0000
  C   C1988     1.0  0.32716  0.55111  0.78722  1.0000
  H   H3479     1.0  0.33779  0.51826  0.69324  1.0000
  H   H3480     1.0  0.64038  0.67417  0.92971  1.0000
  H   H3481     1.0  0.50447  0.53047  0.86307  1.0000
  H   H3482     1.0  0.35239  0.59899  0.59674  1.0000
  C   C1989     1.0  0.33474  0.53424  0.71649  1.0000
  H   H3483     1.0  0.41014  0.66097  0.70303  1.0000
  H   H3484     1.0  0.32905  0.56491  0.77739  1.0000
  C   C1990     1.0  0.48672  0.53226  0.84220  1.0000
  C   C1991     1.0  0.60568  0.67955  0.86866  1.0000
  C   C1992     1.0  0.33509  0.59420  0.65583  1.0000
  H   H3485     1.0  0.62974  0.62618  0.85493  1.0000
  C   C1993     1.0  0.35322  0.63245  0.60625  1.0000
  C   C1994     1.0  0.50596  0.53374  0.84717  1.0000
  H   H3486     1.0  0.60085  0.67632  0.85626  1.0000
  H   H3487     1.0  0.54620  0.52875  0.84022  1.0000
  H   H3488     1.0  0.33346  0.63736  0.55676  1.0000
  H   H3489     1.0  0.58620  0.70698  0.86770  1.0000
  H   H3490     1.0  0.36003  0.48778  0.75285  1.0000
  H   H3491     1.0  0.61816  0.68714  0.86306  1.0000
  H   H3492     1.0  0.50541  0.72239  0.88811  1.0000
  C   C1995     1.0  0.35991  0.64538  0.53989  1.0000
  H   H3493     1.0  0.47656  0.48722  0.63801  1.0000
  N   N110      1.0  0.41857  0.58794  0.70301  1.0000
  C   C1996     1.0  0.41665  0.60440  0.71352  1.0000
  C   C1997     1.0  0.43406  0.59016  0.68537  1.0000
  C   C1998     1.0  0.39927  0.58822  0.69765  1.0000
  C   C1999     1.0  0.42426  0.56874  0.71548  1.0000
  C   C2000     1.0  0.44167  0.56694  0.72577  1.0000
  C   C2001     1.0  0.40200  0.60375  0.73270  1.0000
  C   C2002     1.0  0.39957  0.57545  0.68274  1.0000
  C   C2003     1.0  0.43033  0.60898  0.67058  1.0000
  C   C2004     1.0  0.44379  0.60760  0.65128  1.0000
  C   C2005     1.0  0.44631  0.54670  0.73727  1.0000
  C   C2006     1.0  0.40282  0.61965  0.74336  1.0000
  C   C2007     1.0  0.37909  0.57362  0.68145  1.0000
  H   H3494     1.0  0.41168  0.61833  0.70438  1.0000
  H   H3495     1.0  0.43100  0.60562  0.71624  1.0000
  H   H3496     1.0  0.44817  0.59000  0.68946  1.0000
  H   H3497     1.0  0.43668  0.57759  0.67789  1.0000
  H   H3498     1.0  0.39233  0.60315  0.69211  1.0000
  H   H3499     1.0  0.38895  0.58348  0.71075  1.0000
  H   H3500     1.0  0.41183  0.56487  0.72677  1.0000
  H   H3501     1.0  0.42797  0.55702  0.70679  1.0000
  H   H3502     1.0  0.43842  0.57710  0.73609  1.0000
  H   H3503     1.0  0.45488  0.56980  0.71532  1.0000
  H   H3504     1.0  0.38710  0.60602  0.72967  1.0000
  H   H3505     1.0  0.40470  0.58984  0.74259  1.0000
  H   H3506     1.0  0.40777  0.56075  0.68648  1.0000
  H   H3507     1.0  0.40647  0.58184  0.66821  1.0000
  H   H3508     1.0  0.41528  0.61239  0.66787  1.0000
  H   H3509     1.0  0.43303  0.62126  0.67604  1.0000
  H   H3510     1.0  0.44156  0.62163  0.64141  1.0000
  H   H3511     1.0  0.45918  0.60402  0.65318  1.0000
  H   H3512     1.0  0.44053  0.59647  0.64449  1.0000
  H   H3513     1.0  0.45052  0.53579  0.72766  1.0000
  H   H3514     1.0  0.45846  0.54579  0.74494  1.0000
  H   H3515     1.0  0.43354  0.54327  0.74817  1.0000
  H   H3516     1.0  0.33217  0.57941  0.55411  1.0000
  H   H3517     1.0  0.50218  0.56469  0.90761  1.0000
  H   H3518     1.0  0.37037  0.58808  0.67755  1.0000
  H   H3519     1.0  0.37974  0.56494  0.67024  1.0000
  C   C2008     1.0  0.39107  0.69290  0.74692  1.0000
  N   N111      1.0  0.42330  0.66129  0.82122  1.0000
  C   C2009     1.0  0.43174  0.64277  0.81356  1.0000
  C   C2010     1.0  0.41943  0.65684  0.84296  1.0000
  C   C2011     1.0  0.40399  0.66901  0.81467  1.0000
  C   C2012     1.0  0.43600  0.67647  0.81406  1.0000
  C   C2013     1.0  0.45825  0.66929  0.81036  1.0000
  C   C2014     1.0  0.43289  0.64413  0.79160  1.0000
  C   C2015     1.0  0.39171  0.68699  0.82266  1.0000
  C   C2016     1.0  0.43707  0.64752  0.85301  1.0000
  C   C2017     1.0  0.43067  0.64123  0.87461  1.0000
  C   C2018     1.0  0.46924  0.68589  0.80750  1.0000
  C   C2019     1.0  0.44618  0.62664  0.78433  1.0000
  C   C2020     1.0  0.37389  0.69477  0.81302  1.0000
  H   H3520     1.0  0.42300  0.63141  0.82096  1.0000
  H   H3521     1.0  0.44644  0.63677  0.81692  1.0000
  H   H3522     1.0  0.41318  0.67022  0.84903  1.0000
  H   H3523     1.0  0.40838  0.64727  0.84798  1.0000
  H   H3524     1.0  0.39486  0.65758  0.81843  1.0000
  H   H3525     1.0  0.40609  0.67325  0.79870  1.0000
  H   H3526     1.0  0.43254  0.68545  0.80020  1.0000
  H   H3527     1.0  0.43274  0.68688  0.82424  1.0000
  H   H3528     1.0  0.46259  0.66279  0.79713  1.0000
  H   H3529     1.0  0.46328  0.65826  0.82226  1.0000
  H   H3530     1.0  0.41827  0.64456  0.78846  1.0000
  H   H3531     1.0  0.43822  0.65733  0.78331  1.0000
  H   H3532     1.0  0.40029  0.69867  0.82004  1.0000
  H   H3533     1.0  0.38634  0.68338  0.83834  1.0000
  H   H3534     1.0  0.44542  0.63458  0.84731  1.0000
  H   H3535     1.0  0.44672  0.65811  0.85131  1.0000
  H   H3536     1.0  0.42185  0.62972  0.87728  1.0000
  H   H3537     1.0  0.44364  0.63542  0.88155  1.0000
  H   H3538     1.0  0.42211  0.65360  0.88133  1.0000
  H   H3539     1.0  0.46502  0.69724  0.79535  1.0000
  H   H3540     1.0  0.46615  0.69220  0.82082  1.0000
  H   H3541     1.0  0.48504  0.68049  0.80424  1.0000
  H   H3542     1.0  0.46130  0.62614  0.78605  1.0000
  H   H3543     1.0  0.44125  0.61312  0.79239  1.0000
  H   H3544     1.0  0.44594  0.62755  0.76883  1.0000
  H   H3545     1.0  0.36503  0.68343  0.81485  1.0000
  H   H3546     1.0  0.36479  0.70694  0.81971  1.0000
  H   H3547     1.0  0.37830  0.70010  0.79743  1.0000
  H   H3548     1.0  0.37189  0.56631  0.69542  1.0000
  H   H3549     1.0  0.35298  0.63923  0.51407  1.0000
  H   H3550     1.0  0.59658  0.62407  0.87736  1.0000
  S   S458      1.0  0.34896  0.59595  0.72386  1.0000
  C   C2021     1.0  0.34960  0.64989  0.61622  1.0000
  H   H3551     1.0  0.41433  0.65426  0.67964  1.0000
  S   S459      1.0  0.40724  0.72080  0.84791  1.0000
  C   C2022     1.0  0.53383  0.58496  0.81410  1.0000
  C   C2023     1.0  0.51318  0.56330  0.87749  1.0000
  C   C2024     1.0  0.39852  0.48884  0.87702  1.0000
  H   H3552     1.0  0.36463  0.54007  0.73384  1.0000
  H   H3553     1.0  0.63781  0.61544  0.88501  1.0000
  C   C2025     1.0  0.61132  0.66108  0.88328  1.0000
  C   C2026     1.0  0.40177  0.68429  0.68001  1.0000
  H   H3554     1.0  0.51864  0.58751  0.84264  1.0000
  H   H3555     1.0  0.36146  0.50953  0.64836  1.0000
  H   H3556     1.0  0.51165  0.55641  0.82316  1.0000
  C   C2027     1.0  0.61972  0.63923  0.85918  1.0000
  C   C2028     1.0  0.35099  0.63864  0.58477  1.0000
  H   H3557     1.0  0.61487  0.62391  0.89793  1.0000
  S   S460      1.0  0.33892  0.69181  0.73304  1.0000
  H   H3558     1.0  0.44803  0.59324  0.48612  1.0000
  C   C2029     1.0  0.35080  0.49881  0.76112  1.0000
  N   N112      1.0  0.34752  0.51813  0.74817  1.0000
  C   C2030     1.0  0.56714  0.54752  0.83320  1.0000
  H   H3559     1.0  0.49890  0.56486  0.84423  1.0000
  H   H3560     1.0  0.34822  0.54007  0.71017  1.0000
  H   H3561     1.0  0.51716  0.52245  0.84102  1.0000
  H   H3562     1.0  0.40719  0.51953  0.73149  1.0000
  H   H3563     1.0  0.32659  0.59052  0.64636  1.0000
  H   H3564     1.0  0.33582  0.64629  0.58440  1.0000
  H   H3565     1.0  0.61287  0.57924  0.96794  1.0000
  C   C2031     1.0  0.35145  0.65169  0.52139  1.0000
  H   H3566     1.0  0.37857  0.50911  0.86092  1.0000
  S   S461      1.0  0.65131  0.64787  0.96651  1.0000
  C   C2032     1.0  0.39976  0.52129  0.71905  1.0000
  C   C2033     1.0  0.34897  0.63036  0.55414  1.0000
  H   H3567     1.0  0.35513  0.53565  0.77678  1.0000
  H   H3568     1.0  0.52367  0.62725  0.94451  1.0000
  H   H3569     1.0  0.63869  0.72543  0.94177  1.0000
  H   H3570     1.0  0.62065  0.65036  0.84587  1.0000
  H   H3571     1.0  0.36519  0.70671  0.70091  1.0000
  H   H3572     1.0  0.35925  0.66263  0.51144  1.0000
  C   C2034     1.0  0.54379  0.72631  0.81358  1.0000
  H   H3573     1.0  0.35099  0.59414  0.57438  1.0000
  H   H3574     1.0  0.57004  0.54534  0.84808  1.0000
  H   H3575     1.0  0.51348  0.57895  0.87431  1.0000
  C   C2035     1.0  0.54651  0.54401  0.83329  1.0000
  H   H3576     1.0  0.36065  0.65916  0.60967  1.0000
  H   H3577     1.0  0.33491  0.65845  0.61519  1.0000
  C   C2036     1.0  0.44749  0.55586  0.49798  1.0000
  H   H3578     1.0  0.37386  0.56449  0.74279  1.0000
  H   H3579     1.0  0.41728  0.61762  0.74749  1.0000
  H   H3580     1.0  0.47466  0.54208  0.84946  1.0000
  N   N113      1.0  0.62625  0.64542  0.87512  1.0000
  C   C2037     1.0  0.33219  0.49054  0.77124  1.0000
  H   H3581     1.0  0.42748  0.72010  0.66255  1.0000
  H   H3582     1.0  0.34903  0.61839  0.54659  1.0000
  C   C2038     1.0  0.40208  0.70068  0.69069  1.0000
  C   C2039     1.0  0.48484  0.71160  0.91172  1.0000
  H   H3583     1.0  0.39596  0.64106  0.49897  1.0000
  H   H3584     1.0  0.58251  0.49246  0.54071  1.0000
  H   H3585     1.0  0.33588  0.65816  0.52457  1.0000
  H   H3586     1.0  0.52715  0.61547  0.81655  1.0000
  C   C2040     1.0  0.37745  0.48744  0.69007  1.0000
  H   H3587     1.0  0.53862  0.61056  0.79293  1.0000
  H   H3588     1.0  0.36005  0.64990  0.57832  1.0000
  C   C2041     1.0  0.35024  0.48593  0.66817  1.0000
  H   H3589     1.0  0.38339  0.50016  0.94850  1.0000
  H   H3590     1.0  0.39173  0.61909  0.75670  1.0000
  C   C2042     1.0  0.53167  0.57802  0.83620  1.0000
  H   H3591     1.0  0.32599  0.48565  0.76063  1.0000
  H   H3592     1.0  0.52819  0.55900  0.90181  1.0000
  C   C2043     1.0  0.36679  0.52459  0.74051  1.0000
  S   S462      1.0  0.33834  0.67947  0.68294  1.0000
  C   C2044     1.0  0.35772  0.69801  0.74184  1.0000
  H   H3593     1.0  0.33729  0.60934  0.65085  1.0000
  H   H3594     1.0  0.54490  0.54465  0.81814  1.0000
  C   C2045     1.0  0.51125  0.55400  0.83899  1.0000
  H   H3595     1.0  0.44268  0.51048  0.91194  1.0000
  H   H3596     1.0  0.64908  0.67248  0.90469  1.0000
  S   S463      1.0  0.59244  0.73359  0.82850  1.0000
  H   H3597     1.0  0.65266  0.63531  0.90212  1.0000
  Fe  Fe229     1.0  0.65343  0.61631  0.97806  1.0000
  C   C2046     1.0  0.36866  0.72080  0.75624  1.0000
  H   H3598     1.0  0.32894  0.71906  0.69823  1.0000
  H   H3599     1.0  0.65282  0.60137  0.91534  1.0000
  H   H3600     1.0  0.46703  0.50465  0.61888  1.0000
  H   H3601     1.0  0.41163  0.71896  0.71594  1.0000
  H   H3602     1.0  0.54763  0.62902  0.96346  1.0000
  H   H3603     1.0  0.41449  0.48740  0.58889  1.0000
  C   C2047     1.0  0.54183  0.61546  0.96622  1.0000
  H   H3604     1.0  0.44494  0.49197  0.95897  1.0000
  C   C2048     1.0  0.40893  0.73237  0.70528  1.0000
  H   H3605     1.0  0.41049  0.49408  0.97132  1.0000
  H   H3606     1.0  0.57912  0.59567  0.97030  1.0000
  C   C2049     1.0  0.33450  0.53315  0.75901  1.0000
  H   H3607     1.0  0.64608  0.70729  0.91718  1.0000
  C   C2050     1.0  0.52206  0.62036  0.95993  1.0000
  C   C2051     1.0  0.57325  0.49364  0.52980  1.0000
  H   H3608     1.0  0.60285  0.55727  0.97549  1.0000
  H   H3609     1.0  0.49543  0.70663  0.92173  1.0000
  H   H3610     1.0  0.50252  0.72575  0.77976  1.0000
  N   N114      1.0  0.53293  0.72823  0.79723  1.0000
  H   H3611     1.0  0.63661  0.71770  0.97706  1.0000
  H   H3612     1.0  0.39387  0.71870  0.65446  1.0000
  H   H3613     1.0  0.51190  0.63060  0.96850  1.0000
  C   C2052     1.0  0.65342  0.67014  0.91898  1.0000
  C   C2053     1.0  0.42457  0.63155  0.48294  1.0000
  N   N115      1.0  0.38958  0.71983  0.68482  1.0000
  H   H3614     1.0  0.56670  0.72859  0.76717  1.0000
  H   H3615     1.0  0.64976  0.70110  0.94967  1.0000
  C   C2054     1.0  0.39573  0.72823  0.66396  1.0000
  H   H3616     1.0  0.47023  0.71623  0.91992  1.0000
  C   C2055     1.0  0.44399  0.72827  0.84387  1.0000
  H   H3617     1.0  0.52111  0.72719  0.83913  1.0000
  H   H3618     1.0  0.55189  0.72796  0.84904  1.0000
  C   C2056     1.0  0.33342  0.73009  0.68575  1.0000
  H   H3619     1.0  0.55521  0.72699  0.88185  1.0000
  C   C2057     1.0  0.65768  0.72024  0.85347  1.0000
  H   H3620     1.0  0.37908  0.73075  0.71158  1.0000
  H   H3621     1.0  0.48025  0.73178  0.88618  1.0000
  H   H3622     1.0  0.42167  0.73220  0.69365  1.0000
  C   C2058     1.0  0.41988  0.48416  0.93576  1.0000
  H   H3623     1.0  0.57294  0.62499  0.97861  1.0000
  Fe  Fe230     1.0  0.60555  0.76686  0.31167  1.0000
  S   S464      1.0  0.57681  0.78153  0.30340  1.0000
  C   C2059     1.0  0.36843  0.91548  0.37636  1.0000
  Fe  Fe231     1.0  0.52872  0.86521  0.35563  1.0000
  S   S465      1.0  0.52676  0.84312  0.38257  1.0000
  S   S466      1.0  0.55095  0.86285  0.32876  1.0000
  Fe  Fe232     1.0  0.49701  0.89444  0.37341  1.0000
  S   S467      1.0  0.49240  0.87469  0.40210  1.0000
  S   S468      1.0  0.48504  0.92577  0.36386  1.0000
  Fe  Fe233     1.0  0.52512  0.86759  0.39824  1.0000
  S   S469      1.0  0.54595  0.86228  0.41979  1.0000
  Fe  Fe234     1.0  0.49448  0.85196  0.38397  1.0000
  S   S470      1.0  0.47529  0.82887  0.39190  1.0000
  S   S471      1.0  0.52933  0.88886  0.37096  1.0000
  S   S472      1.0  0.49675  0.87240  0.35573  1.0000
  Fe  Fe235     1.0  0.40948  0.76943  0.29912  1.0000
  S   S473      1.0  0.41059  0.76183  0.33058  1.0000
  Fe  Fe236     1.0  0.37474  0.80193  0.30461  1.0000
  S   S474      1.0  0.37372  0.79660  0.33660  1.0000
  S   S475      1.0  0.35012  0.82342  0.29342  1.0000
  Fe  Fe237     1.0  0.40639  0.79390  0.32953  1.0000
  S   S476      1.0  0.42737  0.81180  0.33414  1.0000
  Fe  Fe238     1.0  0.37798  0.76517  0.33403  1.0000
  S   S477      1.0  0.40671  0.80116  0.29751  1.0000
  S   S478      1.0  0.37749  0.77095  0.30252  1.0000
  N   N116      1.0  0.61917  0.91862  0.39476  1.0000
  H   H3624     1.0  0.40307  0.96238  0.10538  1.0000
  H   H3625     1.0  0.63176  0.95013  0.36662  1.0000
  C   C2060     1.0  0.34199  0.95431  0.05306  1.0000
  H   H3626     1.0  0.54416  0.74786  0.34873  1.0000
  S   S479      1.0  0.36012  0.89240  0.22360  1.0000
  H   H3627     1.0  0.39388  0.93909  0.08766  1.0000
  H   H3628     1.0  0.38069  0.94904  0.03669  1.0000
  C   C2061     1.0  0.50217  0.76432  0.38702  1.0000
  S   S480      1.0  0.39591  0.95668  0.36209  1.0000
  H   H3629     1.0  0.61722  0.88977  0.39247  1.0000
  H   H3630     1.0  0.50121  0.74626  0.32089  1.0000
  H   H3631     1.0  0.63430  0.81971  0.40294  1.0000
  S   S481      1.0  0.57208  0.92507  0.45522  1.0000
  C   C2062     1.0  0.47100  0.76208  0.34903  1.0000
  C   C2063     1.0  0.33732  0.85476  0.26823  1.0000
  C   C2064     1.0  0.63789  0.91943  0.38043  1.0000
  H   H3632     1.0  0.37408  0.88015  0.28340  1.0000
  C   C2065     1.0  0.38454  0.90623  0.28426  1.0000
  C   C2066     1.0  0.48806  0.79319  0.43666  1.0000
  H   H3633     1.0  0.33650  0.85818  0.21683  1.0000
  C   C2067     1.0  0.65858  0.85696  0.47608  1.0000
  H   H3634     1.0  0.62635  0.95428  0.43134  1.0000
  C   C2068     1.0  0.35866  0.91729  0.08839  1.0000
  H   H3635     1.0  0.53671  0.74871  0.39861  1.0000
  H   H3636     1.0  0.38906  0.95122  0.31523  1.0000
  H   H3637     1.0  0.36188  0.92219  0.13620  1.0000
  C   C2069     1.0  0.34878  0.91757  0.28992  1.0000
  H   H3638     1.0  0.38618  0.94195  0.28470  1.0000
  H   H3639     1.0  0.51736  0.77178  0.41726  1.0000
  C   C2070     1.0  0.53952  0.74957  0.30435  1.0000
  C   C2071     1.0  0.36247  0.97121  0.16757  1.0000
  H   H3640     1.0  0.36106  0.95750  0.17681  1.0000
  H   H3641     1.0  0.39358  0.96417  0.15986  1.0000
  H   H3642     1.0  0.36955  0.92139  0.05753  1.0000
  C   C2072     1.0  0.35364  0.84186  0.27350  1.0000
  Fe  Fe239     1.0  0.64306  0.76693  0.32534  1.0000
  C   C2073     1.0  0.33930  0.87000  0.25278  1.0000
  C   C2074     1.0  0.35756  0.87257  0.24240  1.0000
  C   C2075     1.0  0.37395  0.85940  0.24735  1.0000
  C   C2076     1.0  0.37202  0.84408  0.26297  1.0000
  C   C2077     1.0  0.61471  0.96067  0.42269  1.0000
  S   S482      1.0  0.33592  0.94496  0.22370  1.0000
  H   H3643     1.0  0.38815  0.86119  0.23928  1.0000
  H   H3644     1.0  0.38467  0.83406  0.26689  1.0000
  C   C2078     1.0  0.46022  0.93395  0.36353  1.0000
  C   C2079     1.0  0.45443  0.95065  0.35064  1.0000
  C   C2080     1.0  0.43471  0.95780  0.35019  1.0000
  C   C2081     1.0  0.42068  0.94847  0.36292  1.0000
  C   C2082     1.0  0.42646  0.93209  0.37622  1.0000
  C   C2083     1.0  0.44620  0.92460  0.37630  1.0000
  H   H3645     1.0  0.46526  0.95802  0.34088  1.0000
  H   H3646     1.0  0.63691  0.82751  0.33480  1.0000
  H   H3647     1.0  0.41566  0.92543  0.38675  1.0000
  H   H3648     1.0  0.45059  0.91202  0.38661  1.0000
  C   C2084     1.0  0.55299  0.87990  0.42963  1.0000
  S   S483      1.0  0.36755  0.93376  0.00715  1.0000
  C   C2085     1.0  0.56479  0.90707  0.44615  1.0000
  C   C2086     1.0  0.54928  0.91250  0.43587  1.0000
  C   C2087     1.0  0.54349  0.89908  0.42755  1.0000
  H   H3649     1.0  0.54173  0.92726  0.43420  1.0000
  H   H3650     1.0  0.53154  0.90354  0.41969  1.0000
  C   C2088     1.0  0.46229  0.82388  0.37570  1.0000
  C   C2089     1.0  0.45009  0.81007  0.38213  1.0000
  C   C2090     1.0  0.43934  0.80598  0.36966  1.0000
  C   C2091     1.0  0.44071  0.81571  0.35062  1.0000
  C   C2092     1.0  0.45304  0.82937  0.34419  1.0000
  C   C2093     1.0  0.46387  0.83334  0.35658  1.0000
  H   H3651     1.0  0.44877  0.80266  0.39691  1.0000
  H   H3652     1.0  0.42986  0.79548  0.37483  1.0000
  H   H3653     1.0  0.45420  0.83699  0.32950  1.0000
  H   H3654     1.0  0.47335  0.84382  0.35136  1.0000
  C   C2094     1.0  0.56932  0.80414  0.31036  1.0000
  C   C2095     1.0  0.55418  0.80685  0.32588  1.0000
  C   C2096     1.0  0.54811  0.82502  0.33140  1.0000
  C   C2097     1.0  0.55699  0.84048  0.32120  1.0000
  C   C2098     1.0  0.57169  0.83787  0.30532  1.0000
  C   C2099     1.0  0.57805  0.81965  0.30008  1.0000
  H   H3655     1.0  0.54745  0.79481  0.33377  1.0000
  H   H3656     1.0  0.53678  0.82715  0.34362  1.0000
  H   H3657     1.0  0.57851  0.84986  0.29738  1.0000
  H   H3658     1.0  0.58962  0.81763  0.28797  1.0000
  H   H3659     1.0  0.60455  0.81932  0.38881  1.0000
  H   H3660     1.0  0.41428  0.94116  0.05942  1.0000
  H   H3661     1.0  0.34999  0.93271  0.15703  1.0000
  H   H3662     1.0  0.48473  0.75215  0.35126  1.0000
  C   C2100     1.0  0.50386  0.76137  0.31621  1.0000
  S   S484      1.0  0.33477  0.90221  0.04543  1.0000
  H   H3663     1.0  0.49198  0.78550  0.45072  1.0000
  Fe  Fe240     1.0  0.63455  0.93042  0.47337  1.0000
  H   H3664     1.0  0.51681  0.75268  0.28825  1.0000
  C   C2101     1.0  0.56563  0.93457  0.38545  1.0000
  C   C2102     1.0  0.40497  0.87476  0.27614  1.0000
  H   H3665     1.0  0.42144  0.96502  0.03044  1.0000
  H   H3666     1.0  0.40841  0.92591  0.04552  1.0000
  H   H3667     1.0  0.33262  0.80661  0.24770  1.0000
  S   S485      1.0  0.36137  0.74149  0.35136  1.0000
  S   S486      1.0  0.61220  0.76687  0.34062  1.0000
  H   H3668     1.0  0.40031  0.94795  0.21841  1.0000
  H   H3669     1.0  0.65351  0.83096  0.38739  1.0000
  C   C2103     1.0  0.46880  0.76702  0.32746  1.0000
  H   H3670     1.0  0.36870  0.95085  0.33463  1.0000
  C   C2104     1.0  0.36692  0.93630  0.31173  1.0000
  H   H3671     1.0  0.65010  0.88842  0.40385  1.0000
  Fe  Fe241     1.0  0.64127  0.73664  0.30132  1.0000
  H   H3672     1.0  0.50965  0.76443  0.32818  1.0000
  H   H3673     1.0  0.37436  0.88770  0.09231  1.0000
  C   C2105     1.0  0.61854  0.89778  0.40360  1.0000
  C   C2106     1.0  0.38084  0.97502  0.15804  1.0000
  H   H3674     1.0  0.57957  0.93399  0.40911  1.0000
  H   H3675     1.0  0.45588  0.74955  0.37664  1.0000
  C   C2107     1.0  0.38014  0.89679  0.37019  1.0000
  C   C2108     1.0  0.61849  0.92931  0.41080  1.0000
  H   H3676     1.0  0.64140  0.83551  0.29991  1.0000
  C   C2109     1.0  0.33387  0.74702  0.32775  1.0000
  H   H3677     1.0  0.43070  0.96329  0.19039  1.0000
  S   S487      1.0  0.43045  0.75255  0.27819  1.0000
  H   H3678     1.0  0.35655  0.94276  0.25725  1.0000
  H   H3679     1.0  0.34898  0.89054  0.10278  1.0000
  S   S488      1.0  0.63568  0.76911  0.29578  1.0000
  H   H3680     1.0  0.58714  0.85341  0.38945  1.0000
  H   H3681     1.0  0.59360  0.79319  0.37399  1.0000
  H   H3682     1.0  0.35118  0.93687  0.31726  1.0000
  H   H3683     1.0  0.65279  0.83463  0.46242  1.0000
  H   H3684     1.0  0.41691  0.88163  0.26676  1.0000
  N   N117      1.0  0.41536  0.88123  0.35689  1.0000
  C   C2110     1.0  0.41692  0.86614  0.37479  1.0000
  C   C2111     1.0  0.41004  0.87298  0.34147  1.0000
  C   C2112     1.0  0.43513  0.88674  0.34951  1.0000
  C   C2113     1.0  0.40117  0.89919  0.36096  1.0000
  C   C2114     1.0  0.42423  0.87179  0.39125  1.0000
  C   C2115     1.0  0.43746  0.90094  0.33009  1.0000
  C   C2116     1.0  0.39618  0.85806  0.34826  1.0000
  C   C2117     1.0  0.38894  0.85390  0.33136  1.0000
  C   C2118     1.0  0.42263  0.85640  0.40937  1.0000
  C   C2119     1.0  0.45849  0.90387  0.32356  1.0000
  H   H3685     1.0  0.42694  0.85293  0.37095  1.0000
  H   H3686     1.0  0.40291  0.86134  0.38108  1.0000
  H   H3687     1.0  0.40366  0.88479  0.33074  1.0000
  H   H3688     1.0  0.42328  0.86527  0.33319  1.0000
  H   H3689     1.0  0.44635  0.87357  0.34804  1.0000
  H   H3690     1.0  0.43925  0.89380  0.35997  1.0000
  H   H3691     1.0  0.40659  0.90652  0.37019  1.0000
  H   H3692     1.0  0.40004  0.90988  0.34749  1.0000
  H   H3693     1.0  0.43976  0.87311  0.38699  1.0000
  H   H3694     1.0  0.41574  0.88558  0.39514  1.0000
  H   H3695     1.0  0.42852  0.91529  0.33161  1.0000
  H   H3696     1.0  0.43327  0.89559  0.31852  1.0000
  H   H3697     1.0  0.40397  0.84423  0.35531  1.0000
  H   H3698     1.0  0.37962  0.84275  0.33663  1.0000
  H   H3699     1.0  0.38030  0.86709  0.32421  1.0000
  H   H3700     1.0  0.40726  0.85502  0.41503  1.0000
  H   H3701     1.0  0.42863  0.86046  0.42063  1.0000
  H   H3702     1.0  0.46333  0.90960  0.33455  1.0000
  H   H3703     1.0  0.46820  0.89008  0.32111  1.0000
  H   H3704     1.0  0.45982  0.91441  0.30991  1.0000
  C   C2120     1.0  0.39132  0.97375  0.10019  1.0000
  H   H3705     1.0  0.35331  0.91359  0.38267  1.0000
  H   H3706     1.0  0.52280  0.77482  0.29043  1.0000
  H   H3707     1.0  0.44487  0.74005  0.31417  1.0000
  N   N118      1.0  0.50548  0.75202  0.40614  1.0000
  H   H3708     1.0  0.62561  0.86366  0.46015  1.0000
  H   H3709     1.0  0.56629  0.94994  0.37940  1.0000
  H   H3710     1.0  0.47053  0.77527  0.35478  1.0000
  C   C2121     1.0  0.52528  0.73963  0.40318  1.0000
  H   H3711     1.0  0.49936  0.80177  0.42878  1.0000
  C   C2122     1.0  0.64639  0.84197  0.47494  1.0000
  H   H3712     1.0  0.60184  0.94124  0.37723  1.0000
  H   H3713     1.0  0.33813  0.93067  0.29317  1.0000
  C   C2123     1.0  0.38110  0.95015  0.08427  1.0000
  H   H3714     1.0  0.45480  0.73841  0.35685  1.0000
  H   H3715     1.0  0.62032  0.80832  0.37026  1.0000
  H   H3716     1.0  0.36234  0.91968  0.10175  1.0000
  H   H3717     1.0  0.33661  0.82707  0.21524  1.0000
  H   H3718     1.0  0.62886  0.93329  0.35279  1.0000
  H   H3719     1.0  0.33984  0.79268  0.22860  1.0000
  H   H3720     1.0  0.62072  0.84760  0.38086  1.0000
  C   C2124     1.0  0.52039  0.76045  0.29842  1.0000
  H   H3721     1.0  0.34452  0.95674  0.08178  1.0000
  H   H3722     1.0  0.35459  0.97386  0.06315  1.0000
  H   H3723     1.0  0.56066  0.79630  0.39449  1.0000
  C   C2125     1.0  0.63604  0.88666  0.41332  1.0000
  C   C2126     1.0  0.63777  0.93581  0.36258  1.0000
  H   H3724     1.0  0.58632  0.88348  0.45603  1.0000
  C   C2127     1.0  0.58170  0.92571  0.39729  1.0000
  H   H3725     1.0  0.48144  0.78757  0.41111  1.0000
  C   C2128     1.0  0.62774  0.83442  0.37478  1.0000
  C   C2129     1.0  0.33057  0.86769  0.20444  1.0000
  C   C2130     1.0  0.61796  0.95125  0.40496  1.0000
  H   H3726     1.0  0.48270  0.76166  0.29023  1.0000
  C   C2131     1.0  0.35968  0.89564  0.09022  1.0000
  C   C2132     1.0  0.38643  0.94369  0.22640  1.0000
  C   C2133     1.0  0.38766  0.93693  0.24773  1.0000
  C   C2134     1.0  0.33866  0.90823  0.27820  1.0000
  C   C2135     1.0  0.37291  0.92509  0.07057  1.0000
  S   S489      1.0  0.34894  0.90626  0.98770  1.0000
  H   H3727     1.0  0.35859  0.87518  0.19073  1.0000
  H   H3728     1.0  0.40013  0.92489  0.24873  1.0000
  H   H3729     1.0  0.34117  0.95317  0.12702  1.0000
  C   C2136     1.0  0.42018  0.95037  0.02891  1.0000
  C   C2137     1.0  0.48579  0.77901  0.42465  1.0000
  H   H3730     1.0  0.33037  0.74018  0.40859  1.0000
  H   H3731     1.0  0.34957  0.95740  0.03804  1.0000
  H   H3732     1.0  0.47373  0.77149  0.43260  1.0000
  H   H3733     1.0  0.35335  0.85490  0.18326  1.0000
  H   H3734     1.0  0.34149  0.91286  0.15162  1.0000
  N   N119      1.0  0.48512  0.77512  0.31338  1.0000
  Fe  Fe242     1.0  0.33350  0.91536  0.22055  1.0000
  H   H3735     1.0  0.38338  0.86281  0.35878  1.0000
  H   H3736     1.0  0.51074  0.79121  0.38978  1.0000
  C   C2138     1.0  0.56847  0.87443  0.43999  1.0000
  H   H3737     1.0  0.60611  0.95837  0.39685  1.0000
  H   H3738     1.0  0.57587  0.85963  0.44179  1.0000
  C   C2139     1.0  0.61241  0.82256  0.37376  1.0000
  H   H3739     1.0  0.37476  0.92238  0.31837  1.0000
  H   H3740     1.0  0.37951  0.88547  0.38319  1.0000
  H   H3741     1.0  0.36811  0.92741  0.36383  1.0000
  H   H3742     1.0  0.50626  0.75493  0.43520  1.0000
  C   C2140     1.0  0.57439  0.88791  0.44815  1.0000
  H   H3743     1.0  0.37483  0.91955  0.38735  1.0000
  N   N120      1.0  0.36830  0.92291  0.28051  1.0000
  H   H3744     1.0  0.38747  0.91644  0.07221  1.0000
  H   H3745     1.0  0.50566  0.75529  0.37558  1.0000
  S   S490      1.0  0.60556  0.94969  0.47418  1.0000
  H   H3746     1.0  0.60304  0.91779  0.37297  1.0000
  C   C2141     1.0  0.48128  0.77642  0.29331  1.0000
  C   C2142     1.0  0.48541  0.79471  0.31743  1.0000
  C   C2143     1.0  0.50222  0.80489  0.30576  1.0000
  C   C2144     1.0  0.46106  0.78727  0.28907  1.0000
  C   C2145     1.0  0.50013  0.82499  0.31047  1.0000
  C   C2146     1.0  0.46015  0.78974  0.26770  1.0000
  H   H3747     1.0  0.49224  0.78326  0.28234  1.0000
  H   H3748     1.0  0.45488  0.77728  0.32687  1.0000
  H   H3749     1.0  0.47148  0.80457  0.31572  1.0000
  H   H3750     1.0  0.48643  0.79374  0.33266  1.0000
  H   H3751     1.0  0.50271  0.80655  0.29006  1.0000
  H   H3752     1.0  0.51624  0.79667  0.30956  1.0000
  H   H3753     1.0  0.44963  0.77895  0.29712  1.0000
  H   H3754     1.0  0.45749  0.80179  0.29301  1.0000
  H   H3755     1.0  0.48658  0.77080  0.38739  1.0000
  H   H3756     1.0  0.36607  0.96663  0.31215  1.0000
  H   H3757     1.0  0.48668  0.83431  0.30637  1.0000
  H   H3758     1.0  0.49986  0.82418  0.32607  1.0000
  H   H3759     1.0  0.51270  0.83169  0.30235  1.0000
  H   H3760     1.0  0.63620  0.83892  0.36046  1.0000
  H   H3761     1.0  0.46354  0.77553  0.26299  1.0000
  H   H3762     1.0  0.44530  0.79668  0.26521  1.0000
  N   N121      1.0  0.59828  0.83156  0.36011  1.0000
  C   C2147     1.0  0.59320  0.85319  0.35811  1.0000
  C   C2148     1.0  0.60604  0.82628  0.34041  1.0000
  C   C2149     1.0  0.57969  0.82368  0.36777  1.0000
  C   C2150     1.0  0.58119  0.86091  0.37629  1.0000
  C   C2151     1.0  0.58100  0.80197  0.36772  1.0000
  C   C2152     1.0  0.62387  0.83466  0.32846  1.0000
  C   C2153     1.0  0.32835  0.98123  0.29851  1.0000
  C   C2154     1.0  0.58052  0.88249  0.37433  1.0000
  C   C2155     1.0  0.56273  0.79469  0.37918  1.0000
  H   H3763     1.0  0.58468  0.85921  0.34626  1.0000
  H   H3764     1.0  0.60633  0.85989  0.35367  1.0000
  H   H3765     1.0  0.61040  0.81041  0.34141  1.0000
  H   H3766     1.0  0.59435  0.83067  0.33162  1.0000
  H   H3767     1.0  0.56821  0.83172  0.35937  1.0000
  H   H3768     1.0  0.57400  0.82593  0.38288  1.0000
  H   H3769     1.0  0.56601  0.85865  0.37831  1.0000
  H   H3770     1.0  0.34349  0.92436  0.08747  1.0000
  H   H3771     1.0  0.62203  0.85042  0.32752  1.0000
  H   H3772     1.0  0.40786  0.87083  0.29111  1.0000
  C   C2156     1.0  0.62568  0.85170  0.47264  1.0000
  H   H3773     1.0  0.39746  0.98202  0.18928  1.0000
  H   H3774     1.0  0.57420  0.89043  0.36148  1.0000
  H   H3775     1.0  0.57124  0.88763  0.38727  1.0000
  H   H3776     1.0  0.59526  0.88558  0.37301  1.0000
  H   H3777     1.0  0.54985  0.80281  0.37295  1.0000
  H   H3778     1.0  0.35621  0.89229  0.07714  1.0000
  H   H3779     1.0  0.34157  0.87910  0.17458  1.0000
  C   C2157     1.0  0.51410  0.78081  0.37970  1.0000
  C   C2158     1.0  0.50951  0.79223  0.36043  1.0000
  H   H3780     1.0  0.52985  0.77505  0.37771  1.0000
  H   H3781     1.0  0.51647  0.80513  0.35659  1.0000
  H   H3782     1.0  0.51506  0.78331  0.34901  1.0000
  H   H3783     1.0  0.49369  0.79725  0.36138  1.0000
  H   H3784     1.0  0.64752  0.85759  0.42619  1.0000
  H   H3785     1.0  0.46684  0.75363  0.32336  1.0000
  C   C2159     1.0  0.33406  0.94048  0.13312  1.0000
  Fe  Fe243     1.0  0.59395  0.92276  0.47503  1.0000
  H   H3786     1.0  0.40132  0.84829  0.32072  1.0000
  H   H3787     1.0  0.32666  0.87984  0.24907  1.0000
  H   H3788     1.0  0.36582  0.91951  0.25186  1.0000
  C   C2160     1.0  0.63552  0.86512  0.41834  1.0000
  H   H3789     1.0  0.64278  0.90589  0.37432  1.0000
  C   C2161     1.0  0.35359  0.95831  0.06722  1.0000
  H   H3790     1.0  0.44024  0.76180  0.35965  1.0000
  H   H3791     1.0  0.38365  0.93194  0.22013  1.0000
  H   H3792     1.0  0.32759  0.97609  0.24617  1.0000
  H   H3793     1.0  0.39060  0.94916  0.25306  1.0000
  H   H3794     1.0  0.60556  0.89650  0.41504  1.0000
  N   N122      1.0  0.37350  0.94627  0.06771  1.0000
  C   C2162     1.0  0.34762  0.92616  0.14529  1.0000
  H   H3795     1.0  0.43105  0.84226  0.40625  1.0000
  C   C2163     1.0  0.34698  0.86929  0.18714  1.0000
  H   H3796     1.0  0.64882  0.80894  0.38296  1.0000
  H   H3797     1.0  0.38403  0.98217  0.99894  1.0000
  H   H3798     1.0  0.57787  0.74549  0.35325  1.0000
  H   H3799     1.0  0.37286  0.89341  0.35952  1.0000
  C   C2164     1.0  0.50474  0.76417  0.42099  1.0000
  H   H3800     1.0  0.57971  0.91074  0.40351  1.0000
  H   H3801     1.0  0.62153  0.86243  0.42757  1.0000
  H   H3802     1.0  0.56329  0.74761  0.24186  1.0000
  H   H3803     1.0  0.37819  0.97420  0.11156  1.0000
  H   H3804     1.0  0.40007  0.97140  0.07042  1.0000
  H   H3805     1.0  0.38625  0.96753  0.04583  1.0000
  Fe  Fe244     1.0  0.34255  0.91794  0.01514  1.0000
  H   H3806     1.0  0.64973  0.92025  0.38781  1.0000
  H   H3807     1.0  0.37011  0.94877  0.09765  1.0000
  H   H3808     1.0  0.43495  0.94160  0.02700  1.0000
  C   C2165     1.0  0.38688  0.97025  0.08155  1.0000
  H   H3809     1.0  0.47048  0.79898  0.25887  1.0000
  H   H3810     1.0  0.38394  0.89221  0.25988  1.0000
  C   C2166     1.0  0.64191  0.82277  0.38784  1.0000
  H   H3811     1.0  0.56683  0.92660  0.37354  1.0000
  H   H3812     1.0  0.34984  0.90792  0.30406  1.0000
  C   C2167     1.0  0.40769  0.94110  0.04688  1.0000
  H   H3813     1.0  0.47419  0.80336  0.43935  1.0000
  H   H3814     1.0  0.36426  0.73756  0.41402  1.0000
  C   C2168     1.0  0.38638  0.95180  0.04882  1.0000
  H   H3815     1.0  0.38365  0.90080  0.29995  1.0000
  Fe  Fe245     1.0  0.34672  0.95890  0.99512  1.0000
  C   C2169     1.0  0.60196  0.92613  0.38461  1.0000
  C   C2170     1.0  0.36865  0.93037  0.25926  1.0000
  H   H3816     1.0  0.34846  0.89642  0.27174  1.0000
  H   H3817     1.0  0.36162  0.95279  0.28414  1.0000
  H   H3818     1.0  0.63562  0.89178  0.42690  1.0000
  H   H3819     1.0  0.60600  0.92666  0.42252  1.0000
  H   H3820     1.0  0.54436  0.75747  0.31360  1.0000
  H   H3821     1.0  0.63740  0.85907  0.40502  1.0000
  C   C2171     1.0  0.37308  0.95222  0.31878  1.0000
  H   H3822     1.0  0.55129  0.93378  0.39480  1.0000
  H   H3823     1.0  0.37468  0.95632  0.22450  1.0000
  H   H3824     1.0  0.63147  0.92365  0.41780  1.0000
  S   S491      1.0  0.62340  0.90414  0.47203  1.0000
  H   H3825     1.0  0.43039  0.97054  0.34001  1.0000
  H   H3826     1.0  0.62898  0.81528  0.30766  1.0000
  C   C2172     1.0  0.32787  0.80295  0.23541  1.0000
  H   H3827     1.0  0.56411  0.77921  0.37854  1.0000
  H   H3828     1.0  0.61487  0.97633  0.41821  1.0000
  C   C2173     1.0  0.34374  0.73438  0.34150  1.0000
  H   H3829     1.0  0.58243  0.79957  0.35275  1.0000
  C   C2174     1.0  0.38555  0.88835  0.27521  1.0000
  H   H3830     1.0  0.32839  0.98282  0.31308  1.0000
  C   C2175     1.0  0.45444  0.75236  0.36123  1.0000
  H   H3831     1.0  0.40474  0.86136  0.27103  1.0000
  H   H3832     1.0  0.39877  0.91109  0.27963  1.0000
  C   C2176     1.0  0.62766  0.83086  0.30781  1.0000
  H   H3833     1.0  0.37521  0.98207  0.07704  1.0000
  H   H3834     1.0  0.42531  0.96954  0.16632  1.0000
  H   H3835     1.0  0.61569  0.83902  0.30019  1.0000
  H   H3836     1.0  0.33739  0.76125  0.32241  1.0000
  H   H3837     1.0  0.55090  0.74828  0.29140  1.0000
  C   C2177     1.0  0.37110  0.93913  0.28936  1.0000
  H   H3838     1.0  0.41383  0.95135  0.01587  1.0000
  H   H3839     1.0  0.63205  0.95412  0.39619  1.0000
  H   H3840     1.0  0.47527  0.74936  0.41354  1.0000
  H   H3841     1.0  0.61760  0.84105  0.47043  1.0000
  C   C2178     1.0  0.48978  0.73997  0.41322  1.0000
  C   C2179     1.0  0.42775  0.97543  0.17847  1.0000
  H   H3842     1.0  0.33334  0.91920  0.26629  1.0000
  H   H3843     1.0  0.65752  0.94762  0.33791  1.0000
  H   H3844     1.0  0.33976  0.93917  0.05611  1.0000
  H   H3845     1.0  0.44058  0.98262  0.17334  1.0000
  C   C2180     1.0  0.65816  0.93648  0.35108  1.0000
  C   C2181     1.0  0.32790  0.97732  0.26075  1.0000
  H   H3846     1.0  0.60044  0.95875  0.43177  1.0000
  H   H3847     1.0  0.33291  0.93390  0.12104  1.0000
  H   H3848     1.0  0.32589  0.88839  0.30232  1.0000
  S   S492      1.0  0.65102  0.73448  0.32961  1.0000
  S   S493      1.0  0.61061  0.73493  0.31470  1.0000
  Fe  Fe246     1.0  0.61951  0.73483  0.34248  1.0000
  H   H3849     1.0  0.53787  0.73494  0.31237  1.0000
  H   H3850     1.0  0.50199  0.73396  0.26849  1.0000
  C   C2182     1.0  0.55231  0.73401  0.35400  1.0000
  H   H3851     1.0  0.35669  0.89008  0.91775  1.0000
  Fe  Fe247     1.0  0.32924  0.93292  0.97618  1.0000
  H   H3852     1.0  0.47254  0.75048  0.80582  1.0000
  C   C2183     1.0  0.48037  0.80274  0.92250  1.0000
  H   H3853     1.0  0.36039  0.82844  0.89398  1.0000
  S   S494      1.0  0.40246  0.91253  0.96522  1.0000
  H   H3854     1.0  0.57197  0.81953  0.78585  1.0000
  C   C2184     1.0  0.33047  0.80216  0.84723  1.0000
  S   S495      1.0  0.37977  0.74486  0.80426  1.0000
  C   C2185     1.0  0.34355  0.79701  0.83098  1.0000
  Fe  Fe248     1.0  0.42573  0.76914  0.78997  1.0000
  S   S496      1.0  0.40346  0.77415  0.81600  1.0000
  S   S497      1.0  0.45208  0.78388  0.78194  1.0000
  H   H3855     1.0  0.46887  0.77955  0.91763  1.0000
  H   H3856     1.0  0.63360  0.90679  0.83833  1.0000
  Fe  Fe249     1.0  0.38213  0.77632  0.79654  1.0000
  S   S498      1.0  0.35873  0.80260  0.79241  1.0000
  C   C2186     1.0  0.55538  0.74026  0.88715  1.0000
  S   S499      1.0  0.40454  0.77267  0.76997  1.0000
  Fe  Fe250     1.0  0.45027  0.88213  0.86775  1.0000
  S   S500      1.0  0.45798  0.89663  0.83716  1.0000
  S   S501      1.0  0.41922  0.89133  0.88164  1.0000
  Fe  Fe251     1.0  0.48989  0.85737  0.86664  1.0000
  S   S502      1.0  0.50035  0.87015  0.83606  1.0000
  S   S503      1.0  0.51163  0.83472  0.88094  1.0000
  Fe  Fe252     1.0  0.48612  0.89840  0.84516  1.0000
  S   S504      1.0  0.49824  0.92624  0.83416  1.0000
  Fe  Fe253     1.0  0.47142  0.86701  0.83110  1.0000
  S   S505      1.0  0.46856  0.85929  0.80304  1.0000
  S   S506      1.0  0.47747  0.88589  0.87626  1.0000
  S   S507      1.0  0.46184  0.85223  0.86114  1.0000
  Fe  Fe254     1.0  0.58248  0.76522  0.81974  1.0000
  S   S508      1.0  0.59642  0.76551  0.78888  1.0000
  S   S509      1.0  0.55043  0.77698  0.82350  1.0000
  Fe  Fe255     1.0  0.62217  0.77186  0.79759  1.0000
  S   S510      1.0  0.63967  0.79303  0.77756  1.0000
  S   S511      1.0  0.60747  0.77393  0.82812  1.0000
  H   H3857     1.0  0.38488  0.74866  0.69120  1.0000
  H   H3858     1.0  0.43879  0.74216  0.83579  1.0000
  H   H3859     1.0  0.50580  0.77100  0.91594  1.0000
  C   C2187     1.0  0.63429  0.96185  0.79762  1.0000
  H   H3860     1.0  0.60332  0.84050  0.82689  1.0000
  C   C2188     1.0  0.40649  0.82486  0.76395  1.0000
  S   S512      1.0  0.55569  0.95605  0.87308  1.0000
  H   H3861     1.0  0.53238  0.74602  0.76897  1.0000
  H   H3862     1.0  0.39531  0.74990  0.72737  1.0000
  Fe  Fe256     1.0  0.63981  0.93268  0.73769  1.0000
  Fe  Fe257     1.0  0.60008  0.94361  0.72727  1.0000
  S   S513      1.0  0.57338  0.96627  0.72726  1.0000
  H   H3863     1.0  0.41933  0.81365  0.76667  1.0000
  S   S514      1.0  0.59966  0.88061  0.77080  1.0000
  S   S515      1.0  0.61029  0.93231  0.75531  1.0000
  H   H3864     1.0  0.43074  0.86176  0.83452  1.0000
  Fe  Fe258     1.0  0.40372  0.74092  0.77907  1.0000
  S   S516      1.0  0.60024  0.91433  0.72171  1.0000
  Fe  Fe259     1.0  0.60297  0.94217  0.50639  1.0000
  S   S517      1.0  0.58862  0.91688  0.50750  1.0000
  H   H3865     1.0  0.44534  0.92397  0.88511  1.0000
  H   H3866     1.0  0.36448  0.84467  0.80321  1.0000
  H   H3867     1.0  0.42817  0.93360  0.85804  1.0000
  Fe  Fe260     1.0  0.61903  0.90009  0.50439  1.0000
  S   S518      1.0  0.62510  0.87010  0.52130  1.0000
  S   S519      1.0  0.63301  0.92474  0.50544  1.0000
  H   H3868     1.0  0.32893  0.87707  0.83390  1.0000
  H   H3869     1.0  0.60042  0.93521  0.66809  1.0000
  H   H3870     1.0  0.52635  0.81590  0.76733  1.0000
  C   C2189     1.0  0.53951  0.74425  0.78166  1.0000
  H   H3871     1.0  0.65820  0.86774  0.71804  1.0000
  H   H3872     1.0  0.43653  0.74171  0.63218  1.0000
  C   C2190     1.0  0.58231  0.81514  0.75685  1.0000
  C   C2191     1.0  0.52524  0.98110  0.78464  1.0000
  H   H3873     1.0  0.41141  0.75097  0.63063  1.0000
  H   H3874     1.0  0.55708  0.95007  0.66735  1.0000
  H   H3875     1.0  0.56987  0.74060  0.78544  1.0000
  H   H3876     1.0  0.53024  0.73628  0.90856  1.0000
  S   S520      1.0  0.63550  0.74058  0.80409  1.0000
  C   C2192     1.0  0.56158  0.74172  0.77379  1.0000
  H   H3877     1.0  0.33214  0.81516  0.91376  1.0000
  H   H3878     1.0  0.57678  0.81430  0.74386  1.0000
  H   H3879     1.0  0.47925  0.78772  0.83940  1.0000
  C   C2193     1.0  0.44041  0.94084  0.85791  1.0000
  H   H3880     1.0  0.50023  0.75137  0.77824  1.0000
  H   H3881     1.0  0.38891  0.81738  0.80028  1.0000
  H   H3882     1.0  0.41464  0.80455  0.83049  1.0000
  H   H3883     1.0  0.36445  0.92201  0.85656  1.0000
  C   C2194     1.0  0.34340  0.80926  0.81322  1.0000
  H   H3884     1.0  0.50212  0.79509  0.78158  1.0000
  H   H3885     1.0  0.41486  0.88304  0.84138  1.0000
  H   H3886     1.0  0.42383  0.88199  0.81625  1.0000
  H   H3887     1.0  0.36557  0.73391  0.76217  1.0000
  H   H3888     1.0  0.43700  0.95613  0.85096  1.0000
  H   H3889     1.0  0.40963  0.83291  0.74907  1.0000
  H   H3890     1.0  0.39179  0.79048  0.85809  1.0000
  C   C2195     1.0  0.62894  0.81742  0.77625  1.0000
  C   C2196     1.0  0.61085  0.82286  0.78722  1.0000
  C   C2197     1.0  0.60211  0.84233  0.78544  1.0000
  C   C2198     1.0  0.61147  0.85647  0.77289  1.0000
  C   C2199     1.0  0.63846  0.83158  0.76383  1.0000
  H   H3891     1.0  0.60353  0.81202  0.79695  1.0000
  H   H3892     1.0  0.58804  0.84638  0.79374  1.0000
  C   C2200     1.0  0.51373  0.93441  0.84565  1.0000
  C   C2201     1.0  0.52229  0.92267  0.86077  1.0000
  C   C2202     1.0  0.53499  0.92957  0.86908  1.0000
  C   C2203     1.0  0.53935  0.94818  0.86233  1.0000
  C   C2204     1.0  0.53044  0.96004  0.84747  1.0000
  C   C2205     1.0  0.51772  0.95316  0.83919  1.0000
  H   H3893     1.0  0.51928  0.90823  0.86595  1.0000
  H   H3894     1.0  0.54165  0.92036  0.88070  1.0000
  H   H3895     1.0  0.53511  0.75825  0.78697  1.0000
  H   H3896     1.0  0.51092  0.96247  0.82776  1.0000
  C   C2206     1.0  0.52257  0.81813  0.86561  1.0000
  C   C2207     1.0  0.54171  0.80854  0.86591  1.0000
  C   C2208     1.0  0.55064  0.79593  0.85290  1.0000
  C   C2209     1.0  0.54016  0.79252  0.84004  1.0000
  C   C2210     1.0  0.52082  0.80153  0.84037  1.0000
  C   C2211     1.0  0.51214  0.81454  0.85286  1.0000
  H   H3897     1.0  0.54978  0.81126  0.87584  1.0000
  H   H3898     1.0  0.56554  0.78886  0.85285  1.0000
  H   H3899     1.0  0.51259  0.79871  0.83071  1.0000
  H   H3900     1.0  0.49734  0.82178  0.85264  1.0000
  C   C2212     1.0  0.45338  0.80542  0.78931  1.0000
  C   C2213     1.0  0.45748  0.82110  0.77503  1.0000
  C   C2214     1.0  0.46140  0.83755  0.77978  1.0000
  C   C2215     1.0  0.46185  0.83848  0.79885  1.0000
  C   C2216     1.0  0.45753  0.82291  0.81340  1.0000
  C   C2217     1.0  0.45321  0.80641  0.80861  1.0000
  H   H3901     1.0  0.45803  0.82038  0.76010  1.0000
  H   H3902     1.0  0.46470  0.84943  0.76843  1.0000
  H   H3903     1.0  0.45791  0.82343  0.82818  1.0000
  H   H3904     1.0  0.45049  0.79416  0.81968  1.0000
  H   H3905     1.0  0.39303  0.80879  0.87130  1.0000
  H   H3906     1.0  0.50858  0.76481  0.84875  1.0000
  C   C2218     1.0  0.34589  0.83759  0.89375  1.0000
  H   H3907     1.0  0.58679  0.95815  0.67103  1.0000
  C   C2219     1.0  0.43570  0.94522  0.92457  1.0000
  C   C2220     1.0  0.48408  0.89977  0.93320  1.0000
  C   C2221     1.0  0.40670  0.90652  0.94210  1.0000
  C   C2222     1.0  0.42517  0.89714  0.93476  1.0000
  C   C2223     1.0  0.42922  0.89256  0.91617  1.0000
  C   C2224     1.0  0.41474  0.89727  0.90485  1.0000
  C   C2225     1.0  0.39625  0.90664  0.91219  1.0000
  C   C2226     1.0  0.39222  0.91127  0.93077  1.0000
  H   H3908     1.0  0.43629  0.89330  0.94360  1.0000
  H   H3909     1.0  0.44345  0.88517  0.91075  1.0000
  H   H3910     1.0  0.38505  0.91061  0.90345  1.0000
  H   H3911     1.0  0.37799  0.91863  0.93627  1.0000
  H   H3912     1.0  0.47283  0.79804  0.89696  1.0000
  H   H3913     1.0  0.36687  0.89912  0.84925  1.0000
  Fe  Fe261     1.0  0.61327  0.90298  0.74827  1.0000
  H   H3914     1.0  0.62661  0.77106  0.89213  1.0000
  H   H3915     1.0  0.43002  0.94733  0.88609  1.0000
  C   C2227     1.0  0.64210  0.76426  0.88919  1.0000
  H   H3916     1.0  0.33028  0.79241  0.86088  1.0000
  H   H3917     1.0  0.48284  0.91818  0.89461  1.0000
  C   C2228     1.0  0.48837  0.77091  0.87522  1.0000
  C   C2229     1.0  0.38794  0.85385  0.88441  1.0000
  H   H3918     1.0  0.63722  0.86198  0.75274  1.0000
  C   C2230     1.0  0.62194  0.96680  0.54041  1.0000
  C   C2231     1.0  0.65208  0.87691  0.54043  1.0000
  H   H3919     1.0  0.41434  0.79152  0.86467  1.0000
  C   C2232     1.0  0.40625  0.81376  0.84092  1.0000
  H   H3920     1.0  0.35800  0.88903  0.95120  1.0000
  H   H3921     1.0  0.59744  0.90151  0.62306  1.0000
  C   C2233     1.0  0.44344  0.93942  0.87851  1.0000
  H   H3922     1.0  0.61799  0.85756  0.48581  1.0000
  H   H3923     1.0  0.38607  0.74206  0.65986  1.0000
  H   H3924     1.0  0.62081  0.89029  0.62921  1.0000
  N   N123      1.0  0.50000  0.76203  0.89114  1.0000
  C   C2234     1.0  0.40758  0.84143  0.88724  1.0000
  H   H3925     1.0  0.46008  0.91797  0.90970  1.0000
  C   C2235     1.0  0.40113  0.86508  0.82974  1.0000
  C   C2236     1.0  0.63033  0.85446  0.70706  1.0000
  S   S521      1.0  0.64520  0.97031  0.82899  1.0000
  H   H3926     1.0  0.64120  0.93631  0.59653  1.0000
  C   C2237     1.0  0.59468  0.86037  0.72188  1.0000
  H   H3927     1.0  0.35569  0.87221  0.87298  1.0000
  H   H3928     1.0  0.39391  0.81777  0.76506  1.0000
  H   H3929     1.0  0.62444  0.92007  0.79538  1.0000
  H   H3930     1.0  0.44212  0.93478  0.93620  1.0000
  C   C2238     1.0  0.62977  0.85112  0.76219  1.0000
  N   N124      1.0  0.46691  0.94657  0.89811  1.0000
  H   H3931     1.0  0.49853  0.74088  0.91740  1.0000
  C   C2239     1.0  0.56559  0.81925  0.77334  1.0000
  H   H3932     1.0  0.36142  0.85717  0.94173  1.0000
  H   H3933     1.0  0.41547  0.84860  0.89457  1.0000
  Fe  Fe262     1.0  0.63070  0.91560  0.70629  1.0000
  H   H3934     1.0  0.32635  0.85831  0.90984  1.0000
  H   H3935     1.0  0.33250  0.88686  0.91920  1.0000
  H   H3936     1.0  0.48429  0.76630  0.82900  1.0000
  C   C2240     1.0  0.35665  0.85838  0.82788  1.0000
  S   S522      1.0  0.35267  0.95112  0.96526  1.0000
  C   C2241     1.0  0.47269  0.92547  0.90595  1.0000
  H   H3937     1.0  0.62613  0.95425  0.77356  1.0000
  S   S523      1.0  0.62938  0.94605  0.70974  1.0000
  H   H3938     1.0  0.33432  0.81402  0.88868  1.0000
  C   C2242     1.0  0.63800  0.95569  0.77976  1.0000
  H   H3939     1.0  0.53345  0.97449  0.84232  1.0000
  C   C2243     1.0  0.56976  0.93815  0.66782  1.0000
  H   H3940     1.0  0.54701  0.83747  0.75446  1.0000
  C   C2244     1.0  0.34775  0.86761  0.94062  1.0000
  C   C2245     1.0  0.40095  0.80037  0.85992  1.0000
  H   H3941     1.0  0.52063  0.79032  0.79629  1.0000
  H   H3942     1.0  0.48971  0.78634  0.87030  1.0000
  C   C2246     1.0  0.40575  0.85220  0.81421  1.0000
  H   H3943     1.0  0.32982  0.83697  0.74319  1.0000
  C   C2247     1.0  0.35959  0.89852  0.88024  1.0000
  H   H3944     1.0  0.63304  0.98350  0.71766  1.0000
  C   C2248     1.0  0.48290  0.92092  0.92373  1.0000
  H   H3945     1.0  0.46861  0.74173  0.78558  1.0000
  H   H3946     1.0  0.35338  0.78335  0.83210  1.0000
  H   H3947     1.0  0.38935  0.87732  0.82638  1.0000
  H   H3948     1.0  0.42026  0.84310  0.81485  1.0000
  H   H3949     1.0  0.46496  0.76890  0.84919  1.0000
  C   C2249     1.0  0.47912  0.78908  0.90943  1.0000
  H   H3950     1.0  0.55762  0.80702  0.77690  1.0000
  H   H3951     1.0  0.60068  0.90885  0.86183  1.0000
  H   H3952     1.0  0.49224  0.89676  0.94530  1.0000
  H   H3953     1.0  0.62947  0.91826  0.86916  1.0000
  H   H3954     1.0  0.52648  0.76767  0.87234  1.0000
  H   H3955     1.0  0.49692  0.96605  0.74738  1.0000
  H   H3956     1.0  0.60241  0.91227  0.65140  1.0000
  H   H3957     1.0  0.49032  0.81286  0.91493  1.0000
  H   H3958     1.0  0.49727  0.94729  0.88652  1.0000
  H   H3959     1.0  0.53658  0.75993  0.90411  1.0000
  C   C2250     1.0  0.53514  0.74806  0.89722  1.0000
  C   C2251     1.0  0.37201  0.85230  0.81054  1.0000
  C   C2252     1.0  0.38783  0.82629  0.83383  1.0000
  C   C2253     1.0  0.34564  0.88114  0.95480  1.0000
  H   H3960     1.0  0.40568  0.82710  0.89595  1.0000
  H   H3961     1.0  0.63508  0.94068  0.64764  1.0000
  H   H3962     1.0  0.40640  0.76310  0.70497  1.0000
  H   H3963     1.0  0.38903  0.84941  0.77495  1.0000
  C   C2254     1.0  0.52238  0.97400  0.76673  1.0000
  N   N125      1.0  0.51279  0.95651  0.77096  1.0000
  H   H3964     1.0  0.33198  0.82280  0.76660  1.0000
  C   C2255     1.0  0.50780  0.95355  0.75259  1.0000
  H   H3965     1.0  0.63642  0.73646  0.90320  1.0000
  C   C2256     1.0  0.52503  0.93858  0.78020  1.0000
  C   C2257     1.0  0.54736  0.93655  0.77392  1.0000
  H   H3966     1.0  0.65505  0.90769  0.77299  1.0000
  C   C2258     1.0  0.48033  0.94578  0.78908  1.0000
  C   C2259     1.0  0.52468  0.95044  0.73561  1.0000
  C   C2260     1.0  0.51710  0.95109  0.71718  1.0000
  C   C2261     1.0  0.55765  0.91659  0.78195  1.0000
  H   H3967     1.0  0.64650  0.96876  0.55228  1.0000
  H   H3968     1.0  0.46705  0.95271  0.81754  1.0000
  H   H3969     1.0  0.65317  0.93004  0.61737  1.0000
  C   C2262     1.0  0.33126  0.82393  0.89924  1.0000
  H   H3970     1.0  0.50093  0.94061  0.75525  1.0000
  H   H3971     1.0  0.56069  0.75114  0.87489  1.0000
  H   H3972     1.0  0.64521  0.76047  0.87456  1.0000
  H   H3973     1.0  0.64030  0.81420  0.70251  1.0000
  H   H3974     1.0  0.52236  0.93757  0.79614  1.0000
  H   H3975     1.0  0.52059  0.92548  0.77791  1.0000
  H   H3976     1.0  0.55288  0.94721  0.77936  1.0000
  H   H3977     1.0  0.55192  0.93898  0.75814  1.0000
  H   H3978     1.0  0.64525  0.82178  0.72242  1.0000
  C   C2263     1.0  0.34756  0.87888  0.91978  1.0000
  H   H3979     1.0  0.48806  0.93124  0.79451  1.0000
  C   C2264     1.0  0.64602  0.74620  0.90428  1.0000
  H   H3980     1.0  0.65414  0.91217  0.60299  1.0000
  H   H3981     1.0  0.53382  0.93609  0.73878  1.0000
  H   H3982     1.0  0.50841  0.93958  0.71909  1.0000
  H   H3983     1.0  0.34389  0.84202  0.92230  1.0000
  H   H3984     1.0  0.52949  0.94893  0.70524  1.0000
  H   H3985     1.0  0.55275  0.91282  0.79772  1.0000
  H   H3986     1.0  0.55498  0.90557  0.77469  1.0000
  H   H3987     1.0  0.57348  0.91641  0.77920  1.0000
  H   H3988     1.0  0.62487  0.87846  0.83912  1.0000
  H   H3989     1.0  0.49678  0.96216  0.79883  1.0000
  C   C2265     1.0  0.64540  0.89511  0.80281  1.0000
  H   H3990     1.0  0.34555  0.88735  0.81396  1.0000
  C   C2266     1.0  0.33059  0.82695  0.81189  1.0000
  C   C2267     1.0  0.41851  0.95855  0.93412  1.0000
  N   N126      1.0  0.53538  0.84501  0.78270  1.0000
  C   C2268     1.0  0.52475  0.82880  0.79302  1.0000
  C   C2269     1.0  0.54202  0.85389  0.79694  1.0000
  C   C2270     1.0  0.52118  0.86043  0.77271  1.0000
  C   C2271     1.0  0.55224  0.83863  0.76757  1.0000
  C   C2272     1.0  0.51575  0.81959  0.78016  1.0000
  C   C2273     1.0  0.52876  0.87924  0.76247  1.0000
  C   C2274     1.0  0.54750  0.84058  0.81558  1.0000
  C   C2275     1.0  0.55485  0.85141  0.82785  1.0000
  C   C2276     1.0  0.51301  0.89387  0.75339  1.0000
  H   H3991     1.0  0.51271  0.83398  0.80433  1.0000
  H   H3992     1.0  0.53444  0.81705  0.80083  1.0000
  H   H3993     1.0  0.55444  0.86132  0.78980  1.0000
  H   H3994     1.0  0.53037  0.86542  0.80224  1.0000
  H   H3995     1.0  0.50781  0.86439  0.78323  1.0000
  H   H3996     1.0  0.51636  0.85506  0.76147  1.0000
  H   H3997     1.0  0.56170  0.84974  0.76259  1.0000
  H   H3998     1.0  0.50306  0.82968  0.77521  1.0000
  H   H3999     1.0  0.54130  0.87629  0.75088  1.0000
  H   H4000     1.0  0.53330  0.88609  0.77276  1.0000
  H   H4001     1.0  0.53449  0.83540  0.82449  1.0000
  H   H4002     1.0  0.55869  0.82796  0.81265  1.0000
  H   H4003     1.0  0.56751  0.85779  0.81963  1.0000
  H   H4004     1.0  0.54331  0.86310  0.83284  1.0000
  H   H4005     1.0  0.55923  0.84132  0.84074  1.0000
  H   H4006     1.0  0.49713  0.80443  0.80362  1.0000
  H   H4007     1.0  0.51888  0.90700  0.74582  1.0000
  H   H4008     1.0  0.50797  0.88784  0.74275  1.0000
  H   H4009     1.0  0.50048  0.89795  0.76465  1.0000
  N   N127      1.0  0.39102  0.83990  0.81485  1.0000
  N   N128      1.0  0.59484  0.95411  0.64143  1.0000
  C   C2277     1.0  0.58879  0.94648  0.66250  1.0000
  C   C2278     1.0  0.61193  0.96425  0.63866  1.0000
  C   C2279     1.0  0.57817  0.96906  0.63495  1.0000
  C   C2280     1.0  0.59913  0.93860  0.62913  1.0000
  C   C2281     1.0  0.47972  0.77191  0.84272  1.0000
  H   H4010     1.0  0.50885  0.74787  0.80969  1.0000
  C   C2282     1.0  0.61034  0.84861  0.70896  1.0000
  H   H4011     1.0  0.45722  0.96389  0.87229  1.0000
  H   H4012     1.0  0.58062  0.85562  0.72344  1.0000
  H   H4013     1.0  0.41297  0.81862  0.80145  1.0000
  H   H4014     1.0  0.36289  0.86408  0.83781  1.0000
  S   S524      1.0  0.58974  0.96515  0.52529  1.0000
  H   H4015     1.0  0.64894  0.88399  0.77622  1.0000
  C   C2283     1.0  0.48465  0.95581  0.89477  1.0000
  C   C2284     1.0  0.40783  0.74931  0.71531  1.0000
  H   H4016     1.0  0.32628  0.93731  0.92539  1.0000
  C   C2285     1.0  0.49868  0.73757  0.78823  1.0000
  H   H4017     1.0  0.56532  0.96236  0.63597  1.0000
  H   H4018     1.0  0.42123  0.74753  0.72139  1.0000
  H   H4019     1.0  0.60760  0.94347  0.61478  1.0000
  H   H4020     1.0  0.62907  0.83840  0.55171  1.0000
  H   H4021     1.0  0.47265  0.77087  0.88076  1.0000
  H   H4022     1.0  0.37798  0.81651  0.83305  1.0000
  C   C2286     1.0  0.61007  0.91851  0.63720  1.0000
  H   H4023     1.0  0.38306  0.86802  0.90863  1.0000
  H   H4024     1.0  0.47524  0.93000  0.93461  1.0000
  C   C2287     1.0  0.56756  0.92648  0.68818  1.0000
  H   H4025     1.0  0.56766  0.93560  0.69878  1.0000
  C   C2288     1.0  0.45099  0.95691  0.91164  1.0000
  H   H4026     1.0  0.33067  0.83657  0.79819  1.0000
  S   S525      1.0  0.42762  0.73699  0.79609  1.0000
  C   C2289     1.0  0.39875  0.82767  0.79936  1.0000
  C   C2290     1.0  0.65700  0.95173  0.76992  1.0000
  H   H4027     1.0  0.42334  0.96653  0.94329  1.0000
  C   C2291     1.0  0.50853  0.80122  0.79115  1.0000
  N   N129      1.0  0.35434  0.86696  0.90395  1.0000
  H   H4028     1.0  0.38076  0.84636  0.87686  1.0000
  C   C2292     1.0  0.65028  0.84256  0.56680  1.0000
  C   C2293     1.0  0.49127  0.74583  0.90460  1.0000
  H   H4029     1.0  0.62311  0.94215  0.85565  1.0000
  H   H4030     1.0  0.41652  0.83935  0.87303  1.0000
  H   H4031     1.0  0.59170  0.80122  0.76121  1.0000
  N   N130      1.0  0.64744  0.84281  0.69593  1.0000
  H   H4032     1.0  0.40765  0.86216  0.80019  1.0000
  H   H4033     1.0  0.37472  0.86562  0.80012  1.0000
  H   H4034     1.0  0.38026  0.83405  0.84573  1.0000
  H   H4035     1.0  0.34476  0.84536  0.87893  1.0000
  C   C2294     1.0  0.49397  0.76227  0.85641  1.0000
  C   C2295     1.0  0.61732  0.92932  0.86431  1.0000
  H   H4036     1.0  0.41581  0.82290  0.84338  1.0000
  H   H4037     1.0  0.43000  0.93690  0.91652  1.0000
  C   C2296     1.0  0.40196  0.83869  0.77831  1.0000
  H   H4038     1.0  0.41447  0.84624  0.77576  1.0000
  Fe  Fe263     1.0  0.61892  0.74199  0.83389  1.0000
  H   H4039     1.0  0.65553  0.95972  0.65514  1.0000
  H   H4040     1.0  0.61967  0.96510  0.80496  1.0000
  H   H4041     1.0  0.61476  0.97608  0.74692  1.0000
  H   H4042     1.0  0.62207  0.95357  0.66657  1.0000
  H   H4043     1.0  0.62992  0.95590  0.53210  1.0000
  H   H4044     1.0  0.56665  0.96083  0.80466  1.0000
  H   H4045     1.0  0.39083  0.86739  0.87468  1.0000
  H   H4046     1.0  0.37493  0.89542  0.88208  1.0000
  H   H4047     1.0  0.64003  0.83428  0.64158  1.0000
  S   S526      1.0  0.64394  0.90214  0.73272  1.0000
  H   H4048     1.0  0.35026  0.84572  0.83621  1.0000
  H   H4049     1.0  0.61907  0.96641  0.62326  1.0000
  H   H4050     1.0  0.46582  0.81131  0.92663  1.0000
  H   H4051     1.0  0.60569  0.85143  0.69475  1.0000
  H   H4052     1.0  0.39675  0.85689  0.84417  1.0000
  C   C2297     1.0  0.41873  0.87346  0.83045  1.0000
  H   H4053     1.0  0.37691  0.84478  0.91467  1.0000
  H   H4054     1.0  0.46936  0.89642  0.93904  1.0000
  H   H4055     1.0  0.50806  0.96533  0.71304  1.0000
  H   H4056     1.0  0.59140  0.82648  0.75332  1.0000
  N   N131      1.0  0.61158  0.90501  0.82268  1.0000
  C   C2298     1.0  0.61109  0.88476  0.83360  1.0000
  C   C2299     1.0  0.61995  0.91561  0.83401  1.0000
  C   C2300     1.0  0.59118  0.91455  0.82026  1.0000
  C   C2301     1.0  0.62397  0.90505  0.80304  1.0000
  H   H4057     1.0  0.58544  0.93607  0.62594  1.0000
  C   C2302     1.0  0.60730  0.87020  0.82235  1.0000
  C   C2303     1.0  0.58892  0.93561  0.80928  1.0000
  C   C2304     1.0  0.60652  0.92136  0.85253  1.0000
  H   H4058     1.0  0.56923  0.92870  0.65773  1.0000
  C   C2305     1.0  0.60566  0.85073  0.83535  1.0000
  C   C2306     1.0  0.56856  0.94673  0.81447  1.0000
  H   H4059     1.0  0.59972  0.88494  0.84674  1.0000
  H   H4060     1.0  0.60676  0.97902  0.64211  1.0000
  H   H4061     1.0  0.58237  0.75664  0.75304  1.0000
  H   H4062     1.0  0.62459  0.92891  0.82498  1.0000
  H   H4063     1.0  0.58133  0.91388  0.83447  1.0000
  H   H4064     1.0  0.58513  0.90654  0.81207  1.0000
  H   H4065     1.0  0.61742  0.89861  0.79381  1.0000
  H   H4066     1.0  0.57952  0.91388  0.68924  1.0000
  H   H4067     1.0  0.59372  0.87546  0.81644  1.0000
  C   C2307     1.0  0.64949  0.96359  0.80608  1.0000
  H   H4068     1.0  0.59193  0.93568  0.79357  1.0000
  H   H4069     1.0  0.59898  0.94365  0.81242  1.0000
  H   H4070     1.0  0.59417  0.93279  0.84880  1.0000
  H   H4071     1.0  0.49799  0.92368  0.91924  1.0000
  H   H4072     1.0  0.55902  0.76029  0.74602  1.0000
  H   H4073     1.0  0.44308  0.96993  0.90335  1.0000
  C   C2308     1.0  0.37551  0.85829  0.90387  1.0000
  H   H4074     1.0  0.62482  0.91930  0.63865  1.0000
  H   H4075     1.0  0.55739  0.93858  0.81362  1.0000
  H   H4076     1.0  0.56663  0.94950  0.82931  1.0000
  H   H4077     1.0  0.55363  0.92109  0.69176  1.0000
  H   H4078     1.0  0.49166  0.89025  0.92265  1.0000
  C   C2309     1.0  0.64370  0.96730  0.64708  1.0000
  H   H4079     1.0  0.62896  0.86998  0.70057  1.0000
  H   H4080     1.0  0.47467  0.94516  0.77610  1.0000
  H   H4081     1.0  0.48895  0.95572  0.90874  1.0000
  H   H4082     1.0  0.65263  0.82738  0.75560  1.0000
  H   H4083     1.0  0.48561  0.79452  0.93582  1.0000
  H   H4084     1.0  0.34546  0.87269  0.96959  1.0000
  C   C2310     1.0  0.46106  0.94849  0.87878  1.0000
  S   S527      1.0  0.63658  0.90441  0.67825  1.0000
  C   C2311     1.0  0.35060  0.87997  0.88530  1.0000
  H   H4085     1.0  0.61933  0.86762  0.81018  1.0000
  H   H4086     1.0  0.52245  0.74411  0.87404  1.0000
  C   C2312     1.0  0.57177  0.98275  0.70574  1.0000
  C   C2313     1.0  0.52091  0.75550  0.88270  1.0000
  H   H4087     1.0  0.51336  0.97811  0.88144  1.0000
  S   S528      1.0  0.58877  0.98198  0.82907  1.0000
  C   C2314     1.0  0.34013  0.87387  0.82123  1.0000
  H   H4088     1.0  0.63837  0.85954  0.66979  1.0000
  C   C2315     1.0  0.61193  0.90419  0.62375  1.0000
  C   C2316     1.0  0.46262  0.95110  0.80421  1.0000
  H   H4089     1.0  0.59322  0.85224  0.84737  1.0000
  H   H4090     1.0  0.59299  0.87590  0.71545  1.0000
  C   C2317     1.0  0.63131  0.97411  0.55193  1.0000
  H   H4091     1.0  0.61908  0.90966  0.60898  1.0000
  C   C2318     1.0  0.63944  0.86495  0.53938  1.0000
  H   H4092     1.0  0.47359  0.94219  0.86859  1.0000
  C   C2319     1.0  0.62797  0.95497  0.65094  1.0000
  H   H4093     1.0  0.45717  0.96257  0.92180  1.0000
  H   H4094     1.0  0.65246  0.88703  0.64500  1.0000
  H   H4095     1.0  0.35637  0.74616  0.67444  1.0000
  C   C2320     1.0  0.35290  0.73476  0.68686  1.0000
  C   C2321     1.0  0.65001  0.82224  0.70659  1.0000
  C   C2322     1.0  0.65571  0.89329  0.78232  1.0000
  H   H4096     1.0  0.50858  0.78809  0.89428  1.0000
  H   H4097     1.0  0.61084  0.83313  0.71525  1.0000
  H   H4098     1.0  0.40781  0.94997  0.94337  1.0000
  C   C2323     1.0  0.51151  0.73427  0.80385  1.0000
  H   H4099     1.0  0.65117  0.73611  0.96692  1.0000
  H   H4100     1.0  0.58717  0.97587  0.77259  1.0000
  H   H4101     1.0  0.45362  0.93363  0.84934  1.0000
  H   H4102     1.0  0.47590  0.75099  0.91056  1.0000
  C   C2324     1.0  0.35839  0.90854  0.85955  1.0000
  H   H4103     1.0  0.64196  0.75065  0.91859  1.0000
  C   C2325     1.0  0.34199  0.85152  0.90830  1.0000
  H   H4104     1.0  0.49423  0.74660  0.85910  1.0000
  H   H4105     1.0  0.63054  0.83684  0.67694  1.0000
  H   H4106     1.0  0.60721  0.93371  0.87720  1.0000
  H   H4107     1.0  0.59843  0.85842  0.73641  1.0000
  C   C2326     1.0  0.49944  0.77741  0.90272  1.0000
  Fe  Fe264     1.0  0.40379  0.74231  0.82078  1.0000
  H   H4108     1.0  0.58729  0.97013  0.60351  1.0000
  H   H4109     1.0  0.35088  0.74078  0.70023  1.0000
  H   H4110     1.0  0.65317  0.90378  0.80860  1.0000
  C   C2327     1.0  0.63873  0.84773  0.55251  1.0000
  H   H4111     1.0  0.48382  0.97725  0.86826  1.0000
  H   H4112     1.0  0.64947  0.82927  0.57697  1.0000
  H   H4113     1.0  0.54591  0.74071  0.81513  1.0000
  H   H4114     1.0  0.53375  0.96164  0.73244  1.0000
  C   C2328     1.0  0.48275  0.97694  0.88391  1.0000
  Fe  Fe265     1.0  0.57318  0.98015  0.85962  1.0000
  C   C2329     1.0  0.60229  0.97367  0.53963  1.0000
  H   H4115     1.0  0.56223  0.77238  0.76446  1.0000
  C   C2330     1.0  0.65405  0.92768  0.60249  1.0000
  H   H4116     1.0  0.64994  0.86526  0.48720  1.0000
  H   H4117     1.0  0.53676  0.97153  0.75740  1.0000
  H   H4118     1.0  0.33539  0.85972  0.94534  1.0000
  H   H4119     1.0  0.64988  0.96997  0.63153  1.0000
  C   C2331     1.0  0.56650  0.75887  0.75837  1.0000
  C   C2332     1.0  0.47735  0.73874  0.79720  1.0000
  H   H4120     1.0  0.35164  0.90888  0.88977  1.0000
  H   H4121     1.0  0.64536  0.83091  0.48816  1.0000
  H   H4122     1.0  0.53098  0.96894  0.79533  1.0000
  H   H4123     1.0  0.45371  0.93957  0.80796  1.0000
  S   S529      1.0  0.59989  0.97997  0.87181  1.0000
  C   C2333     1.0  0.42173  0.73816  0.63610  1.0000
  H   H4124     1.0  0.60236  0.97862  0.69442  1.0000
  H   H4125     1.0  0.63256  0.85350  0.72203  1.0000
  C   C2334     1.0  0.64294  0.84411  0.67610  1.0000
  H   H4126     1.0  0.41757  0.74512  0.66418  1.0000
  H   H4127     1.0  0.65277  0.89020  0.53029  1.0000
  H   H4128     1.0  0.65114  0.85556  0.63583  1.0000
  H   H4129     1.0  0.61918  0.84460  0.84129  1.0000
  H   H4130     1.0  0.65114  0.77486  0.88954  1.0000
  H   H4131     1.0  0.63768  0.98130  0.65198  1.0000
  C   C2335     1.0  0.65345  0.83979  0.64119  1.0000
  H   H4132     1.0  0.33189  0.89164  0.95461  1.0000
  H   H4133     1.0  0.34305  0.91233  0.85740  1.0000
  H   H4134     1.0  0.56564  0.73657  0.89749  1.0000
  H   H4135     1.0  0.33326  0.86891  0.81119  1.0000
  H   H4136     1.0  0.57344  0.97996  0.64468  1.0000
  C   C2336     1.0  0.49392  0.96085  0.78462  1.0000
  H   H4137     1.0  0.41111  0.96895  0.92310  1.0000
  H   H4138     1.0  0.64672  0.88045  0.81154  1.0000
  C   C2337     1.0  0.58209  0.98014  0.61400  1.0000
  H   H4139     1.0  0.33469  0.88467  0.88564  1.0000
  H   H4140     1.0  0.45358  0.96482  0.79859  1.0000
  H   H4141     1.0  0.48544  0.97504  0.77904  1.0000
  Fe  Fe266     1.0  0.37192  0.92470  0.97831  1.0000
  H   H4142     1.0  0.47274  0.73399  0.84142  1.0000
  Fe  Fe267     1.0  0.60819  0.73439  0.79829  1.0000
  Fe  Fe268     1.0  0.72161  0.14480  0.06137  1.0000
  S   S530      1.0  0.70753  0.17523  0.05173  1.0000
  S   S531      1.0  0.71751  0.11730  0.05320  1.0000
  Fe  Fe269     1.0  0.74387  0.15693  0.08854  1.0000
  S   S532      1.0  0.73174  0.18818  0.08048  1.0000
  S   S533      1.0  0.76410  0.14418  0.11030  1.0000
  Fe  Fe270     1.0  0.70354  0.17833  0.08284  1.0000
  C   C2338     1.0  0.91089  0.99595  0.04124  1.0000
  Fe  Fe271     1.0  0.73705  0.18212  0.05033  1.0000
  S   S534      1.0  0.75442  0.19835  0.02504  1.0000
  S   S535      1.0  0.71533  0.14723  0.09270  1.0000
  S   S536      1.0  0.75134  0.15156  0.05809  1.0000
  C   C2339     1.0  0.65909  0.07817  0.03987  1.0000
  H   H4143     1.0  0.85604  0.02583  0.41019  1.0000
  S   S537      1.0  0.92860  0.01177  0.08151  1.0000
  H   H4144     1.0  0.79467  0.03458  0.17085  1.0000
  H   H4145     1.0  0.90184  0.01048  0.19334  1.0000
  C   C2340     1.0  0.97590  0.08438  0.34427  1.0000
  Fe  Fe272     1.0  0.92398  0.04111  0.32024  1.0000
  S   S538      1.0  0.89650  0.05639  0.33546  1.0000
  S   S539      1.0  0.95292  0.04891  0.32140  1.0000
  Fe  Fe273     1.0  0.90172  0.02244  0.29840  1.0000
  S   S540      1.0  0.87292  0.03755  0.31182  1.0000
  Fe  Fe274     1.0  0.88692  0.06345  0.30679  1.0000
  S   S541      1.0  0.87610  0.09466  0.29600  1.0000
  Fe  Fe275     1.0  0.88533  0.02884  0.33906  1.0000
  S   S542      1.0  0.86493  0.01949  0.36618  1.0000
  S   S543      1.0  0.91480  0.04939  0.29121  1.0000
  S   S544      1.0  0.91377  0.01237  0.32603  1.0000
  Fe  Fe276     1.0  0.83673  0.14556  0.20670  1.0000
  S   S545      1.0  0.86238  0.15878  0.20625  1.0000
  S   S546      1.0  0.83422  0.11582  0.22354  1.0000
  Fe  Fe277     1.0  0.82025  0.17802  0.17665  1.0000
  S   S547      1.0  0.84493  0.19385  0.17397  1.0000
  S   S548      1.0  0.79640  0.19126  0.15862  1.0000
  Fe  Fe278     1.0  0.86376  0.16465  0.17432  1.0000
  S   S549      1.0  0.89331  0.15855  0.15642  1.0000
  Fe  Fe279     1.0  0.84148  0.18664  0.20634  1.0000
  S   S550      1.0  0.84071  0.20882  0.22510  1.0000
  S   S551      1.0  0.83962  0.14943  0.17460  1.0000
  S   S552      1.0  0.81522  0.17297  0.20914  1.0000
  Fe  Fe280     1.0  0.87191  0.03975  0.12826  1.0000
  S   S553      1.0  0.90311  0.03015  0.13113  1.0000
  Fe  Fe281     1.0  0.88041  0.07056  0.09345  1.0000
  S   S554      1.0  0.91242  0.06367  0.09337  1.0000
  S   S555      1.0  0.86622  0.09519  0.07329  1.0000
  Fe  Fe282     1.0  0.90846  0.03281  0.09900  1.0000
  Fe  Fe283     1.0  0.90421  0.06167  0.12546  1.0000
  S   S556      1.0  0.92058  0.07208  0.14348  1.0000
  S   S557      1.0  0.87700  0.03989  0.09654  1.0000
  S   S558      1.0  0.87254  0.07109  0.12512  1.0000
  H   H4146     1.0  0.69079  0.18031  0.15481  1.0000
  H   H4147     1.0  0.92393  0.04849  0.24360  1.0000
  S   S559      1.0  0.96819  0.19126  0.38361  1.0000
  N   N132      1.0  0.95544  0.18318  0.29229  1.0000
  H   H4148     1.0  0.88036  0.99938  0.13663  1.0000
  H   H4149     1.0  0.90942  0.10262  0.23621  1.0000
  C   C2341     1.0  0.90035  0.13442  0.15309  1.0000
  C   C2342     1.0  0.91974  0.12559  0.15275  1.0000
  C   C2343     1.0  0.92576  0.10645  0.14990  1.0000
  C   C2344     1.0  0.91253  0.09613  0.14691  1.0000
  C   C2345     1.0  0.89314  0.10495  0.14716  1.0000
  C   C2346     1.0  0.88701  0.12401  0.15042  1.0000
  H   H4150     1.0  0.93012  0.13358  0.15468  1.0000
  H   H4151     1.0  0.94080  0.09978  0.14958  1.0000
  H   H4152     1.0  0.88286  0.09710  0.14490  1.0000
  H   H4153     1.0  0.87212  0.13084  0.15021  1.0000
  H   H4154     1.0  0.98678  0.20685  0.23846  1.0000
  H   H4155     1.0  0.94614  0.01406  0.35089  1.0000
  H   H4156     1.0  0.95738  0.21478  0.41598  1.0000
  H   H4157     1.0  0.87727  0.99257  0.25473  1.0000
  C   C2347     1.0  0.90716  0.22535  0.13941  1.0000
  C   C2348     1.0  0.88984  0.22461  0.24765  1.0000
  H   H4158     1.0  0.88377  0.07370  0.21581  1.0000
  C   C2349     1.0  0.92607  0.99280  0.39707  1.0000
  H   H4159     1.0  0.82499  0.99619  0.33308  1.0000
  C   C2350     1.0  0.86408  0.10028  0.27618  1.0000
  C   C2351     1.0  0.86094  0.11935  0.26654  1.0000
  C   C2352     1.0  0.85152  0.12426  0.25057  1.0000
  C   C2353     1.0  0.84517  0.11011  0.24415  1.0000
  C   C2354     1.0  0.84788  0.09111  0.25409  1.0000
  C   C2355     1.0  0.85745  0.08615  0.27002  1.0000
  H   H4160     1.0  0.86578  0.13040  0.27144  1.0000
  H   H4161     1.0  0.84890  0.13906  0.24344  1.0000
  H   H4162     1.0  0.84252  0.08026  0.24947  1.0000
  H   H4163     1.0  0.85946  0.07151  0.27773  1.0000
  C   C2356     1.0  0.85964  0.21361  0.23486  1.0000
  C   C2357     1.0  0.75609  0.10755  0.99178  1.0000
  C   C2358     1.0  0.93335  0.98814  0.15682  1.0000
  C   C2359     1.0  0.78923  0.16785  0.98586  1.0000
  C   C2360     1.0  0.95653  0.06333  0.33713  1.0000
  C   C2361     1.0  0.94453  0.06455  0.35497  1.0000
  H   H4164     1.0  0.93258  0.05675  0.35934  1.0000
  H   H4165     1.0  0.79814  0.03869  0.19353  1.0000
  C   C2362     1.0  0.94752  0.19777  0.37247  1.0000
  C   C2363     1.0  0.93759  0.18386  0.37034  1.0000
  C   C2364     1.0  0.92087  0.18949  0.36182  1.0000
  C   C2365     1.0  0.91457  0.20891  0.35455  1.0000
  C   C2366     1.0  0.77627  0.15861  0.98077  1.0000
  C   C2367     1.0  0.94086  0.21725  0.36566  1.0000
  H   H4166     1.0  0.86890  0.02028  0.21253  1.0000
  H   H4167     1.0  0.93032  0.00708  0.20882  1.0000
  C   C2368     1.0  0.75680  0.16134  0.98955  1.0000
  H   H4168     1.0  0.77697  0.05159  0.18337  1.0000
  C   C2369     1.0  0.85927  0.08288  0.01588  1.0000
  C   C2370     1.0  0.85206  0.10110  0.02075  1.0000
  C   C2371     1.0  0.85425  0.10475  0.03846  1.0000
  C   C2372     1.0  0.86346  0.09015  0.05138  1.0000
  C   C2373     1.0  0.87062  0.07191  0.04650  1.0000
  C   C2374     1.0  0.86854  0.06831  0.02876  1.0000
  H   H4169     1.0  0.84461  0.11227  0.01102  1.0000
  H   H4170     1.0  0.84879  0.11889  0.04221  1.0000
  H   H4171     1.0  0.87796  0.06067  0.05627  1.0000
  H   H4172     1.0  0.87413  0.05419  0.02500  1.0000
  C   C2375     1.0  0.78798  0.17819  0.14472  1.0000
  C   C2376     1.0  0.77639  0.18809  0.13096  1.0000
  C   C2377     1.0  0.76893  0.17798  0.12026  1.0000
  C   C2378     1.0  0.77304  0.15784  0.12321  1.0000
  C   C2379     1.0  0.78465  0.14802  0.13691  1.0000
  C   C2380     1.0  0.79211  0.15812  0.14756  1.0000
  H   H4173     1.0  0.77337  0.20364  0.12842  1.0000
  H   H4174     1.0  0.76018  0.18576  0.10963  1.0000
  H   H4175     1.0  0.78783  0.13252  0.13923  1.0000
  H   H4176     1.0  0.80094  0.15048  0.15811  1.0000
  H   H4177     1.0  0.93388  0.18399  0.27487  1.0000
  C   C2381     1.0  0.90502  0.12522  0.21226  1.0000
  C   C2382     1.0  0.87931  0.01693  0.42710  1.0000
  C   C2383     1.0  0.87929  0.13851  0.99679  1.0000
  C   C2384     1.0  0.76302  0.18285  0.00824  1.0000
  C   C2385     1.0  0.78252  0.18025  0.99938  1.0000
  H   H4178     1.0  0.91618  0.21192  0.14559  1.0000
  C   C2386     1.0  0.86261  0.03174  0.41981  1.0000
  C   C2387     1.0  0.66824  0.13475  0.07359  1.0000
  C   C2388     1.0  0.75027  0.17311  0.00356  1.0000
  H   H4179     1.0  0.79241  0.18771  0.00310  1.0000
  C   C2389     1.0  0.96402  0.08541  0.36222  1.0000
  H   H4180     1.0  0.88536  0.02330  0.43672  1.0000
  H   H4181     1.0  0.73520  0.17509  0.01037  1.0000
  C   C2390     1.0  0.71074  0.11283  0.03248  1.0000
  C   C2391     1.0  0.71245  0.09356  0.03078  1.0000
  C   C2392     1.0  0.70732  0.08867  0.01498  1.0000
  C   C2393     1.0  0.69971  0.10291  0.00079  1.0000
  C   C2394     1.0  0.69775  0.12236  0.00241  1.0000
  C   C2395     1.0  0.70342  0.12733  0.01817  1.0000
  H   H4182     1.0  0.71809  0.08223  0.04167  1.0000
  H   H4183     1.0  0.69235  0.13353  0.99131  1.0000
  H   H4184     1.0  0.70209  0.14229  0.01925  1.0000
  H   H4185     1.0  0.86788  0.02765  0.24608  1.0000
  H   H4186     1.0  0.90667  0.16506  0.19196  1.0000
  H   H4187     1.0  0.92579  0.17868  0.18195  1.0000
  H   H4188     1.0  0.94250  0.16883  0.37580  1.0000
  C   C2396     1.0  0.84336  0.99375  0.17434  1.0000
  C   C2397     1.0  0.89303  0.06607  0.22669  1.0000
  H   H4189     1.0  0.92048  0.12678  0.20812  1.0000
  H   H4190     1.0  0.91121  0.08476  0.01152  1.0000
  C   C2398     1.0  0.89661  0.19550  0.18298  1.0000
  H   H4191     1.0  0.95745  0.03320  0.18863  1.0000
  H   H4192     1.0  0.96746  0.06661  0.24963  1.0000
  H   H4193     1.0  0.94331  0.07520  0.26126  1.0000
  H   H4194     1.0  0.95453  0.05573  0.22556  1.0000
  H   H4195     1.0  0.74918  0.09457  0.99534  1.0000
  H   H4196     1.0  0.97579  0.19482  0.33899  1.0000
  H   H4197     1.0  0.94833  0.22811  0.36734  1.0000
  H   H4198     1.0  0.86278  0.22237  0.18556  1.0000
  H   H4199     1.0  0.78590  0.08518  0.18090  1.0000
  S   S560      1.0  0.85661  0.07769  0.99402  1.0000
  H   H4200     1.0  0.87200  0.16920  0.99812  1.0000
  H   H4201     1.0  0.70940  0.07368  0.01369  1.0000
  H   H4202     1.0  0.96956  0.01636  0.42916  1.0000
  C   C2399     1.0  0.93506  0.18922  0.28799  1.0000
  C   C2400     1.0  0.92379  0.06386  0.23693  1.0000
  H   H4203     1.0  0.91538  0.07186  0.24852  1.0000
  H   H4204     1.0  0.91234  0.05501  0.19630  1.0000
  H   H4205     1.0  0.91766  0.21469  0.17568  1.0000
  H   H4206     1.0  0.88221  0.19443  0.19200  1.0000
  H   H4207     1.0  0.78144  0.10200  0.20503  1.0000
  H   H4208     1.0  0.88755  0.18843  0.31258  1.0000
  N   N133      1.0  0.91378  0.06899  0.21960  1.0000
  H   H4209     1.0  0.79815  0.13759  0.20575  1.0000
  H   H4210     1.0  0.70222  0.98813  0.40607  1.0000
  H   H4211     1.0  0.99000  0.21221  0.32467  1.0000
  Fe  Fe284     1.0  0.98863  0.11989  0.37656  1.0000
  H   H4212     1.0  0.99101  0.15520  0.28954  1.0000
  H   H4213     1.0  0.67269  0.07858  0.04467  1.0000
  H   H4214     1.0  0.88994  0.00139  0.07750  1.0000
  H   H4215     1.0  0.85289  0.02513  0.07681  1.0000
  C   C2401     1.0  0.71544  0.16555  0.13787  1.0000
  C   C2402     1.0  0.66885  0.21349  0.10327  1.0000
  H   H4216     1.0  0.98201  0.20357  0.41843  1.0000
  H   H4217     1.0  0.88160  0.13492  0.01195  1.0000
  H   H4218     1.0  0.86266  0.16234  0.97960  1.0000
  C   C2403     1.0  0.97967  0.15213  0.30225  1.0000
  H   H4219     1.0  0.94411  0.01498  0.14425  1.0000
  H   H4220     1.0  0.86777  0.04513  0.41176  1.0000
  H   H4221     1.0  0.68328  0.22373  0.07477  1.0000
  H   H4222     1.0  0.74507  0.12009  0.99570  1.0000
  C   C2404     1.0  0.97654  0.20644  0.32620  1.0000
  H   H4223     1.0  0.87522  0.00674  0.05944  1.0000
  C   C2405     1.0  0.86493  0.00871  0.20701  1.0000
  C   C2406     1.0  0.97018  0.21569  0.42192  1.0000
  H   H4224     1.0  0.95204  0.99226  0.42466  1.0000
  H   H4225     1.0  0.94841  0.01484  0.44762  1.0000
  C   C2407     1.0  0.91881  0.18257  0.30430  1.0000
  H   H4226     1.0  0.94609  0.20592  0.30952  1.0000
  C   C2408     1.0  0.86563  0.15793  0.99456  1.0000
  N   N134      1.0  0.91402  0.99925  0.41517  1.0000
  H   H4227     1.0  0.90032  0.06717  0.98682  1.0000
  H   H4228     1.0  0.79297  0.11831  0.17210  1.0000
  C   C2409     1.0  0.86984  0.04287  0.24349  1.0000
  H   H4229     1.0  0.90185  0.00596  0.03130  1.0000
  H   H4230     1.0  0.71467  0.21704  0.17893  1.0000
  C   C2410     1.0  0.94835  0.07537  0.36747  1.0000
  H   H4231     1.0  0.86430  0.00128  0.10423  1.0000
  H   H4232     1.0  0.88109  0.18986  0.22635  1.0000
  H   H4233     1.0  0.90508  0.15038  0.98723  1.0000
  H   H4234     1.0  0.90597  0.09284  0.19731  1.0000
  C   C2411     1.0  0.94043  0.06199  0.18969  1.0000
  N   N135      1.0  0.91308  0.12081  0.98247  1.0000
  C   C2412     1.0  0.95707  0.19260  0.30864  1.0000
  H   H4235     1.0  0.86163  0.01448  0.19231  1.0000
  H   H4236     1.0  0.86839  0.04707  0.25773  1.0000
  H   H4237     1.0  0.90782  0.19985  0.23689  1.0000
  H   H4238     1.0  0.95241  0.21175  0.25557  1.0000
  C   C2413     1.0  0.98181  0.21631  0.24949  1.0000
  H   H4239     1.0  0.69740  0.19302  0.13088  1.0000
  H   H4240     1.0  0.88673  0.07273  0.23972  1.0000
  C   C2414     1.0  0.83997  0.99886  0.33153  1.0000
  C   C2415     1.0  0.90837  0.09883  0.01640  1.0000
  H   H4241     1.0  0.95129  0.06646  0.19578  1.0000
  H   H4242     1.0  0.89840  0.12849  0.19906  1.0000
  C   C2416     1.0  0.96907  0.18878  0.27388  1.0000
  H   H4243     1.0  0.97768  0.23134  0.24210  1.0000
  C   C2417     1.0  0.91445  0.09519  0.03612  1.0000
  C   C2418     1.0  0.93646  0.99134  0.23606  1.0000
  S   S561      1.0  0.96804  0.09873  0.37876  1.0000
  H   H4244     1.0  0.83022  0.00184  0.18128  1.0000
  C   C2419     1.0  0.70323  0.18418  0.14362  1.0000
  H   H4245     1.0  0.91249  0.18017  0.20606  1.0000
  H   H4246     1.0  0.93912  0.07597  0.38134  1.0000
  C   C2420     1.0  0.90306  0.10492  0.22300  1.0000
  H   H4247     1.0  0.85166  0.15676  0.00450  1.0000
  H   H4248     1.0  0.67616  0.12103  0.08069  1.0000
  H   H4249     1.0  0.91959  0.12553  0.00892  1.0000
  C   C2421     1.0  0.89503  0.01082  0.41010  1.0000
  H   H4250     1.0  0.89261  0.10402  0.01833  1.0000
  C   C2422     1.0  0.91134  0.17891  0.19130  1.0000
  H   H4251     1.0  0.74669  0.15445  0.98544  1.0000
  H   H4252     1.0  0.79852  0.06765  0.15544  1.0000
  S   S562      1.0  0.84795  0.02742  0.14939  1.0000
  H   H4253     1.0  0.77877  0.12823  0.22278  1.0000
  H   H4254     1.0  0.98175  0.01838  0.05536  1.0000
  H   H4255     1.0  0.77559  0.13790  0.19820  1.0000
  H   H4256     1.0  0.84487  0.98913  0.10674  1.0000
  C   C2423     1.0  0.74870  0.22904  0.17131  1.0000
  H   H4257     1.0  0.93032  0.09018  0.03497  1.0000
  H   H4258     1.0  0.91019  0.10850  0.04253  1.0000
  H   H4259     1.0  0.90708  0.08390  0.04601  1.0000
  C   C2424     1.0  0.85562  0.16177  0.31456  1.0000
  C   C2425     1.0  0.96436  0.21006  0.26374  1.0000
  N   N136      1.0  0.70661  0.21634  0.15191  1.0000
  C   C2426     1.0  0.91971  0.11330  0.00169  1.0000
  S   S563      1.0  0.90040  0.00736  0.27402  1.0000
  H   H4260     1.0  0.92775  0.04106  0.21258  1.0000
  C   C2427     1.0  0.67363  0.22773  0.08754  1.0000
  S   S564      1.0  0.89376  0.21564  0.34368  1.0000
  C   C2428     1.0  0.71511  0.19536  0.15160  1.0000
  H   H4261     1.0  0.91276  0.17884  0.36084  1.0000
  C   C2429     1.0  0.66398  0.06409  0.02571  1.0000
  H   H4262     1.0  0.97874  0.12395  0.29615  1.0000
  C   C2430     1.0  0.84330  0.01516  0.08561  1.0000
  H   H4263     1.0  0.91879  0.99402  0.15315  1.0000
  H   H4264     1.0  0.74313  0.23137  0.14298  1.0000
  C   C2431     1.0  0.89883  0.19338  0.30056  1.0000
  H   H4265     1.0  0.89610  0.19330  0.16841  1.0000
  C   C2432     1.0  0.82906  0.02604  0.10029  1.0000
  H   H4266     1.0  0.94751  0.99847  0.12785  1.0000
  C   C2433     1.0  0.85608  0.22977  0.24390  1.0000
  H   H4267     1.0  0.89179  0.10211  0.98710  1.0000
  H   H4268     1.0  0.95953  0.22006  0.27426  1.0000
  H   H4269     1.0  0.92277  0.98708  0.03264  1.0000
  H   H4270     1.0  0.93504  0.07440  0.17904  1.0000
  S   S565      1.0  0.67593  0.18886  0.10214  1.0000
  H   H4271     1.0  0.96902  0.17968  0.26319  1.0000
  H   H4272     1.0  0.84358  0.17193  0.32144  1.0000
  H   H4273     1.0  0.89740  0.02429  0.39978  1.0000
  H   H4274     1.0  0.97973  0.21022  0.29577  1.0000
  C   C2434     1.0  0.88256  0.99462  0.06919  1.0000
  H   H4275     1.0  0.67418  0.06925  0.01272  1.0000
  H   H4276     1.0  0.83478  0.01169  0.07605  1.0000
  H   H4277     1.0  0.89782  0.20907  0.29979  1.0000
  H   H4278     1.0  0.93393  0.15351  0.34531  1.0000
  H   H4279     1.0  0.98429  0.18574  0.27623  1.0000
  C   C2435     1.0  0.97675  0.19859  0.30813  1.0000
  H   H4280     1.0  0.96224  0.05073  0.16712  1.0000
  C   C2436     1.0  0.68588  0.21744  0.16234  1.0000
  C   C2437     1.0  0.90337  0.22216  0.12036  1.0000
  C   C2438     1.0  0.86968  0.99554  0.37793  1.0000
  H   H4281     1.0  0.82124  0.03954  0.09271  1.0000
  H   H4282     1.0  0.81826  0.01715  0.10877  1.0000
  H   H4283     1.0  0.83681  0.02992  0.11031  1.0000
  H   H4284     1.0  0.73004  0.19357  0.14323  1.0000
  H   H4285     1.0  0.98095  0.98447  0.05219  1.0000
  C   C2439     1.0  0.90218  0.21521  0.18253  1.0000
  H   H4286     1.0  0.91576  0.99156  0.11983  1.0000
  H   H4287     1.0  0.89553  0.20989  0.12284  1.0000
  H   H4288     1.0  0.72205  0.15642  0.15008  1.0000
  H   H4289     1.0  0.93130  0.20518  0.28453  1.0000
  H   H4290     1.0  0.72171  0.20835  0.11237  1.0000
  H   H4291     1.0  0.90072  0.03551  0.24003  1.0000
  H   H4292     1.0  0.98813  0.09181  0.34010  1.0000
  H   H4293     1.0  0.85126  0.03541  0.43219  1.0000
  H   H4294     1.0  0.89119  0.03898  0.21835  1.0000
  H   H4295     1.0  0.91742  0.00448  0.04842  1.0000
  H   H4296     1.0  0.91896  0.16707  0.30493  1.0000
  H   H4297     1.0  0.90182  0.21615  0.19777  1.0000
  H   H4298     1.0  0.88852  0.00258  0.40259  1.0000
  C   C2440     1.0  0.95917  0.16153  0.29800  1.0000
  C   C2441     1.0  0.97230  0.07322  0.33193  1.0000
  H   H4299     1.0  0.85832  0.05192  0.23577  1.0000
  C   C2442     1.0  0.89336  0.20821  0.23894  1.0000
  C   C2443     1.0  0.94504  0.06683  0.23348  1.0000
  H   H4300     1.0  0.96609  0.21414  0.43781  1.0000
  H   H4301     1.0  0.89748  0.13581  0.22173  1.0000
  H   H4302     1.0  0.87857  0.21974  0.15405  1.0000
  H   H4303     1.0  0.89591  0.19086  0.28685  1.0000
  H   H4304     1.0  0.72709  0.16883  0.12551  1.0000
  C   C2444     1.0  0.92476  0.22277  0.35626  1.0000
  C   C2445     1.0  0.78613  0.12957  0.20752  1.0000
  H   H4305     1.0  0.98254  0.15733  0.31456  1.0000
  H   H4306     1.0  0.95155  0.04972  0.26090  1.0000
  C   C2446     1.0  0.79267  0.04570  0.17999  1.0000
  H   H4307     1.0  0.94034  0.04089  0.17207  1.0000
  H   H4308     1.0  0.84945  0.15346  0.30674  1.0000
  C   C2447     1.0  0.92311  0.05595  0.20504  1.0000
  H   H4309     1.0  0.91736  0.21869  0.11063  1.0000
  C   C2448     1.0  0.73962  0.22223  0.15718  1.0000
  H   H4310     1.0  0.94909  0.15694  0.31134  1.0000
  C   C2449     1.0  0.98154  0.13025  0.30786  1.0000
  C   C2450     1.0  0.95071  0.04562  0.17878  1.0000
  C   C2451     1.0  0.91332  0.08978  0.21011  1.0000
  H   H4311     1.0  0.85166  0.00441  0.21651  1.0000
  N   N137      1.0  0.78172  0.09958  0.03645  1.0000
  C   C2452     1.0  0.77177  0.09835  0.05719  1.0000
  C   C2453     1.0  0.79101  0.11743  0.02998  1.0000
  C   C2454     1.0  0.76624  0.10170  0.02443  1.0000
  C   C2455     1.0  0.79627  0.08164  0.03300  1.0000
  C   C2456     1.0  0.81124  0.07435  0.04672  1.0000
  C   C2457     1.0  0.76130  0.08094  0.06578  1.0000
  C   C2458     1.0  0.77316  0.10448  0.00232  1.0000
  C   C2459     1.0  0.80014  0.12378  0.04481  1.0000
  C   C2460     1.0  0.80915  0.14169  0.03581  1.0000
  C   C2461     1.0  0.82289  0.05459  0.04351  1.0000
  C   C2462     1.0  0.75308  0.08080  0.08714  1.0000
  C   C2463     1.0  0.89880  0.13947  0.98292  1.0000
  H   H4312     1.0  0.76077  0.11157  0.05889  1.0000
  H   H4313     1.0  0.78209  0.09802  0.06679  1.0000
  H   H4314     1.0  0.80238  0.11590  0.01698  1.0000
  H   H4315     1.0  0.78009  0.13021  0.02538  1.0000
  H   H4316     1.0  0.75460  0.11419  0.02750  1.0000
  H   H4317     1.0  0.75907  0.08889  0.02814  1.0000
  H   H4318     1.0  0.78865  0.06958  0.03350  1.0000
  H   H4319     1.0  0.80488  0.08383  0.01819  1.0000
  H   H4320     1.0  0.80441  0.07290  0.06209  1.0000
  H   H4321     1.0  0.82171  0.08422  0.04379  1.0000
  H   H4322     1.0  0.74889  0.08167  0.05860  1.0000
  H   H4323     1.0  0.77132  0.06712  0.06439  1.0000
  H   H4324     1.0  0.78348  0.09165  0.99812  1.0000
  H   H4325     1.0  0.78039  0.11717  0.99717  1.0000
  H   H4326     1.0  0.78902  0.12765  0.05724  1.0000
  H   H4327     1.0  0.81145  0.11238  0.05048  1.0000
  H   H4328     1.0  0.82025  0.13910  0.02292  1.0000
  H   H4329     1.0  0.79778  0.15406  0.03160  1.0000
  H   H4330     1.0  0.81614  0.14553  0.04647  1.0000
  H   H4331     1.0  0.83010  0.05510  0.02824  1.0000
  H   H4332     1.0  0.83425  0.05026  0.05268  1.0000
  H   H4333     1.0  0.81333  0.04363  0.04739  1.0000
  H   H4334     1.0  0.74543  0.06840  0.09298  1.0000
  H   H4335     1.0  0.76486  0.07949  0.09541  1.0000
  H   H4336     1.0  0.74254  0.09426  0.08913  1.0000
  H   H4337     1.0  0.94232  0.13963  0.98506  1.0000
  H   H4338     1.0  0.93350  0.00436  0.17859  1.0000
  H   H4339     1.0  0.87183  0.12783  0.99386  1.0000
  N   N138      1.0  0.81468  0.09237  0.17441  1.0000
  C   C2464     1.0  0.81930  0.09641  0.15266  1.0000
  C   C2465     1.0  0.80120  0.07784  0.18118  1.0000
  C   C2466     1.0  0.80426  0.11101  0.18100  1.0000
  C   C2467     1.0  0.83281  0.08585  0.18322  1.0000
  C   C2468     1.0  0.84582  0.06691  0.17826  1.0000
  C   C2469     1.0  0.83280  0.11133  0.14353  1.0000
  C   C2470     1.0  0.79395  0.10954  0.20235  1.0000
  C   C2471     1.0  0.80391  0.06164  0.16923  1.0000
  C   C2472     1.0  0.86528  0.06372  0.18489  1.0000
  C   C2473     1.0  0.83460  0.11569  0.12160  1.0000
  C   C2474     1.0  0.88988  0.04479  0.23171  1.0000
  H   H4340     1.0  0.80559  0.10134  0.14673  1.0000
  H   H4341     1.0  0.82632  0.08319  0.14668  1.0000
  H   H4342     1.0  0.80189  0.07111  0.19648  1.0000
  H   H4343     1.0  0.81452  0.12112  0.17897  1.0000
  H   H4344     1.0  0.84176  0.09740  0.17943  1.0000
  H   H4345     1.0  0.82916  0.08361  0.19918  1.0000
  H   H4346     1.0  0.84886  0.06688  0.16262  1.0000
  H   H4347     1.0  0.83870  0.05448  0.18577  1.0000
  H   H4348     1.0  0.82733  0.12521  0.14864  1.0000
  H   H4349     1.0  0.84752  0.10567  0.14699  1.0000
  H   H4350     1.0  0.80384  0.10165  0.21239  1.0000
  H   H4351     1.0  0.94686  0.08137  0.22544  1.0000
  H   H4352     1.0  0.81919  0.05496  0.16568  1.0000
  H   H4353     1.0  0.87318  0.07574  0.17785  1.0000
  H   H4354     1.0  0.86296  0.06263  0.20072  1.0000
  H   H4355     1.0  0.87433  0.05013  0.18095  1.0000
  H   H4356     1.0  0.82043  0.12283  0.11737  1.0000
  H   H4357     1.0  0.84518  0.12552  0.11537  1.0000
  H   H4358     1.0  0.83975  0.10233  0.11535  1.0000
  H   H4359     1.0  0.93508  0.10581  0.99968  1.0000
  H   H4360     1.0  0.92072  0.18486  0.31847  1.0000
  N   N139      1.0  0.89621  0.12114  0.33404  1.0000
  C   C2475     1.0  0.91043  0.10719  0.32270  1.0000
  C   C2476     1.0  0.88374  0.10986  0.35009  1.0000
  C   C2477     1.0  0.88304  0.13380  0.32076  1.0000
  C   C2478     1.0  0.90588  0.13381  0.34187  1.0000
  C   C2479     1.0  0.92658  0.12548  0.34633  1.0000
  C   C2480     1.0  0.92139  0.11630  0.30311  1.0000
  C   C2481     1.0  0.86611  0.14819  0.32996  1.0000
  C   C2482     1.0  0.89433  0.09516  0.36512  1.0000
  C   C2483     1.0  0.88040  0.08332  0.37926  1.0000
  C   C2484     1.0  0.93393  0.13943  0.35509  1.0000
  C   C2485     1.0  0.93916  0.10226  0.29565  1.0000
  H   H4361     1.0  0.90284  0.09663  0.31947  1.0000
  H   H4362     1.0  0.92130  0.09817  0.33125  1.0000
  H   H4363     1.0  0.87286  0.11965  0.35860  1.0000
  H   H4364     1.0  0.87539  0.10199  0.34388  1.0000
  H   H4365     1.0  0.87656  0.12482  0.31396  1.0000
  H   H4366     1.0  0.89145  0.14265  0.30871  1.0000
  H   H4367     1.0  0.90709  0.14753  0.33168  1.0000
  H   H4368     1.0  0.89665  0.13832  0.35520  1.0000
  H   H4369     1.0  0.93701  0.12292  0.33304  1.0000
  H   H4370     1.0  0.92704  0.11169  0.35647  1.0000
  H   H4371     1.0  0.91169  0.12004  0.29221  1.0000
  H   H4372     1.0  0.92610  0.12963  0.30422  1.0000
  H   H4373     1.0  0.87141  0.15704  0.33791  1.0000
  H   H4374     1.0  0.85516  0.14045  0.34000  1.0000
  H   H4375     1.0  0.90606  0.08488  0.35824  1.0000
  H   H4376     1.0  0.90037  0.10278  0.37367  1.0000
  H   H4377     1.0  0.88838  0.07294  0.38986  1.0000
  H   H4378     1.0  0.86853  0.09282  0.38718  1.0000
  H   H4379     1.0  0.87407  0.07504  0.37156  1.0000
  H   H4380     1.0  0.94902  0.13352  0.35736  1.0000
  H   H4381     1.0  0.70617  0.15737  0.13343  1.0000
  H   H4382     1.0  0.92485  0.14152  0.36924  1.0000
  H   H4383     1.0  0.93498  0.08855  0.29476  1.0000
  H   H4384     1.0  0.94596  0.10864  0.28107  1.0000
  H   H4385     1.0  0.94999  0.09913  0.30535  1.0000
  C   C2486     1.0  0.85477  0.00292  0.15821  1.0000
  H   H4386     1.0  0.71676  0.18760  0.16642  1.0000
  H   H4387     1.0  0.92809  0.09290  0.20422  1.0000
  C   C2487     1.0  0.95219  0.06444  0.25251  1.0000
  H   H4388     1.0  0.90924  0.00265  0.22634  1.0000
  H   H4389     1.0  0.86563  0.17028  0.30403  1.0000
  C   C2488     1.0  0.87829  0.20259  0.23281  1.0000
  H   H4390     1.0  0.88737  0.10439  0.22723  1.0000
  H   H4391     1.0  0.94841  0.03485  0.42761  1.0000
  H   H4392     1.0  0.74666  0.20709  0.15665  1.0000
  H   H4393     1.0  0.95337  0.18323  0.32282  1.0000
  H   H4394     1.0  0.69313  0.22848  0.12665  1.0000
  H   H4395     1.0  0.95626  0.15475  0.28662  1.0000
  H   H4396     1.0  0.67833  0.14144  0.06139  1.0000
  H   H4397     1.0  0.73504  0.23181  0.08588  1.0000
  H   H4398     1.0  0.67707  0.21234  0.15410  1.0000
  H   H4399     1.0  0.85257  0.98899  0.05878  1.0000
  C   C2489     1.0  0.87170  0.99249  0.14926  1.0000
  H   H4400     1.0  0.89515  0.99840  0.17758  1.0000
  C   C2490     1.0  0.89939  0.99614  0.19196  1.0000
  H   H4401     1.0  0.66272  0.10219  0.06249  1.0000
  C   C2491     1.0  0.72341  0.22205  0.11581  1.0000
  H   H4402     1.0  0.84200  0.01137  0.31982  1.0000
  H   H4403     1.0  0.96409  0.21837  0.32831  1.0000
  C   C2492     1.0  0.95347  0.01916  0.43195  1.0000
  H   H4404     1.0  0.94067  0.98504  0.39950  1.0000
  Fe  Fe285     1.0  0.98573  0.16146  0.38158  1.0000
  H   H4405     1.0  0.68522  0.20764  0.17657  1.0000
  H   H4406     1.0  0.93543  0.00436  0.24237  1.0000
  C   C2493     1.0  0.92414  0.99611  0.22025  1.0000
  H   H4407     1.0  0.67002  0.11923  0.04244  1.0000
  C   C2494     1.0  0.70668  0.22833  0.13197  1.0000
  H   H4408     1.0  0.91949  0.02717  0.41723  1.0000
  H   H4409     1.0  0.73782  0.21973  0.11990  1.0000
  H   H4410     1.0  0.95914  0.99889  0.36890  1.0000
  H   H4411     1.0  0.66326  0.14465  0.08422  1.0000
  H   H4412     1.0  0.91511  0.01307  0.37284  1.0000
  C   C2495     1.0  0.92855  0.00899  0.37921  1.0000
  C   C2496     1.0  0.94784  0.99951  0.14290  1.0000
  H   H4413     1.0  0.93139  0.02208  0.38309  1.0000
  H   H4414     1.0  0.98185  0.07219  0.31828  1.0000
  H   H4415     1.0  0.96277  0.99367  0.14579  1.0000
  C   C2497     1.0  0.85530  0.99671  0.09574  1.0000
  C   C2498     1.0  0.94513  0.00236  0.36361  1.0000
  H   H4416     1.0  0.66232  0.10381  0.01925  1.0000
  H   H4417     1.0  0.87304  0.00429  0.43564  1.0000
  H   H4418     1.0  0.95222  0.01203  0.40502  1.0000
  H   H4419     1.0  0.97127  0.12634  0.32128  1.0000
  C   C2499     1.0  0.71740  0.22416  0.16355  1.0000
  H   H4420     1.0  0.95189  0.98642  0.23011  1.0000
  S   S566      1.0  0.98749  0.14809  0.35578  1.0000
  H   H4421     1.0  0.98906  0.18646  0.30696  1.0000
  H   H4422     1.0  0.76459  0.22776  0.16621  1.0000
  H   H4423     1.0  0.84336  0.99838  0.39883  1.0000
  H   H4424     1.0  0.74632  0.21996  0.18580  1.0000
  C   C2500     1.0  0.94606  0.00766  0.42040  1.0000
  H   H4425     1.0  0.92897  0.08310  0.98083  1.0000
  C   C2501     1.0  0.92357  0.01166  0.42345  1.0000
  H   H4426     1.0  0.91803  0.01068  0.43919  1.0000
  C   C2502     1.0  0.93160  0.98725  0.09183  1.0000
  S   S567      1.0  0.98496  0.13377  0.40285  1.0000
  C   C2503     1.0  0.88135  0.99131  0.20688  1.0000
  H   H4427     1.0  0.84185  0.00257  0.34512  1.0000
  H   H4428     1.0  0.94253  0.98951  0.35903  1.0000
  H   H4429     1.0  0.67091  0.04978  0.03265  1.0000
  C   C2504     1.0  0.93373  0.98904  0.17801  1.0000
  H   H4430     1.0  0.88458  0.98681  0.22164  1.0000
  H   H4431     1.0  0.89709  0.98841  0.35975  1.0000
  C   C2505     1.0  0.85682  0.98907  0.39441  1.0000
  N   N140      1.0  0.88964  0.23266  0.17307  1.0000
  S   S568      1.0  0.90942  0.23213  0.25389  1.0000
  C   C2506     1.0  0.88784  0.23058  0.15319  1.0000
  H   H4432     1.0  0.90016  0.98596  0.44308  1.0000
  S   S569      1.0  0.69573  0.09549  0.98019  1.0000
  H   H4433     1.0  0.86939  0.98490  0.32477  1.0000
  H   H4434     1.0  0.80424  0.16596  0.97893  1.0000
  H   H4435     1.0  0.73484  0.11578  0.95477  1.0000
  C   C2507     1.0  0.95376  0.21501  0.79229  1.0000
  C   C2508     1.0  0.88953  0.22123  0.89788  1.0000
  Fe  Fe286     1.0  0.85687  0.13755  0.94237  1.0000
  S   S570      1.0  0.86724  0.10595  0.94271  1.0000
  S   S571      1.0  0.87618  0.16011  0.93395  1.0000
  Fe  Fe287     1.0  0.84145  0.10737  0.92926  1.0000
  S   S572      1.0  0.84377  0.08942  0.90672  1.0000
  H   H4436     1.0  0.70082  0.09731  0.80042  1.0000
  S   S573      1.0  0.83253  0.13935  0.92654  1.0000
  Fe  Fe288     1.0  0.74275  0.17301  0.81914  1.0000
  S   S574      1.0  0.74205  0.19835  0.83319  1.0000
  S   S575      1.0  0.71941  0.17549  0.80113  1.0000
  Fe  Fe289     1.0  0.77617  0.14945  0.83827  1.0000
  S   S576      1.0  0.77792  0.17232  0.85422  1.0000
  S   S577      1.0  0.79467  0.12009  0.83972  1.0000
  Fe  Fe290     1.0  0.74545  0.17617  0.85977  1.0000
  S   S578      1.0  0.72840  0.18131  0.88869  1.0000
  Fe  Fe291     1.0  0.77467  0.19258  0.82649  1.0000
  C   C2509     1.0  0.70111  0.06068  0.77945  1.0000
  S   S579      1.0  0.74394  0.15141  0.84636  1.0000
  S   S580      1.0  0.77511  0.16924  0.80982  1.0000
  N   N141      1.0  0.76113  0.11473  0.91716  1.0000
  H   H4437     1.0  0.96570  0.09633  0.93327  1.0000
  H   H4438     1.0  0.75476  0.15656  0.91563  1.0000
  H   H4439     1.0  0.89748  0.11360  0.96314  1.0000
  H   H4440     1.0  0.83704  0.16282  0.88691  1.0000
  H   H4441     1.0  0.66698  0.03859  0.85881  1.0000
  S   S581      1.0  0.82203  0.10070  0.95748  1.0000
  S   S582      1.0  0.96494  0.13277  0.90255  1.0000
  H   H4442     1.0  0.97174  0.05457  0.63840  1.0000
  C   C2510     1.0  0.74446  0.19271  0.75219  1.0000
  H   H4443     1.0  0.94658  0.20670  0.92805  1.0000
  H   H4444     1.0  0.86240  0.16368  0.85774  1.0000
  H   H4445     1.0  0.68081  0.03345  0.73960  1.0000
  C   C2511     1.0  0.78933  0.16894  0.71947  1.0000
  Fe  Fe292     1.0  0.67436  0.11942  0.74470  1.0000
  S   S583      1.0  0.70361  0.11687  0.75371  1.0000
  H   H4446     1.0  0.73068  0.11268  0.92344  1.0000
  H   H4447     1.0  0.77555  0.12888  0.93233  1.0000
  H   H4448     1.0  0.89410  0.21059  0.79856  1.0000
  H   H4449     1.0  0.86372  0.18110  0.88418  1.0000
  H   H4450     1.0  0.75768  0.08130  0.90327  1.0000
  C   C2512     1.0  0.96811  0.22552  0.92494  1.0000
  H   H4451     1.0  0.73816  0.20196  0.96095  1.0000
  C   C2513     1.0  0.67940  0.99075  0.59674  1.0000
  H   H4452     1.0  0.95306  0.21336  0.83983  1.0000
  H   H4453     1.0  0.78039  0.21624  0.90011  1.0000
  H   H4454     1.0  0.96734  0.15218  0.95948  1.0000
  H   H4455     1.0  0.98326  0.22476  0.91736  1.0000
  C   C2514     1.0  0.76401  0.11091  0.89688  1.0000
  H   H4456     1.0  0.71084  0.14498  0.96072  1.0000
  H   H4457     1.0  0.76692  0.19445  0.71843  1.0000
  H   H4458     1.0  0.67343  0.02077  0.58287  1.0000
  Fe  Fe293     1.0  0.98601  0.17732  0.84198  1.0000
  H   H4459     1.0  0.89774  0.12397  0.92297  1.0000
  H   H4460     1.0  0.84841  0.18515  0.84631  1.0000
  H   H4461     1.0  0.99195  0.05972  0.87109  1.0000
  C   C2515     1.0  0.71456  0.15813  0.78950  1.0000
  C   C2516     1.0  0.72643  0.14011  0.78890  1.0000
  C   C2517     1.0  0.72278  0.12747  0.77811  1.0000
  C   C2518     1.0  0.70701  0.13254  0.76819  1.0000
  C   C2519     1.0  0.69484  0.15034  0.76933  1.0000
  C   C2520     1.0  0.69866  0.16306  0.77982  1.0000
  H   H4462     1.0  0.73858  0.13602  0.79647  1.0000
  H   H4463     1.0  0.73228  0.11373  0.77737  1.0000
  H   H4464     1.0  0.68282  0.15461  0.76159  1.0000
  H   H4465     1.0  0.68940  0.17698  0.78016  1.0000
  H   H4466     1.0  0.68952  0.13749  0.84504  1.0000
  C   C2521     1.0  0.90763  0.07175  0.97186  1.0000
  H   H4467     1.0  0.96371  0.20778  0.90563  1.0000
  H   H4468     1.0  0.98465  0.05513  0.92697  1.0000
  C   C2522     1.0  0.91696  0.18101  0.84991  1.0000
  H   H4469     1.0  0.87635  0.19722  0.89860  1.0000
  H   H4470     1.0  0.67873  0.17760  0.66807  1.0000
  C   C2523     1.0  0.90409  0.10661  0.97613  1.0000
  H   H4471     1.0  0.71874  0.18899  0.94443  1.0000
  H   H4472     1.0  0.82720  0.16356  0.86574  1.0000
  C   C2524     1.0  0.70635  0.17269  0.89563  1.0000
  C   C2525     1.0  0.70472  0.15458  0.89262  1.0000
  C   C2526     1.0  0.68701  0.14788  0.89898  1.0000
  H   H4473     1.0  0.80865  0.18942  0.70573  1.0000
  H   H4474     1.0  0.69987  0.18855  0.66435  1.0000
  C   C2527     1.0  0.69027  0.18401  0.90495  1.0000
  H   H4475     1.0  0.71712  0.14570  0.88553  1.0000
  H   H4476     1.0  0.68575  0.13393  0.89665  1.0000
  C   C2528     1.0  0.74013  0.12311  0.92320  1.0000
  H   H4477     1.0  0.69147  0.19794  0.90742  1.0000
  C   C2529     1.0  0.90065  0.15270  0.92416  1.0000
  C   C2530     1.0  0.90754  0.13399  0.92048  1.0000
  C   C2531     1.0  0.92726  0.12809  0.91361  1.0000
  C   C2532     1.0  0.94014  0.14106  0.90977  1.0000
  C   C2533     1.0  0.93323  0.15998  0.91292  1.0000
  C   C2534     1.0  0.91357  0.16567  0.92040  1.0000
  C   C2535     1.0  0.94986  0.21875  0.82550  1.0000
  H   H4478     1.0  0.94314  0.17001  0.91013  1.0000
  H   H4479     1.0  0.90838  0.18012  0.92340  1.0000
  C   C2536     1.0  0.83046  0.09872  0.88795  1.0000
  C   C2537     1.0  0.82818  0.08621  0.87654  1.0000
  C   C2538     1.0  0.81738  0.09302  0.86166  1.0000
  C   C2539     1.0  0.80873  0.11240  0.85807  1.0000
  C   C2540     1.0  0.81115  0.12503  0.86933  1.0000
  C   C2541     1.0  0.82210  0.11820  0.88422  1.0000
  H   H4480     1.0  0.83472  0.07116  0.87928  1.0000
  H   H4481     1.0  0.81562  0.08320  0.85298  1.0000
  H   H4482     1.0  0.80474  0.14001  0.86651  1.0000
  H   H4483     1.0  0.82411  0.12796  0.89277  1.0000
  H   H4484     1.0  0.75652  0.15113  0.73325  1.0000
  C   C2542     1.0  0.77416  0.12852  0.91737  1.0000
  H   H4485     1.0  0.70799  0.04657  0.77511  1.0000
  H   H4486     1.0  0.82318  0.18499  0.87608  1.0000
  H   H4487     1.0  0.78454  0.13909  0.74824  1.0000
  H   H4488     1.0  0.67248  0.05698  0.77911  1.0000
  C   C2543     1.0  0.66344  0.11318  0.86762  1.0000
  H   H4489     1.0  0.67346  0.01725  0.60831  1.0000
  H   H4490     1.0  0.67367  0.07489  0.79266  1.0000
  H   H4491     1.0  0.68273  0.22816  0.66665  1.0000
  S   S584      1.0  0.66566  0.12734  0.71511  1.0000
  C   C2544     1.0  0.95800  0.20799  0.81080  1.0000
  C   C2545     1.0  0.79106  0.06710  0.94112  1.0000
  N   N142      1.0  0.65921  0.04405  0.81992  1.0000
  H   H4492     1.0  0.67917  0.19479  0.68266  1.0000
  H   H4493     1.0  0.85059  0.20264  0.87245  1.0000
  C   C2546     1.0  0.88817  0.20414  0.88915  1.0000
  H   H4494     1.0  0.76236  0.13438  0.76327  1.0000
  H   H4495     1.0  0.89645  0.17072  0.87476  1.0000
  H   H4496     1.0  0.75451  0.10561  0.86318  1.0000
  H   H4497     1.0  0.74475  0.13745  0.94583  1.0000
  H   H4498     1.0  0.96525  0.07448  0.95079  1.0000
  H   H4499     1.0  0.71837  0.16947  0.70303  1.0000
  H   H4500     1.0  0.75652  0.16397  0.77567  1.0000
  H   H4501     1.0  0.78886  0.07981  0.91185  1.0000
  H   H4502     1.0  0.77950  0.16987  0.76443  1.0000
  H   H4503     1.0  0.68614  0.03071  0.80412  1.0000
  H   H4504     1.0  0.95530  0.23155  0.86568  1.0000
  H   H4505     1.0  0.67552  0.11897  0.87037  1.0000
  H   H4506     1.0  0.67103  0.04672  0.71863  1.0000
  H   H4507     1.0  0.78060  0.05735  0.94250  1.0000
  C   C2547     1.0  0.80713  0.22359  0.82772  1.0000
  H   H4508     1.0  0.79827  0.09364  0.92458  1.0000
  H   H4509     1.0  0.66320  0.21469  0.60120  1.0000
  H   H4510     1.0  0.73758  0.09980  0.89732  1.0000
  H   H4511     1.0  0.67196  0.07857  0.64481  1.0000
  C   C2548     1.0  0.88995  0.21925  0.82653  1.0000
  C   C2549     1.0  0.67036  0.22710  0.59367  1.0000
  H   H4512     1.0  0.80345  0.22058  0.94069  1.0000
  H   H4513     1.0  0.68137  0.00845  0.87693  1.0000
  H   H4514     1.0  0.91811  0.05922  0.96714  1.0000
  C   C2550     1.0  0.66735  0.03846  0.73335  1.0000
  H   H4515     1.0  0.79008  0.07141  0.95524  1.0000
  C   C2551     1.0  0.66951  0.16296  0.85043  1.0000
  S   S585      1.0  0.97347  0.18567  0.81481  1.0000
  H   H4516     1.0  0.66805  0.08801  0.67685  1.0000
  C   C2552     1.0  0.73467  0.12887  0.94345  1.0000
  H   H4517     1.0  0.73643  0.21657  0.93759  1.0000
  H   H4518     1.0  0.79072  0.23058  0.96825  1.0000
  H   H4519     1.0  0.70341  0.13241  0.94517  1.0000
  H   H4520     1.0  0.80594  0.05917  0.93699  1.0000
  H   H4521     1.0  0.66956  0.01208  0.72341  1.0000
  C   C2553     1.0  0.98150  0.08667  0.84192  1.0000
  C   C2554     1.0  0.93042  0.12504  0.96729  1.0000
  C   C2555     1.0  0.67286  0.02646  0.85084  1.0000
  C   C2556     1.0  0.76640  0.09649  0.93104  1.0000
  C   C2557     1.0  0.67499  0.20725  0.65324  1.0000
  H   H4522     1.0  0.89754  0.21678  0.85999  1.0000
  C   C2558     1.0  0.76643  0.22221  0.95976  1.0000
  H   H4523     1.0  0.75565  0.08685  0.93314  1.0000
  Fe  Fe294     1.0  0.66861  0.09991  0.96671  1.0000
  H   H4524     1.0  0.67606  0.12671  0.80715  1.0000
  H   H4525     1.0  0.66457  0.15632  0.86555  1.0000
  H   H4526     1.0  0.73247  0.23141  0.75679  1.0000
  H   H4527     1.0  0.69102  0.22263  0.61264  1.0000
  C   C2559     1.0  0.76532  0.19895  0.94017  1.0000
  H   H4528     1.0  0.75478  0.22256  0.90677  1.0000
  C   C2560     1.0  0.79615  0.20864  0.94014  1.0000
  H   H4529     1.0  0.83656  0.18535  0.91206  1.0000
  H   H4530     1.0  0.74098  0.17229  0.94725  1.0000
  C   C2561     1.0  0.98461  0.07089  0.92377  1.0000
  H   H4531     1.0  0.94147  0.06519  0.62559  1.0000
  C   C2562     1.0  0.67077  0.15956  0.90777  1.0000
  H   H4532     1.0  0.80134  0.18854  0.91958  1.0000
  C   C2563     1.0  0.82861  0.19162  0.92488  1.0000
  C   C2564     1.0  0.80772  0.20017  0.92226  1.0000
  S   S586      1.0  0.67302  0.10100  0.93463  1.0000
  H   H4533     1.0  0.77064  0.18619  0.95050  1.0000
  H   H4534     1.0  0.76491  0.21032  0.75559  1.0000
  C   C2565     1.0  0.67790  0.14710  0.83786  1.0000
  H   H4535     1.0  0.79859  0.19757  0.95316  1.0000
  C   C2566     1.0  0.66056  0.02647  0.83553  1.0000
  H   H4536     1.0  0.98994  0.18899  0.92303  1.0000
  H   H4537     1.0  0.69824  0.16511  0.85454  1.0000
  C   C2567     1.0  0.91824  0.08820  0.97100  1.0000
  H   H4538     1.0  0.97508  0.09622  0.86906  1.0000
  H   H4539     1.0  0.81285  0.16817  0.69502  1.0000
  H   H4540     1.0  0.90551  0.21479  0.82735  1.0000
  C   C2568     1.0  0.75206  0.20435  0.76398  1.0000
  H   H4541     1.0  0.89256  0.21610  0.91275  1.0000
  C   C2569     1.0  0.67338  0.00778  0.86554  1.0000
  H   H4542     1.0  0.73939  0.20326  0.73986  1.0000
  C   C2570     1.0  0.78703  0.08484  0.92574  1.0000
  H   H4543     1.0  0.83619  0.20290  0.92658  1.0000
  H   H4544     1.0  0.82899  0.17998  0.93770  1.0000
  H   H4545     1.0  0.92118  0.19296  0.85456  1.0000
  S   S587      1.0  0.83845  0.13365  0.97189  1.0000
  H   H4546     1.0  0.69613  0.01381  0.59191  1.0000
  H   H4547     1.0  0.72567  0.18738  0.72526  1.0000
  H   H4548     1.0  0.76555  0.09989  0.94556  1.0000
  C   C2571     1.0  0.89616  0.17794  0.85953  1.0000
  N   N143      1.0  0.75858  0.17575  0.74525  1.0000
  H   H4549     1.0  0.69543  0.10518  0.84170  1.0000
  C   C2572     1.0  0.96600  0.08058  0.93523  1.0000
  H   H4550     1.0  0.89555  0.14566  0.96818  1.0000
  C   C2573     1.0  0.78389  0.16140  0.90576  1.0000
  H   H4551     1.0  0.89664  0.07623  0.96226  1.0000
  H   H4552     1.0  0.79056  0.11664  0.77785  1.0000
  C   C2574     1.0  0.67396  0.12050  0.82284  1.0000
  H   H4553     1.0  0.98999  0.04330  0.58773  1.0000
  H   H4554     1.0  0.79833  0.13884  0.77764  1.0000
  H   H4555     1.0  0.94172  0.11187  0.96663  1.0000
  S   S588      1.0  0.78351  0.14517  0.96212  1.0000
  C   C2575     1.0  0.76867  0.22765  0.90518  1.0000
  H   H4556     1.0  0.90132  0.22869  0.88922  1.0000
  H   H4557     1.0  0.75077  0.08107  0.87131  1.0000
  H   H4558     1.0  0.68860  0.18345  0.83611  1.0000
  H   H4559     1.0  0.66487  0.02481  0.78739  1.0000
  C   C2576     1.0  0.94050  0.14110  0.96991  1.0000
  C   C2577     1.0  0.68382  0.19112  0.66799  1.0000
  C   C2578     1.0  0.76740  0.16363  0.76217  1.0000
  H   H4560     1.0  0.67878  0.20229  0.63915  1.0000
  C   C2579     1.0  0.75352  0.09531  0.89402  1.0000
  C   C2580     1.0  0.96181  0.20756  0.92133  1.0000
  H   H4561     1.0  0.66483  0.10931  0.82473  1.0000
  H   H4562     1.0  0.69818  0.22328  0.64508  1.0000
  C   C2581     1.0  0.68017  0.06027  0.78949  1.0000
  C   C2582     1.0  0.98561  0.07832  0.90182  1.0000
  H   H4563     1.0  0.68551  0.15387  0.82376  1.0000
  H   H4564     1.0  0.92626  0.12921  0.95277  1.0000
  C   C2583     1.0  0.72580  0.16161  0.71518  1.0000
  H   H4565     1.0  0.97339  0.04547  0.61691  1.0000
  C   C2584     1.0  0.74288  0.20238  0.94519  1.0000
  H   H4566     1.0  0.78201  0.19189  0.73549  1.0000
  H   H4567     1.0  0.77445  0.08680  0.86928  1.0000
  H   H4568     1.0  0.68080  0.99527  0.85846  1.0000
  C   C2585     1.0  0.97280  0.05870  0.62256  1.0000
  C   C2586     1.0  0.98818  0.09040  0.85935  1.0000
  C   C2587     1.0  0.75865  0.09204  0.87316  1.0000
  C   C2588     1.0  0.88793  0.22355  0.80531  1.0000
  H   H4569     1.0  0.94648  0.16528  0.84738  1.0000
  Fe  Fe295     1.0  0.98205  0.15371  0.88202  1.0000
  H   H4570     1.0  0.96887  0.22355  0.94052  1.0000
  H   H4571     1.0  0.78689  0.16124  0.92025  1.0000
  H   H4572     1.0  0.98123  0.09425  0.89960  1.0000
  H   H4573     1.0  0.66331  0.06565  0.83479  1.0000
  H   H4574     1.0  0.66717  0.01332  0.82918  1.0000
  S   S589      1.0  0.97169  0.18485  0.87082  1.0000
  H   H4575     1.0  0.79743  0.15557  0.89663  1.0000
  C   C2589     1.0  0.73661  0.17492  0.72110  1.0000
  H   H4576     1.0  0.74226  0.22907  0.77841  1.0000
  H   H4577     1.0  0.86249  0.21147  0.83788  1.0000
  H   H4578     1.0  0.97278  0.18750  0.94542  1.0000
  H   H4579     1.0  0.70967  0.06413  0.78901  1.0000
  C   C2590     1.0  0.77382  0.18370  0.72961  1.0000
  H   H4580     1.0  0.73551  0.13583  0.91239  1.0000
  C   C2591     1.0  0.76823  0.14953  0.90732  1.0000
  C   C2592     1.0  0.78551  0.13219  0.77845  1.0000
  S   S590      1.0  0.79400  0.21521  0.81380  1.0000
  H   H4581     1.0  0.76706  0.20967  0.97178  1.0000
  C   C2593     1.0  0.71430  0.14084  0.94627  1.0000
  C   C2594     1.0  0.70154  0.09292  0.81601  1.0000
  H   H4582     1.0  0.95246  0.08566  0.62471  1.0000
  H   H4583     1.0  0.87564  0.23164  0.89848  1.0000
  C   C2595     1.0  0.80335  0.21996  0.84788  1.0000
  H   H4584     1.0  0.95392  0.07626  0.60296  1.0000
  H   H4585     1.0  0.75897  0.12424  0.88700  1.0000
  H   H4586     1.0  0.77580  0.13345  0.79249  1.0000
  N   N144      1.0  0.77468  0.21564  0.94065  1.0000
  C   C2596     1.0  0.86171  0.18964  0.86977  1.0000
  H   H4587     1.0  0.92625  0.09149  0.95608  1.0000
  H   H4588     1.0  0.79225  0.18676  0.69088  1.0000
  C   C2597     1.0  0.73472  0.18671  0.93991  1.0000
  H   H4589     1.0  0.97009  0.17645  0.92611  1.0000
  H   H4590     1.0  0.97367  0.07296  0.89803  1.0000
  H   H4591     1.0  0.71467  0.15660  0.72738  1.0000
  H   H4592     1.0  0.68805  0.02753  0.84408  1.0000
  H   H4593     1.0  0.67874  0.98980  0.56722  1.0000
  H   H4594     1.0  0.70494  0.12034  0.82046  1.0000
  H   H4595     1.0  0.73803  0.18723  0.92411  1.0000
  C   C2598     1.0  0.74724  0.16424  0.73798  1.0000
  H   H4596     1.0  0.76568  0.15014  0.89260  1.0000
  H   H4597     1.0  0.93252  0.11346  0.91116  1.0000
  C   C2599     1.0  0.85241  0.17725  0.86027  1.0000
  C   C2600     1.0  0.83383  0.17188  0.87311  1.0000
  H   H4598     1.0  0.79246  0.21143  0.85538  1.0000
  H   H4599     1.0  0.77893  0.17648  0.89901  1.0000
  H   H4600     1.0  0.66918  0.09950  0.86205  1.0000
  H   H4601     1.0  0.74703  0.18002  0.70831  1.0000
  H   H4602     1.0  0.79945  0.16105  0.72935  1.0000
  Fe  Fe296     1.0  0.84701  0.10204  0.97090  1.0000
  H   H4603     1.0  0.73118  0.18787  0.76124  1.0000
  C   C2601     1.0  0.77476  0.14181  0.76176  1.0000
  H   H4604     1.0  0.89286  0.16703  0.85248  1.0000
  H   H4605     1.0  0.90201  0.19381  0.88950  1.0000
  N   N145      1.0  0.88052  0.19560  0.85867  1.0000
  C   C2602     1.0  0.88464  0.21072  0.86810  1.0000
  H   H4606     1.0  0.77969  0.10688  0.89115  1.0000
  H   H4607     1.0  0.95936  0.14276  0.94187  1.0000
  C   C2603     1.0  0.87772  0.20392  0.83813  1.0000
  C   C2604     1.0  0.80146  0.17902  0.70170  1.0000
  H   H4608     1.0  0.93188  0.15965  0.87066  1.0000
  H   H4609     1.0  0.75605  0.19528  0.77749  1.0000
  H   H4610     1.0  0.80841  0.21170  0.90939  1.0000
  C   C2605     1.0  0.96053  0.14055  0.95730  1.0000
  C   C2606     1.0  0.67915  0.04497  0.80815  1.0000
  H   H4611     1.0  0.87998  0.19213  0.82968  1.0000
  H   H4612     1.0  0.92850  0.15039  0.85038  1.0000
  H   H4613     1.0  0.78914  0.12338  0.91035  1.0000
  C   C2607     1.0  0.93179  0.16293  0.85493  1.0000
  H   H4614     1.0  0.76966  0.19417  0.92607  1.0000
  H   H4615     1.0  0.87248  0.22829  0.80374  1.0000
  Fe  Fe297     1.0  0.81508  0.13265  0.95598  1.0000
  H   H4616     1.0  0.71334  0.15421  0.93532  1.0000
  H   H4617     1.0  0.98944  0.08020  0.62200  1.0000
  H   H4618     1.0  0.97008  0.12655  0.96112  1.0000
  C   C2608     1.0  0.69458  0.11024  0.82630  1.0000
  H   H4619     1.0  0.70138  0.07194  0.76629  1.0000
  C   C2609     1.0  0.97445  0.18903  0.92955  1.0000
  H   H4620     1.0  0.73613  0.15882  0.74998  1.0000
  C   C2610     1.0  0.95406  0.07236  0.61868  1.0000
  C   C2611     1.0  0.68488  0.17468  0.85054  1.0000
  H   H4621     1.0  0.71680  0.08668  0.81753  1.0000
  H   H4622     1.0  0.69250  0.08170  0.82240  1.0000
  H   H4623     1.0  0.98907  0.07606  0.59884  1.0000
  H   H4624     1.0  0.73598  0.14886  0.71054  1.0000
  H   H4625     1.0  0.95994  0.20672  0.78091  1.0000
  C   C2612     1.0  0.99075  0.06847  0.61369  1.0000
  H   H4626     1.0  0.78284  0.15857  0.71464  1.0000
  H   H4627     1.0  0.91812  0.18401  0.83401  1.0000
  H   H4628     1.0  0.68876  0.04812  0.81688  1.0000
  H   H4629     1.0  0.97112  0.07648  0.84657  1.0000
  H   H4630     1.0  0.95311  0.07815  0.93047  1.0000
  C   C2613     1.0  0.68076  0.01193  0.59475  1.0000
  H   H4631     1.0  0.70217  0.98869  0.57177  1.0000
  C   C2614     1.0  0.67245  0.17765  0.91062  1.0000
  H   H4632     1.0  0.87251  0.22317  0.86779  1.0000
  C   C2615     1.0  0.68262  0.22621  0.65177  1.0000
  H   H4633     1.0  0.75080  0.22861  0.96046  1.0000
  H   H4634     1.0  0.76130  0.11047  0.97603  1.0000
  C   C2616     1.0  0.73657  0.22123  0.76974  1.0000
  H   H4635     1.0  0.97413  0.10042  0.83431  1.0000
  C   C2617     1.0  0.81341  0.22775  0.85836  1.0000
  H   H4636     1.0  0.98948  0.02488  0.66562  1.0000
  H   H4637     1.0  0.93635  0.22657  0.89920  1.0000
  H   H4638     1.0  0.66014  0.01136  0.69409  1.0000
  N   N146      1.0  0.66363  0.13600  0.83454  1.0000
  H   H4639     1.0  0.66378  0.98982  0.60042  1.0000
  H   H4640     1.0  0.72348  0.21598  0.77867  1.0000
  H   H4641     1.0  0.67928  0.18452  0.86117  1.0000
  H   H4642     1.0  0.68171  0.22239  0.58172  1.0000
  H   H4643     1.0  0.93177  0.15548  0.96560  1.0000
  H   H4644     1.0  0.81028  0.22500  0.87390  1.0000
  C   C2618     1.0  0.77088  0.23243  0.92456  1.0000
  H   H4645     1.0  0.67480  0.98526  0.67592  1.0000
  S   S591      1.0  0.65984  0.09339  0.75271  1.0000
  C   C2619     1.0  0.65944  0.07586  0.65563  1.0000
  H   H4646     1.0  0.65912  0.20897  0.65744  1.0000
  H   H4647     1.0  0.99217  0.12469  0.79368  1.0000
  H   H4648     1.0  0.65995  0.18675  0.91732  1.0000
  H   H4649     1.0  0.88466  0.23294  0.83218  1.0000
  C   C2620     1.0  0.94173  0.23284  0.78831  1.0000
  Fe  Fe298     1.0  0.77685  0.38251  0.38365  1.0000
  S   S592      1.0  0.76981  0.35399  0.39967  1.0000
  S   S593      1.0  0.80224  0.38944  0.39367  1.0000
  Fe  Fe299     1.0  0.74995  0.38429  0.35459  1.0000
  S   S594      1.0  0.74182  0.35577  0.36879  1.0000
  S   S595      1.0  0.73669  0.40110  0.32854  1.0000
  Fe  Fe300     1.0  0.73929  0.36656  0.39624  1.0000
  S   S596      1.0  0.71427  0.35986  0.41953  1.0000
  Fe  Fe301     1.0  0.77319  0.34612  0.37069  1.0000
  S   S597      1.0  0.78794  0.31593  0.36731  1.0000
  S   S598      1.0  0.74559  0.39597  0.38223  1.0000
  S   S599      1.0  0.78198  0.37384  0.35444  1.0000
  H   H4650     1.0  0.89693  0.44738  0.32680  1.0000
  H   H4651     1.0  0.69024  0.40666  0.38089  1.0000
  Fe  Fe302     1.0  0.82993  0.43810  0.46939  1.0000
  H   H4652     1.0  0.98531  0.42933  0.38738  1.0000
  S   S600      1.0  0.80994  0.44566  0.44719  1.0000
  H   H4653     1.0  0.66090  0.41252  0.36735  1.0000
  C   C2621     1.0  0.76083  0.30189  0.42131  1.0000
  H   H4654     1.0  0.68121  0.24300  0.17613  1.0000
  S   S601      1.0  0.90145  0.41129  0.46815  1.0000
  H   H4655     1.0  0.92223  0.32042  0.34866  1.0000
  S   S602      1.0  0.85464  0.45356  0.46792  1.0000
  H   H4656     1.0  0.84544  0.42257  0.34970  1.0000
  S   S603      1.0  0.69739  0.36256  0.27861  1.0000
  C   C2622     1.0  0.93772  0.45944  0.42045  1.0000
  Fe  Fe303     1.0  0.87827  0.28102  0.29901  1.0000
  S   S604      1.0  0.90506  0.28175  0.27631  1.0000
  S   S605      1.0  0.85558  0.30777  0.29628  1.0000
  C   C2623     1.0  0.72890  0.31131  0.41220  1.0000
  C   C2624     1.0  0.85519  0.25315  0.17872  1.0000
  Fe  Fe304     1.0  0.92060  0.27211  0.30170  1.0000
  S   S606      1.0  0.94607  0.28091  0.30987  1.0000
  Fe  Fe305     1.0  0.90359  0.25052  0.27737  1.0000
  H   H4657     1.0  0.71918  0.26877  0.41713  1.0000
  S   S607      1.0  0.89379  0.27264  0.32423  1.0000
  S   S608      1.0  0.87574  0.25066  0.29835  1.0000
  Fe  Fe306     1.0  0.95551  0.39654  0.36681  1.0000
  S   S609      1.0  0.96677  0.40475  0.33534  1.0000
  S   S610      1.0  0.92908  0.41699  0.37820  1.0000
  Fe  Fe307     1.0  0.96981  0.37342  0.33401  1.0000
  S   S611      1.0  0.95909  0.36539  0.30982  1.0000
  S   S612      1.0  0.95625  0.36575  0.36490  1.0000
  S   S613      1.0  0.84640  0.40842  0.47783  1.0000
  H   H4658     1.0  0.70928  0.23928  0.09226  1.0000
  H   H4659     1.0  0.82753  0.40155  0.34012  1.0000
  H   H4660     1.0  0.87247  0.35447  0.28846  1.0000
  H   H4661     1.0  0.68713  0.37402  0.36096  1.0000
  H   H4662     1.0  0.98593  0.29321  0.35887  1.0000
  C   C2625     1.0  0.94839  0.30470  0.31043  1.0000
  C   C2626     1.0  0.95898  0.30772  0.32352  1.0000
  C   C2627     1.0  0.96184  0.32631  0.32391  1.0000
  C   C2628     1.0  0.95459  0.34201  0.31081  1.0000
  C   C2629     1.0  0.94409  0.33901  0.29765  1.0000
  C   C2630     1.0  0.94086  0.32046  0.29754  1.0000
  H   H4663     1.0  0.96505  0.29561  0.33337  1.0000
  H   H4664     1.0  0.97008  0.32843  0.33400  1.0000
  H   H4665     1.0  0.93853  0.35108  0.28739  1.0000
  H   H4666     1.0  0.93292  0.31828  0.28723  1.0000
  H   H4667     1.0  0.66238  0.36605  0.12705  1.0000
  H   H4668     1.0  0.70760  0.25988  0.45239  1.0000
  N   N147      1.0  0.86161  0.41589  0.38390  1.0000
  H   H4669     1.0  0.82379  0.34457  0.37508  1.0000
  C   C2631     1.0  0.77267  0.27234  0.39703  1.0000
  Fe  Fe308     1.0  0.67444  0.37732  0.26016  1.0000
  H   H4670     1.0  0.66872  0.39267  0.46798  1.0000
  C   C2632     1.0  0.90890  0.41272  0.44317  1.0000
  C   C2633     1.0  0.89942  0.42706  0.43036  1.0000
  C   C2634     1.0  0.90609  0.42852  0.41047  1.0000
  C   C2635     1.0  0.92170  0.41514  0.40324  1.0000
  C   C2636     1.0  0.93105  0.40064  0.41601  1.0000
  C   C2637     1.0  0.92486  0.39963  0.43596  1.0000
  H   H4671     1.0  0.88726  0.43734  0.43583  1.0000
  H   H4672     1.0  0.89918  0.44017  0.40075  1.0000
  H   H4673     1.0  0.94307  0.39022  0.41054  1.0000
  H   H4674     1.0  0.93223  0.38851  0.44586  1.0000
  C   C2638     1.0  0.72427  0.39071  0.31565  1.0000
  C   C2639     1.0  0.72097  0.37178  0.32156  1.0000
  C   C2640     1.0  0.71212  0.36358  0.31039  1.0000
  C   C2641     1.0  0.70613  0.37429  0.29338  1.0000
  C   C2642     1.0  0.70874  0.39346  0.28780  1.0000
  C   C2643     1.0  0.71782  0.40161  0.29887  1.0000
  H   H4675     1.0  0.72569  0.36331  0.33447  1.0000
  H   H4676     1.0  0.71011  0.34876  0.31480  1.0000
  H   H4677     1.0  0.86367  0.45215  0.39209  1.0000
  H   H4678     1.0  0.72025  0.41628  0.29418  1.0000
  C   C2644     1.0  0.80710  0.31380  0.34785  1.0000
  C   C2645     1.0  0.81076  0.32983  0.33390  1.0000
  C   C2646     1.0  0.82582  0.32786  0.31818  1.0000
  C   C2647     1.0  0.83748  0.30989  0.31654  1.0000
  C   C2648     1.0  0.83411  0.29387  0.33068  1.0000
  C   C2649     1.0  0.81880  0.29581  0.34626  1.0000
  H   H4679     1.0  0.80177  0.34370  0.33496  1.0000
  H   H4680     1.0  0.82843  0.34025  0.30723  1.0000
  H   H4681     1.0  0.84309  0.27995  0.32942  1.0000
  H   H4682     1.0  0.81608  0.28336  0.35709  1.0000
  C   C2650     1.0  0.70662  0.37752  0.43415  1.0000
  C   C2651     1.0  0.71847  0.39067  0.43383  1.0000
  C   C2652     1.0  0.71230  0.40464  0.44570  1.0000
  C   C2653     1.0  0.69433  0.40547  0.45795  1.0000
  C   C2654     1.0  0.68252  0.39223  0.45838  1.0000
  C   C2655     1.0  0.68868  0.37823  0.44650  1.0000
  H   H4683     1.0  0.73243  0.39004  0.42453  1.0000
  C   C2656     1.0  0.97119  0.46148  0.37044  1.0000
  H   H4684     1.0  0.77399  0.40027  0.46171  1.0000
  C   C2657     1.0  0.71165  0.30758  0.40459  1.0000
  C   C2658     1.0  0.80121  0.40380  0.41106  1.0000
  C   C2659     1.0  0.79015  0.42234  0.41009  1.0000
  C   C2660     1.0  0.79256  0.43481  0.42169  1.0000
  C   C2661     1.0  0.80590  0.42884  0.43444  1.0000
  C   C2662     1.0  0.81633  0.41005  0.43599  1.0000
  C   C2663     1.0  0.81415  0.39769  0.42419  1.0000
  H   H4685     1.0  0.78041  0.42736  0.39979  1.0000
  H   H4686     1.0  0.78443  0.44934  0.42036  1.0000
  H   H4687     1.0  0.82659  0.40523  0.44577  1.0000
  H   H4688     1.0  0.82291  0.38345  0.42490  1.0000
  H   H4689     1.0  0.83427  0.47353  0.38230  1.0000
  C   C2664     1.0  0.87102  0.23518  0.25036  1.0000
  H   H4690     1.0  0.69133  0.33293  0.41260  1.0000
  C   C2665     1.0  0.87882  0.43289  0.35121  1.0000
  H   H4691     1.0  0.67362  0.37532  0.33608  1.0000
  C   C2666     1.0  0.69763  0.32631  0.39957  1.0000
  C   C2667     1.0  0.96899  0.45620  0.33738  1.0000
  H   H4692     1.0  0.84665  0.39204  0.38660  1.0000
  H   H4693     1.0  0.72579  0.25089  0.09972  1.0000
  H   H4694     1.0  0.66477  0.44305  0.15145  1.0000
  C   C2668     1.0  0.72024  0.25089  0.44479  1.0000
  S   S614      1.0  0.67774  0.38733  0.22800  1.0000
  H   H4695     1.0  0.98692  0.40035  0.43685  1.0000
  H   H4696     1.0  0.77520  0.43015  0.47143  1.0000
  H   H4697     1.0  0.71342  0.34785  0.46653  1.0000
  H   H4698     1.0  0.70512  0.33674  0.38847  1.0000
  C   C2669     1.0  0.87997  0.42179  0.37184  1.0000
  H   H4699     1.0  0.96553  0.47692  0.36550  1.0000
  H   H4700     1.0  0.70444  0.40176  0.27456  1.0000
  H   H4701     1.0  0.71197  0.23981  0.16335  1.0000
  H   H4702     1.0  0.88646  0.33059  0.29256  1.0000
  H   H4703     1.0  0.97673  0.46342  0.41592  1.0000
  H   H4704     1.0  0.77216  0.26102  0.41009  1.0000
  H   H4705     1.0  0.69561  0.46385  0.47408  1.0000
  H   H4706     1.0  0.86733  0.44585  0.35110  1.0000
  H   H4707     1.0  0.85236  0.39004  0.34072  1.0000
  H   H4708     1.0  0.96780  0.43444  0.36264  1.0000
  H   H4709     1.0  0.68765  0.36641  0.12584  1.0000
  H   H4710     1.0  0.84926  0.44104  0.41350  1.0000
  C   C2670     1.0  0.67308  0.36856  0.13495  1.0000
  H   H4711     1.0  0.87630  0.37617  0.39751  1.0000
  C   C2671     1.0  0.75923  0.40653  0.45849  1.0000
  C   C2672     1.0  0.84953  0.44753  0.39807  1.0000
  H   H4712     1.0  0.88598  0.43043  0.37933  1.0000
  C   C2673     1.0  0.97601  0.27269  0.38455  1.0000
  H   H4713     1.0  0.83215  0.42789  0.39484  1.0000
  H   H4714     1.0  0.67954  0.36799  0.44685  1.0000
  C   C2674     1.0  0.97677  0.23501  0.41363  1.0000
  H   H4715     1.0  0.83315  0.38287  0.35996  1.0000
  H   H4716     1.0  0.89324  0.36381  0.42533  1.0000
  H   H4717     1.0  0.66962  0.42530  0.33536  1.0000
  H   H4718     1.0  0.87214  0.41533  0.41014  1.0000
  H   H4719     1.0  0.89142  0.40895  0.37014  1.0000
  H   H4720     1.0  0.67893  0.39007  0.14795  1.0000
  C   C2675     1.0  0.88072  0.38662  0.40424  1.0000
  H   H4721     1.0  0.97190  0.27354  0.40013  1.0000
  H   H4722     1.0  0.90820  0.31821  0.37225  1.0000
  C   C2676     1.0  0.73803  0.27917  0.43210  1.0000
  H   H4723     1.0  0.82569  0.26723  0.18772  1.0000
  H   H4724     1.0  0.89541  0.38907  0.39684  1.0000
  H   H4725     1.0  0.86384  0.34016  0.32210  1.0000
  H   H4726     1.0  0.72675  0.28606  0.44295  1.0000
  H   H4727     1.0  0.99186  0.39043  0.29225  1.0000
  H   H4728     1.0  0.90146  0.44935  0.34990  1.0000
  H   H4729     1.0  0.89764  0.35129  0.29050  1.0000
  H   H4730     1.0  0.93750  0.44389  0.42589  1.0000
  H   H4731     1.0  0.94661  0.46450  0.42851  1.0000
  C   C2677     1.0  0.72331  0.23698  0.09733  1.0000
  C   C2678     1.0  0.97867  0.46691  0.40001  1.0000
  H   H4732     1.0  0.96926  0.39974  0.42275  1.0000
  H   H4733     1.0  0.74562  0.30492  0.45085  1.0000
  H   H4734     1.0  0.87626  0.42331  0.34221  1.0000
  C   C2679     1.0  0.66810  0.38896  0.13949  1.0000
  C   C2680     1.0  0.83389  0.46560  0.39730  1.0000
  H   H4735     1.0  0.90784  0.33227  0.32087  1.0000
  H   H4736     1.0  0.94066  0.47797  0.39232  1.0000
  C   C2681     1.0  0.66505  0.24714  0.08799  1.0000
  H   H4737     1.0  0.95986  0.30917  0.39357  1.0000
  H   H4738     1.0  0.68929  0.41204  0.17713  1.0000
  N   N148      1.0  0.74501  0.29440  0.41576  1.0000
  H   H4739     1.0  0.67853  0.40671  0.32168  1.0000
  H   H4740     1.0  0.71289  0.45482  0.23764  1.0000
  H   H4741     1.0  0.70049  0.43457  0.24620  1.0000
  H   H4742     1.0  0.73420  0.42657  0.46772  1.0000
  H   H4743     1.0  0.93263  0.47138  0.99012  1.0000
  H   H4744     1.0  0.68560  0.32330  0.39384  1.0000
  C   C2682     1.0  0.83578  0.25394  0.19247  1.0000
  C   C2683     1.0  0.96275  0.45017  0.35905  1.0000
  H   H4745     1.0  0.78085  0.30146  0.45117  1.0000
  H   H4746     1.0  0.67353  0.44668  0.30149  1.0000
  H   H4747     1.0  0.92423  0.26715  0.36577  1.0000
  H   H4748     1.0  0.90108  0.28600  0.17884  1.0000
  H   H4749     1.0  0.92387  0.38479  0.33730  1.0000
  C   C2684     1.0  0.98261  0.40528  0.42246  1.0000
  H   H4750     1.0  0.85163  0.35013  0.34998  1.0000
  H   H4751     1.0  0.84198  0.44129  0.37293  1.0000
  C   C2685     1.0  0.97907  0.42725  0.41780  1.0000
  C   C2686     1.0  0.76723  0.47807  0.46184  1.0000
  H   H4752     1.0  0.96245  0.27149  0.38019  1.0000
  H   H4753     1.0  0.97955  0.23598  0.35412  1.0000
  C   C2687     1.0  0.74846  0.42044  0.47212  1.0000
  H   H4754     1.0  0.75586  0.29904  0.38525  1.0000
  C   C2688     1.0  0.83839  0.39522  0.34968  1.0000
  C   C2689     1.0  0.91701  0.47028  0.42509  1.0000
  H   H4755     1.0  0.72131  0.41504  0.44511  1.0000
  H   H4756     1.0  0.76761  0.31173  0.40883  1.0000
  H   H4757     1.0  0.74256  0.24433  0.17239  1.0000
  C   C2690     1.0  0.68451  0.38958  0.36172  1.0000
  C   C2691     1.0  0.75328  0.28685  0.39720  1.0000
  H   H4758     1.0  0.83834  0.32519  0.38876  1.0000
  H   H4759     1.0  0.86817  0.37368  0.43311  1.0000
  H   H4760     1.0  0.75117  0.39458  0.46020  1.0000
  H   H4761     1.0  0.91997  0.23779  0.35071  1.0000
  H   H4762     1.0  0.85686  0.35097  0.37306  1.0000
  C   C2692     1.0  0.89798  0.43954  0.34164  1.0000
  C   C2693     1.0  0.89880  0.25002  0.17148  1.0000
  H   H4763     1.0  0.92431  0.27023  0.17993  1.0000
  H   H4764     1.0  0.73860  0.34788  0.46573  1.0000
  C   C2694     1.0  0.84069  0.41043  0.36049  1.0000
  H   H4765     1.0  0.82614  0.41599  0.36824  1.0000
  H   H4766     1.0  0.68352  0.38370  0.39288  1.0000
  C   C2695     1.0  0.69169  0.39131  0.37968  1.0000
  H   H4767     1.0  0.83774  0.25400  0.20733  1.0000
  C   C2696     1.0  0.84570  0.43301  0.38683  1.0000
  H   H4768     1.0  0.89785  0.38930  0.34065  1.0000
  H   H4769     1.0  0.91018  0.37891  0.36101  1.0000
  H   H4770     1.0  0.66966  0.39903  0.12559  1.0000
  H   H4771     1.0  0.71505  0.23917  0.44064  1.0000
  H   H4772     1.0  0.74996  0.27153  0.44010  1.0000
  H   H4773     1.0  0.69341  0.39702  0.34901  1.0000
  H   H4774     1.0  0.75975  0.44503  0.45586  1.0000
  H   H4775     1.0  0.67823  0.42083  0.14512  1.0000
  H   H4776     1.0  0.96087  0.42733  0.39715  1.0000
  C   C2697     1.0  0.88231  0.37727  0.42506  1.0000
  H   H4777     1.0  0.94670  0.45308  0.36208  1.0000
  H   H4778     1.0  0.76762  0.32398  0.45764  1.0000
  H   H4779     1.0  0.87473  0.31800  0.37603  1.0000
  H   H4780     1.0  0.96932  0.32274  0.37094  1.0000
  H   H4781     1.0  0.83394  0.32262  0.36577  1.0000
  H   H4782     1.0  0.73493  0.32331  0.40188  1.0000
  H   H4783     1.0  0.66794  0.35222  0.31664  1.0000
  H   H4784     1.0  0.86070  0.26644  0.17843  1.0000
  C   C2698     1.0  0.96461  0.30887  0.37794  1.0000
  H   H4785     1.0  0.91241  0.29354  0.34108  1.0000
  Fe  Fe309     1.0  0.87026  0.42389  0.47845  1.0000
  H   H4786     1.0  0.96947  0.23728  0.38584  1.0000
  H   H4787     1.0  0.91000  0.42700  0.34080  1.0000
  H   H4788     1.0  0.83637  0.47522  0.40635  1.0000
  H   H4789     1.0  0.89474  0.29090  0.36286  1.0000
  Fe  Fe310     1.0  0.89477  0.24227  0.32093  1.0000
  N   N149      1.0  0.96678  0.45642  0.39217  1.0000
  H   H4790     1.0  0.92188  0.28383  0.38191  1.0000
  H   H4791     1.0  0.90933  0.27726  0.20156  1.0000
  H   H4792     1.0  0.85248  0.40304  0.41342  1.0000
  C   C2699     1.0  0.68368  0.42713  0.17088  1.0000
  H   H4793     1.0  0.70722  0.38474  0.37871  1.0000
  C   C2700     1.0  0.72992  0.26303  0.42680  1.0000
  H   H4794     1.0  0.68472  0.46132  0.26353  1.0000
  C   C2701     1.0  0.85473  0.40183  0.37512  1.0000
  N   N150      1.0  0.77560  0.32576  0.29018  1.0000
  C   C2702     1.0  0.75851  0.32263  0.30606  1.0000
  C   C2703     1.0  0.76991  0.32786  0.27066  1.0000
  C   C2704     1.0  0.79108  0.30799  0.29270  1.0000
  C   C2705     1.0  0.78400  0.34282  0.29132  1.0000
  C   C2706     1.0  0.77025  0.36251  0.28982  1.0000
  C   C2707     1.0  0.76190  0.32079  0.32697  1.0000
  C   C2708     1.0  0.80939  0.30716  0.27673  1.0000
  C   C2709     1.0  0.74886  0.33785  0.26836  1.0000
  C   C2710     1.0  0.74630  0.34193  0.24731  1.0000
  C   C2711     1.0  0.77916  0.37778  0.29492  1.0000
  C   C2712     1.0  0.74381  0.31661  0.34150  1.0000
  C   C2713     1.0  0.82226  0.28728  0.27923  1.0000
  H   H4795     1.0  0.75321  0.30950  0.30507  1.0000
  H   H4796     1.0  0.74606  0.33453  0.30442  1.0000
  H   H4797     1.0  0.77999  0.33565  0.25929  1.0000
  H   H4798     1.0  0.77146  0.31343  0.26666  1.0000
  H   H4799     1.0  0.78482  0.29482  0.29390  1.0000
  H   H4800     1.0  0.79666  0.30645  0.30630  1.0000
  H   H4801     1.0  0.78991  0.34022  0.30483  1.0000
  H   H4802     1.0  0.79663  0.34470  0.27961  1.0000
  H   H4803     1.0  0.75633  0.36175  0.29971  1.0000
  H   H4804     1.0  0.76751  0.36751  0.27484  1.0000
  H   H4805     1.0  0.77383  0.30886  0.33053  1.0000
  H   H4806     1.0  0.76528  0.33439  0.32918  1.0000
  H   H4807     1.0  0.81817  0.31782  0.27751  1.0000
  H   H4808     1.0  0.80573  0.31012  0.26209  1.0000
  H   H4809     1.0  0.73848  0.32833  0.27652  1.0000
  H   H4810     1.0  0.74459  0.35166  0.27375  1.0000
  H   H4811     1.0  0.74980  0.32838  0.24134  1.0000
  H   H4812     1.0  0.73100  0.34855  0.24627  1.0000
  H   H4813     1.0  0.75572  0.35213  0.23858  1.0000
  H   H4814     1.0  0.78129  0.37395  0.31017  1.0000
  H   H4815     1.0  0.79327  0.37930  0.28538  1.0000
  H   H4816     1.0  0.76923  0.39188  0.29314  1.0000
  H   H4817     1.0  0.74632  0.31616  0.35624  1.0000
  H   H4818     1.0  0.73115  0.32803  0.33881  1.0000
  H   H4819     1.0  0.74052  0.30248  0.34072  1.0000
  H   H4820     1.0  0.82623  0.28335  0.29380  1.0000
  H   H4821     1.0  0.81474  0.27615  0.27707  1.0000
  H   H4822     1.0  0.83584  0.28739  0.26847  1.0000
  H   H4823     1.0  0.91258  0.36014  0.32593  1.0000
  S   S615      1.0  0.92248  0.24104  0.30004  1.0000
  H   H4824     1.0  0.67342  0.35779  0.14843  1.0000
  C   C2714     1.0  0.94532  0.46260  0.39850  1.0000
  H   H4825     1.0  0.79189  0.25298  0.37917  1.0000
  H   H4826     1.0  0.74181  0.25319  0.41935  1.0000
  H   H4827     1.0  0.70653  0.24369  0.13241  1.0000
  H   H4828     1.0  0.96407  0.47187  0.33286  1.0000
  C   C2715     1.0  0.86607  0.40590  0.40351  1.0000
  C   C2716     1.0  0.68206  0.46224  0.24884  1.0000
  H   H4829     1.0  0.69613  0.43405  0.16288  1.0000
  H   H4830     1.0  0.96838  0.26094  0.35288  1.0000
  H   H4831     1.0  0.69705  0.44977  0.22352  1.0000
  H   H4832     1.0  0.76040  0.41406  0.44330  1.0000
  H   H4833     1.0  0.90739  0.46658  0.41675  1.0000
  H   H4834     1.0  0.67515  0.48238  0.22388  1.0000
  H   H4835     1.0  0.76652  0.25416  0.37923  1.0000
  H   H4836     1.0  0.67541  0.24825  0.15218  1.0000
  C   C2717     1.0  0.69921  0.44966  0.23835  1.0000
  H   H4837     1.0  0.87662  0.35973  0.32020  1.0000
  H   H4838     1.0  0.96247  0.44830  0.32949  1.0000
  H   H4839     1.0  0.74283  0.28004  0.39284  1.0000
  H   H4840     1.0  0.91127  0.46627  0.44067  1.0000
  H   H4841     1.0  0.81932  0.46177  0.40298  1.0000
  H   H4842     1.0  0.66906  0.45577  0.25011  1.0000
  C   C2718     1.0  0.77234  0.31559  0.44572  1.0000
  H   H4843     1.0  0.88696  0.38709  0.43246  1.0000
  H   H4844     1.0  0.93701  0.45456  0.39257  1.0000
  C   C2719     1.0  0.72504  0.34453  0.47534  1.0000
  C   C2720     1.0  0.67491  0.23773  0.16587  1.0000
  H   H4845     1.0  0.72237  0.31712  0.42568  1.0000
  H   H4846     1.0  0.77866  0.27381  0.36592  1.0000
  C   C2721     1.0  0.90912  0.27344  0.18748  1.0000
  C   C2722     1.0  0.66979  0.42770  0.15731  1.0000
  C   C2723     1.0  0.97269  0.43484  0.39787  1.0000
  H   H4847     1.0  0.70330  0.29807  0.41588  1.0000
  H   H4848     1.0  0.71646  0.30113  0.39137  1.0000
  C   C2724     1.0  0.66268  0.39837  0.36277  1.0000
  C   C2725     1.0  0.75466  0.31282  0.43861  1.0000
  H   H4849     1.0  0.78179  0.32359  0.43392  1.0000
  H   H4850     1.0  0.67623  0.43510  0.18269  1.0000
  H   H4851     1.0  0.78475  0.27992  0.39657  1.0000
  H   H4852     1.0  0.77272  0.28983  0.42504  1.0000
  H   H4853     1.0  0.74626  0.32735  0.43426  1.0000
  C   C2726     1.0  0.77765  0.26275  0.37923  1.0000
  C   C2727     1.0  0.66646  0.43680  0.29653  1.0000
  H   H4854     1.0  0.92466  0.35003  0.34628  1.0000
  C   C2728     1.0  0.75978  0.43685  0.47072  1.0000
  H   H4855     1.0  0.89155  0.31602  0.32677  1.0000
  H   H4856     1.0  0.96818  0.43269  0.42961  1.0000
  H   H4857     1.0  0.77273  0.47021  0.44963  1.0000
  H   H4858     1.0  0.86736  0.39230  0.36809  1.0000
  S   S616      1.0  0.98477  0.39130  0.37535  1.0000
  H   H4859     1.0  0.73079  0.46456  0.46790  1.0000
  H   H4860     1.0  0.93881  0.28563  0.35929  1.0000
  N   N151      1.0  0.89142  0.33127  0.34965  1.0000
  C   C2729     1.0  0.89294  0.35091  0.35275  1.0000
  C   C2730     1.0  0.87274  0.32523  0.36113  1.0000
  C   C2731     1.0  0.90813  0.31709  0.35709  1.0000
  C   C2732     1.0  0.89309  0.33049  0.32864  1.0000
  C   C2733     1.0  0.87813  0.34484  0.31768  1.0000
  C   C2734     1.0  0.91132  0.35907  0.34169  1.0000
  C   C2735     1.0  0.90872  0.29566  0.35626  1.0000
  C   C2736     1.0  0.85467  0.34131  0.36388  1.0000
  C   C2737     1.0  0.83663  0.33285  0.37400  1.0000
  C   C2738     1.0  0.88409  0.34530  0.29599  1.0000
  C   C2739     1.0  0.91063  0.37926  0.34547  1.0000
  C   C2740     1.0  0.92438  0.28233  0.36654  1.0000
  H   H4861     1.0  0.89221  0.35066  0.36839  1.0000
  H   H4862     1.0  0.88048  0.36189  0.34864  1.0000
  H   H4863     1.0  0.86869  0.31424  0.35465  1.0000
  H   H4864     1.0  0.67770  0.42605  0.28959  1.0000
  C   C2741     1.0  0.66485  0.41469  0.32900  1.0000
  H   H4865     1.0  0.66827  0.25807  0.07558  1.0000
  H   H4866     1.0  0.98499  0.45274  0.33332  1.0000
  C   C2742     1.0  0.76438  0.24548  0.98235  1.0000
  C   C2743     1.0  0.98224  0.25101  0.34977  1.0000
  H   H4867     1.0  0.73069  0.24427  0.45474  1.0000
  H   H4868     1.0  0.95227  0.30753  0.37159  1.0000
  C   C2744     1.0  0.98276  0.23747  0.39138  1.0000
  C   C2745     1.0  0.98158  0.29241  0.37460  1.0000
  H   H4869     1.0  0.84171  0.23837  0.24563  1.0000
  H   H4870     1.0  0.98716  0.45943  0.36535  1.0000
  S   S617      1.0  0.68698  0.42293  0.47280  1.0000
  H   H4871     1.0  0.97825  0.25055  0.32092  1.0000
  H   H4872     1.0  0.86807  0.24785  0.25698  1.0000
  H   H4873     1.0  0.96446  0.24643  0.41771  1.0000
  H   H4874     1.0  0.77193  0.25585  0.98590  1.0000
  Fe  Fe311     1.0  0.98678  0.36117  0.37026  1.0000
  H   H4875     1.0  0.97095  0.34602  0.25969  1.0000
  C   C2746     1.0  0.67900  0.48329  0.23781  1.0000
  H   H4876     1.0  0.89149  0.26274  0.16233  1.0000
  H   H4877     1.0  0.88450  0.25978  0.19900  1.0000
  H   H4878     1.0  0.65976  0.38759  0.30759  1.0000
  H   H4879     1.0  0.89470  0.23530  0.11315  1.0000
  C   C2747     1.0  0.98890  0.25438  0.32795  1.0000
  C   C2748     1.0  0.89930  0.25593  0.19086  1.0000
  C   C2749     1.0  0.98675  0.34043  0.25669  1.0000
  H   H4880     1.0  0.98888  0.23555  0.42070  1.0000
  H   H4881     1.0  0.85229  0.25323  0.16420  1.0000
  H   H4882     1.0  0.82915  0.24132  0.19262  1.0000
  H   H4883     1.0  0.98890  0.32447  0.25879  1.0000
  H   H4884     1.0  0.98997  0.26970  0.32235  1.0000
  N   N152      1.0  0.99135  0.25519  0.38158  1.0000
  H   H4885     1.0  0.90748  0.24412  0.20014  1.0000
  H   H4886     1.0  0.91406  0.24747  0.16390  1.0000
  H   H4887     1.0  0.99044  0.34075  0.28522  1.0000
  H   H4888     1.0  0.76272  0.23373  0.99499  1.0000
  H   H4889     1.0  0.88013  0.24425  0.14575  1.0000
  H   H4890     1.0  0.87064  0.23447  0.20043  1.0000
  H   H4891     1.0  0.91568  0.23713  0.13618  1.0000
  C   C2750     1.0  0.86971  0.23484  0.18520  1.0000
  H   H4892     1.0  0.74981  0.25310  0.97956  1.0000
  H   H4893     1.0  0.82483  0.23713  0.80272  1.0000
  Fe  Fe312     1.0  0.72728  0.37234  0.62321  1.0000
  S   S618      1.0  0.73099  0.34937  0.60497  1.0000
  S   S619      1.0  0.74955  0.36790  0.64313  1.0000
  Fe  Fe313     1.0  0.69182  0.39507  0.60615  1.0000
  S   S620      1.0  0.69283  0.37409  0.58704  1.0000
  C   C2751     1.0  0.66830  0.31767  0.61085  1.0000
  Fe  Fe314     1.0  0.69856  0.35136  0.61255  1.0000
  S   S621      1.0  0.68221  0.32620  0.62371  1.0000
  Fe  Fe315     1.0  0.72491  0.37407  0.58095  1.0000
  S   S622      1.0  0.73923  0.37750  0.54957  1.0000
  S   S623      1.0  0.69532  0.37244  0.63249  1.0000
  S   S624      1.0  0.72351  0.39686  0.59835  1.0000
  S   S625      1.0  0.82578  0.39152  0.53353  1.0000
  C   C2752     1.0  0.87682  0.46832  0.62865  1.0000
  S   S626      1.0  0.86099  0.42622  0.50975  1.0000
  H   H4894     1.0  0.78164  0.25708  0.78036  1.0000
  S   S627      1.0  0.83880  0.47970  0.51608  1.0000
  S   S628      1.0  0.99152  0.37020  0.86123  1.0000
  H   H4895     1.0  0.75728  0.24242  0.92903  1.0000
  C   C2753     1.0  0.69366  0.26661  0.64702  1.0000
  S   S629      1.0  0.95860  0.40998  0.89049  1.0000
  H   H4896     1.0  0.92434  0.25100  0.89539  1.0000
  H   H4897     1.0  0.84791  0.47564  0.70106  1.0000
  Fe  Fe316     1.0  0.89705  0.27751  0.82128  1.0000
  S   S630      1.0  0.89224  0.26214  0.85188  1.0000
  Fe  Fe317     1.0  0.86439  0.31083  0.82822  1.0000
  S   S631      1.0  0.85714  0.29805  0.85953  1.0000
  S   S632      1.0  0.84551  0.33890  0.81763  1.0000
  Fe  Fe318     1.0  0.88937  0.29163  0.85899  1.0000
  S   S633      1.0  0.90148  0.29725  0.88366  1.0000
  Fe  Fe319     1.0  0.86058  0.26987  0.84944  1.0000
  S   S634      1.0  0.83918  0.24926  0.86258  1.0000
  S   S635      1.0  0.89630  0.30656  0.82840  1.0000
  S   S636      1.0  0.86576  0.28314  0.81825  1.0000
  Fe  Fe320     1.0  0.82086  0.44455  0.71930  1.0000
  S   S637      1.0  0.85015  0.42834  0.70858  1.0000
  C   C2754     1.0  0.65987  0.31379  0.58113  1.0000
  Fe  Fe321     1.0  0.79974  0.42377  0.69836  1.0000
  S   S638      1.0  0.82759  0.40597  0.68672  1.0000
  S   S639      1.0  0.77061  0.42484  0.68961  1.0000
  Fe  Fe322     1.0  0.83525  0.40249  0.71615  1.0000
  S   S640      1.0  0.85150  0.37347  0.72855  1.0000
  Fe  Fe323     1.0  0.83977  0.43319  0.68037  1.0000
  S   S641      1.0  0.85507  0.44230  0.65019  1.0000
  S   S642      1.0  0.80631  0.41838  0.72858  1.0000
  S   S643      1.0  0.81157  0.45140  0.69037  1.0000
  H   H4898     1.0  0.67020  0.36269  0.54581  1.0000
  S   S644      1.0  0.92212  0.45588  0.81785  1.0000
  H   H4899     1.0  0.67169  0.41122  0.56988  1.0000
  H   H4900     1.0  0.92671  0.47876  0.57443  1.0000
  H   H4901     1.0  0.68636  0.24656  0.59905  1.0000
  H   H4902     1.0  0.90949  0.45428  0.71839  1.0000
  H   H4903     1.0  0.89683  0.25582  0.92747  1.0000
  C   C2755     1.0  0.82819  0.46693  0.57599  1.0000
  C   C2756     1.0  0.87146  0.45804  0.64706  1.0000
  H   H4904     1.0  0.71520  0.28343  0.64760  1.0000
  H   H4905     1.0  0.66132  0.25792  0.66627  1.0000
  H   H4906     1.0  0.73105  0.35145  0.50069  1.0000
  H   H4907     1.0  0.80352  0.36625  0.74756  1.0000
  H   H4908     1.0  0.89448  0.36855  0.81837  1.0000
  H   H4909     1.0  0.93786  0.24214  0.94675  1.0000
  C   C2757     1.0  0.79867  0.35228  0.74928  1.0000
  C   C2758     1.0  0.80773  0.33773  0.76507  1.0000
  C   C2759     1.0  0.82730  0.23923  0.84886  1.0000
  C   C2760     1.0  0.84700  0.34779  0.79277  1.0000
  C   C2761     1.0  0.86191  0.33992  0.77927  1.0000
  C   C2762     1.0  0.86310  0.34795  0.75961  1.0000
  C   C2763     1.0  0.84947  0.36389  0.75334  1.0000
  C   C2764     1.0  0.83437  0.37150  0.76681  1.0000
  C   C2765     1.0  0.83313  0.36344  0.78647  1.0000
  H   H4910     1.0  0.87264  0.32780  0.78398  1.0000
  H   H4911     1.0  0.87473  0.34186  0.74921  1.0000
  H   H4912     1.0  0.82346  0.38334  0.76200  1.0000
  H   H4913     1.0  0.82137  0.36934  0.79685  1.0000
  C   C2766     1.0  0.94842  0.42267  0.87029  1.0000
  C   C2767     1.0  0.93660  0.44076  0.87113  1.0000
  C   C2768     1.0  0.92854  0.45125  0.85506  1.0000
  C   C2769     1.0  0.93208  0.44350  0.83820  1.0000
  C   C2770     1.0  0.94369  0.42532  0.83746  1.0000
  C   C2771     1.0  0.95191  0.41499  0.85342  1.0000
  H   H4914     1.0  0.93382  0.44674  0.88418  1.0000
  H   H4915     1.0  0.91953  0.46525  0.85574  1.0000
  H   H4916     1.0  0.68216  0.27788  0.65291  1.0000
  C   C2772     1.0  0.96119  0.31436  0.87570  1.0000
  C   C2773     1.0  0.94806  0.31545  0.89291  1.0000
  C   C2774     1.0  0.92983  0.31014  0.89514  1.0000
  C   C2775     1.0  0.92447  0.30394  0.88013  1.0000
  C   C2776     1.0  0.93748  0.30311  0.86284  1.0000
  C   C2777     1.0  0.95580  0.30817  0.86070  1.0000
  H   H4917     1.0  0.95213  0.31996  0.90465  1.0000
  H   H4918     1.0  0.91983  0.31081  0.90858  1.0000
  H   H4919     1.0  0.93353  0.29836  0.85117  1.0000
  H   H4920     1.0  0.96572  0.30740  0.84726  1.0000
  C   C2778     1.0  0.96569  0.26016  0.92221  1.0000
  H   H4921     1.0  0.84042  0.30791  0.77650  1.0000
  H   H4922     1.0  0.98406  0.25644  0.83492  1.0000
  C   C2779     1.0  0.88070  0.37327  0.81268  1.0000
  C   C2780     1.0  0.75485  0.38390  0.65623  1.0000
  C   C2781     1.0  0.74163  0.40020  0.66097  1.0000
  C   C2782     1.0  0.74664  0.41248  0.67128  1.0000
  C   C2783     1.0  0.76490  0.40869  0.67695  1.0000
  C   C2784     1.0  0.77805  0.39233  0.67230  1.0000
  C   C2785     1.0  0.77297  0.37994  0.66220  1.0000
  H   H4923     1.0  0.72755  0.40331  0.65673  1.0000
  H   H4924     1.0  0.73628  0.42499  0.67492  1.0000
  H   H4925     1.0  0.79208  0.38911  0.67666  1.0000
  H   H4926     1.0  0.78320  0.36723  0.65890  1.0000
  H   H4927     1.0  0.89594  0.23526  0.79753  1.0000
  H   H4928     1.0  0.76315  0.45549  0.52186  1.0000
  H   H4929     1.0  0.92337  0.38934  0.90167  1.0000
  H   H4930     1.0  0.77776  0.24947  0.95248  1.0000
  H   H4931     1.0  0.89936  0.25775  0.95146  1.0000
  H   H4932     1.0  0.83843  0.26697  0.77126  1.0000
  H   H4933     1.0  0.68016  0.33152  0.58274  1.0000
  H   H4934     1.0  0.91960  0.43109  0.55056  1.0000
  H   H4935     1.0  0.87570  0.45980  0.81307  1.0000
  C   C2786     1.0  0.76352  0.38070  0.54479  1.0000
  C   C2787     1.0  0.77513  0.37409  0.55894  1.0000
  C   C2788     1.0  0.79446  0.37684  0.55492  1.0000
  C   C2789     1.0  0.80200  0.38703  0.53714  1.0000
  C   C2790     1.0  0.79048  0.39350  0.52286  1.0000
  C   C2791     1.0  0.77138  0.38993  0.52656  1.0000
  H   H4936     1.0  0.76929  0.36659  0.57289  1.0000
  H   H4937     1.0  0.80358  0.37130  0.56572  1.0000
  H   H4938     1.0  0.79639  0.40095  0.50892  1.0000
  H   H4939     1.0  0.76261  0.39451  0.51541  1.0000
  H   H4940     1.0  0.79223  0.42109  0.77924  1.0000
  H   H4941     1.0  0.94315  0.37114  0.89391  1.0000
  H   H4942     1.0  0.92689  0.27552  0.93696  1.0000
  H   H4943     1.0  0.86751  0.28006  0.75289  1.0000
  H   H4944     1.0  0.87179  0.28607  0.77454  1.0000
  H   H4945     1.0  0.97333  0.44795  0.83199  1.0000
  H   H4946     1.0  0.95375  0.26371  0.89109  1.0000
  H   H4947     1.0  0.92957  0.23606  0.86663  1.0000
  H   H4948     1.0  0.86844  0.37316  0.82500  1.0000
  C   C2792     1.0  0.89734  0.44385  0.58260  1.0000
  H   H4949     1.0  0.93470  0.45307  0.57709  1.0000
  H   H4950     1.0  0.75742  0.42477  0.54368  1.0000
  H   H4951     1.0  0.93631  0.34960  0.92523  1.0000
  C   C2793     1.0  0.77619  0.23733  0.96469  1.0000
  H   H4952     1.0  0.87978  0.36277  0.80379  1.0000
  H   H4953     1.0  0.73027  0.47550  0.48786  1.0000
  H   H4954     1.0  0.92610  0.41559  0.52228  1.0000
  H   H4955     1.0  0.90889  0.46409  0.55724  1.0000
  H   H4956     1.0  0.87506  0.45271  0.67671  1.0000
  H   H4957     1.0  0.84847  0.45422  0.55370  1.0000
  H   H4958     1.0  0.87474  0.42370  0.61496  1.0000
  H   H4959     1.0  0.91599  0.36759  0.93313  1.0000
  C   C2794     1.0  0.92235  0.46459  0.58088  1.0000
  H   H4960     1.0  0.69730  0.34007  0.50525  1.0000
  H   H4961     1.0  0.85421  0.39962  0.63029  1.0000
  C   C2795     1.0  0.69587  0.46370  0.48945  1.0000
  N   N153      1.0  0.67212  0.24440  0.64099  1.0000
  H   H4962     1.0  0.97951  0.44884  0.86076  1.0000
  H   H4963     1.0  0.98738  0.24139  0.85750  1.0000
  H   H4964     1.0  0.72720  0.32895  0.48154  1.0000
  H   H4965     1.0  0.80068  0.44371  0.77378  1.0000
  H   H4966     1.0  0.90995  0.43181  0.58242  1.0000
  H   H4967     1.0  0.83711  0.44311  0.76996  1.0000
  H   H4968     1.0  0.82368  0.33608  0.76075  1.0000
  H   H4969     1.0  0.80315  0.31433  0.75351  1.0000
  H   H4970     1.0  0.89796  0.46621  0.73850  1.0000
  Fe  Fe324     1.0  0.84367  0.45482  0.49947  1.0000
  C   C2796     1.0  0.87886  0.46086  0.66250  1.0000
  N   N154      1.0  0.88151  0.43944  0.57427  1.0000
  C   C2797     1.0  0.88884  0.48196  0.62571  1.0000
  N   N155      1.0  0.69403  0.36300  0.52151  1.0000
  C   C2798     1.0  0.67278  0.36311  0.52995  1.0000
  C   C2799     1.0  0.69737  0.38357  0.51691  1.0000
  C   C2800     1.0  0.70670  0.35197  0.53590  1.0000
  C   C2801     1.0  0.70777  0.32994  0.54078  1.0000
  C   C2802     1.0  0.69084  0.39506  0.53377  1.0000
  C   C2803     1.0  0.71109  0.27625  0.63727  1.0000
  H   H4971     1.0  0.89585  0.47616  0.90792  1.0000
  C   C2804     1.0  0.69527  0.41541  0.52733  1.0000
  H   H4972     1.0  0.76227  0.47371  0.49253  1.0000
  H   H4973     1.0  0.92852  0.23512  0.92917  1.0000
  H   H4974     1.0  0.80144  0.44548  0.65433  1.0000
  C   C2805     1.0  0.69921  0.35529  0.50286  1.0000
  H   H4975     1.0  0.98987  0.41614  0.83763  1.0000
  H   H4976     1.0  0.70171  0.35717  0.54986  1.0000
  H   H4977     1.0  0.69337  0.32642  0.54766  1.0000
  H   H4978     1.0  0.69864  0.38825  0.54581  1.0000
  H   H4979     1.0  0.67510  0.39613  0.53927  1.0000
  H   H4980     1.0  0.87682  0.43315  0.54776  1.0000
  H   H4981     1.0  0.91808  0.34838  0.89975  1.0000
  H   H4982     1.0  0.85182  0.42956  0.60687  1.0000
  H   H4983     1.0  0.87328  0.26131  0.77276  1.0000
  H   H4984     1.0  0.68734  0.42325  0.51553  1.0000
  H   H4985     1.0  0.69074  0.42345  0.53951  1.0000
  H   H4986     1.0  0.71109  0.41480  0.52243  1.0000
  N   N156      1.0  0.85917  0.41886  0.77806  1.0000
  C   C2806     1.0  0.87147  0.43281  0.77969  1.0000
  C   C2807     1.0  0.86489  0.41384  0.75809  1.0000
  H   H4987     1.0  0.86765  0.46920  0.56774  1.0000
  H   H4988     1.0  0.91267  0.47681  0.96500  1.0000
  C   C2808     1.0  0.88596  0.40337  0.75261  1.0000
  C   C2809     1.0  0.89116  0.40268  0.73110  1.0000
  H   H4989     1.0  0.82375  0.46398  0.59187  1.0000
  H   H4990     1.0  0.87182  0.44450  0.76684  1.0000
  H   H4991     1.0  0.69930  0.25086  0.62366  1.0000
  H   H4992     1.0  0.85573  0.40407  0.75602  1.0000
  H   H4993     1.0  0.86226  0.42713  0.74715  1.0000
  H   H4994     1.0  0.88128  0.47294  0.50737  1.0000
  H   H4995     1.0  0.89675  0.41053  0.75591  1.0000
  H   H4996     1.0  0.88753  0.38825  0.76039  1.0000
  H   H4997     1.0  0.88112  0.39530  0.72677  1.0000
  H   H4998     1.0  0.89055  0.41744  0.72252  1.0000
  H   H4999     1.0  0.90608  0.39453  0.72774  1.0000
  C   C2810     1.0  0.76856  0.24541  0.88930  1.0000
  C   C2811     1.0  0.80838  0.30854  0.80059  1.0000
  C   C2812     1.0  0.81146  0.29281  0.81852  1.0000
  C   C2813     1.0  0.80871  0.30161  0.83660  1.0000
  H   H5000     1.0  0.78646  0.28767  0.79244  1.0000
  H   H5001     1.0  0.79334  0.31655  0.80411  1.0000
  H   H5002     1.0  0.78507  0.32044  0.77332  1.0000
  H   H5003     1.0  0.80094  0.28284  0.82143  1.0000
  H   H5004     1.0  0.81938  0.31119  0.83492  1.0000
  H   H5005     1.0  0.79384  0.30995  0.83962  1.0000
  H   H5006     1.0  0.81103  0.28994  0.84912  1.0000
  H   H5007     1.0  0.71655  0.32685  0.56866  1.0000
  H   H5008     1.0  0.78262  0.35471  0.75301  1.0000
  H   H5009     1.0  0.96618  0.25839  0.93783  1.0000
  C   C2814     1.0  0.94161  0.24130  0.87017  1.0000
  H   H5010     1.0  0.85177  0.45395  0.79591  1.0000
  H   H5011     1.0  0.98661  0.38969  0.82109  1.0000
  C   C2815     1.0  0.71990  0.35658  0.49135  1.0000
  C   C2816     1.0  0.68624  0.25810  0.63250  1.0000
  H   H5012     1.0  0.71323  0.32318  0.52778  1.0000
  H   H5013     1.0  0.88680  0.42582  0.77952  1.0000
  H   H5014     1.0  0.87554  0.38892  0.61541  1.0000
  H   H5015     1.0  0.90065  0.41766  0.52246  1.0000
  H   H5016     1.0  0.72831  0.44293  0.63964  1.0000
  H   H5017     1.0  0.89239  0.44476  0.59807  1.0000
  H   H5018     1.0  0.84272  0.25044  0.82140  1.0000
  H   H5019     1.0  0.98732  0.43948  0.89323  1.0000
  H   H5020     1.0  0.74630  0.41178  0.48675  1.0000
  H   H5021     1.0  0.89971  0.36823  0.90505  1.0000
  H   H5022     1.0  0.86812  0.41445  0.57697  1.0000
  H   H5023     1.0  0.69800  0.25529  0.65911  1.0000
  H   H5024     1.0  0.81316  0.27887  0.75461  1.0000
  S   S645      1.0  0.66823  0.42116  0.60781  1.0000
  H   H5025     1.0  0.80894  0.27205  0.79317  1.0000
  H   H5026     1.0  0.68979  0.39177  0.50489  1.0000
  H   H5027     1.0  0.72006  0.46331  0.62228  1.0000
  H   H5028     1.0  0.83123  0.48182  0.57149  1.0000
  H   H5029     1.0  0.95706  0.27471  0.91824  1.0000
  C   C2817     1.0  0.75355  0.43830  0.50519  1.0000
  N   N157      1.0  0.91245  0.36984  0.87477  1.0000
  C   C2818     1.0  0.89936  0.35780  0.87083  1.0000
  C   C2819     1.0  0.93260  0.36543  0.86321  1.0000
  C   C2820     1.0  0.90442  0.39110  0.87092  1.0000
  C   C2821     1.0  0.89984  0.39962  0.85053  1.0000
  C   C2822     1.0  0.87824  0.36047  0.88192  1.0000
  C   C2823     1.0  0.93436  0.36007  0.84311  1.0000
  C   C2824     1.0  0.95513  0.35894  0.83216  1.0000
  C   C2825     1.0  0.88863  0.42021  0.84978  1.0000
  C   C2826     1.0  0.86619  0.34881  0.87530  1.0000
  H   H5030     1.0  0.90572  0.34225  0.87418  1.0000
  H   H5031     1.0  0.89837  0.36040  0.85536  1.0000
  H   H5032     1.0  0.94037  0.37764  0.86137  1.0000
  H   H5033     1.0  0.89118  0.39470  0.88164  1.0000
  H   H5034     1.0  0.91482  0.39956  0.87310  1.0000
  H   H5035     1.0  0.89088  0.39125  0.84598  1.0000
  H   H5036     1.0  0.91352  0.40017  0.84002  1.0000
  H   H5037     1.0  0.87783  0.35536  0.89759  1.0000
  H   H5038     1.0  0.87108  0.37577  0.87946  1.0000
  H   H5039     1.0  0.93037  0.34567  0.84477  1.0000
  H   H5040     1.0  0.92483  0.37060  0.83413  1.0000
  H   H5041     1.0  0.96524  0.34839  0.84063  1.0000
  H   H5042     1.0  0.95622  0.35420  0.81824  1.0000
  H   H5043     1.0  0.95948  0.37327  0.82920  1.0000
  H   H5044     1.0  0.87419  0.42043  0.85915  1.0000
  H   H5045     1.0  0.89674  0.42936  0.85449  1.0000
  H   H5046     1.0  0.88651  0.42646  0.83483  1.0000
  H   H5047     1.0  0.87246  0.33322  0.87788  1.0000
  H   H5048     1.0  0.85118  0.35079  0.88352  1.0000
  H   H5049     1.0  0.86553  0.35356  0.85974  1.0000
  C   C2827     1.0  0.98440  0.47482  0.82336  1.0000
  N   N158      1.0  0.78115  0.42446  0.60493  1.0000
  C   C2828     1.0  0.78176  0.43056  0.58351  1.0000
  C   C2829     1.0  0.76029  0.42692  0.61477  1.0000
  C   C2830     1.0  0.79221  0.43671  0.61157  1.0000
  C   C2831     1.0  0.79038  0.40365  0.60992  1.0000
  C   C2832     1.0  0.78197  0.38899  0.60268  1.0000
  C   C2833     1.0  0.80179  0.42557  0.57076  1.0000
  H   H5050     1.0  0.83441  0.30137  0.75660  1.0000
  C   C2834     1.0  0.74883  0.44781  0.61286  1.0000
  C   C2835     1.0  0.72817  0.44830  0.62405  1.0000
  C   C2836     1.0  0.79326  0.36860  0.60742  1.0000
  C   C2837     1.0  0.80169  0.43534  0.54986  1.0000
  H   H5051     1.0  0.77704  0.44641  0.57996  1.0000
  H   H5052     1.0  0.77119  0.42425  0.57855  1.0000
  H   H5053     1.0  0.75208  0.41862  0.60904  1.0000
  H   H5054     1.0  0.75929  0.42069  0.63027  1.0000
  H   H5055     1.0  0.78775  0.45222  0.60573  1.0000
  H   H5056     1.0  0.80628  0.40161  0.60455  1.0000
  H   H5057     1.0  0.78878  0.39908  0.62578  1.0000
  H   H5058     1.0  0.78240  0.39257  0.58700  1.0000
  H   H5059     1.0  0.76669  0.38886  0.60948  1.0000
  H   H5060     1.0  0.81317  0.43035  0.57575  1.0000
  H   H5061     1.0  0.80603  0.40983  0.57101  1.0000
  H   H5062     1.0  0.73186  0.43127  0.54261  1.0000
  H   H5063     1.0  0.77558  0.43867  0.64089  1.0000
  H   H5064     1.0  0.75570  0.45726  0.61859  1.0000
  H   H5065     1.0  0.74783  0.45395  0.59758  1.0000
  H   H5066     1.0  0.76816  0.42916  0.50530  1.0000
  C   C2838     1.0  0.98655  0.26124  0.91086  1.0000
  H   H5067     1.0  0.68354  0.45707  0.49832  1.0000
  H   H5068     1.0  0.80858  0.36768  0.60005  1.0000
  H   H5069     1.0  0.79279  0.36425  0.62319  1.0000
  H   H5070     1.0  0.78661  0.35833  0.60254  1.0000
  H   H5071     1.0  0.81652  0.43219  0.54151  1.0000
  H   H5072     1.0  0.79168  0.42971  0.54351  1.0000
  H   H5073     1.0  0.79743  0.45121  0.54864  1.0000
  C   C2839     1.0  0.80102  0.31809  0.76809  1.0000
  H   H5074     1.0  0.88854  0.45294  0.54453  1.0000
  S   S646      1.0  0.81435  0.46879  0.73684  1.0000
  H   H5075     1.0  0.66242  0.34954  0.51039  1.0000
  C   C2840     1.0  0.74992  0.44980  0.52189  1.0000
  H   H5076     1.0  0.84267  0.27218  0.79292  1.0000
  C   C2841     1.0  0.67031  0.32206  0.59078  1.0000
  H   H5077     1.0  0.85243  0.39498  0.60719  1.0000
  C   C2842     1.0  0.93029  0.36526  0.92358  1.0000
  H   H5078     1.0  0.82533  0.41700  0.76166  1.0000
  H   H5079     1.0  0.90777  0.41045  0.55568  1.0000
  S   S647      1.0  0.98498  0.31893  0.87295  1.0000
  H   H5080     1.0  0.79279  0.25442  0.75600  1.0000
  C   C2843     1.0  0.92298  0.26596  0.92873  1.0000
  H   H5081     1.0  0.89421  0.44267  0.80163  1.0000
  C   C2844     1.0  0.86597  0.41964  0.60602  1.0000
  H   H5082     1.0  0.89723  0.47635  0.67127  1.0000
  N   N159      1.0  0.75245  0.45009  0.48538  1.0000
  H   H5083     1.0  0.78122  0.45630  0.48280  1.0000
  C   C2845     1.0  0.91162  0.42442  0.52611  1.0000
  H   H5084     1.0  0.88558  0.46837  0.71851  1.0000
  C   C2846     1.0  0.86056  0.40088  0.79328  1.0000
  H   H5085     1.0  0.72369  0.26544  0.63235  1.0000
  H   H5086     1.0  0.89328  0.47548  0.57622  1.0000
  H   H5087     1.0  0.69383  0.47871  0.49196  1.0000
  H   H5088     1.0  0.79925  0.42984  0.79792  1.0000
  C   C2847     1.0  0.83836  0.42923  0.78016  1.0000
  H   H5089     1.0  0.81805  0.31902  0.79976  1.0000
  C   C2848     1.0  0.86182  0.39951  0.61520  1.0000
  H   H5090     1.0  0.79757  0.46277  0.63290  1.0000
  C   C2849     1.0  0.82328  0.41828  0.77702  1.0000
  H   H5091     1.0  0.94641  0.41926  0.82445  1.0000
  H   H5092     1.0  0.74318  0.44554  0.55315  1.0000
  Fe  Fe325     1.0  0.83553  0.41358  0.50814  1.0000
  H   H5093     1.0  0.82620  0.28446  0.81663  1.0000
  H   H5094     1.0  0.83328  0.43287  0.79484  1.0000
  C   C2850     1.0  0.80263  0.42894  0.78236  1.0000
  H   H5095     1.0  0.67109  0.33270  0.53012  1.0000
  H   H5096     1.0  0.98541  0.42326  0.80364  1.0000
  H   H5097     1.0  0.71303  0.38417  0.51182  1.0000
  H   H5098     1.0  0.89270  0.27909  0.93431  1.0000
  H   H5099     1.0  0.78251  0.24126  0.92147  1.0000
  H   H5100     1.0  0.71599  0.43716  0.49263  1.0000
  H   H5101     1.0  0.98384  0.29213  0.90989  1.0000
  H   H5102     1.0  0.89267  0.39266  0.78859  1.0000
  C   C2851     1.0  0.82432  0.48038  0.75091  1.0000
  H   H5103     1.0  0.80341  0.34392  0.77849  1.0000
  H   H5104     1.0  0.72074  0.37175  0.48441  1.0000
  H   H5105     1.0  0.67974  0.27050  0.62237  1.0000
  H   H5106     1.0  0.94151  0.35297  0.87118  1.0000
  S   S648      1.0  0.91851  0.26593  0.79719  1.0000
  C   C2852     1.0  0.89133  0.47425  0.65944  1.0000
  H   H5107     1.0  0.92453  0.27300  0.91346  1.0000
  H   H5108     1.0  0.96091  0.40109  0.85265  1.0000
  H   H5109     1.0  0.72176  0.35483  0.53117  1.0000
  H   H5110     1.0  0.86153  0.43230  0.81089  1.0000
  C   C2853     1.0  0.86493  0.44281  0.79758  1.0000
  S   S649      1.0  0.98464  0.35816  0.90871  1.0000
  C   C2854     1.0  0.79073  0.43454  0.63368  1.0000
  C   C2855     1.0  0.72150  0.32083  0.55512  1.0000
  H   H5111     1.0  0.85690  0.38888  0.78804  1.0000
  C   C2856     1.0  0.80144  0.28470  0.78416  1.0000
  H   H5112     1.0  0.79623  0.41953  0.64013  1.0000
  Fe  Fe326     1.0  0.98374  0.38534  0.88658  1.0000
  S   S650      1.0  0.81733  0.44225  0.49983  1.0000
  H   H5113     1.0  0.78767  0.28835  0.75893  1.0000
  C   C2857     1.0  0.84386  0.27725  0.77734  1.0000
  H   H5114     1.0  0.94213  0.25611  0.86199  1.0000
  C   C2858     1.0  0.67949  0.23425  0.60749  1.0000
  C   C2859     1.0  0.87677  0.42016  0.58489  1.0000
  H   H5115     1.0  0.73642  0.32351  0.54888  1.0000
  C   C2860     1.0  0.74532  0.43703  0.54149  1.0000
  C   C2861     1.0  0.88019  0.39342  0.80052  1.0000
  H   H5116     1.0  0.72185  0.30504  0.55872  1.0000
  H   H5117     1.0  0.80329  0.34716  0.73526  1.0000
  H   H5118     1.0  0.80791  0.43326  0.60572  1.0000
  H   H5119     1.0  0.76681  0.24157  0.87571  1.0000
  C   C2862     1.0  0.90757  0.42535  0.54759  1.0000
  H   H5120     1.0  0.72044  0.43928  0.61866  1.0000
  C   C2863     1.0  0.83154  0.24229  0.82877  1.0000
  H   H5121     1.0  0.91143  0.43907  0.51733  1.0000
  H   H5122     1.0  0.66183  0.31682  0.56561  1.0000
  H   H5123     1.0  0.84950  0.40295  0.80641  1.0000
  N   N160      1.0  0.81118  0.30189  0.78146  1.0000
  C   C2864     1.0  0.79966  0.27845  0.76541  1.0000
  C   C2865     1.0  0.98591  0.45337  0.82210  1.0000
  C   C2866     1.0  0.66411  0.24085  0.62454  1.0000
  H   H5124     1.0  0.94029  0.37255  0.92814  1.0000
  H   H5125     1.0  0.75635  0.25700  0.89327  1.0000
  H   H5126     1.0  0.80716  0.24741  0.77481  1.0000
  H   H5127     1.0  0.93127  0.24500  0.83271  1.0000
  H   H5128     1.0  0.84258  0.43782  0.57555  1.0000
  H   H5129     1.0  0.74329  0.42804  0.50908  1.0000
  C   C2867     1.0  0.98719  0.25625  0.84940  1.0000
  H   H5130     1.0  0.88350  0.46449  0.78740  1.0000
  C   C2868     1.0  0.90168  0.26445  0.93601  1.0000
  H   H5131     1.0  0.86014  0.45781  0.59149  1.0000
  H   H5132     1.0  0.89028  0.40924  0.58541  1.0000
  H   H5133     1.0  0.97551  0.26618  0.85699  1.0000
  C   C2869     1.0  0.88057  0.45305  0.80001  1.0000
  H   H5134     1.0  0.82448  0.40378  0.78603  1.0000
  C   C2870     1.0  0.83247  0.29799  0.77262  1.0000
  H   H5135     1.0  0.68899  0.36335  0.49301  1.0000
  C   C2871     1.0  0.91396  0.36428  0.89587  1.0000
  C   C2872     1.0  0.92844  0.37359  0.90262  1.0000
  H   H5136     1.0  0.93870  0.23825  0.77389  1.0000
  C   C2873     1.0  0.80280  0.44739  0.63846  1.0000
  C   C2874     1.0  0.90468  0.46294  0.57307  1.0000
  H   H5137     1.0  0.98342  0.45325  0.80743  1.0000
  H   H5138     1.0  0.88239  0.40309  0.80964  1.0000
  C   C2875     1.0  0.86414  0.45529  0.57638  1.0000
  C   C2876     1.0  0.84600  0.45235  0.56965  1.0000
  C   C2877     1.0  0.86539  0.27618  0.76883  1.0000
  C   C2878     1.0  0.88785  0.43838  0.55316  1.0000
  C   C2879     1.0  0.79503  0.25811  0.76945  1.0000
  H   H5139     1.0  0.87114  0.46620  0.61672  1.0000
  H   H5140     1.0  0.85441  0.46822  0.74308  1.0000
  C   C2880     1.0  0.93746  0.23654  0.82155  1.0000
  H   H5141     1.0  0.81834  0.44336  0.63229  1.0000
  C   C2881     1.0  0.93348  0.24361  0.80291  1.0000
  H   H5142     1.0  0.71393  0.45143  0.51064  1.0000
  H   H5143     1.0  0.73780  0.46216  0.52044  1.0000
  C   C2882     1.0  0.89983  0.46748  0.72263  1.0000
  C   C2883     1.0  0.95509  0.24808  0.89743  1.0000
  H   H5144     1.0  0.98707  0.26266  0.89515  1.0000
  C   C2884     1.0  0.73240  0.46125  0.48335  1.0000
  H   H5145     1.0  0.81602  0.46592  0.56919  1.0000
  H   H5146     1.0  0.66387  0.37684  0.52409  1.0000
  H   H5147     1.0  0.92092  0.47915  0.90014  1.0000
  C   C2885     1.0  0.71491  0.45198  0.49500  1.0000
  H   H5148     1.0  0.70749  0.28737  0.62471  1.0000
  C   C2886     1.0  0.82145  0.23461  0.81826  1.0000
  N   N161      1.0  0.95606  0.24484  0.91863  1.0000
  H   H5149     1.0  0.91896  0.46358  0.59677  1.0000
  H   H5150     1.0  0.78243  0.25083  0.88664  1.0000
  C   C2887     1.0  0.66310  0.34737  0.52596  1.0000
  H   H5151     1.0  0.98634  0.47654  0.83771  1.0000
  C   C2888     1.0  0.93826  0.24123  0.89177  1.0000
  C   C2889     1.0  0.87652  0.48281  0.51750  1.0000
  H   H5152     1.0  0.99059  0.42390  0.86534  1.0000
  H   H5153     1.0  0.95294  0.48063  0.83124  1.0000
  H   H5154     1.0  0.96901  0.24116  0.88955  1.0000
  C   C2890     1.0  0.93636  0.24598  0.93127  1.0000
  C   C2891     1.0  0.84420  0.47784  0.75155  1.0000
  H   H5155     1.0  0.65955  0.23888  0.58742  1.0000
  C   C2892     1.0  0.76626  0.46418  0.48155  1.0000
  H   H5156     1.0  0.92329  0.48312  0.71634  1.0000
  H   H5157     1.0  0.92810  0.70942  0.15535  1.0000
  C   C2893     1.0  0.68999  0.68184  0.07989  1.0000
  H   H5158     1.0  0.66361  0.72220  0.20989  1.0000
  C   C2894     1.0  0.72088  0.70863  0.14591  1.0000
  H   H5159     1.0  0.96950  0.71440  0.11217  1.0000
  S   S651      1.0  0.94961  0.66967  0.10541  1.0000
  H   H5160     1.0  0.80463  0.60209  0.01762  1.0000
  Fe  Fe327     1.0  0.77445  0.68979  0.07610  1.0000
  S   S652      1.0  0.78921  0.66483  0.09504  1.0000
  Fe  Fe328     1.0  0.75478  0.66372  0.05968  1.0000
  S   S653      1.0  0.76914  0.63740  0.07782  1.0000
  S   S654      1.0  0.73854  0.65183  0.04185  1.0000
  Fe  Fe329     1.0  0.76070  0.65455  0.10169  1.0000
  S   S655      1.0  0.74879  0.63987  0.13158  1.0000
  Fe  Fe330     1.0  0.79591  0.65036  0.06921  1.0000
  S   S656      1.0  0.82644  0.63559  0.05961  1.0000
  S   S657      1.0  0.74502  0.68046  0.08430  1.0000
  S   S658      1.0  0.78258  0.67572  0.04960  1.0000
  C   C2895     1.0  0.87422  0.65783  0.03361  1.0000
  C   C2896     1.0  0.70300  0.59215  0.00168  1.0000
  C   C2897     1.0  0.68898  0.69885  0.20800  1.0000
  C   C2898     1.0  0.92853  0.63473  0.99082  1.0000
  H   H5161     1.0  0.71132  0.68835  0.03403  1.0000
  H   H5162     1.0  0.95029  0.64127  0.02633  1.0000
  H   H5163     1.0  0.69739  0.51432  0.28191  1.0000
  C   C2899     1.0  0.91744  0.67739  0.06048  1.0000
  H   H5164     1.0  0.69795  0.62787  0.20925  1.0000
  H   H5165     1.0  0.95793  0.59935  0.10754  1.0000
  H   H5166     1.0  0.92004  0.66998  0.04794  1.0000
  H   H5167     1.0  0.69171  0.58519  0.99893  1.0000
  H   H5168     1.0  0.80793  0.66082  0.98285  1.0000
  C   C2900     1.0  0.72371  0.64477  0.14012  1.0000
  C   C2901     1.0  0.71542  0.63254  0.15612  1.0000
  C   C2902     1.0  0.69534  0.63591  0.16289  1.0000
  C   C2903     1.0  0.68355  0.65166  0.15374  1.0000
  C   C2904     1.0  0.69185  0.66399  0.13792  1.0000
  C   C2905     1.0  0.71188  0.66060  0.13117  1.0000
  H   H5169     1.0  0.72455  0.62031  0.16316  1.0000
  H   H5170     1.0  0.68902  0.62636  0.17515  1.0000
  H   H5171     1.0  0.68277  0.67629  0.13092  1.0000
  H   H5172     1.0  0.71815  0.67025  0.11904  1.0000
  C   C2906     1.0  0.71634  0.65810  0.03301  1.0000
  C   C2907     1.0  0.70920  0.64349  0.02802  1.0000
  C   C2908     1.0  0.69179  0.64747  0.02069  1.0000
  C   C2909     1.0  0.68143  0.66627  0.01795  1.0000
  C   C2910     1.0  0.67866  0.60319  0.07951  1.0000
  C   C2911     1.0  0.70591  0.67690  0.03046  1.0000
  H   H5173     1.0  0.71714  0.62890  0.03010  1.0000
  H   H5174     1.0  0.82871  0.72859  0.03106  1.0000
  H   H5175     1.0  0.85922  0.67059  0.07750  1.0000
  C   C2912     1.0  0.71376  0.61151  0.09209  1.0000
  C   C2913     1.0  0.82961  0.62182  0.04136  1.0000
  C   C2914     1.0  0.84832  0.61606  0.03153  1.0000
  C   C2915     1.0  0.85116  0.60640  0.01595  1.0000
  C   C2916     1.0  0.83538  0.60158  0.01068  1.0000
  C   C2917     1.0  0.81382  0.61680  0.03628  1.0000
  H   H5176     1.0  0.86069  0.61922  0.03576  1.0000
  H   H5177     1.0  0.86562  0.60244  0.00817  1.0000
  H   H5178     1.0  0.82161  0.68503  0.99190  1.0000
  C   C2918     1.0  0.98980  0.59729  0.18458  1.0000
  C   C2919     1.0  0.93895  0.69150  0.11357  1.0000
  C   C2920     1.0  0.93300  0.70840  0.10099  1.0000
  C   C2921     1.0  0.86727  0.72977  0.07059  1.0000
  C   C2922     1.0  0.89193  0.69111  0.08639  1.0000
  H   H5179     1.0  0.87170  0.66807  0.11002  1.0000
  C   C2923     1.0  0.93659  0.69188  0.13323  1.0000
  H   H5180     1.0  0.93468  0.70819  0.08579  1.0000
  H   H5181     1.0  0.66869  0.68424  0.25998  1.0000
  H   H5182     1.0  0.94106  0.67888  0.14303  1.0000
  C   C2924     1.0  0.79878  0.71184  0.10768  1.0000
  C   C2925     1.0  0.94168  0.66364  0.00336  1.0000
  H   H5183     1.0  0.68274  0.69162  0.22253  1.0000
  C   C2926     1.0  0.80844  0.71689  0.12051  1.0000
  H   H5184     1.0  0.66606  0.71242  0.17980  1.0000
  C   C2927     1.0  0.68488  0.62294  0.07733  1.0000
  H   H5185     1.0  0.96218  0.61407  0.08417  1.0000
  C   C2928     1.0  0.89238  0.64291  0.03659  1.0000
  H   H5186     1.0  0.66522  0.58830  0.06406  1.0000
  H   H5187     1.0  0.67263  0.66819  0.33842  1.0000
  H   H5188     1.0  0.81025  0.70729  0.13395  1.0000
  C   C2929     1.0  0.66768  0.69670  0.18509  1.0000
  C   C2930     1.0  0.81679  0.60625  0.02128  1.0000
  H   H5189     1.0  0.85911  0.70338  0.06850  1.0000
  Fe  Fe331     1.0  0.96864  0.67158  0.07619  1.0000
  S   S659      1.0  0.96774  0.69733  0.05271  1.0000
  C   C2931     1.0  0.88017  0.69727  0.12798  1.0000
  H   H5190     1.0  0.72423  0.65198  0.98534  1.0000
  C   C2932     1.0  0.72780  0.61366  0.98632  1.0000
  H   H5191     1.0  0.67157  0.63384  0.07597  1.0000
  H   H5192     1.0  0.70475  0.68246  0.07141  1.0000
  H   H5193     1.0  0.98034  0.56130  0.98592  1.0000
  C   C2933     1.0  0.93711  0.63049  0.00736  1.0000
  H   H5194     1.0  0.66712  0.60110  0.09230  1.0000
  C   C2934     1.0  0.66444  0.68294  0.33463  1.0000
  H   H5195     1.0  0.97868  0.58946  0.19423  1.0000
  H   H5196     1.0  0.68065  0.69556  0.02085  1.0000
  H   H5197     1.0  0.81593  0.69506  0.01987  1.0000
  H   H5198     1.0  0.72248  0.72325  0.13777  1.0000
  C   C2935     1.0  0.84480  0.66500  0.00585  1.0000
  C   C2936     1.0  0.85980  0.71079  0.08024  1.0000
  H   H5199     1.0  0.83699  0.68369  0.08858  1.0000
  H   H5200     1.0  0.71137  0.59639  0.09610  1.0000
  H   H5201     1.0  0.67099  0.68964  0.32004  1.0000
  H   H5202     1.0  0.66259  0.51908  0.26535  1.0000
  H   H5203     1.0  0.95248  0.62538  0.10489  1.0000
  H   H5204     1.0  0.69093  0.59105  0.08097  1.0000
  H   H5205     1.0  0.80855  0.65507  0.00832  1.0000
  H   H5206     1.0  0.88854  0.69064  0.05675  1.0000
  S   S660      1.0  0.96862  0.65095  0.05696  1.0000
  N   N162      1.0  0.68652  0.68884  0.19246  1.0000
  S   S661      1.0  0.83879  0.59046  0.99043  1.0000
  H   H5207     1.0  0.68062  0.72120  0.23686  1.0000
  C   C2937     1.0  0.98775  0.60745  0.01788  1.0000
  Fe  Fe332     1.0  0.96995  0.67617  0.03300  1.0000
  H   H5208     1.0  0.79935  0.62096  0.04394  1.0000
  C   C2938     1.0  0.86155  0.69247  0.98747  1.0000
  H   H5209     1.0  0.70943  0.71897  0.17239  1.0000
  C   C2939     1.0  0.74609  0.59841  0.10325  1.0000
  C   C2940     1.0  0.87078  0.70870  0.11046  1.0000
  H   H5210     1.0  0.97847  0.49403  0.37898  1.0000
  H   H5211     1.0  0.80440  0.72558  0.03123  1.0000
  H   H5212     1.0  0.66316  0.64725  0.11847  1.0000
  H   H5213     1.0  0.95949  0.49521  0.39983  1.0000
  H   H5214     1.0  0.67255  0.54915  0.19499  1.0000
  H   H5215     1.0  0.68963  0.68427  0.09465  1.0000
  C   C2941     1.0  0.87684  0.70951  0.14366  1.0000
  H   H5216     1.0  0.90520  0.65004  0.03339  1.0000
  H   H5217     1.0  0.92548  0.66802  0.07161  1.0000
  C   C2942     1.0  0.70354  0.63602  0.21771  1.0000
  H   H5218     1.0  0.74278  0.58364  0.10824  1.0000
  S   S662      1.0  0.95049  0.68193  0.01032  1.0000
  H   H5219     1.0  0.83605  0.66085  0.02028  1.0000
  C   C2943     1.0  0.86113  0.68044  0.10409  1.0000
  C   C2944     1.0  0.94369  0.64480  0.01359  1.0000
  H   H5220     1.0  0.88245  0.72316  0.13785  1.0000
  C   C2945     1.0  0.68531  0.72906  0.22217  1.0000
  C   C2946     1.0  0.79561  0.72439  0.09054  1.0000
  H   H5221     1.0  0.84335  0.68305  0.03589  1.0000
  H   H5222     1.0  0.85561  0.71498  0.11602  1.0000
  H   H5223     1.0  0.71772  0.62778  0.22104  1.0000
  H   H5224     1.0  0.97347  0.62406  0.12885  1.0000
  C   C2947     1.0  0.68666  0.66776  0.20079  1.0000
  C   C2948     1.0  0.68854  0.68094  0.02295  1.0000
  H   H5225     1.0  0.75364  0.59978  0.08804  1.0000
  H   H5226     1.0  0.83547  0.64945  0.09253  1.0000
  H   H5227     1.0  0.88317  0.65849  0.00300  1.0000
  H   H5228     1.0  0.69334  0.63727  0.23148  1.0000
  N   N163      1.0  0.85680  0.67964  0.00663  1.0000
  H   H5229     1.0  0.83378  0.65608  0.11557  1.0000
  H   H5230     1.0  0.85619  0.70175  0.02290  1.0000
  H   H5231     1.0  0.96667  0.58927  0.00262  1.0000
  H   H5232     1.0  0.85620  0.64266  0.10441  1.0000
  H   H5233     1.0  0.71684  0.65358  0.19293  1.0000
  H   H5234     1.0  0.71442  0.58068  0.00734  1.0000
  H   H5235     1.0  0.73180  0.62782  0.10152  1.0000
  C   C2949     1.0  0.84656  0.69208  0.02145  1.0000
  H   H5236     1.0  0.89991  0.70340  0.08277  1.0000
  H   H5237     1.0  0.97218  0.60746  0.16266  1.0000
  H   H5238     1.0  0.70123  0.72844  0.21964  1.0000
  H   H5239     1.0  0.78675  0.61492  0.99269  1.0000
  H   H5240     1.0  0.89944  0.68055  0.09728  1.0000
  C   C2950     1.0  0.98744  0.49787  0.40403  1.0000
  C   C2951     1.0  0.68295  0.62082  0.11277  1.0000
  C   C2952     1.0  0.78058  0.63045  0.99213  1.0000
  H   H5241     1.0  0.70465  0.69749  0.20843  1.0000
  H   H5242     1.0  0.78892  0.63883  0.97969  1.0000
  C   C2953     1.0  0.98419  0.61178  0.12364  1.0000
  C   C2954     1.0  0.87576  0.66904  0.01265  1.0000
  H   H5243     1.0  0.68244  0.66044  0.19061  1.0000
  H   H5244     1.0  0.75601  0.60066  0.11218  1.0000
  H   H5245     1.0  0.79320  0.69852  0.11140  1.0000
  H   H5246     1.0  0.84985  0.68395  0.11671  1.0000
  H   H5247     1.0  0.89077  0.66736  0.07243  1.0000
  H   H5248     1.0  0.69262  0.49570  0.30238  1.0000
  C   C2955     1.0  0.92613  0.65366  0.98078  1.0000
  C   C2956     1.0  0.92921  0.70915  0.14022  1.0000
  H   H5249     1.0  0.89078  0.63534  0.05177  1.0000
  H   H5250     1.0  0.75134  0.62643  0.00345  1.0000
  C   C2957     1.0  0.71154  0.60426  0.98300  1.0000
  H   H5251     1.0  0.86163  0.65037  0.03757  1.0000
  C   C2958     1.0  0.96270  0.61295  0.09961  1.0000
  C   C2959     1.0  0.97484  0.48919  0.39474  1.0000
  C   C2960     1.0  0.66227  0.63261  0.11656  1.0000
  C   C2961     1.0  0.72755  0.61342  0.10528  1.0000
  H   H5252     1.0  0.87409  0.68402  0.13452  1.0000
  C   C2962     1.0  0.82676  0.70449  0.01809  1.0000
  H   H5253     1.0  0.71705  0.70045  0.13624  1.0000
  H   H5254     1.0  0.72076  0.61119  0.12067  1.0000
  H   H5255     1.0  0.70175  0.64907  0.10262  1.0000
  H   H5256     1.0  0.68646  0.63605  0.01700  1.0000
  H   H5257     1.0  0.98175  0.68973  0.11784  1.0000
  C   C2963     1.0  0.67323  0.50695  0.25995  1.0000
  N   N164      1.0  0.66415  0.49791  0.24783  1.0000
  H   H5258     1.0  0.78208  0.63479  0.00555  1.0000
  H   H5259     1.0  0.69032  0.62326  0.12392  1.0000
  H   H5260     1.0  0.88452  0.70150  0.15558  1.0000
  H   H5261     1.0  0.71309  0.64644  0.07885  1.0000
  H   H5262     1.0  0.75399  0.65001  0.98987  1.0000
  C   C2964     1.0  0.92326  0.72606  0.12778  1.0000
  H   H5263     1.0  0.69456  0.62556  0.06318  1.0000
  N   N165      1.0  0.87103  0.69755  0.09488  1.0000
  H   H5264     1.0  0.69151  0.71775  0.15857  1.0000
  H   H5265     1.0  0.98769  0.57613  0.02589  1.0000
  C   C2965     1.0  0.89575  0.68141  0.06848  1.0000
  C   C2966     1.0  0.85019  0.67303  0.09148  1.0000
  S   S663      1.0  0.65987  0.67210  0.00794  1.0000
  H   H5266     1.0  0.72202  0.61310  0.07704  1.0000
  H   H5267     1.0  0.70225  0.68050  0.16566  1.0000
  H   H5268     1.0  0.87238  0.66798  0.04372  1.0000
  C   C2967     1.0  0.81761  0.65616  0.99374  1.0000
  C   C2968     1.0  0.67964  0.72045  0.20699  1.0000
  S   S664      1.0  0.78205  0.71935  0.07468  1.0000
  H   H5269     1.0  0.68573  0.51337  0.25115  1.0000
  H   H5270     1.0  0.89465  0.63205  0.02710  1.0000
  H   H5271     1.0  0.82623  0.64177  0.99176  1.0000
  C   C2969     1.0  0.68440  0.66242  0.08053  1.0000
  H   H5272     1.0  0.92322  0.69104  0.05560  1.0000
  H   H5273     1.0  0.66761  0.69045  0.17224  1.0000
  C   C2970     1.0  0.70611  0.65592  0.20616  1.0000
  C   C2971     1.0  0.84357  0.65415  0.10171  1.0000
  C   C2972     1.0  0.67069  0.60202  0.06181  1.0000
  H   H5274     1.0  0.73941  0.60144  0.99049  1.0000
  H   H5275     1.0  0.72220  0.62034  0.99936  1.0000
  H   H5276     1.0  0.71214  0.66341  0.21486  1.0000
  C   C2973     1.0  0.92481  0.72561  0.10817  1.0000
  H   H5277     1.0  0.88598  0.67919  0.01099  1.0000
  H   H5278     1.0  0.98110  0.70100  0.09321  1.0000
  H   H5279     1.0  0.68454  0.51790  0.21472  1.0000
  H   H5280     1.0  0.89604  0.69315  0.12359  1.0000
  H   H5281     1.0  0.87855  0.72103  0.10465  1.0000
  H   H5282     1.0  0.93864  0.61597  0.01542  1.0000
  H   H5283     1.0  0.86114  0.71297  0.14954  1.0000
  C   C2974     1.0  0.69924  0.64559  0.08921  1.0000
  H   H5284     1.0  0.67964  0.69358  0.07289  1.0000
  C   C2975     1.0  0.70508  0.71016  0.16372  1.0000
  N   N166      1.0  0.69470  0.62546  0.09298  1.0000
  C   C2976     1.0  0.70312  0.68998  0.17569  1.0000
  H   H5285     1.0  0.67336  0.51515  0.29629  1.0000
  H   H5286     1.0  0.67562  0.66616  0.21412  1.0000
  H   H5287     1.0  0.68207  0.60522  0.11630  1.0000
  C   C2977     1.0  0.98330  0.61318  0.10208  1.0000
  C   C2978     1.0  0.68645  0.50551  0.29023  1.0000
  H   H5288     1.0  0.85964  0.73173  0.04245  1.0000
  H   H5289     1.0  0.71725  0.68440  0.18067  1.0000
  C   C2979     1.0  0.68121  0.49369  0.27744  1.0000
  H   H5290     1.0  0.97211  0.61158  0.01725  1.0000
  H   H5291     1.0  0.85422  0.65127  0.00260  1.0000
  H   H5292     1.0  0.91670  0.48607  0.42170  1.0000
  H   H5293     1.0  0.88294  0.72702  0.06458  1.0000
  H   H5294     1.0  0.69620  0.60135  0.01269  1.0000
  H   H5295     1.0  0.97840  0.59864  0.13129  1.0000
  H   H5296     1.0  0.96231  0.59244  0.04956  1.0000
  H   H5297     1.0  0.81848  0.70936  0.04781  1.0000
  H   H5298     1.0  0.82759  0.71368  0.00367  1.0000
  H   H5299     1.0  0.84442  0.71488  0.08715  1.0000
  C   C2980     1.0  0.67063  0.52673  0.22027  1.0000
  H   H5300     1.0  0.98025  0.57472  0.06088  1.0000
  H   H5301     1.0  0.66955  0.66257  0.08873  1.0000
  H   H5302     1.0  0.68391  0.72912  0.19273  1.0000
  H   H5303     1.0  0.86849  0.70426  0.98925  1.0000
  H   H5304     1.0  0.66011  0.53054  0.19321  1.0000
  C   C2981     1.0  0.93259  0.66805  0.98709  1.0000
  C   C2982     1.0  0.81923  0.71780  0.03296  1.0000
  H   H5305     1.0  0.68413  0.66124  0.06551  1.0000
  H   H5306     1.0  0.69333  0.48801  0.23381  1.0000
  C   C2983     1.0  0.78089  0.49215  0.46032  1.0000
  H   H5307     1.0  0.78174  0.50162  0.44599  1.0000
  C   C2984     1.0  0.98218  0.70351  0.10756  1.0000
  H   H5308     1.0  0.67353  0.53651  0.22892  1.0000
  H   H5309     1.0  0.66563  0.69165  0.34517  1.0000
  H   H5310     1.0  0.98113  0.59991  0.05800  1.0000
  H   H5311     1.0  0.92977  0.49689  0.98948  1.0000
  H   H5312     1.0  0.77560  0.50129  0.47160  1.0000
  C   C2985     1.0  0.97778  0.58885  0.05122  1.0000
  C   C2986     1.0  0.75925  0.63433  0.99030  1.0000
  H   H5313     1.0  0.68226  0.60255  0.04887  1.0000
  C   C2987     1.0  0.97523  0.59176  0.98791  1.0000
  H   H5314     1.0  0.73504  0.70131  0.15008  1.0000
  H   H5315     1.0  0.98462  0.51379  0.39985  1.0000
  H   H5316     1.0  0.98408  0.49414  0.41997  1.0000
  H   H5317     1.0  0.69454  0.64543  0.97989  1.0000
  C   C2988     1.0  0.83088  0.67080  0.99094  1.0000
  H   H5318     1.0  0.79572  0.48420  0.46188  1.0000
  C   C2989     1.0  0.66231  0.53947  0.20308  1.0000
  S   S665      1.0  0.92246  0.61553  0.98273  1.0000
  H   H5319     1.0  0.97735  0.62989  0.98585  1.0000
  H   H5320     1.0  0.98831  0.58513  0.16041  1.0000
  H   H5321     1.0  0.98657  0.64752  0.00635  1.0000
  H   H5322     1.0  0.98084  0.73105  0.06970  1.0000
  H   H5323     1.0  0.75277  0.48667  0.45995  1.0000
  H   H5324     1.0  0.99083  0.61839  0.02507  1.0000
  H   H5325     1.0  0.84827  0.70002  0.98172  1.0000
  H   H5326     1.0  0.98812  0.61157  0.18879  1.0000
  C   C2990     1.0  0.99094  0.58789  0.03171  1.0000
  H   H5327     1.0  0.99021  0.72610  0.13032  1.0000
  H   H5328     1.0  0.98740  0.62676  0.09337  1.0000
  C   C2991     1.0  0.92278  0.48539  0.98727  1.0000
  H   H5329     1.0  0.67061  0.48504  0.28667  1.0000
  C   C2992     1.0  0.98716  0.59965  0.16369  1.0000
  H   H5330     1.0  0.96810  0.60530  0.97982  1.0000
  H   H5331     1.0  0.69469  0.48398  0.27238  1.0000
  H   H5332     1.0  0.93097  0.68257  0.97903  1.0000
  H   H5333     1.0  0.90903  0.48488  0.99774  1.0000
  Fe  Fe333     1.0  0.89361  0.59547  0.93208  1.0000
  S   S666      1.0  0.90292  0.62367  0.93103  1.0000
  S   S667      1.0  0.90906  0.57763  0.90881  1.0000
  H   H5334     1.0  0.90550  0.48565  0.51898  1.0000
  H   H5335     1.0  0.98868  0.68880  0.68898  1.0000
  H   H5336     1.0  0.79159  0.55712  0.73331  1.0000
  Fe  Fe334     1.0  0.87090  0.63491  0.93735  1.0000
  S   S668      1.0  0.85611  0.66221  0.92095  1.0000
  Fe  Fe335     1.0  0.90092  0.61569  0.96327  1.0000
  C   C2993     1.0  0.89579  0.48527  0.64116  1.0000
  S   S669      1.0  0.86182  0.60731  0.93654  1.0000
  H   H5337     1.0  0.98186  0.57748  0.96291  1.0000
  Fe  Fe336     1.0  0.75974  0.65984  0.89202  1.0000
  S   S670      1.0  0.76627  0.63335  0.87882  1.0000
  S   S671      1.0  0.76914  0.65713  0.92040  1.0000
  Fe  Fe337     1.0  0.73778  0.68312  0.86073  1.0000
  S   S672      1.0  0.74261  0.65851  0.84478  1.0000
  S   S673      1.0  0.72308  0.71281  0.84922  1.0000
  Fe  Fe338     1.0  0.73549  0.64117  0.87424  1.0000
  S   S674      1.0  0.71801  0.61774  0.87884  1.0000
  Fe  Fe339     1.0  0.77297  0.65302  0.85068  1.0000
  S   S675      1.0  0.80112  0.64568  0.83042  1.0000
  S   S676      1.0  0.72815  0.66622  0.88980  1.0000
  S   S677      1.0  0.76876  0.67910  0.86437  1.0000
  H   H5338     1.0  0.91714  0.61557  0.52483  1.0000
  S   S678      1.0  0.67443  0.59361  0.96367  1.0000
  H   H5339     1.0  0.98988  0.64700  0.51600  1.0000
  H   H5340     1.0  0.73340  0.70800  0.88899  1.0000
  C   C2994     1.0  0.83703  0.49852  0.61045  1.0000
  H   H5341     1.0  0.82825  0.52613  0.73522  1.0000
  H   H5342     1.0  0.67819  0.66012  0.84131  1.0000
  H   H5343     1.0  0.82614  0.50828  0.69919  1.0000
  H   H5344     1.0  0.84397  0.63017  0.57424  1.0000
  C   C2995     1.0  0.94494  0.51211  0.74135  1.0000
  H   H5345     1.0  0.74611  0.71531  0.80971  1.0000
  Fe  Fe340     1.0  0.90071  0.52937  0.56837  1.0000
  S   S679      1.0  0.92749  0.52319  0.58208  1.0000
  S   S680      1.0  0.90248  0.51114  0.54538  1.0000
  Fe  Fe341     1.0  0.88098  0.55987  0.59321  1.0000
  S   S681      1.0  0.90581  0.55548  0.60877  1.0000
  S   S682      1.0  0.85617  0.58265  0.60253  1.0000
  Fe  Fe342     1.0  0.92436  0.55533  0.57983  1.0000
  S   S683      1.0  0.94789  0.57386  0.56898  1.0000
  Fe  Fe343     1.0  0.90648  0.52412  0.60986  1.0000
  S   S684      1.0  0.89934  0.56156  0.56378  1.0000
  S   S685      1.0  0.87992  0.52852  0.59655  1.0000
  Fe  Fe344     1.0  0.87055  0.51182  0.80150  1.0000
  S   S686      1.0  0.90090  0.50169  0.78774  1.0000
  C   C2996     1.0  0.88155  0.52653  0.94175  1.0000
  Fe  Fe345     1.0  0.88371  0.52058  0.83647  1.0000
  S   S687      1.0  0.91517  0.51065  0.82523  1.0000
  S   S688      1.0  0.87119  0.53142  0.86489  1.0000
  Fe  Fe346     1.0  0.90808  0.52685  0.79662  1.0000
  S   S689      1.0  0.92974  0.54322  0.77633  1.0000
  H   H5346     1.0  0.89074  0.62251  0.55179  1.0000
  S   S690      1.0  0.87731  0.53855  0.80823  1.0000
  H   H5347     1.0  0.69643  0.70684  0.89175  1.0000
  Fe  Fe347     1.0  0.82982  0.63696  0.72393  1.0000
  S   S691      1.0  0.85228  0.65608  0.71481  1.0000
  S   S692      1.0  0.80106  0.64270  0.74358  1.0000
  Fe  Fe348     1.0  0.85193  0.60809  0.69864  1.0000
  S   S693      1.0  0.87630  0.62446  0.68722  1.0000
  S   S694      1.0  0.85290  0.57911  0.69134  1.0000
  Fe  Fe349     1.0  0.87355  0.62827  0.71773  1.0000
  S   S695      1.0  0.90135  0.62494  0.72861  1.0000
  Fe  Fe350     1.0  0.85330  0.65086  0.68497  1.0000
  S   S696      1.0  0.85559  0.67270  0.65735  1.0000
  S   S697      1.0  0.85108  0.60964  0.72946  1.0000
  S   S698      1.0  0.82892  0.63403  0.69376  1.0000
  C   C2997     1.0  0.92117  0.56589  0.76345  1.0000
  C   C2998     1.0  0.93464  0.57691  0.75211  1.0000
  C   C2999     1.0  0.92841  0.59506  0.74164  1.0000
  C   C3000     1.0  0.90863  0.60217  0.74209  1.0000
  C   C3001     1.0  0.89509  0.59116  0.75338  1.0000
  C   C3002     1.0  0.90135  0.57306  0.76415  1.0000
  H   H5348     1.0  0.94997  0.57148  0.75163  1.0000
  H   H5349     1.0  0.93894  0.60357  0.73314  1.0000
  H   H5350     1.0  0.87983  0.59680  0.75418  1.0000
  H   H5351     1.0  0.89087  0.56469  0.77297  1.0000
  C   C3003     1.0  0.85437  0.58157  0.62737  1.0000
  C   C3004     1.0  0.86096  0.56426  0.63898  1.0000
  C   C3005     1.0  0.86030  0.56358  0.65866  1.0000
  C   C3006     1.0  0.85347  0.58029  0.66672  1.0000
  C   C3007     1.0  0.84701  0.59764  0.65512  1.0000
  C   C3008     1.0  0.84715  0.59821  0.63551  1.0000
  H   H5352     1.0  0.86649  0.55134  0.63280  1.0000
  H   H5353     1.0  0.86533  0.55015  0.66757  1.0000
  H   H5354     1.0  0.84170  0.61059  0.66127  1.0000
  H   H5355     1.0  0.84212  0.61162  0.62657  1.0000
  C   C3009     1.0  0.82845  0.49670  0.63186  1.0000
  H   H5356     1.0  0.82373  0.67476  0.74919  1.0000
  H   H5357     1.0  0.88172  0.50545  0.71321  1.0000
  H   H5358     1.0  0.94202  0.67643  0.56693  1.0000
  C   C3010     1.0  0.96714  0.61207  0.60252  1.0000
  H   H5359     1.0  0.86604  0.48637  0.76325  1.0000
  C   C3011     1.0  0.96415  0.60379  0.57244  1.0000
  C   C3012     1.0  0.95463  0.58854  0.58241  1.0000
  C   C3013     1.0  0.95111  0.58529  0.60256  1.0000
  C   C3014     1.0  0.95741  0.59696  0.61255  1.0000
  H   H5360     1.0  0.91848  0.51345  0.68306  1.0000
  C   C3015     1.0  0.90467  0.50823  0.96231  1.0000
  H   H5361     1.0  0.94393  0.57351  0.61042  1.0000
  H   H5362     1.0  0.95498  0.59406  0.62811  1.0000
  H   H5363     1.0  0.90214  0.55691  0.68120  1.0000
  C   C3016     1.0  0.87381  0.71505  0.67410  1.0000
  C   C3017     1.0  0.86752  0.69789  0.67431  1.0000
  C   C3018     1.0  0.86387  0.69394  0.65741  1.0000
  C   C3019     1.0  0.86677  0.70718  0.64022  1.0000
  H   H5364     1.0  0.91819  0.68495  0.57931  1.0000
  C   C3020     1.0  0.79865  0.69712  0.75519  1.0000
  H   H5365     1.0  0.86532  0.68783  0.68760  1.0000
  H   H5366     1.0  0.86402  0.70417  0.62708  1.0000
  H   H5367     1.0  0.77649  0.62386  0.72629  1.0000
  C   C3021     1.0  0.90876  0.61891  0.57368  1.0000
  H   H5368     1.0  0.95266  0.72618  0.51931  1.0000
  C   C3022     1.0  0.81753  0.68952  0.74262  1.0000
  C   C3023     1.0  0.80081  0.64358  0.80669  1.0000
  C   C3024     1.0  0.78341  0.64652  0.79985  1.0000
  C   C3025     1.0  0.78366  0.64581  0.78051  1.0000
  C   C3026     1.0  0.80128  0.64221  0.76795  1.0000
  C   C3027     1.0  0.81869  0.63878  0.77490  1.0000
  C   C3028     1.0  0.81843  0.63947  0.79426  1.0000
  H   H5369     1.0  0.76978  0.64967  0.80933  1.0000
  H   H5370     1.0  0.77016  0.64842  0.77517  1.0000
  H   H5371     1.0  0.83235  0.63593  0.76530  1.0000
  H   H5372     1.0  0.83195  0.63716  0.79951  1.0000
  C   C3029     1.0  0.69814  0.71509  0.84966  1.0000
  C   C3030     1.0  0.68861  0.69946  0.85744  1.0000
  C   C3031     1.0  0.83741  0.50061  0.77399  1.0000
  H   H5373     1.0  0.66096  0.69017  0.86596  1.0000
  H   H5374     1.0  0.93251  0.64590  0.56569  1.0000
  H   H5375     1.0  0.85913  0.69452  0.94830  1.0000
  H   H5376     1.0  0.69676  0.68553  0.86246  1.0000
  H   H5377     1.0  0.91852  0.48960  0.93117  1.0000
  C   C3032     1.0  0.66875  0.68211  0.91828  1.0000
  H   H5378     1.0  0.92447  0.61694  0.57380  1.0000
  C   C3033     1.0  0.70549  0.61177  0.90237  1.0000
  C   C3034     1.0  0.69905  0.62534  0.91467  1.0000
  C   C3035     1.0  0.68911  0.62002  0.93343  1.0000
  C   C3036     1.0  0.68603  0.60105  0.94005  1.0000
  C   C3037     1.0  0.69253  0.58756  0.92774  1.0000
  C   C3038     1.0  0.70192  0.59298  0.90886  1.0000
  H   H5379     1.0  0.70156  0.63992  0.90970  1.0000
  H   H5380     1.0  0.68425  0.63044  0.94288  1.0000
  H   H5381     1.0  0.69017  0.57289  0.93276  1.0000
  H   H5382     1.0  0.70682  0.58246  0.89941  1.0000
  C   C3039     1.0  0.89756  0.56746  0.89486  1.0000
  C   C3040     1.0  0.90884  0.55888  0.87941  1.0000
  C   C3041     1.0  0.90082  0.54843  0.86957  1.0000
  C   C3042     1.0  0.88150  0.54606  0.87541  1.0000
  C   C3043     1.0  0.87014  0.55486  0.89069  1.0000
  C   C3044     1.0  0.87802  0.56581  0.90012  1.0000
  H   H5383     1.0  0.92399  0.56005  0.87524  1.0000
  H   H5384     1.0  0.90975  0.54173  0.85787  1.0000
  H   H5385     1.0  0.85526  0.55294  0.89551  1.0000
  H   H5386     1.0  0.86923  0.57233  0.91197  1.0000
  C   C3045     1.0  0.83217  0.66040  0.92028  1.0000
  C   C3046     1.0  0.82233  0.64800  0.93475  1.0000
  C   C3047     1.0  0.80316  0.64683  0.93441  1.0000
  C   C3048     1.0  0.79371  0.65788  0.91953  1.0000
  C   C3049     1.0  0.80365  0.67000  0.90480  1.0000
  C   C3050     1.0  0.82280  0.67142  0.90530  1.0000
  H   H5387     1.0  0.82937  0.63958  0.94646  1.0000
  H   H5388     1.0  0.79577  0.63720  0.94568  1.0000
  H   H5389     1.0  0.79645  0.67867  0.89333  1.0000
  H   H5390     1.0  0.83038  0.68100  0.89407  1.0000
  C   C3051     1.0  0.81667  0.53567  0.72787  1.0000
  H   H5391     1.0  0.85391  0.49248  0.71304  1.0000
  C   C3052     1.0  0.90206  0.65268  0.58009  1.0000
  H   H5392     1.0  0.80349  0.49276  0.66479  1.0000
  S   S699      1.0  0.97723  0.68113  0.60014  1.0000
  H   H5393     1.0  0.79863  0.71409  0.68422  1.0000
  C   C3053     1.0  0.86642  0.55523  0.74271  1.0000
  H   H5394     1.0  0.93444  0.70427  0.65438  1.0000
  S   S700      1.0  0.97677  0.70154  0.54454  1.0000
  C   C3054     1.0  0.90879  0.48516  0.71237  1.0000
  C   C3055     1.0  0.66269  0.63826  0.86020  1.0000
  C   C3056     1.0  0.88439  0.50282  0.53740  1.0000
  C   C3057     1.0  0.86457  0.50846  0.54382  1.0000
  C   C3058     1.0  0.87593  0.54400  0.95247  1.0000
  H   H5395     1.0  0.79074  0.61785  0.70398  1.0000
  C   C3059     1.0  0.84368  0.64433  0.57816  1.0000
  C   C3060     1.0  0.66839  0.70207  0.85934  1.0000
  C   C3061     1.0  0.94311  0.71215  0.64186  1.0000
  H   H5396     1.0  0.93560  0.57630  0.69558  1.0000
  N   N167      1.0  0.82030  0.51535  0.66043  1.0000
  C   C3062     1.0  0.81860  0.53550  0.66422  1.0000
  C   C3063     1.0  0.83646  0.50186  0.66964  1.0000
  C   C3064     1.0  0.95535  0.71822  0.54922  1.0000
  C   C3065     1.0  0.80150  0.50782  0.66723  1.0000
  C   C3066     1.0  0.79262  0.50706  0.68879  1.0000
  C   C3067     1.0  0.80321  0.55129  0.65506  1.0000
  C   C3068     1.0  0.83976  0.50596  0.68888  1.0000
  H   H5397     1.0  0.70254  0.64846  0.95408  1.0000
  H   H5398     1.0  0.94255  0.51629  0.94271  1.0000
  C   C3069     1.0  0.80158  0.57032  0.66189  1.0000
  H   H5399     1.0  0.83283  0.54032  0.65900  1.0000
  H   H5400     1.0  0.81531  0.53592  0.67984  1.0000
  H   H5401     1.0  0.90735  0.63939  0.54625  1.0000
  H   H5402     1.0  0.85070  0.50213  0.65977  1.0000
  H   H5403     1.0  0.86564  0.52761  0.73676  1.0000
  H   H5404     1.0  0.81434  0.52585  0.63137  1.0000
  H   H5405     1.0  0.79043  0.51612  0.65847  1.0000
  C   C3070     1.0  0.73151  0.69706  0.80013  1.0000
  H   H5406     1.0  0.79093  0.52113  0.69334  1.0000
  H   H5407     1.0  0.68221  0.70988  0.94152  1.0000
  H   H5408     1.0  0.80728  0.55417  0.63915  1.0000
  H   H5409     1.0  0.78871  0.54711  0.65903  1.0000
  C   C3071     1.0  0.87338  0.72423  0.63994  1.0000
  H   H5410     1.0  0.84640  0.51908  0.68614  1.0000
  H   H5411     1.0  0.76682  0.50037  0.70879  1.0000
  C   C3072     1.0  0.94397  0.73241  0.64529  1.0000
  C   C3073     1.0  0.81128  0.49297  0.76185  1.0000
  H   H5412     1.0  0.96230  0.66922  0.65300  1.0000
  C   C3074     1.0  0.87386  0.69351  0.95145  1.0000
  H   H5413     1.0  0.95373  0.71308  0.57988  1.0000
  Fe  Fe351     1.0  0.99193  0.65033  0.60028  1.0000
  H   H5414     1.0  0.81569  0.57538  0.65779  1.0000
  H   H5415     1.0  0.79068  0.58146  0.65500  1.0000
  H   H5416     1.0  0.79702  0.56868  0.67776  1.0000
  C   C3075     1.0  0.74982  0.70131  0.80478  1.0000
  C   C3076     1.0  0.68753  0.73305  0.84299  1.0000
  H   H5417     1.0  0.69764  0.67981  0.97842  1.0000
  H   H5418     1.0  0.73307  0.65882  0.96034  1.0000
  H   H5419     1.0  0.74531  0.61056  0.91578  1.0000
  C   C3077     1.0  0.81854  0.72962  0.66243  1.0000
  C   C3078     1.0  0.81209  0.71984  0.68306  1.0000
  H   H5420     1.0  0.73217  0.70119  0.91479  1.0000
  H   H5421     1.0  0.92749  0.53302  0.65141  1.0000
  C   C3079     1.0  0.90349  0.62542  0.60647  1.0000
  H   H5422     1.0  0.85695  0.56325  0.73229  1.0000
  H   H5423     1.0  0.71997  0.69706  0.81309  1.0000
  H   H5424     1.0  0.75749  0.58657  0.92395  1.0000
  C   C3080     1.0  0.67074  0.71990  0.93436  1.0000
  C   C3081     1.0  0.99078  0.70342  0.68970  1.0000
  H   H5425     1.0  0.80178  0.49586  0.69770  1.0000
  S   S701      1.0  0.84391  0.51509  0.78784  1.0000
  H   H5426     1.0  0.97761  0.66563  0.97471  1.0000
  H   H5427     1.0  0.93469  0.51098  0.70841  1.0000
  H   H5428     1.0  0.84122  0.73304  0.58971  1.0000
  H   H5429     1.0  0.87704  0.70819  0.94995  1.0000
  H   H5430     1.0  0.76240  0.51226  0.68510  1.0000
  N   N168      1.0  0.82125  0.58775  0.85880  1.0000
  C   C3082     1.0  0.83480  0.59661  0.84187  1.0000
  C   C3083     1.0  0.80059  0.59666  0.85680  1.0000
  C   C3084     1.0  0.82512  0.59313  0.87664  1.0000
  C   C3085     1.0  0.82410  0.56608  0.86115  1.0000
  C   C3086     1.0  0.83029  0.55727  0.84240  1.0000
  C   C3087     1.0  0.85663  0.59123  0.84346  1.0000
  C   C3088     1.0  0.81122  0.58763  0.89572  1.0000
  C   C3089     1.0  0.79343  0.59439  0.83874  1.0000
  C   C3090     1.0  0.77268  0.60518  0.83831  1.0000
  C   C3091     1.0  0.82646  0.53669  0.84579  1.0000
  C   C3092     1.0  0.86957  0.59585  0.82398  1.0000
  C   C3093     1.0  0.81828  0.59145  0.91291  1.0000
  H   H5431     1.0  0.83101  0.61262  0.83987  1.0000
  H   H5432     1.0  0.83310  0.59311  0.82820  1.0000
  H   H5433     1.0  0.79033  0.59048  0.86920  1.0000
  H   H5434     1.0  0.79830  0.61227  0.85719  1.0000
  H   H5435     1.0  0.82471  0.60899  0.87450  1.0000
  H   H5436     1.0  0.83996  0.58627  0.87927  1.0000
  H   H5437     1.0  0.83539  0.55911  0.87011  1.0000
  H   H5438     1.0  0.81072  0.56087  0.86947  1.0000
  H   H5439     1.0  0.84600  0.55690  0.83710  1.0000
  H   H5440     1.0  0.82279  0.56561  0.83062  1.0000
  H   H5441     1.0  0.85982  0.59962  0.85331  1.0000
  H   H5442     1.0  0.86077  0.57574  0.84928  1.0000
  H   H5443     1.0  0.81009  0.57217  0.89823  1.0000
  H   H5444     1.0  0.79655  0.59647  0.89548  1.0000
  H   H5445     1.0  0.80259  0.60018  0.82526  1.0000
  H   H5446     1.0  0.79311  0.57905  0.83907  1.0000
  H   H5447     1.0  0.77173  0.62069  0.83840  1.0000
  H   H5448     1.0  0.76798  0.60394  0.82501  1.0000
  H   H5449     1.0  0.76256  0.59918  0.85096  1.0000
  H   H5450     1.0  0.81066  0.53656  0.84960  1.0000
  H   H5451     1.0  0.83223  0.53047  0.83245  1.0000
  H   H5452     1.0  0.83372  0.52750  0.85754  1.0000
  H   H5453     1.0  0.88493  0.59300  0.82596  1.0000
  H   H5454     1.0  0.86826  0.58661  0.81401  1.0000
  H   H5455     1.0  0.86568  0.61124  0.81749  1.0000
  H   H5456     1.0  0.81928  0.60691  0.91111  1.0000
  H   H5457     1.0  0.80793  0.58777  0.92634  1.0000
  H   H5458     1.0  0.83271  0.58255  0.91449  1.0000
  N   N169      1.0  0.80028  0.57404  0.76176  1.0000
  C   C3094     1.0  0.78736  0.58839  0.74939  1.0000
  C   C3095     1.0  0.78781  0.56413  0.77885  1.0000
  C   C3096     1.0  0.81320  0.58468  0.76801  1.0000
  C   C3097     1.0  0.81299  0.55901  0.75074  1.0000
  C   C3098     1.0  0.80236  0.54758  0.74163  1.0000
  C   C3099     1.0  0.79755  0.59717  0.72925  1.0000
  C   C3100     1.0  0.82402  0.57341  0.78462  1.0000
  C   C3101     1.0  0.77430  0.57754  0.79223  1.0000
  C   C3102     1.0  0.76495  0.56584  0.81074  1.0000
  C   C3103     1.0  0.78313  0.61181  0.71832  1.0000
  C   C3104     1.0  0.83930  0.58399  0.78722  1.0000
  H   H5459     1.0  0.78007  0.60075  0.75683  1.0000
  H   H5460     1.0  0.77531  0.58195  0.74737  1.0000
  H   H5461     1.0  0.77816  0.55663  0.77401  1.0000
  H   H5462     1.0  0.79692  0.55247  0.78753  1.0000
  H   H5463     1.0  0.80499  0.59846  0.77241  1.0000
  H   H5464     1.0  0.82431  0.58919  0.75561  1.0000
  H   H5465     1.0  0.82371  0.56564  0.73916  1.0000
  H   H5466     1.0  0.82186  0.54806  0.76021  1.0000
  H   H5467     1.0  0.79470  0.53753  0.75302  1.0000
  H   H5468     1.0  0.80908  0.60459  0.73061  1.0000
  H   H5469     1.0  0.80421  0.58600  0.72022  1.0000
  H   H5470     1.0  0.83138  0.55887  0.78198  1.0000
  H   H5471     1.0  0.81375  0.57164  0.79843  1.0000
  H   H5472     1.0  0.78216  0.58726  0.79635  1.0000
  H   H5473     1.0  0.76252  0.58661  0.78485  1.0000
  H   H5474     1.0  0.75477  0.57569  0.81972  1.0000
  H   H5475     1.0  0.75668  0.55594  0.80740  1.0000
  H   H5476     1.0  0.77617  0.55732  0.81917  1.0000
  H   H5477     1.0  0.73992  0.63581  0.93889  1.0000
  H   H5478     1.0  0.77154  0.60486  0.71617  1.0000
  H   H5479     1.0  0.85020  0.58586  0.77386  1.0000
  H   H5480     1.0  0.83247  0.59831  0.79103  1.0000
  H   H5481     1.0  0.84691  0.57542  0.79897  1.0000
  C   C3105     1.0  0.90709  0.52505  0.68856  1.0000
  N   N170      1.0  0.89756  0.63256  0.58696  1.0000
  C   C3106     1.0  0.78895  0.70044  0.80937  1.0000
  C   C3107     1.0  0.91331  0.54435  0.67762  1.0000
  H   H5482     1.0  0.91202  0.53614  0.91734  1.0000
  C   C3108     1.0  0.72505  0.64830  0.97095  1.0000
  C   C3109     1.0  0.91637  0.54527  0.65589  1.0000
  C   C3110     1.0  0.91574  0.52903  0.93156  1.0000
  C   C3111     1.0  0.88957  0.53930  0.71657  1.0000
  H   H5483     1.0  0.66129  0.70490  0.89525  1.0000
  H   H5484     1.0  0.91594  0.52745  0.74539  1.0000
  N   N171      1.0  0.93682  0.64169  0.66683  1.0000
  C   C3112     1.0  0.93234  0.65461  0.64836  1.0000
  C   C3113     1.0  0.95808  0.63974  0.66744  1.0000
  C   C3114     1.0  0.93328  0.62188  0.66635  1.0000
  C   C3115     1.0  0.92425  0.64859  0.68455  1.0000
  C   C3116     1.0  0.91785  0.67065  0.68368  1.0000
  C   C3117     1.0  0.91212  0.65496  0.64374  1.0000
  C   C3118     1.0  0.93907  0.60572  0.68315  1.0000
  C   C3119     1.0  0.96592  0.65853  0.66574  1.0000
  C   C3120     1.0  0.98800  0.65455  0.66356  1.0000
  C   C3121     1.0  0.90694  0.67533  0.70319  1.0000
  C   C3122     1.0  0.90683  0.67186  0.62795  1.0000
  H   H5485     1.0  0.76964  0.68548  0.78514  1.0000
  H   H5486     1.0  0.94326  0.65019  0.63590  1.0000
  H   H5487     1.0  0.93364  0.66964  0.64823  1.0000
  H   H5488     1.0  0.96167  0.63064  0.68115  1.0000
  H   H5489     1.0  0.96692  0.63207  0.65572  1.0000
  H   H5490     1.0  0.94112  0.61707  0.65262  1.0000
  H   H5491     1.0  0.91766  0.62228  0.66661  1.0000
  H   H5492     1.0  0.91054  0.64270  0.68822  1.0000
  H   H5493     1.0  0.93150  0.64278  0.69732  1.0000
  H   H5494     1.0  0.90793  0.67676  0.67315  1.0000
  H   H5495     1.0  0.93029  0.67822  0.67946  1.0000
  H   H5496     1.0  0.91223  0.64155  0.63855  1.0000
  H   H5497     1.0  0.90062  0.65590  0.65665  1.0000
  H   H5498     1.0  0.93364  0.61046  0.69725  1.0000
  H   H5499     1.0  0.95508  0.60151  0.68134  1.0000
  H   H5500     1.0  0.69961  0.61507  0.97760  1.0000
  H   H5501     1.0  0.96022  0.66481  0.67899  1.0000
  H   H5502     1.0  0.70578  0.72977  0.91934  1.0000
  S   S702      1.0  0.89424  0.58632  0.96389  1.0000
  H   H5503     1.0  0.79329  0.71190  0.74812  1.0000
  H   H5504     1.0  0.97735  0.62734  0.57452  1.0000
  H   H5505     1.0  0.89386  0.66847  0.70778  1.0000
  H   H5506     1.0  0.91635  0.67011  0.71432  1.0000
  H   H5507     1.0  0.89281  0.67106  0.62422  1.0000
  H   H5508     1.0  0.90519  0.68566  0.63306  1.0000
  H   H5509     1.0  0.91816  0.67154  0.61486  1.0000
  H   H5510     1.0  0.91833  0.50214  0.74447  1.0000
  C   C3123     1.0  0.97024  0.61557  0.58240  1.0000
  H   H5511     1.0  0.68191  0.67653  0.90841  1.0000
  H   H5512     1.0  0.82087  0.69596  0.80475  1.0000
  H   H5513     1.0  0.75062  0.59330  0.95766  1.0000
  H   H5514     1.0  0.89687  0.65943  0.56640  1.0000
  N   N172      1.0  0.73603  0.62812  0.96994  1.0000
  H   H5515     1.0  0.80521  0.68097  0.78250  1.0000
  C   C3124     1.0  0.94711  0.72131  0.56792  1.0000
  C   C3125     1.0  0.87544  0.68220  0.97166  1.0000
  H   H5516     1.0  0.96668  0.60659  0.55687  1.0000
  H   H5517     1.0  0.83813  0.48523  0.63984  1.0000
  H   H5518     1.0  0.71736  0.59452  0.97230  1.0000
  H   H5519     1.0  0.85164  0.50235  0.60769  1.0000
  H   H5520     1.0  0.91986  0.65704  0.96782  1.0000
  H   H5521     1.0  0.87892  0.54467  0.70656  1.0000
  H   H5522     1.0  0.78898  0.68471  0.81385  1.0000
  H   H5523     1.0  0.81469  0.68893  0.72822  1.0000
  H   H5524     1.0  0.73437  0.68268  0.79583  1.0000
  H   H5525     1.0  0.73949  0.72357  0.90235  1.0000
  H   H5526     1.0  0.83606  0.64436  0.59326  1.0000
  H   H5527     1.0  0.77353  0.48706  0.68924  1.0000
  C   C3126     1.0  0.68065  0.64772  0.85314  1.0000
  H   H5528     1.0  0.91407  0.54101  0.93961  1.0000
  H   H5529     1.0  0.90514  0.60423  0.57899  1.0000
  C   C3127     1.0  0.69437  0.71022  0.90649  1.0000
  H   H5530     1.0  0.91126  0.51406  0.90111  1.0000
  H   H5531     1.0  0.81431  0.49198  0.63384  1.0000
  H   H5532     1.0  0.76345  0.63777  0.95929  1.0000
  S   S703      1.0  0.86964  0.62955  0.96929  1.0000
  H   H5533     1.0  0.88445  0.60345  0.61607  1.0000
  H   H5534     1.0  0.83557  0.50625  0.54168  1.0000
  H   H5535     1.0  0.91060  0.48542  0.69667  1.0000
  H   H5536     1.0  0.96093  0.71275  0.70010  1.0000
  H   H5537     1.0  0.69312  0.63708  0.84767  1.0000
  Fe  Fe352     1.0  0.90534  0.48626  0.81739  1.0000
  S   S704      1.0  0.90925  0.50370  0.63795  1.0000
  C   C3128     1.0  0.90563  0.48642  0.90022  1.0000
  C   C3129     1.0  0.96568  0.71937  0.66857  1.0000
  H   H5538     1.0  0.72178  0.62195  0.94878  1.0000
  H   H5539     1.0  0.96509  0.52882  0.91447  1.0000
  S   S705      1.0  0.87418  0.49466  0.83082  1.0000
  H   H5540     1.0  0.80884  0.52654  0.72280  1.0000
  H   H5541     1.0  0.82829  0.69907  0.74070  1.0000
  H   H5542     1.0  0.90259  0.54482  0.65146  1.0000
  H   H5543     1.0  0.93545  0.69882  0.62089  1.0000
  C   C3130     1.0  0.93085  0.58770  0.68371  1.0000
  H   H5544     1.0  0.72618  0.70826  0.78839  1.0000
  C   C3131     1.0  0.96452  0.48628  0.82002  1.0000
  H   H5545     1.0  0.91842  0.71991  0.62687  1.0000
  H   H5546     1.0  0.88350  0.55588  0.94422  1.0000
  H   H5547     1.0  0.80729  0.51259  0.78154  1.0000
  H   H5548     1.0  0.89077  0.61275  0.64550  1.0000
  H   H5549     1.0  0.82343  0.54523  0.71521  1.0000
  H   H5550     1.0  0.92158  0.68076  0.55486  1.0000
  H   H5551     1.0  0.87889  0.53254  0.92690  1.0000
  H   H5552     1.0  0.93308  0.48888  0.95685  1.0000
  N   N173      1.0  0.78505  0.70672  0.78899  1.0000
  C   C3132     1.0  0.92644  0.67546  0.56898  1.0000
  H   H5553     1.0  0.89064  0.50572  0.97172  1.0000
  H   H5554     1.0  0.76093  0.70937  0.77428  1.0000
  H   H5555     1.0  0.91688  0.73181  0.67338  1.0000
  H   H5556     1.0  0.89061  0.68066  0.97378  1.0000
  H   H5557     1.0  0.95116  0.52549  0.73605  1.0000
  H   H5558     1.0  0.86803  0.48817  0.69024  1.0000
  H   H5559     1.0  0.88625  0.51130  0.90836  1.0000
  C   C3133     1.0  0.85420  0.55184  0.95450  1.0000
  H   H5560     1.0  0.90964  0.59400  0.60991  1.0000
  H   H5561     1.0  0.81510  0.70242  0.77479  1.0000
  H   H5562     1.0  0.83542  0.65572  0.56854  1.0000
  H   H5563     1.0  0.94513  0.50794  0.75705  1.0000
  C   C3134     1.0  0.74607  0.59863  0.92830  1.0000
  H   H5564     1.0  0.89364  0.52399  0.68369  1.0000
  C   C3135     1.0  0.70390  0.65275  0.96749  1.0000
  H   H5565     1.0  0.92719  0.54588  0.68105  1.0000
  H   H5566     1.0  0.80908  0.71981  0.80900  1.0000
  H   H5567     1.0  0.94537  0.53945  0.90155  1.0000
  C   C3136     1.0  0.94642  0.72865  0.53378  1.0000
  H   H5568     1.0  0.87338  0.61835  0.58832  1.0000
  C   C3137     1.0  0.73632  0.62354  0.95041  1.0000
  C   C3138     1.0  0.75662  0.62810  0.97180  1.0000
  H   H5569     1.0  0.89696  0.58743  0.64507  1.0000
  H   H5570     1.0  0.76569  0.60867  0.94094  1.0000
  C   C3139     1.0  0.85327  0.48944  0.69881  1.0000
  C   C3140     1.0  0.89023  0.49004  0.52413  1.0000
  H   H5571     1.0  0.93497  0.61271  0.53995  1.0000
  C   C3141     1.0  0.89915  0.60526  0.61678  1.0000
  C   C3142     1.0  0.90091  0.60162  0.63803  1.0000
  H   H5572     1.0  0.86861  0.63497  0.60431  1.0000
  H   H5573     1.0  0.87104  0.64853  0.56057  1.0000
  H   H5574     1.0  0.89621  0.73048  0.70670  1.0000
  C   C3143     1.0  0.90549  0.62439  0.55256  1.0000
  C   C3144     1.0  0.87600  0.63270  0.58951  1.0000
  C   C3145     1.0  0.86427  0.64814  0.57587  1.0000
  H   H5575     1.0  0.91597  0.60161  0.63958  1.0000
  C   C3146     1.0  0.81007  0.69814  0.83425  1.0000
  H   H5576     1.0  0.86316  0.66262  0.57945  1.0000
  H   H5577     1.0  0.73199  0.59350  0.93250  1.0000
  C   C3147     1.0  0.89579  0.50392  0.71804  1.0000
  C   C3148     1.0  0.75077  0.60534  0.94522  1.0000
  H   H5578     1.0  0.89617  0.63592  0.61618  1.0000
  C   C3149     1.0  0.91984  0.61139  0.53987  1.0000
  H   H5579     1.0  0.89397  0.66211  0.59062  1.0000
  H   H5580     1.0  0.97796  0.72285  0.65693  1.0000
  H   H5581     1.0  0.94154  0.72226  0.61156  1.0000
  H   H5582     1.0  0.77717  0.70720  0.81979  1.0000
  H   H5583     1.0  0.91933  0.62436  0.60553  1.0000
  H   H5584     1.0  0.89705  0.55161  0.71557  1.0000
  C   C3150     1.0  0.85076  0.48800  0.76307  1.0000
  C   C3151     1.0  0.77261  0.50137  0.69314  1.0000
  C   C3152     1.0  0.92326  0.52111  0.71611  1.0000
  C   C3153     1.0  0.93755  0.52035  0.92863  1.0000
  C   C3154     1.0  0.92379  0.65456  0.57655  1.0000
  H   H5585     1.0  0.78802  0.68794  0.75524  1.0000
  H   H5586     1.0  0.92813  0.53526  0.71150  1.0000
  N   N174      1.0  0.90398  0.52220  0.71030  1.0000
  H   H5587     1.0  0.92997  0.64986  0.58997  1.0000
  H   H5588     1.0  0.95408  0.50033  0.73410  1.0000
  C   C3155     1.0  0.87686  0.53608  0.73686  1.0000
  Fe  Fe353     1.0  0.86313  0.60092  0.96814  1.0000
  H   H5589     1.0  0.97458  0.73205  0.68989  1.0000
  H   H5590     1.0  0.87701  0.56419  0.74312  1.0000
  H   H5591     1.0  0.96416  0.70450  0.66808  1.0000
  H   H5592     1.0  0.96182  0.48547  0.80563  1.0000
  H   H5593     1.0  0.79812  0.70643  0.84335  1.0000
  H   H5594     1.0  0.95802  0.70374  0.63921  1.0000
  H   H5595     1.0  0.85757  0.55255  0.75725  1.0000
  C   C3156     1.0  0.76660  0.70073  0.78728  1.0000
  H   H5596     1.0  0.87095  0.51664  0.94807  1.0000
  C   C3157     1.0  0.92410  0.51552  0.73786  1.0000
  H   H5597     1.0  0.91815  0.59613  0.54502  1.0000
  H   H5598     1.0  0.69947  0.69645  0.91578  1.0000
  H   H5599     1.0  0.87628  0.71817  0.68731  1.0000
  H   H5600     1.0  0.84957  0.55564  0.94023  1.0000
  H   H5601     1.0  0.93607  0.58224  0.66990  1.0000
  H   H5602     1.0  0.88529  0.52823  0.74817  1.0000
  N   N175      1.0  0.67323  0.71760  0.91355  1.0000
  H   H5603     1.0  0.90223  0.69113  0.70212  1.0000
  H   H5604     1.0  0.94079  0.50764  0.92142  1.0000
  C   C3158     1.0  0.66156  0.70364  0.91075  1.0000
  H   H5605     1.0  0.82756  0.50962  0.60174  1.0000
  C   C3159     1.0  0.94943  0.53512  0.91609  1.0000
  H   H5606     1.0  0.70414  0.68218  0.95253  1.0000
  H   H5607     1.0  0.68051  0.67716  0.96465  1.0000
  H   H5608     1.0  0.91476  0.59089  0.68642  1.0000
  H   H5609     1.0  0.87964  0.54023  0.96712  1.0000
  H   H5610     1.0  0.76554  0.61351  0.97147  1.0000
  H   H5611     1.0  0.68446  0.65277  0.86516  1.0000
  C   C3160     1.0  0.69611  0.67433  0.96564  1.0000
  C   C3161     1.0  0.87671  0.72826  0.65695  1.0000
  H   H5612     1.0  0.83922  0.52231  0.63329  1.0000
  C   C3162     1.0  0.72966  0.71345  0.90283  1.0000
  H   H5613     1.0  0.92143  0.55882  0.64828  1.0000
  C   C3163     1.0  0.85085  0.50150  0.53691  1.0000
  C   C3164     1.0  0.90409  0.49889  0.93109  1.0000
  H   H5614     1.0  0.89349  0.48938  0.93880  1.0000
  C   C3165     1.0  0.82569  0.51614  0.63891  1.0000
  H   H5615     1.0  0.82404  0.70088  0.83644  1.0000
  H   H5616     1.0  0.75400  0.69018  0.81704  1.0000
  H   H5617     1.0  0.66252  0.71147  0.97456  1.0000
  H   H5618     1.0  0.83920  0.67143  0.97606  1.0000
  H   H5619     1.0  0.94695  0.54818  0.92275  1.0000
  H   H5620     1.0  0.91493  0.71386  0.71818  1.0000
  H   H5621     1.0  0.88442  0.68590  0.94068  1.0000
  H   H5622     1.0  0.85983  0.51840  0.55388  1.0000
  C   C3166     1.0  0.80170  0.69648  0.77605  1.0000
  C   C3167     1.0  0.80823  0.70429  0.81302  1.0000
  H   H5623     1.0  0.90922  0.51944  0.96804  1.0000
  H   H5624     1.0  0.79866  0.73197  0.78144  1.0000
  H   H5625     1.0  0.83425  0.48666  0.67203  1.0000
  H   H5626     1.0  0.82359  0.70761  0.68730  1.0000
  C   C3168     1.0  0.93403  0.71341  0.62423  1.0000
  S   S706      1.0  0.97523  0.62619  0.61555  1.0000
  H   H5627     1.0  0.96374  0.50165  0.82074  1.0000
  H   H5628     1.0  0.82182  0.71842  0.65318  1.0000
  C   C3169     1.0  0.85672  0.48848  0.52388  1.0000
  H   H5629     1.0  0.89283  0.48983  0.61143  1.0000
  H   H5630     1.0  0.67241  0.67993  0.93285  1.0000
  N   N176      1.0  0.90198  0.51547  0.94158  1.0000
  H   H5631     1.0  0.93221  0.71248  0.68483  1.0000
  C   C3170     1.0  0.91896  0.48905  0.96664  1.0000
  H   H5632     1.0  0.97579  0.72752  0.60389  1.0000
  C   C3171     1.0  0.93025  0.72834  0.67982  1.0000
  H   H5633     1.0  0.89226  0.50139  0.73398  1.0000
  H   H5634     1.0  0.84584  0.54108  0.96400  1.0000
  C   C3172     1.0  0.90136  0.50429  0.90966  1.0000
  C   C3173     1.0  0.78427  0.72810  0.78228  1.0000
  C   C3174     1.0  0.70862  0.72388  0.90581  1.0000
  H   H5635     1.0  0.80979  0.68251  0.83898  1.0000
  H   H5636     1.0  0.80958  0.73013  0.69316  1.0000
  H   H5637     1.0  0.87249  0.66762  0.97239  1.0000
  H   H5638     1.0  0.66608  0.62612  0.87196  1.0000
  C   C3175     1.0  0.81773  0.50293  0.77324  1.0000
  H   H5639     1.0  0.98890  0.56007  0.57296  1.0000
  H   H5640     1.0  0.85080  0.56504  0.96103  1.0000
  C   C3176     1.0  0.90943  0.72926  0.71291  1.0000
  H   H5641     1.0  0.83847  0.48452  0.60585  1.0000
  C   C3177     1.0  0.97203  0.71797  0.68808  1.0000
  H   H5642     1.0  0.90321  0.49076  0.88506  1.0000
  H   H5643     1.0  0.79595  0.49507  0.76154  1.0000
  H   H5644     1.0  0.78135  0.73236  0.76732  1.0000
  H   H5645     1.0  0.65933  0.65466  0.92313  1.0000
  Fe  Fe354     1.0  0.99174  0.68575  0.56924  1.0000
  H   H5646     1.0  0.95864  0.57534  0.97781  1.0000
  C   C3178     1.0  0.97407  0.57542  0.97802  1.0000
  H   H5647     1.0  0.66019  0.63237  0.84811  1.0000
  N   N177      1.0  0.94749  0.73351  0.66492  1.0000
  C   C3179     1.0  0.88804  0.83935  0.45773  1.0000
  C   C3180     1.0  0.82501  0.80107  0.22080  1.0000
  H   H5648     1.0  0.79107  0.78604  0.27170  1.0000
  Fe  Fe355     1.0  0.84526  0.76315  0.13030  1.0000
  S   S707      1.0  0.85981  0.76329  0.15525  1.0000
  H   H5649     1.0  0.73450  0.88830  0.44703  1.0000
  Fe  Fe356     1.0  0.86550  0.79508  0.10516  1.0000
  S   S708      1.0  0.88184  0.79731  0.12748  1.0000
  S   S709      1.0  0.86755  0.81389  0.07605  1.0000
  Fe  Fe357     1.0  0.88659  0.76499  0.13268  1.0000
  Fe  Fe358     1.0  0.85387  0.79576  0.14797  1.0000
  S   S710      1.0  0.84185  0.81931  0.16642  1.0000
  S   S711      1.0  0.87266  0.76290  0.10845  1.0000
  S   S712      1.0  0.83689  0.79540  0.12503  1.0000
  Fe  Fe359     1.0  0.95175  0.90293  0.09740  1.0000
  S   S713      1.0  0.94976  0.90972  0.06608  1.0000
  S   S714      1.0  0.94197  0.92346  0.11848  1.0000
  Fe  Fe360     1.0  0.93748  0.88264  0.07183  1.0000
  S   S715      1.0  0.91231  0.88375  0.05762  1.0000
  S   S716      1.0  0.93688  0.87743  0.10358  1.0000
  H   H5650     1.0  0.74552  0.83619  0.32777  1.0000
  H   H5651     1.0  0.97238  0.85875  0.17845  1.0000
  Fe  Fe361     1.0  0.87102  0.88274  0.22858  1.0000
  S   S717      1.0  0.84579  0.90206  0.21711  1.0000
  S   S718      1.0  0.88262  0.85363  0.21882  1.0000
  Fe  Fe362     1.0  0.87671  0.91417  0.24992  1.0000
  S   S719      1.0  0.85198  0.93534  0.23901  1.0000
  S   S720      1.0  0.89477  0.92171  0.26892  1.0000
  Fe  Fe363     1.0  0.83660  0.90976  0.24676  1.0000
  S   S721      1.0  0.80515  0.91203  0.26164  1.0000
  Fe  Fe364     1.0  0.86393  0.92504  0.21081  1.0000
  S   S722      1.0  0.87350  0.93917  0.18037  1.0000
  S   S723      1.0  0.86086  0.88889  0.25891  1.0000
  S   S724      1.0  0.88970  0.90543  0.22123  1.0000
  Fe  Fe365     1.0  0.87529  0.89240  0.47541  1.0000
  C   C3181     1.0  0.82657  0.96620  0.06649  1.0000
  Fe  Fe366     1.0  0.75274  0.85531  0.35965  1.0000
  S   S725      1.0  0.75294  0.83000  0.38417  1.0000
  S   S726      1.0  0.77835  0.85153  0.33521  1.0000
  Fe  Fe367     1.0  0.71535  0.87643  0.37982  1.0000
  S   S727      1.0  0.71289  0.85286  0.40533  1.0000
  S   S728      1.0  0.69291  0.90346  0.37827  1.0000
  Fe  Fe368     1.0  0.74481  0.85219  0.40351  1.0000
  S   S729      1.0  0.75553  0.85196  0.43120  1.0000
  Fe  Fe369     1.0  0.72112  0.83308  0.38345  1.0000
  S   S730      1.0  0.70702  0.80660  0.38685  1.0000
  S   S731      1.0  0.74663  0.87720  0.37916  1.0000
  S   S732      1.0  0.72147  0.85692  0.35785  1.0000
  Fe  Fe370     1.0  0.84645  0.88938  0.44960  1.0000
  S   S733      1.0  0.83823  0.87050  0.43214  1.0000
  S   S734      1.0  0.87801  0.89154  0.44405  1.0000
  C   C3182     1.0  0.77790  0.85912  0.43048  1.0000
  C   C3183     1.0  0.78086  0.86619  0.44619  1.0000
  C   C3184     1.0  0.79894  0.87079  0.44648  1.0000
  C   C3185     1.0  0.81443  0.86769  0.43136  1.0000
  C   C3186     1.0  0.81137  0.86078  0.41564  1.0000
  C   C3187     1.0  0.79314  0.85682  0.41504  1.0000
  H   H5652     1.0  0.76916  0.86801  0.45821  1.0000
  H   H5653     1.0  0.80110  0.87610  0.45867  1.0000
  H   H5654     1.0  0.82324  0.85829  0.40391  1.0000
  H   H5655     1.0  0.79110  0.85133  0.40291  1.0000
  C   C3188     1.0  0.68469  0.91301  0.39964  1.0000
  C   C3189     1.0  0.68151  0.93299  0.39841  1.0000
  H   H5656     1.0  0.89064  0.95761  0.32542  1.0000
  H   H5657     1.0  0.82467  0.80730  0.24855  1.0000
  H   H5658     1.0  0.68529  0.94208  0.38472  1.0000
  H   H5659     1.0  0.70441  0.86167  0.47847  1.0000
  H   H5660     1.0  0.84688  0.84585  0.28098  1.0000
  C   C3190     1.0  0.79813  0.89622  0.28320  1.0000
  C   C3191     1.0  0.77876  0.89882  0.29269  1.0000
  C   C3192     1.0  0.77258  0.88573  0.30920  1.0000
  C   C3193     1.0  0.78569  0.86975  0.31613  1.0000
  C   C3194     1.0  0.80504  0.86724  0.30669  1.0000
  C   C3195     1.0  0.81129  0.88056  0.29051  1.0000
  H   H5661     1.0  0.76847  0.91092  0.28715  1.0000
  H   H5662     1.0  0.75760  0.88773  0.31625  1.0000
  H   H5663     1.0  0.81527  0.85492  0.31194  1.0000
  H   H5664     1.0  0.82620  0.87843  0.28344  1.0000
  C   C3196     1.0  0.86602  0.96377  0.17258  1.0000
  C   C3197     1.0  0.80538  0.80433  0.34504  1.0000
  H   H5665     1.0  0.91080  0.82057  0.47076  1.0000
  H   H5666     1.0  0.84030  0.80294  0.21545  1.0000
  H   H5667     1.0  0.93814  0.96860  0.21215  1.0000
  H   H5668     1.0  0.88669  0.77593  0.06435  1.0000
  H   H5669     1.0  0.94131  0.91758  0.18186  1.0000
  H   H5670     1.0  0.97352  0.97208  0.02585  1.0000
  H   H5671     1.0  0.83409  0.85052  0.47089  1.0000
  S   S735      1.0  0.86690  0.92445  0.47128  1.0000
  C   C3198     1.0  0.88432  0.96158  0.26111  1.0000
  C   C3199     1.0  0.89510  0.94566  0.27122  1.0000
  C   C3200     1.0  0.90657  0.94881  0.28346  1.0000
  C   C3201     1.0  0.90730  0.96763  0.28555  1.0000
  H   H5672     1.0  0.66491  0.92235  0.34672  1.0000
  H   H5673     1.0  0.87542  0.95943  0.25167  1.0000
  H   H5674     1.0  0.91520  0.93662  0.29111  1.0000
  H   H5675     1.0  0.91668  0.96985  0.29450  1.0000
  C   C3202     1.0  0.93790  0.94791  0.10796  1.0000
  C   C3203     1.0  0.92748  0.96154  0.11925  1.0000
  C   C3204     1.0  0.87722  0.97295  0.15638  1.0000
  H   H5676     1.0  0.79773  0.76839  0.29198  1.0000
  C   C3205     1.0  0.94506  0.95395  0.08854  1.0000
  H   H5677     1.0  0.92203  0.95687  0.13427  1.0000
  H   H5678     1.0  0.85205  0.96621  0.41871  1.0000
  H   H5679     1.0  0.91467  0.86470  0.23182  1.0000
  C   C3206     1.0  0.81283  0.74668  0.09885  1.0000
  H   H5680     1.0  0.70382  0.97320  0.44116  1.0000
  C   C3207     1.0  0.94969  0.83760  0.16977  1.0000
  S   S736      1.0  0.96606  0.86354  0.06528  1.0000
  H   H5681     1.0  0.87200  0.84240  0.45930  1.0000
  H   H5682     1.0  0.81801  0.76022  0.09540  1.0000
  H   H5683     1.0  0.68502  0.82162  0.47061  1.0000
  H   H5684     1.0  0.69269  0.83007  0.35283  1.0000
  H   H5685     1.0  0.83559  0.95603  0.05716  1.0000
  C   C3208     1.0  0.85474  0.82920  0.17930  1.0000
  C   C3209     1.0  0.87160  0.81893  0.18597  1.0000
  C   C3210     1.0  0.88021  0.82672  0.19777  1.0000
  C   C3211     1.0  0.87229  0.84498  0.20269  1.0000
  C   C3212     1.0  0.85601  0.85559  0.19519  1.0000
  C   C3213     1.0  0.84709  0.84760  0.18389  1.0000
  H   H5686     1.0  0.87760  0.80469  0.18264  1.0000
  H   H5687     1.0  0.89281  0.81836  0.20345  1.0000
  H   H5688     1.0  0.84997  0.86975  0.19847  1.0000
  H   H5689     1.0  0.83397  0.85559  0.17897  1.0000
  C   C3214     1.0  0.88062  0.83280  0.07142  1.0000
  C   C3215     1.0  0.89485  0.83288  0.08204  1.0000
  C   C3216     1.0  0.90540  0.84807  0.07740  1.0000
  C   C3217     1.0  0.90119  0.86346  0.06258  1.0000
  C   C3218     1.0  0.88693  0.86336  0.05211  1.0000
  C   C3219     1.0  0.87688  0.84797  0.05633  1.0000
  H   H5690     1.0  0.89799  0.82110  0.09354  1.0000
  H   H5691     1.0  0.91661  0.84802  0.08535  1.0000
  H   H5692     1.0  0.88364  0.87523  0.04064  1.0000
  H   H5693     1.0  0.86599  0.84794  0.04801  1.0000
  C   C3220     1.0  0.86395  0.93998  0.32016  1.0000
  C   C3221     1.0  0.67197  0.79426  0.34527  1.0000
  C   C3222     1.0  0.67574  0.78078  0.36169  1.0000
  C   C3223     1.0  0.68602  0.78494  0.37457  1.0000
  C   C3224     1.0  0.69268  0.80256  0.37120  1.0000
  C   C3225     1.0  0.68829  0.81624  0.35518  1.0000
  C   C3226     1.0  0.67822  0.81204  0.34220  1.0000
  H   H5694     1.0  0.94474  0.80889  0.15204  1.0000
  C   C3227     1.0  0.85662  0.97701  0.07056  1.0000
  N   N178      1.0  0.85870  0.87260  0.11832  1.0000
  C   C3228     1.0  0.86996  0.88623  0.10364  1.0000
  C   C3229     1.0  0.87218  0.85463  0.12579  1.0000
  C   C3230     1.0  0.84516  0.86659  0.10813  1.0000
  C   C3231     1.0  0.84666  0.88219  0.13461  1.0000
  C   C3232     1.0  0.85789  0.89000  0.14647  1.0000
  C   C3233     1.0  0.85819  0.90575  0.09533  1.0000
  C   C3234     1.0  0.83414  0.85024  0.11963  1.0000
  C   C3235     1.0  0.89274  0.85682  0.12764  1.0000
  C   C3236     1.0  0.90402  0.83781  0.13657  1.0000
  C   C3237     1.0  0.84419  0.90259  0.15998  1.0000
  C   C3238     1.0  0.87075  0.91652  0.07845  1.0000
  C   C3239     1.0  0.82105  0.84571  0.10760  1.0000
  H   H5695     1.0  0.87776  0.87892  0.09142  1.0000
  H   H5696     1.0  0.88147  0.89005  0.10947  1.0000
  H   H5697     1.0  0.86523  0.84743  0.13999  1.0000
  H   H5698     1.0  0.87484  0.84387  0.11610  1.0000
  H   H5699     1.0  0.85329  0.86175  0.09449  1.0000
  H   H5700     1.0  0.83378  0.87891  0.10390  1.0000
  H   H5701     1.0  0.83540  0.89409  0.12920  1.0000
  H   H5702     1.0  0.83846  0.87193  0.14516  1.0000
  H   H5703     1.0  0.86831  0.89880  0.13719  1.0000
  H   H5704     1.0  0.86576  0.87777  0.15560  1.0000
  H   H5705     1.0  0.84555  0.90394  0.08980  1.0000
  H   H5706     1.0  0.85299  0.91495  0.10657  1.0000
  H   H5707     1.0  0.82481  0.85435  0.13297  1.0000
  H   H5708     1.0  0.84428  0.83675  0.12364  1.0000
  H   H5709     1.0  0.90112  0.86113  0.11318  1.0000
  H   H5710     1.0  0.89238  0.86775  0.13641  1.0000
  H   H5711     1.0  0.90549  0.82664  0.12765  1.0000
  H   H5712     1.0  0.91879  0.83974  0.13723  1.0000
  H   H5713     1.0  0.89658  0.83283  0.15135  1.0000
  H   H5714     1.0  0.83343  0.89440  0.16974  1.0000
  H   H5715     1.0  0.85261  0.90725  0.16891  1.0000
  H   H5716     1.0  0.83652  0.91565  0.15164  1.0000
  H   H5717     1.0  0.87486  0.90844  0.06627  1.0000
  H   H5718     1.0  0.86253  0.93084  0.07331  1.0000
  H   H5719     1.0  0.88414  0.91842  0.08270  1.0000
  H   H5720     1.0  0.81267  0.83462  0.11633  1.0000
  H   H5721     1.0  0.81062  0.85876  0.10293  1.0000
  H   H5722     1.0  0.82988  0.84003  0.09472  1.0000
  H   H5723     1.0  0.90892  0.96497  0.17545  1.0000
  H   H5724     1.0  0.90910  0.79397  0.07450  1.0000
  H   H5725     1.0  0.72486  0.85304  0.30432  1.0000
  H   H5726     1.0  0.77623  0.81493  0.32553  1.0000
  H   H5727     1.0  0.90089  0.97374  0.42388  1.0000
  C   C3240     1.0  0.73613  0.76822  0.35337  1.0000
  H   H5728     1.0  0.93236  0.87560  0.23788  1.0000
  H   H5729     1.0  0.95696  0.88137  0.17513  1.0000
  H   H5730     1.0  0.89419  0.83600  0.44311  1.0000
  H   H5731     1.0  0.90146  0.91456  0.15507  1.0000
  H   H5732     1.0  0.74411  0.74498  0.37664  1.0000
  H   H5733     1.0  0.98029  0.94604  0.05162  1.0000
  C   C3241     1.0  0.73593  0.95697  0.45622  1.0000
  C   C3242     1.0  0.81534  0.73441  0.11631  1.0000
  H   H5734     1.0  0.68723  0.96971  0.47050  1.0000
  C   C3243     1.0  0.68904  0.83618  0.46576  1.0000
  C   C3244     1.0  0.66843  0.92977  0.43254  1.0000
  H   H5735     1.0  0.97096  0.78496  0.05583  1.0000
  C   C3245     1.0  0.77212  0.80406  0.33825  1.0000
  H   H5736     1.0  0.72349  0.89075  0.42619  1.0000
  C   C3246     1.0  0.72318  0.83816  0.31147  1.0000
  C   C3247     1.0  0.71992  0.81675  0.44991  1.0000
  H   H5737     1.0  0.95381  0.82822  0.05802  1.0000
  H   H5738     1.0  0.77139  0.96121  0.46447  1.0000
  H   H5739     1.0  0.68833  0.87493  0.46321  1.0000
  C   C3248     1.0  0.92684  0.96712  0.43664  1.0000
  H   H5740     1.0  0.68165  0.88592  0.41841  1.0000
  N   N179      1.0  0.75764  0.79332  0.33477  1.0000
  H   H5741     1.0  0.94763  0.83544  0.01602  1.0000
  H   H5742     1.0  0.89506  0.94189  0.12473  1.0000
  H   H5743     1.0  0.71099  0.83925  0.32368  1.0000
  C   C3249     1.0  0.92019  0.94919  0.44958  1.0000
  H   H5744     1.0  0.71321  0.81829  0.43701  1.0000
  H   H5745     1.0  0.71851  0.83132  0.47324  1.0000
  H   H5746     1.0  0.94930  0.75135  0.07520  1.0000
  H   H5747     1.0  0.96713  0.93947  0.02414  1.0000
  H   H5748     1.0  0.86578  0.96542  0.06303  1.0000
  C   C3250     1.0  0.93490  0.82362  0.17669  1.0000
  H   H5749     1.0  0.96349  0.83000  0.17474  1.0000
  H   H5750     1.0  0.80048  0.75161  0.07298  1.0000
  H   H5751     1.0  0.71549  0.84696  0.45087  1.0000
  H   H5752     1.0  0.94775  0.97825  0.06554  1.0000
  H   H5753     1.0  0.93251  0.91917  0.33626  1.0000
  H   H5754     1.0  0.79889  0.81346  0.35621  1.0000
  H   H5755     1.0  0.97693  0.85647  0.14436  1.0000
  H   H5756     1.0  0.67525  0.82266  0.32967  1.0000
  H   H5757     1.0  0.93394  0.84894  0.03448  1.0000
  H   H5758     1.0  0.94559  0.95075  0.18135  1.0000
  H   H5759     1.0  0.92204  0.85107  0.20181  1.0000
  C   C3251     1.0  0.94214  0.80530  0.16800  1.0000
  H   H5760     1.0  0.95819  0.80002  0.08183  1.0000
  C   C3252     1.0  0.73126  0.75578  0.37308  1.0000
  S   S737      1.0  0.97426  0.83136  0.11461  1.0000
  H   H5761     1.0  0.84161  0.91205  0.39147  1.0000
  C   C3253     1.0  0.87954  0.95934  0.40049  1.0000
  H   H5762     1.0  0.89678  0.76100  0.04635  1.0000
  H   H5763     1.0  0.78867  0.78236  0.35799  1.0000
  C   C3254     1.0  0.76598  0.78148  0.31908  1.0000
  C   C3255     1.0  0.74628  0.94685  0.47343  1.0000
  H   H5764     1.0  0.99036  0.93531  0.00855  1.0000
  H   H5765     1.0  0.89014  0.96484  0.14922  1.0000
  N   N180      1.0  0.91771  0.98137  0.19295  1.0000
  H   H5766     1.0  0.91335  0.86145  0.17262  1.0000
  C   C3256     1.0  0.94364  0.79241  0.11878  1.0000
  H   H5767     1.0  0.95971  0.78925  0.11667  1.0000
  H   H5768     1.0  0.93865  0.80804  0.11891  1.0000
  H   H5769     1.0  0.93786  0.78426  0.13295  1.0000
  C   C3257     1.0  0.84326  0.93956  0.31720  1.0000
  C   C3258     1.0  0.84372  0.93467  0.29746  1.0000
  H   H5770     1.0  0.87042  0.95013  0.30789  1.0000
  H   H5771     1.0  0.83366  0.95371  0.31797  1.0000
  H   H5772     1.0  0.83669  0.92846  0.32821  1.0000
  H   H5773     1.0  0.81354  0.96010  0.07427  1.0000
  H   H5774     1.0  0.85288  0.92039  0.29598  1.0000
  H   H5775     1.0  0.82883  0.93417  0.29571  1.0000
  H   H5776     1.0  0.84952  0.94575  0.28578  1.0000
  H   H5777     1.0  0.78536  0.80081  0.30061  1.0000
  N   N181      1.0  0.80786  0.84740  0.24436  1.0000
  C   C3259     1.0  0.78710  0.84588  0.25298  1.0000
  C   C3260     1.0  0.81501  0.83446  0.22948  1.0000
  C   C3261     1.0  0.81964  0.84162  0.26032  1.0000
  C   C3262     1.0  0.80978  0.86774  0.23452  1.0000
  C   C3263     1.0  0.79479  0.87797  0.22128  1.0000
  C   C3264     1.0  0.77724  0.85917  0.26794  1.0000
  C   C3265     1.0  0.84179  0.84065  0.25390  1.0000
  C   C3266     1.0  0.81587  0.81258  0.23697  1.0000
  C   C3267     1.0  0.79902  0.89776  0.21092  1.0000
  C   C3268     1.0  0.75524  0.86171  0.27083  1.0000
  C   C3269     1.0  0.85218  0.83512  0.27122  1.0000
  H   H5778     1.0  0.78597  0.83100  0.26069  1.0000
  H   H5779     1.0  0.77827  0.84839  0.24142  1.0000
  H   H5780     1.0  0.80576  0.83842  0.21818  1.0000
  H   H5781     1.0  0.82967  0.83659  0.22166  1.0000
  H   H5782     1.0  0.81693  0.82759  0.26930  1.0000
  H   H5783     1.0  0.81485  0.85202  0.27043  1.0000
  H   H5784     1.0  0.80914  0.87706  0.24519  1.0000
  H   H5785     1.0  0.82436  0.86798  0.22554  1.0000
  H   H5786     1.0  0.77995  0.88029  0.22978  1.0000
  H   H5787     1.0  0.79490  0.86942  0.21018  1.0000
  H   H5788     1.0  0.78184  0.85276  0.28205  1.0000
  H   H5789     1.0  0.78101  0.87374  0.26365  1.0000
  H   H5790     1.0  0.84504  0.85486  0.24606  1.0000
  H   H5791     1.0  0.84806  0.82979  0.24443  1.0000
  H   H5792     1.0  0.80108  0.80932  0.24249  1.0000
  H   H5793     1.0  0.81318  0.89630  0.20109  1.0000
  H   H5794     1.0  0.78761  0.90504  0.20224  1.0000
  H   H5795     1.0  0.79917  0.90691  0.22147  1.0000
  H   H5796     1.0  0.74994  0.86977  0.25749  1.0000
  H   H5797     1.0  0.75050  0.84753  0.27469  1.0000
  H   H5798     1.0  0.74877  0.87013  0.28257  1.0000
  H   H5799     1.0  0.84992  0.82066  0.27931  1.0000
  H   H5800     1.0  0.86797  0.83478  0.26614  1.0000
  S   S738      1.0  0.98183  0.88581  0.09286  1.0000
  S   S739      1.0  0.83632  0.92137  0.44406  1.0000
  H   H5801     1.0  0.71946  0.74807  0.37296  1.0000
  C   C3270     1.0  0.77477  0.79222  0.29933  1.0000
  H   H5802     1.0  0.76305  0.80174  0.29221  1.0000
  H   H5803     1.0  0.87266  0.92557  0.31833  1.0000
  H   H5804     1.0  0.74764  0.95902  0.44352  1.0000
  H   H5805     1.0  0.82878  0.83160  0.46118  1.0000
  C   C3271     1.0  0.93043  0.86449  0.23024  1.0000
  H   H5806     1.0  0.66741  0.94020  0.35979  1.0000
  H   H5807     1.0  0.92205  0.93802  0.35018  1.0000
  C   C3272     1.0  0.79132  0.79166  0.34370  1.0000
  H   H5808     1.0  0.82173  0.98012  0.05733  1.0000
  C   C3273     1.0  0.85478  0.98122  0.32661  1.0000
  N   N182      1.0  0.94001  0.79210  0.06527  1.0000
  H   H5809     1.0  0.68585  0.90619  0.47457  1.0000
  H   H5810     1.0  0.95510  0.86887  0.20841  1.0000
  C   C3274     1.0  0.95777  0.77848  0.05792  1.0000
  Fe  Fe371     1.0  0.86780  0.92340  0.44023  1.0000
  C   C3275     1.0  0.90945  0.98170  0.42972  1.0000
  H   H5811     1.0  0.95323  0.94353  0.07981  1.0000
  H   H5812     1.0  0.90207  0.92247  0.32441  1.0000
  H   H5813     1.0  0.80907  0.81379  0.33100  1.0000
  C   C3276     1.0  0.86172  0.97094  0.40569  1.0000
  C   C3277     1.0  0.68877  0.86614  0.47785  1.0000
  C   C3278     1.0  0.83068  0.83576  0.47455  1.0000
  H   H5814     1.0  0.66696  0.90089  0.44752  1.0000
  H   H5815     1.0  0.86610  0.89905  0.38607  1.0000
  H   H5816     1.0  0.90857  0.97228  0.06478  1.0000
  H   H5817     1.0  0.72957  0.81018  0.34393  1.0000
  N   N183      1.0  0.72165  0.94655  0.45198  1.0000
  H   H5818     1.0  0.86465  0.73962  0.08112  1.0000
  C   C3279     1.0  0.91432  0.96268  0.18925  1.0000
  H   H5819     1.0  0.75461  0.77475  0.31608  1.0000
  H   H5820     1.0  0.82483  0.78552  0.22623  1.0000
  H   H5821     1.0  0.93302  0.89724  0.16045  1.0000
  C   C3280     1.0  0.93951  0.86884  0.20899  1.0000
  H   H5822     1.0  0.69547  0.93575  0.46574  1.0000
  H   H5823     1.0  0.72884  0.97179  0.45857  1.0000
  C   C3281     1.0  0.86869  0.95779  0.11437  1.0000
  H   H5824     1.0  0.72625  0.76487  0.38445  1.0000
  N   N184      1.0  0.94338  0.85697  0.17613  1.0000
  H   H5825     1.0  0.83685  0.96173  0.34578  1.0000
  C   C3282     1.0  0.88605  0.94703  0.33831  1.0000
  C   C3283     1.0  0.85231  0.96346  0.34276  1.0000
  N   N185      1.0  0.86546  0.94482  0.33909  1.0000
  C   C3284     1.0  0.90153  0.92845  0.33749  1.0000
  C   C3285     1.0  0.92165  0.93261  0.33698  1.0000
  C   C3286     1.0  0.93728  0.80959  0.04966  1.0000
  C   C3287     1.0  0.83792  0.96921  0.08100  1.0000
  H   H5826     1.0  0.94603  0.83989  0.20439  1.0000
  C   C3288     1.0  0.97826  0.94656  0.01356  1.0000
  H   H5827     1.0  0.88717  0.95330  0.35075  1.0000
  H   H5828     1.0  0.91542  0.92450  0.18823  1.0000
  H   H5829     1.0  0.95837  0.87721  0.13980  1.0000
  H   H5830     1.0  0.95293  0.83940  0.15376  1.0000
  H   H5831     1.0  0.85359  0.94312  0.38047  1.0000
  C   C3289     1.0  0.71144  0.83371  0.46053  1.0000
  C   C3290     1.0  0.96953  0.87036  0.14887  1.0000
  H   H5832     1.0  0.86721  0.91455  0.35160  1.0000
  H   H5833     1.0  0.92043  0.78861  0.10632  1.0000
  C   C3291     1.0  0.93646  0.78641  0.10285  1.0000
  H   H5834     1.0  0.88492  0.95452  0.08585  1.0000
  H   H5835     1.0  0.93738  0.85017  0.23716  1.0000
  H   H5836     1.0  0.75360  0.82690  0.30593  1.0000
  C   C3292     1.0  0.92662  0.86777  0.16626  1.0000
  Fe  Fe372     1.0  0.96676  0.86061  0.09671  1.0000
  H   H5837     1.0  0.89854  0.91719  0.35024  1.0000
  H   H5838     1.0  0.84393  0.92852  0.35650  1.0000
  C   C3293     1.0  0.80287  0.74175  0.08615  1.0000
  H   H5839     1.0  0.85469  0.96750  0.35603  1.0000
  C   C3294     1.0  0.85960  0.92886  0.35509  1.0000
  H   H5840     1.0  0.94174  0.77082  0.10334  1.0000
  C   C3295     1.0  0.70680  0.94173  0.46962  1.0000
  H   H5841     1.0  0.87801  0.93038  0.37566  1.0000
  H   H5842     1.0  0.92232  0.77102  0.08155  1.0000
  H   H5843     1.0  0.90904  0.89646  0.14003  1.0000
  H   H5844     1.0  0.92072  0.83032  0.17241  1.0000
  C   C3296     1.0  0.90461  0.89881  0.15518  1.0000
  C   C3297     1.0  0.86270  0.93004  0.37545  1.0000
  H   H5845     1.0  0.90580  0.95650  0.37961  1.0000
  H   H5846     1.0  0.89318  0.85237  0.45908  1.0000
  C   C3298     1.0  0.96059  0.86709  0.17056  1.0000
  C   C3299     1.0  0.94206  0.97360  0.08053  1.0000
  H   H5847     1.0  0.73576  0.81622  0.44512  1.0000
  H   H5848     1.0  0.92796  0.93468  0.16514  1.0000
  H   H5849     1.0  0.93111  0.79578  0.17263  1.0000
  C   C3300     1.0  0.74187  0.82746  0.31854  1.0000
  H   H5850     1.0  0.97417  0.74300  0.04699  1.0000
  H   H5851     1.0  0.93434  0.81335  0.08394  1.0000
  C   C3301     1.0  0.85718  0.91263  0.39017  1.0000
  H   H5852     1.0  0.71753  0.80298  0.45957  1.0000
  H   H5853     1.0  0.84036  0.96709  0.19417  1.0000
  C   C3302     1.0  0.92073  0.88955  0.16678  1.0000
  C   C3303     1.0  0.94279  0.79865  0.08296  1.0000
  H   H5854     1.0  0.68902  0.77434  0.38711  1.0000
  H   H5855     1.0  0.92568  0.94345  0.32412  1.0000
  H   H5856     1.0  0.70381  0.96541  0.39843  1.0000
  H   H5857     1.0  0.85984  0.91370  0.40449  1.0000
  H   H5858     1.0  0.73106  0.80061  0.32289  1.0000
  C   C3304     1.0  0.92894  0.92972  0.18062  1.0000
  H   H5859     1.0  0.90942  0.95309  0.46228  1.0000
  C   C3305     1.0  0.73944  0.80720  0.33031  1.0000
  C   C3306     1.0  0.93201  0.94602  0.18944  1.0000
  C   C3307     1.0  0.73197  0.89767  0.43313  1.0000
  H   H5860     1.0  0.93408  0.94006  0.20453  1.0000
  H   H5861     1.0  0.76532  0.81254  0.34991  1.0000
  C   C3308     1.0  0.78535  0.77803  0.28594  1.0000
  C   C3309     1.0  0.95288  0.82265  0.04512  1.0000
  H   H5862     1.0  0.77533  0.76918  0.28379  1.0000
  H   H5863     1.0  0.93251  0.81929  0.19259  1.0000
  H   H5864     1.0  0.72263  0.77791  0.34996  1.0000
  H   H5865     1.0  0.95940  0.84923  0.02667  1.0000
  H   H5866     1.0  0.79866  0.78251  0.33280  1.0000
  H   H5867     1.0  0.91955  0.98198  0.39286  1.0000
  C   C3310     1.0  0.67367  0.94130  0.41483  1.0000
  H   H5868     1.0  0.91496  0.89195  0.18168  1.0000
  C   C3311     1.0  0.92190  0.78334  0.06946  1.0000
  H   H5869     1.0  0.95584  0.79738  0.17282  1.0000
  H   H5870     1.0  0.92295  0.81882  0.05337  1.0000
  S   S740      1.0  0.88754  0.93773  0.41520  1.0000
  H   H5871     1.0  0.88326  0.92795  0.11423  1.0000
  H   H5872     1.0  0.73373  0.97490  0.41817  1.0000
  Fe  Fe373     1.0  0.83655  0.91876  0.47570  1.0000
  C   C3312     1.0  0.71133  0.95939  0.43649  1.0000
  H   H5873     1.0  0.93135  0.97985  0.24769  1.0000
  H   H5874     1.0  0.81690  0.80579  0.20859  1.0000
  C   C3313     1.0  0.72441  0.96497  0.41684  1.0000
  H   H5875     1.0  0.96714  0.76020  0.08381  1.0000
  H   H5876     1.0  0.92029  0.73863  0.09850  1.0000
  H   H5877     1.0  0.94826  0.98143  0.18109  1.0000
  H   H5878     1.0  0.95712  0.77618  0.04331  1.0000
  C   C3314     1.0  0.72079  0.91750  0.43646  1.0000
  H   H5879     1.0  0.85273  0.97870  0.31260  1.0000
  H   H5880     1.0  0.96735  0.81468  0.03976  1.0000
  C   C3315     1.0  0.93728  0.85345  0.19783  1.0000
  Fe  Fe374     1.0  0.97863  0.89020  0.06194  1.0000
  H   H5881     1.0  0.76482  0.76876  0.35690  1.0000
  C   C3316     1.0  0.91723  0.77612  0.05245  1.0000
  C   C3317     1.0  0.89975  0.76594  0.05882  1.0000
  C   C3318     1.0  0.67111  0.90978  0.43383  1.0000
  H   H5882     1.0  0.67096  0.76708  0.36434  1.0000
  H   H5883     1.0  0.89125  0.89289  0.16194  1.0000
  H   H5884     1.0  0.93731  0.97305  0.15430  1.0000
  H   H5885     1.0  0.93277  0.88350  0.20306  1.0000
  H   H5886     1.0  0.71775  0.92583  0.42231  1.0000
  H   H5887     1.0  0.97764  0.89818  0.14719  1.0000
  H   H5888     1.0  0.70680  0.91543  0.44579  1.0000
  H   H5889     1.0  0.91368  0.78835  0.04080  1.0000
  C   C3319     1.0  0.84910  0.97417  0.18168  1.0000
  H   H5890     1.0  0.85449  0.95457  0.11390  1.0000
  H   H5891     1.0  0.73755  0.91754  0.45808  1.0000
  C   C3320     1.0  0.67957  0.90134  0.41743  1.0000
  H   H5892     1.0  0.93280  0.93916  0.45481  1.0000
  C   C3321     1.0  0.89201  0.96551  0.38364  1.0000
  H   H5893     1.0  0.90258  0.75319  0.07020  1.0000
  H   H5894     1.0  0.90256  0.95714  0.20037  1.0000
  H   H5895     1.0  0.92970  0.86617  0.15083  1.0000
  H   H5896     1.0  0.82805  0.97916  0.09001  1.0000
  H   H5897     1.0  0.93766  0.96222  0.42446  1.0000
  H   H5898     1.0  0.98428  0.93016  0.10478  1.0000
  H   H5899     1.0  0.67145  0.95676  0.41377  1.0000
  C   C3322     1.0  0.97820  0.74527  0.06029  1.0000
  H   H5900     1.0  0.89231  0.97042  0.09738  1.0000
  H   H5901     1.0  0.77712  0.76915  0.32399  1.0000
  C   C3323     1.0  0.75212  0.77976  0.35325  1.0000
  H   H5902     1.0  0.74612  0.89885  0.42352  1.0000
  H   H5903     1.0  0.84071  0.74330  0.05938  1.0000
  H   H5904     1.0  0.91363  0.94152  0.44149  1.0000
  H   H5905     1.0  0.81894  0.79517  0.34906  1.0000
  C   C3324     1.0  0.75946  0.95935  0.47694  1.0000
  H   H5906     1.0  0.74720  0.78788  0.36550  1.0000
  H   H5907     1.0  0.93384  0.97365  0.44535  1.0000
  C   C3325     1.0  0.85658  0.74037  0.05412  1.0000
  H   H5908     1.0  0.71959  0.83067  0.30107  1.0000
  C   C3326     1.0  0.94811  0.84008  0.02961  1.0000
  H   H5909     1.0  0.91388  0.96923  0.22351  1.0000
  C   C3327     1.0  0.98468  0.88338  0.14487  1.0000
  S   S741      1.0  0.65997  0.78973  0.32786  1.0000
  H   H5910     1.0  0.86619  0.96817  0.12433  1.0000
  H   H5911     1.0  0.75538  0.93298  0.47041  1.0000
  H   H5912     1.0  0.74098  0.75836  0.34274  1.0000
  C   C3328     1.0  0.96204  0.75862  0.07084  1.0000
  H   H5913     1.0  0.87594  0.97945  0.20329  1.0000
  H   H5914     1.0  0.68403  0.84181  0.45166  1.0000
  C   C3329     1.0  0.88532  0.98038  0.26295  1.0000
  H   H5915     1.0  0.67811  0.74436  0.22145  1.0000
  C   C3330     1.0  0.87922  0.96638  0.09432  1.0000
  H   H5916     1.0  0.74592  0.93019  0.43519  1.0000
  C   C3331     1.0  0.73243  0.92793  0.44563  1.0000
  S   S742      1.0  0.66005  0.94074  0.45298  1.0000
  C   C3332     1.0  0.98578  0.96026  0.02254  1.0000
  H   H5917     1.0  0.92957  0.76568  0.04649  1.0000
  C   C3333     1.0  0.89481  0.82250  0.47293  1.0000
  C   C3334     1.0  0.92401  0.98115  0.11112  1.0000
  S   S743      1.0  0.82638  0.74040  0.13368  1.0000
  H   H5918     1.0  0.99182  0.75125  0.05646  1.0000
  S   S744      1.0  0.91599  0.74779  0.13685  1.0000
  H   H5919     1.0  0.69954  0.95281  0.43412  1.0000
  H   H5920     1.0  0.98571  0.95858  0.07785  1.0000
  C   C3335     1.0  0.88082  0.93924  0.12322  1.0000
  C   C3336     1.0  0.71227  0.97531  0.40143  1.0000
  H   H5921     1.0  0.89259  0.97488  0.04794  1.0000
  H   H5922     1.0  0.87315  0.93387  0.13780  1.0000
  H   H5923     1.0  0.93701  0.80528  0.03582  1.0000
  H   H5924     1.0  0.73390  0.95223  0.41155  1.0000
  H   H5925     1.0  0.84155  0.95501  0.09006  1.0000
  H   H5926     1.0  0.97166  0.95467  0.00096  1.0000
  H   H5927     1.0  0.89094  0.80939  0.47013  1.0000
  H   H5928     1.0  0.72194  0.98011  0.38786  1.0000
  H   H5929     1.0  0.86145  0.75437  0.04810  1.0000
  C   C3337     1.0  0.92354  0.97783  0.21247  1.0000
  H   H5930     1.0  0.65902  0.86734  0.46222  1.0000
  N   N186      1.0  0.86799  0.98345  0.08269  1.0000
  C   C3338     1.0  0.89870  0.98284  0.05607  1.0000
  H   H5931     1.0  0.99222  0.88416  0.12975  1.0000
  C   C3339     1.0  0.89680  0.98355  0.27513  1.0000
  C   C3340     1.0  0.88707  0.98353  0.37232  1.0000
  H   H5932     1.0  0.78238  0.85413  0.54862  1.0000
  H   H5933     1.0  0.91442  0.80747  0.54104  1.0000
  Fe  Fe375     1.0  0.96501  0.89957  0.58417  1.0000
  S   S745      1.0  0.96766  0.88277  0.56072  1.0000
  S   S746      1.0  0.94107  0.89236  0.60851  1.0000
  C   C3341     1.0  0.92494  0.73821  0.69786  1.0000
  H   H5934     1.0  0.82766  0.77370  0.53814  1.0000
  Fe  Fe376     1.0  0.97191  0.91032  0.54089  1.0000
  S   S747      1.0  0.95601  0.92117  0.51544  1.0000
  H   H5935     1.0  0.92996  0.74168  0.64259  1.0000
  S   S748      1.0  0.96740  0.92794  0.56439  1.0000
  Fe  Fe377     1.0  0.89837  0.77633  0.58582  1.0000
  S   S749      1.0  0.91693  0.76547  0.60852  1.0000
  S   S750      1.0  0.90112  0.76397  0.55908  1.0000
  Fe  Fe378     1.0  0.87443  0.80871  0.60574  1.0000
  S   S751      1.0  0.89094  0.80064  0.63037  1.0000
  S   S752      1.0  0.85083  0.83503  0.60382  1.0000
  Fe  Fe379     1.0  0.91732  0.79653  0.60773  1.0000
  S   S753      1.0  0.94600  0.80420  0.60792  1.0000
  Fe  Fe380     1.0  0.88918  0.77024  0.62932  1.0000
  S   S754      1.0  0.90116  0.80718  0.58308  1.0000
  S   S755      1.0  0.87038  0.77855  0.60666  1.0000
  H   H5936     1.0  0.93756  0.73719  0.70478  1.0000
  H   H5937     1.0  0.79212  0.88142  0.56058  1.0000
  H   H5938     1.0  0.89136  0.76435  0.48728  1.0000
  H   H5939     1.0  0.93461  0.78924  0.67637  1.0000
  H   H5940     1.0  0.84252  0.79966  0.63630  1.0000
  H   H5941     1.0  0.90550  0.85630  0.58465  1.0000
  H   H5942     1.0  0.71872  0.94234  0.52694  1.0000
  H   H5943     1.0  0.90641  0.94181  0.56443  1.0000
  H   H5944     1.0  0.82954  0.76479  0.66482  1.0000
  H   H5945     1.0  0.75156  0.95582  0.60137  1.0000
  H   H5946     1.0  0.70677  0.81661  0.53502  1.0000
  H   H5947     1.0  0.70609  0.89334  0.48636  1.0000
  Fe  Fe381     1.0  0.72161  0.88654  0.59758  1.0000
  S   S756      1.0  0.72046  0.85503  0.60578  1.0000
  S   S757      1.0  0.71633  0.90525  0.62027  1.0000
  Fe  Fe382     1.0  0.73073  0.88543  0.55475  1.0000
  S   S758      1.0  0.73003  0.85389  0.55953  1.0000
  S   S759      1.0  0.73612  0.90026  0.52382  1.0000
  Fe  Fe383     1.0  0.70373  0.86056  0.58158  1.0000
  S   S760      1.0  0.67769  0.84667  0.58572  1.0000
  Fe  Fe384     1.0  0.74698  0.85127  0.58305  1.0000
  S   S761      1.0  0.77126  0.82552  0.58532  1.0000
  S   S762      1.0  0.70287  0.89238  0.57497  1.0000
  S   S763      1.0  0.74975  0.88250  0.57661  1.0000
  C   C3342     1.0  0.79329  0.92251  0.50545  1.0000
  C   C3343     1.0  0.78127  0.92584  0.52287  1.0000
  C   C3344     1.0  0.76409  0.91828  0.52897  1.0000
  C   C3345     1.0  0.75849  0.90809  0.51726  1.0000
  C   C3346     1.0  0.77043  0.90483  0.49978  1.0000
  C   C3347     1.0  0.66487  0.85212  0.69395  1.0000
  H   H5948     1.0  0.78531  0.93423  0.53168  1.0000
  H   H5949     1.0  0.75488  0.92090  0.54243  1.0000
  H   H5950     1.0  0.96498  0.75581  0.65451  1.0000
  C   C3348     1.0  0.89609  0.79185  0.50729  1.0000
  H   H5951     1.0  0.90174  0.91694  0.48606  1.0000
  C   C3349     1.0  0.94263  0.81188  0.52612  1.0000
  H   H5952     1.0  0.86950  0.79469  0.49508  1.0000
  H   H5953     1.0  0.90076  0.89995  0.58449  1.0000
  C   C3350     1.0  0.69026  0.91481  0.65205  1.0000
  C   C3351     1.0  0.69433  0.90472  0.63661  1.0000
  C   C3352     1.0  0.68069  0.89458  0.63424  1.0000
  C   C3353     1.0  0.67052  0.78917  0.71392  1.0000
  N   N187      1.0  0.89371  0.81246  0.50984  1.0000
  C   C3354     1.0  0.81268  0.84482  0.50660  1.0000
  H   H5954     1.0  0.68365  0.88682  0.62235  1.0000
  C   C3355     1.0  0.91334  0.81682  0.50997  1.0000
  C   C3356     1.0  0.91280  0.90882  0.49408  1.0000
  H   H5955     1.0  0.77084  0.83132  0.53577  1.0000
  H   H5956     1.0  0.67294  0.73450  0.93519  1.0000
  C   C3357     1.0  0.83906  0.79110  0.65090  1.0000
  H   H5957     1.0  0.88019  0.87801  0.59502  1.0000
  H   H5958     1.0  0.84537  0.76364  0.64191  1.0000
  C   C3358     1.0  0.82878  0.83248  0.59842  1.0000
  C   C3359     1.0  0.82711  0.81581  0.59246  1.0000
  C   C3360     1.0  0.80931  0.81376  0.58873  1.0000
  C   C3361     1.0  0.79318  0.82856  0.59050  1.0000
  C   C3362     1.0  0.79491  0.84543  0.59603  1.0000
  C   C3363     1.0  0.81268  0.84736  0.60002  1.0000
  H   H5959     1.0  0.83956  0.80458  0.59061  1.0000
  H   H5960     1.0  0.80806  0.80077  0.58430  1.0000
  H   H5961     1.0  0.78254  0.85691  0.59745  1.0000
  H   H5962     1.0  0.81381  0.86034  0.60456  1.0000
  C   C3364     1.0  0.66722  0.98172  0.69097  1.0000
  H   H5963     1.0  0.67287  0.93001  0.57536  1.0000
  H   H5964     1.0  0.75994  0.86363  0.52158  1.0000
  H   H5965     1.0  0.73587  0.94394  0.48695  1.0000
  H   H5966     1.0  0.92154  0.87361  0.57639  1.0000
  H   H5967     1.0  0.90862  0.88145  0.54411  1.0000
  H   H5968     1.0  0.82779  0.84162  0.50949  1.0000
  C   C3365     1.0  0.94015  0.90828  0.50962  1.0000
  C   C3366     1.0  0.92569  0.91843  0.49904  1.0000
  H   H5969     1.0  0.98924  0.79486  0.59761  1.0000
  C   C3367     1.0  0.92911  0.87858  0.50963  1.0000
  C   C3368     1.0  0.94183  0.88826  0.51489  1.0000
  H   H5970     1.0  0.93057  0.86313  0.51371  1.0000
  H   H5971     1.0  0.95312  0.88023  0.52276  1.0000
  C   C3369     1.0  0.94237  0.86736  0.61117  1.0000
  C   C3370     1.0  0.92554  0.85922  0.61657  1.0000
  C   C3371     1.0  0.92654  0.83965  0.61605  1.0000
  C   C3372     1.0  0.94443  0.82815  0.61062  1.0000
  C   C3373     1.0  0.96132  0.83609  0.60634  1.0000
  C   C3374     1.0  0.96025  0.85566  0.60638  1.0000
  H   H5972     1.0  0.91167  0.86822  0.62027  1.0000
  H   H5973     1.0  0.91344  0.83361  0.61945  1.0000
  H   H5974     1.0  0.97522  0.82734  0.60232  1.0000
  H   H5975     1.0  0.97333  0.86174  0.60238  1.0000
  H   H5976     1.0  0.85159  0.88445  0.55503  1.0000
  H   H5977     1.0  0.85217  0.78771  0.65772  1.0000
  H   H5978     1.0  0.78809  0.87006  0.52666  1.0000
  H   H5979     1.0  0.81466  0.85021  0.55591  1.0000
  H   H5980     1.0  0.77613  0.86213  0.49915  1.0000
  S   S764      1.0  0.88412  0.74980  0.65738  1.0000
  H   H5981     1.0  0.76599  0.89718  0.49057  1.0000
  C   C3375     1.0  0.71928  0.95763  0.52682  1.0000
  C   C3376     1.0  0.79404  0.85658  0.53588  1.0000
  H   H5982     1.0  0.67765  0.81040  0.68910  1.0000
  S   S765      1.0  0.66223  0.94455  0.74716  1.0000
  H   H5983     1.0  0.66520  0.83289  0.63078  1.0000
  C   C3377     1.0  0.66852  0.95949  0.79631  1.0000
  H   H5984     1.0  0.98644  0.75661  0.60743  1.0000
  H   H5985     1.0  0.67402  0.96386  0.50519  1.0000
  H   H5986     1.0  0.85828  0.74363  0.59750  1.0000
  H   H5987     1.0  0.87577  0.73430  0.62664  1.0000
  C   C3378     1.0  0.68891  0.86170  0.70987  1.0000
  C   C3379     1.0  0.80249  0.74629  0.65540  1.0000
  H   H5988     1.0  0.92294  0.75046  0.52489  1.0000
  H   H5989     1.0  0.67820  0.84360  0.68691  1.0000
  C   C3380     1.0  0.69007  0.89733  0.48806  1.0000
  C   C3381     1.0  0.65902  0.90464  0.66261  1.0000
  C   C3382     1.0  0.66914  0.85578  0.71290  1.0000
  H   H5990     1.0  0.66187  0.78248  0.70696  1.0000
  H   H5991     1.0  0.75421  0.74130  0.79138  1.0000
  H   H5992     1.0  0.66871  0.95755  0.60361  1.0000
  H   H5993     1.0  0.68022  0.81572  0.71139  1.0000
  H   H5994     1.0  0.66485  0.88461  0.49422  1.0000
  C   C3383     1.0  0.77195  0.76243  0.78794  1.0000
  H   H5995     1.0  0.70721  0.73604  0.89356  1.0000
  H   H5996     1.0  0.67289  0.84069  0.65945  1.0000
  H   H5997     1.0  0.70777  0.96711  0.51936  1.0000
  S   S766      1.0  0.84471  0.88654  0.48162  1.0000
  C   C3384     1.0  0.87729  0.78507  0.50621  1.0000
  H   H5998     1.0  0.66429  0.78820  0.72951  1.0000
  H   H5999     1.0  0.86737  0.78462  0.52030  1.0000
  H   H6000     1.0  0.76034  0.77183  0.79624  1.0000
  H   H6001     1.0  0.79981  0.84274  0.48221  1.0000
  C   C3385     1.0  0.66311  0.85426  0.56779  1.0000
  H   H6002     1.0  0.74227  0.83992  0.51527  1.0000
  C   C3386     1.0  0.71678  0.96141  0.54734  1.0000
  H   H6003     1.0  0.69121  0.86490  0.72353  1.0000
  H   H6004     1.0  0.80290  0.79943  0.52452  1.0000
  H   H6005     1.0  0.68368  0.87183  0.50748  1.0000
  C   C3387     1.0  0.76880  0.74157  0.79408  1.0000
  H   H6006     1.0  0.92436  0.92383  0.57566  1.0000
  H   H6007     1.0  0.72918  0.95218  0.55366  1.0000
  C   C3388     1.0  0.97550  0.74014  0.59207  1.0000
  H   H6008     1.0  0.67033  0.82524  0.50197  1.0000
  H   H6009     1.0  0.76595  0.95234  0.48988  1.0000
  C   C3389     1.0  0.95093  0.75362  0.66408  1.0000
  C   C3390     1.0  0.82307  0.74828  0.62305  1.0000
  H   H6010     1.0  0.67404  0.88054  0.55516  1.0000
  H   H6011     1.0  0.85247  0.88492  0.62085  1.0000
  H   H6012     1.0  0.91243  0.83249  0.50965  1.0000
  C   C3391     1.0  0.93527  0.77020  0.65635  1.0000
  C   C3392     1.0  0.69654  0.82990  0.50819  1.0000
  C   C3393     1.0  0.89491  0.90621  0.57093  1.0000
  H   H6013     1.0  0.71339  0.93009  0.48037  1.0000
  H   H6014     1.0  0.83004  0.89917  0.61464  1.0000
  C   C3394     1.0  0.93709  0.78951  0.66061  1.0000
  H   H6015     1.0  0.74612  0.93557  0.59386  1.0000
  H   H6016     1.0  0.73382  0.94243  0.61663  1.0000
  H   H6017     1.0  0.95266  0.75583  0.67832  1.0000
  H   H6018     1.0  0.86816  0.76007  0.50109  1.0000
  C   C3395     1.0  0.69753  0.95619  0.55953  1.0000
  H   H6019     1.0  0.86954  0.82639  0.49517  1.0000
  H   H6020     1.0  0.97911  0.73470  0.57821  1.0000
  C   C3396     1.0  0.67076  0.81015  0.70433  1.0000
  C   C3397     1.0  0.85396  0.89811  0.59056  1.0000
  C   C3398     1.0  0.66733  0.73559  0.84475  1.0000
  H   H6021     1.0  0.92379  0.73728  0.58551  1.0000
  H   H6022     1.0  0.93710  0.77167  0.64047  1.0000
  H   H6023     1.0  0.92042  0.76739  0.66252  1.0000
  H   H6024     1.0  0.88906  0.75444  0.51276  1.0000
  H   H6025     1.0  0.82706  0.80524  0.51739  1.0000
  H   H6026     1.0  0.66739  0.84681  0.51071  1.0000
  H   H6027     1.0  0.70431  0.81723  0.50157  1.0000
  H   H6028     1.0  0.77144  0.76744  0.77237  1.0000
  H   H6029     1.0  0.85937  0.91022  0.51541  1.0000
  C   C3399     1.0  0.80792  0.82240  0.53787  1.0000
  H   H6030     1.0  0.98935  0.76537  0.56333  1.0000
  H   H6031     1.0  0.70066  0.84991  0.70542  1.0000
  H   H6032     1.0  0.81743  0.88252  0.55699  1.0000
  H   H6033     1.0  0.92612  0.80108  0.65430  1.0000
  H   H6034     1.0  0.81004  0.86063  0.50103  1.0000
  H   H6035     1.0  0.83222  0.73456  0.66193  1.0000
  H   H6036     1.0  0.94946  0.80351  0.53848  1.0000
  H   H6037     1.0  0.92694  0.78977  0.52647  1.0000
  H   H6038     1.0  0.68623  0.83570  0.53734  1.0000
  H   H6039     1.0  0.68307  0.81246  0.53411  1.0000
  S   S767      1.0  0.81424  0.93284  0.49777  1.0000
  C   C3400     1.0  0.93028  0.73517  0.57108  1.0000
  H   H6040     1.0  0.83843  0.87578  0.60794  1.0000
  N   N188      1.0  0.80805  0.75947  0.63657  1.0000
  C   C3401     1.0  0.92959  0.74240  0.53695  1.0000
  H   H6041     1.0  0.86694  0.87123  0.58035  1.0000
  C   C3402     1.0  0.79028  0.76690  0.62721  1.0000
  C   C3403     1.0  0.81489  0.77663  0.64002  1.0000
  C   C3404     1.0  0.83290  0.77240  0.64980  1.0000
  C   C3405     1.0  0.82836  0.75891  0.60212  1.0000
  C   C3406     1.0  0.77201  0.77684  0.63967  1.0000
  H   H6042     1.0  0.90693  0.91997  0.54162  1.0000
  C   C3407     1.0  0.76730  0.85388  0.51125  1.0000
  H   H6043     1.0  0.92418  0.90203  0.55341  1.0000
  C   C3408     1.0  0.98978  0.77008  0.57698  1.0000
  C   C3409     1.0  0.75474  0.78207  0.62909  1.0000
  H   H6044     1.0  0.88405  0.90781  0.53632  1.0000
  H   H6045     1.0  0.66129  0.96317  0.58076  1.0000
  H   H6046     1.0  0.68482  0.90603  0.49973  1.0000
  S   S768      1.0  0.89778  0.87634  0.49413  1.0000
  H   H6047     1.0  0.78222  0.82426  0.51366  1.0000
  H   H6048     1.0  0.79338  0.77784  0.61408  1.0000
  H   H6049     1.0  0.81755  0.78700  0.62638  1.0000
  H   H6050     1.0  0.80337  0.78486  0.64954  1.0000
  C   C3410     1.0  0.88532  0.82620  0.49355  1.0000
  H   H6051     1.0  0.68564  0.96292  0.55115  1.0000
  C   C3411     1.0  0.67269  0.91466  0.66513  1.0000
  H   H6052     1.0  0.83265  0.77275  0.60194  1.0000
  H   H6053     1.0  0.77449  0.79046  0.64272  1.0000
  C   C3412     1.0  0.68172  0.95159  0.49790  1.0000
  H   H6054     1.0  0.95536  0.73819  0.63379  1.0000
  H   H6055     1.0  0.84373  0.90259  0.58020  1.0000
  H   H6056     1.0  0.94015  0.82741  0.52698  1.0000
  C   C3413     1.0  0.91370  0.86423  0.57172  1.0000
  H   H6057     1.0  0.70037  0.94767  0.60716  1.0000
  H   H6058     1.0  0.82737  0.79997  0.65969  1.0000
  H   H6059     1.0  0.81009  0.78385  0.55678  1.0000
  H   H6060     1.0  0.95166  0.79302  0.65402  1.0000
  H   H6061     1.0  0.66969  0.92240  0.67703  1.0000
  H   H6062     1.0  0.85805  0.91119  0.59312  1.0000
  H   H6063     1.0  0.75804  0.79197  0.61524  1.0000
  H   H6064     1.0  0.75096  0.76895  0.62619  1.0000
  H   H6065     1.0  0.76777  0.76743  0.65355  1.0000
  H   H6066     1.0  0.79067  0.73890  0.65439  1.0000
  H   H6067     1.0  0.73078  0.96720  0.57672  1.0000
  H   H6068     1.0  0.67074  0.94521  0.49376  1.0000
  C   C3414     1.0  0.88010  0.81509  0.52846  1.0000
  C   C3415     1.0  0.78803  0.91169  0.49406  1.0000
  H   H6069     1.0  0.67117  0.88672  0.78238  1.0000
  H   H6070     1.0  0.78613  0.76385  0.79087  1.0000
  C   C3416     1.0  0.87801  0.83468  0.53495  1.0000
  C   C3417     1.0  0.92352  0.80540  0.52696  1.0000
  C   C3418     1.0  0.86172  0.89094  0.54283  1.0000
  H   H6071     1.0  0.82105  0.82509  0.54192  1.0000
  H   H6072     1.0  0.67186  0.73510  0.88545  1.0000
  C   C3419     1.0  0.86303  0.83573  0.55335  1.0000
  H   H6073     1.0  0.90186  0.78195  0.51958  1.0000
  C   C3420     1.0  0.98372  0.82707  0.53961  1.0000
  C   C3421     1.0  0.73982  0.94797  0.60145  1.0000
  H   H6074     1.0  0.92434  0.93388  0.49477  1.0000
  H   H6075     1.0  0.88434  0.80340  0.54041  1.0000
  H   H6076     1.0  0.86525  0.81362  0.52742  1.0000
  H   H6077     1.0  0.74196  0.78951  0.63805  1.0000
  C   C3422     1.0  0.72400  0.96149  0.59146  1.0000
  C   C3423     1.0  0.81477  0.80357  0.52950  1.0000
  H   H6078     1.0  0.71362  0.93665  0.58761  1.0000
  H   H6079     1.0  0.95272  0.80929  0.51259  1.0000
  H   H6080     1.0  0.96067  0.74885  0.59342  1.0000
  H   H6081     1.0  0.87317  0.84685  0.52378  1.0000
  H   H6082     1.0  0.89191  0.83666  0.53798  1.0000
  H   H6083     1.0  0.83679  0.74311  0.62875  1.0000
  H   H6084     1.0  0.68956  0.94063  0.50822  1.0000
  C   C3424     1.0  0.91156  0.91375  0.55567  1.0000
  H   H6085     1.0  0.91898  0.75372  0.69389  1.0000
  H   H6086     1.0  0.86441  0.91601  0.55371  1.0000
  C   C3425     1.0  0.68066  0.87949  0.49309  1.0000
  H   H6087     1.0  0.92999  0.93505  0.55076  1.0000
  H   H6088     1.0  0.80421  0.89238  0.53750  1.0000
  C   C3426     1.0  0.88181  0.76474  0.50153  1.0000
  H   H6089     1.0  0.81046  0.81987  0.49380  1.0000
  H   H6090     1.0  0.79641  0.75485  0.66715  1.0000
  H   H6091     1.0  0.86235  0.84925  0.55861  1.0000
  H   H6092     1.0  0.84849  0.83534  0.55069  1.0000
  H   H6093     1.0  0.86690  0.82347  0.56484  1.0000
  N   N189      1.0  0.88516  0.89215  0.56532  1.0000
  H   H6094     1.0  0.68500  0.92397  0.59602  1.0000
  H   H6095     1.0  0.82418  0.86143  0.53193  1.0000
  H   H6096     1.0  0.81800  0.73503  0.62200  1.0000
  H   H6097     1.0  0.69488  0.74513  0.83682  1.0000
  C   C3427     1.0  0.67304  0.95476  0.58860  1.0000
  C   C3428     1.0  0.87200  0.88387  0.58291  1.0000
  C   C3429     1.0  0.91434  0.88884  0.49942  1.0000
  H   H6098     1.0  0.70609  0.84076  0.50517  1.0000
  H   H6099     1.0  0.98161  0.81870  0.57024  1.0000
  H   H6100     1.0  0.97545  0.77918  0.58089  1.0000
  H   H6101     1.0  0.93849  0.84097  0.57207  1.0000
  C   C3430     1.0  0.80581  0.88057  0.54997  1.0000
  H   H6102     1.0  0.96987  0.83742  0.54107  1.0000
  C   C3431     1.0  0.81218  0.83510  0.48945  1.0000
  H   H6103     1.0  0.67816  0.97761  0.70064  1.0000
  H   H6104     1.0  0.83399  0.79023  0.55033  1.0000
  N   N190      1.0  0.79881  0.83986  0.52506  1.0000
  H   H6105     1.0  0.69927  0.94039  0.56027  1.0000
  H   H6106     1.0  0.92354  0.81376  0.49664  1.0000
  H   H6107     1.0  0.78614  0.75490  0.62234  1.0000
  H   H6108     1.0  0.66312  0.86632  0.68418  1.0000
  C   C3432     1.0  0.81108  0.86115  0.54327  1.0000
  N   N191      1.0  0.69206  0.96128  0.57947  1.0000
  C   C3433     1.0  0.69286  0.82323  0.52999  1.0000
  H   H6109     1.0  0.67577  0.74754  0.90272  1.0000
  C   C3434     1.0  0.84977  0.90364  0.52816  1.0000
  H   H6110     1.0  0.84152  0.89483  0.52319  1.0000
  H   H6111     1.0  0.68700  0.95086  0.77073  1.0000
  H   H6112     1.0  0.79765  0.81935  0.55153  1.0000
  H   H6113     1.0  0.87125  0.87931  0.53566  1.0000
  C   C3435     1.0  0.92887  0.84940  0.56191  1.0000
  C   C3436     1.0  0.91845  0.92956  0.56212  1.0000
  C   C3437     1.0  0.70714  0.95099  0.59171  1.0000
  H   H6114     1.0  0.90716  0.78896  0.49440  1.0000
  C   C3438     1.0  0.75159  0.84804  0.50345  1.0000
  H   H6115     1.0  0.68554  0.78089  0.71254  1.0000
  C   C3439     1.0  0.92168  0.74595  0.55557  1.0000
  H   H6116     1.0  0.74235  0.86118  0.49695  1.0000
  C   C3440     1.0  0.77993  0.83623  0.52172  1.0000
  H   H6117     1.0  0.84299  0.82560  0.48012  1.0000
  C   C3441     1.0  0.84310  0.88889  0.60967  1.0000
  H   H6118     1.0  0.88635  0.84120  0.49410  1.0000
  C   C3442     1.0  0.66413  0.87143  0.55450  1.0000
  H   H6119     1.0  0.88414  0.91913  0.57427  1.0000
  H   H6120     1.0  0.83929  0.91524  0.53463  1.0000
  H   H6121     1.0  0.89246  0.86528  0.55457  1.0000
  C   C3443     1.0  0.89982  0.87592  0.55793  1.0000
  H   H6122     1.0  0.81593  0.76173  0.59440  1.0000
  H   H6123     1.0  0.68967  0.87486  0.69868  1.0000
  H   H6124     1.0  0.92181  0.83933  0.55725  1.0000
  H   H6125     1.0  0.93793  0.85673  0.54926  1.0000
  H   H6126     1.0  0.76904  0.73758  0.80973  1.0000
  C   C3444     1.0  0.87400  0.90272  0.54951  1.0000
  C   C3445     1.0  0.82207  0.78687  0.54466  1.0000
  H   H6127     1.0  0.70079  0.92267  0.65395  1.0000
  C   C3446     1.0  0.67224  0.95384  0.77821  1.0000
  C   C3447     1.0  0.67729  0.83792  0.50053  1.0000
  C   C3448     1.0  0.67258  0.93319  0.58982  1.0000
  C   C3449     1.0  0.98393  0.81147  0.55761  1.0000
  H   H6128     1.0  0.97147  0.80425  0.55885  1.0000
  H   H6129     1.0  0.73358  0.96062  0.51866  1.0000
  H   H6130     1.0  0.90545  0.73696  0.72536  1.0000
  H   H6131     1.0  0.84886  0.75487  0.57585  1.0000
  H   H6132     1.0  0.68043  0.96077  0.80271  1.0000
  C   C3450     1.0  0.84519  0.74682  0.59066  1.0000
  H   H6133     1.0  0.71870  0.97382  0.59924  1.0000
  H   H6134     1.0  0.98512  0.82060  0.52661  1.0000
  C   C3451     1.0  0.66766  0.73671  0.90091  1.0000
  H   H6135     1.0  0.66199  0.81927  0.66520  1.0000
  H   H6136     1.0  0.75112  0.97368  0.47950  1.0000
  H   H6137     1.0  0.66863  0.84290  0.72437  1.0000
  H   H6138     1.0  0.66006  0.96927  0.69203  1.0000
  H   H6139     1.0  0.71752  0.97676  0.54631  1.0000
  H   H6140     1.0  0.70594  0.96559  0.48481  1.0000
  H   H6141     1.0  0.75820  0.83911  0.49216  1.0000
  C   C3452     1.0  0.99028  0.75211  0.59312  1.0000
  C   C3453     1.0  0.66303  0.89468  0.64711  1.0000
  H   H6142     1.0  0.79715  0.90926  0.48049  1.0000
  H   H6143     1.0  0.68634  0.98237  0.60901  1.0000
  C   C3454     1.0  0.68861  0.98291  0.57777  1.0000
  N   N192      1.0  0.67886  0.84908  0.48023  1.0000
  C   C3455     1.0  0.69584  0.95866  0.48005  1.0000
  C   C3456     1.0  0.65927  0.83516  0.66110  1.0000
  H   H6144     1.0  0.65915  0.74962  0.84003  1.0000
