data_image0
_chemical_formula_structural       H5CHCH7C2HCH3CH3C3H2CHSFeS2FeS2FeSFeS4FeS2FeS2FeSFeS3CH5C6H4C6H5C2H3C6H4CHC2H4NHNH2CH3CHCH2CHNH3NH4CH8C5H2C3HCH7CH3C2H8CH3CNC12H24CHCH2CHCH4CH2CH2C2HC3H5CH2C5H3CH7C4H6C2H2CHFeSFeS2FeSFeS3FeS2FeSFeSFeS3HC3HC6H4C2H3C3H3C2H5CH4C3H3CH3CH8CNH6C2HNHCH2C3H9C3HC2H2CH2C4H2CH5CH2CNHCH7CHCH5CH2C2H2CFeS2FeS2FeSFeS2FeS2FeS2Fe2S3CHCH2C2H2C7H4C3HC3H7CH2CHCH7C2H7C2H2C2HCH3CH3CH4C2H3CHCHNHC2H2C2H3C3H4NH11C3H2C2H3C3HCH4C2H4C2H3FeS2FeS2FeSFeS4FeS2FeS2FeSFeS4C6H4CHC2HC6H4C6H4C2H2C2HC3H3CH4NH9C2HCH3CNH2C2H5C3H2C2H6NH2CH2C3H7C2H7C3H11C2HNCH4C4HC2HCH6CH6CH3CHCH2CH4CNH10C2H4CNC3HCH4CH2C3H3C2HCH5C3H2C4H4C2H2CH3CH4C3HCH3CH4CHCH6CH4CH5CHCH3C4H5C2H2NHCH9C2H5CH8C2H2CH4SFeS2FeS2FeSFeS3CFeS2FeS2FeSFeS3C3H2C7H4C6H10C2H2C6H4NC12H27NH4C3HCH3C2HCH2C2H5C2HCHC3HC3H4CHC6H4CH2C2H4CH3CH3CH3C3H4SHCHC3H2CH2CH4CHNH10NH9CH3C2HCNH4C3HCH3FeS2FeSFeSFeS3FeSFeS2FeSFeS3C2H3C6H4CHC2HC2H2C3H5CH5CH2C2HC2HCH8C7H9C2HC3H4NH5C2H8CH2CH4FeS2FeS2Fe2S3FeS2FeS2FeSFeS2HC2H2CHC2HC6H9C2H2C2HCH5C3H4C2H3CH6C3H2C2NHCH3CHCH3CH6CHCH7NH2CH2CH2NCH13C3HC2H2C2HC4HC2H2C2H2C3H12SFeS2FeS2FeSFeS4FeS2FeS2FeSFeS3C3H2C6H4C6H4C6H4CH11NC9H18NC2HC2HCH3C3H4CNCHCHNC2HC4H6CH6C2H4C2HCHC4H7CHCH12C2HCH2NH3CHC2HCH3CHC3H6CHCH8CH14CHC3H2CHCHCNHCH3C2H2CH3C2H3CH2CH9C2H3
_chemical_formula_sum              "H1024 C576 S128 Fe64 N32"
_cell_length_a       46.9331
_cell_length_b       46.9779
_cell_length_c       40.0654
_cell_angle_alpha    89.828
_cell_angle_beta     89.8692
_cell_angle_gamma    90.1038

_space_group_name_H-M_alt    "P 1"
_space_group_IT_number       1

loop_
  _space_group_symop_operation_xyz
  'x, y, z'

loop_
  _atom_site_type_symbol
  _atom_site_label
  _atom_site_symmetry_multiplicity
  _atom_site_fract_x
  _atom_site_fract_y
  _atom_site_fract_z
  _atom_site_occupancy
  H   H1        1.0  0.18995  0.04215  0.36002  1.0000
  H   H2        1.0  0.25126  0.01888  0.30708  1.0000
  H   H3        1.0  0.29433  0.01395  0.28656  1.0000
  H   H4        1.0  0.15394  0.04125  0.99163  1.0000
  H   H5        1.0  0.22604  0.04157  0.37525  1.0000
  C   C1        1.0  0.14757  0.99574  0.99593  1.0000
  H   H6        1.0  0.05369  0.01093  0.00152  1.0000
  C   C2        1.0  0.14901  0.02190  0.97825  1.0000
  H   H7        1.0  0.20925  0.99359  0.35854  1.0000
  H   H8        1.0  0.30759  0.03950  0.42860  1.0000
  H   H9        1.0  0.26154  0.01023  0.34816  1.0000
  H   H10       1.0  0.33828  0.00151  0.25766  1.0000
  H   H11       1.0  0.04761  0.04719  0.95740  1.0000
  H   H12       1.0  0.15128  0.99526  0.02255  1.0000
  H   H13       1.0  0.21847  0.05491  0.33372  1.0000
  C   C3        1.0  0.21254  0.03868  0.35275  1.0000
  C   C4        1.0  0.06296  0.99395  0.98578  1.0000
  H   H14       1.0  0.34155  0.99216  0.30119  1.0000
  C   C5        1.0  0.31813  0.99481  0.42433  1.0000
  H   H15       1.0  0.00900  0.00051  0.02601  1.0000
  H   H16       1.0  0.00535  0.00718  0.98240  1.0000
  H   H17       1.0  0.41108  0.99583  0.37313  1.0000
  C   C6        1.0  0.31461  0.02072  0.44191  1.0000
  H   H18       1.0  0.08624  0.99484  0.99114  1.0000
  H   H19       1.0  0.31394  0.99399  0.39784  1.0000
  H   H20       1.0  0.20157  0.00688  0.31700  1.0000
  C   C7        1.0  0.21604  0.00865  0.33872  1.0000
  C   C8        1.0  0.29809  0.99105  0.28170  1.0000
  C   C9        1.0  0.24716  0.00340  0.32759  1.0000
  H   H21       1.0  0.05583  0.99905  0.05368  1.0000
  H   H22       1.0  0.47851  0.00813  0.36807  1.0000
  C   C10       1.0  0.00218  0.99092  0.00217  1.0000
  H   H23       1.0  0.08548  0.04123  0.95274  1.0000
  S   S1        1.0  0.31970  0.30676  0.54331  1.0000
  Fe  Fe1       1.0  0.37424  0.07954  0.59888  1.0000
  S   S2        1.0  0.36541  0.10403  0.55201  1.0000
  S   S3        1.0  0.41853  0.06444  0.61508  1.0000
  Fe  Fe2       1.0  0.31059  0.08345  0.62304  1.0000
  S   S4        1.0  0.29831  0.10797  0.57670  1.0000
  S   S5        1.0  0.28458  0.07444  0.67143  1.0000
  Fe  Fe3       1.0  0.32612  0.07601  0.54839  1.0000
  S   S6        1.0  0.31392  0.05597  0.49747  1.0000
  Fe  Fe4       1.0  0.33884  0.13350  0.58398  1.0000
  S   S7        1.0  0.34872  0.18076  0.59421  1.0000
  S   S8        1.0  0.33612  0.05033  0.59448  1.0000
  S   S9        1.0  0.34987  0.10993  0.63115  1.0000
  S   S10       1.0  0.13611  0.30413  0.87249  1.0000
  Fe  Fe5       1.0  0.13918  0.07877  0.79412  1.0000
  S   S11       1.0  0.15873  0.10375  0.83614  1.0000
  S   S12       1.0  0.16071  0.07359  0.74209  1.0000
  Fe  Fe6       1.0  0.07908  0.07901  0.82955  1.0000
  S   S13       1.0  0.09624  0.10503  0.87186  1.0000
  S   S14       1.0  0.03248  0.06677  0.84013  1.0000
  Fe  Fe7       1.0  0.11951  0.13147  0.83360  1.0000
  S   S15       1.0  0.11580  0.17816  0.81689  1.0000
  Fe  Fe8       1.0  0.13331  0.07445  0.87087  1.0000
  S   S16       1.0  0.14715  0.05709  0.92249  1.0000
  S   S17       1.0  0.10018  0.10682  0.79133  1.0000
  S   S18       1.0  0.11586  0.04784  0.82890  1.0000
  C   C11       1.0  0.20746  0.01108  0.66292  1.0000
  H   H24       1.0  0.42909  0.32236  0.50405  1.0000
  H   H25       1.0  0.43709  0.18256  0.64485  1.0000
  H   H26       1.0  0.02353  0.15751  0.92302  1.0000
  H   H27       1.0  0.06262  0.04021  0.91676  1.0000
  H   H28       1.0  0.01724  0.08653  0.77287  1.0000
  C   C12       1.0  0.13038  0.26927  0.85651  1.0000
  C   C13       1.0  0.12266  0.26445  0.82329  1.0000
  C   C14       1.0  0.11863  0.23639  0.81170  1.0000
  C   C15       1.0  0.12197  0.21283  0.83313  1.0000
  C   C16       1.0  0.12987  0.21759  0.86626  1.0000
  C   C17       1.0  0.13405  0.24566  0.87782  1.0000
  H   H29       1.0  0.11991  0.28235  0.80656  1.0000
  H   H30       1.0  0.11274  0.23295  0.78594  1.0000
  H   H31       1.0  0.13264  0.19973  0.88304  1.0000
  H   H32       1.0  0.14014  0.24913  0.90353  1.0000
  C   C18       1.0  0.25003  0.07602  0.69084  1.0000
  C   C19       1.0  0.22527  0.08350  0.67343  1.0000
  C   C20       1.0  0.19836  0.08284  0.68958  1.0000
  C   C21       1.0  0.19564  0.07524  0.72356  1.0000
  C   C22       1.0  0.22045  0.06803  0.74101  1.0000
  C   C23       1.0  0.24730  0.06838  0.72478  1.0000
  H   H33       1.0  0.22676  0.08932  0.64734  1.0000
  H   H34       1.0  0.17943  0.08811  0.67553  1.0000
  H   H35       1.0  0.21890  0.06154  0.76688  1.0000
  H   H36       1.0  0.26614  0.06238  0.73863  1.0000
  H   H37       1.0  0.00473  0.21902  0.82930  1.0000
  C   C24       1.0  0.45151  0.07487  0.59658  1.0000
  C   C25       1.0  0.45285  0.08699  0.56469  1.0000
  H   H38       1.0  0.45296  0.21601  0.56469  1.0000
  H   H39       1.0  0.43351  0.08952  0.55038  1.0000
  H   H40       1.0  0.47238  0.14495  0.58894  1.0000
  C   C26       1.0  0.32842  0.27191  0.55757  1.0000
  C   C27       1.0  0.34681  0.26721  0.58447  1.0000
  C   C28       1.0  0.35280  0.23917  0.59509  1.0000
  C   C29       1.0  0.34060  0.21547  0.57900  1.0000
  C   C30       1.0  0.32223  0.22017  0.55212  1.0000
  C   C31       1.0  0.31617  0.24822  0.54156  1.0000
  H   H41       1.0  0.35631  0.28516  0.59714  1.0000
  H   H42       1.0  0.36680  0.23582  0.61612  1.0000
  H   H43       1.0  0.31259  0.20223  0.53956  1.0000
  H   H44       1.0  0.30187  0.25160  0.52078  1.0000
  C   C32       1.0  0.29783  0.31777  0.69647  1.0000
  H   H45       1.0  0.41487  0.12789  0.50774  1.0000
  C   C33       1.0  0.04244  0.25175  0.79595  1.0000
  C   C34       1.0  0.43780  0.23007  0.61324  1.0000
  H   H46       1.0  0.00661  0.15025  0.75402  1.0000
  H   H47       1.0  0.19270  0.25859  0.78308  1.0000
  H   H48       1.0  0.29801  0.31980  0.64242  1.0000
  H   H49       1.0  0.23815  0.06404  0.57968  1.0000
  N   N1        1.0  0.25379  0.31541  0.65777  1.0000
  H   H50       1.0  0.34026  0.31027  0.67586  1.0000
  N   N2        1.0  0.25475  0.99178  0.63766  1.0000
  H   H51       1.0  0.21712  0.26302  0.81735  1.0000
  H   H52       1.0  0.29174  0.22745  0.61837  1.0000
  C   C35       1.0  0.41320  0.15123  0.50368  1.0000
  H   H53       1.0  0.02746  0.18233  0.75047  1.0000
  H   H54       1.0  0.18290  0.24689  0.82464  1.0000
  H   H55       1.0  0.23632  0.04626  0.53988  1.0000
  C   C36       1.0  0.48438  0.31550  0.53205  1.0000
  H   H56       1.0  0.41259  0.12633  0.61859  1.0000
  C   C37       1.0  0.32008  0.02268  0.47647  1.0000
  H   H57       1.0  0.01711  0.18833  0.87186  1.0000
  H   H58       1.0  0.29399  0.29499  0.70230  1.0000
  C   C38       1.0  0.24738  0.04665  0.56435  1.0000
  H   H59       1.0  0.03629  0.12157  0.91781  1.0000
  N   N3        1.0  0.01603  0.17515  0.82001  1.0000
  H   H60       1.0  0.47632  0.06133  0.63895  1.0000
  H   H61       1.0  0.43104  0.14552  0.68847  1.0000
  H   H62       1.0  0.25196  0.03731  0.62993  1.0000
  N   N4        1.0  0.44003  0.17763  0.59099  1.0000
  H   H63       1.0  0.22073  0.01361  0.58420  1.0000
  H   H64       1.0  0.05929  0.15111  0.90767  1.0000
  H   H65       1.0  0.28512  0.27952  0.61293  1.0000
  H   H66       1.0  0.40407  0.17763  0.62468  1.0000
  C   C39       1.0  0.42383  0.16132  0.56465  1.0000
  H   H67       1.0  0.27029  0.05115  0.55965  1.0000
  H   H68       1.0  0.40062  0.16563  0.56690  1.0000
  H   H69       1.0  0.29739  0.26935  0.65331  1.0000
  H   H70       1.0  0.03809  0.99708  0.93926  1.0000
  H   H71       1.0  0.16506  0.99842  0.64614  1.0000
  H   H72       1.0  0.39066  0.15791  0.50709  1.0000
  H   H73       1.0  0.00337  0.13493  0.87253  1.0000
  H   H74       1.0  0.44874  0.12967  0.63341  1.0000
  C   C40       1.0  0.02765  0.17276  0.85500  1.0000
  C   C41       1.0  0.03467  0.15781  0.79707  1.0000
  C   C42       1.0  0.02770  0.15996  0.75929  1.0000
  C   C43       1.0  0.04559  0.22035  0.80547  1.0000
  C   C44       1.0  0.02560  0.14288  0.87144  1.0000
  H   H75       1.0  0.25003  0.27251  0.67783  1.0000
  H   H76       1.0  0.25496  0.30532  0.58530  1.0000
  C   C45       1.0  0.04984  0.14418  0.73836  1.0000
  C   C46       1.0  0.14431  0.02330  0.94350  1.0000
  C   C47       1.0  0.03687  0.14345  0.90719  1.0000
  H   H77       1.0  0.39464  0.14382  0.67351  1.0000
  C   C48       1.0  0.30301  0.99885  0.66878  1.0000
  H   H78       1.0  0.41845  0.26561  0.58651  1.0000
  H   H79       1.0  0.48275  0.17544  0.64186  1.0000
  H   H80       1.0  0.21704  0.01659  0.68733  1.0000
  H   H81       1.0  0.05068  0.17860  0.85531  1.0000
  H   H82       1.0  0.05752  0.16331  0.80072  1.0000
  H   H83       1.0  0.03327  0.13483  0.80356  1.0000
  H   H84       1.0  0.28167  0.02147  0.61081  1.0000
  C   C49       1.0  0.18963  0.32079  0.72031  1.0000
  H   H85       1.0  0.05806  0.21936  0.82892  1.0000
  H   H86       1.0  0.05809  0.20988  0.78546  1.0000
  H   H87       1.0  0.03853  0.12733  0.85731  1.0000
  C   C50       1.0  0.43674  0.20908  0.58336  1.0000
  C   C51       1.0  0.27868  0.26893  0.63644  1.0000
  H   H88       1.0  0.19937  0.29595  0.67671  1.0000
  H   H89       1.0  0.43832  0.27552  0.62307  1.0000
  H   H90       1.0  0.12516  0.15836  0.69744  1.0000
  H   H91       1.0  0.45676  0.22672  0.62906  1.0000
  H   H92       1.0  0.04444  0.14609  0.71148  1.0000
  H   H93       1.0  0.07140  0.15340  0.74231  1.0000
  H   H94       1.0  0.05016  0.12122  0.74506  1.0000
  H   H95       1.0  0.20729  0.03027  0.64676  1.0000
  C   C52       1.0  0.23641  0.32330  0.68824  1.0000
  H   H96       1.0  0.06382  0.26154  0.79269  1.0000
  H   H97       1.0  0.48047  0.17538  0.56496  1.0000
  H   H98       1.0  0.25520  0.23608  0.60962  1.0000
  C   C53       1.0  0.01594  0.20617  0.81007  1.0000
  N   N5        1.0  0.20236  0.17071  0.77183  1.0000
  C   C54       1.0  0.17705  0.15354  0.76020  1.0000
  C   C55       1.0  0.21576  0.15599  0.80148  1.0000
  C   C56       1.0  0.19127  0.19908  0.78400  1.0000
  C   C57       1.0  0.22410  0.17582  0.74447  1.0000
  C   C58       1.0  0.22720  0.15240  0.71732  1.0000
  C   C59       1.0  0.15779  0.16839  0.73394  1.0000
  C   C60       1.0  0.21359  0.21944  0.79973  1.0000
  C   C61       1.0  0.22693  0.12542  0.79593  1.0000
  C   C62       1.0  0.23858  0.11271  0.82832  1.0000
  C   C63       1.0  0.25372  0.15728  0.69581  1.0000
  C   C64       1.0  0.13955  0.14696  0.71489  1.0000
  C   C65       1.0  0.20072  0.24874  0.80647  1.0000
  H   H99       1.0  0.16309  0.14795  0.78177  1.0000
  H   H100      1.0  0.18374  0.13271  0.74998  1.0000
  H   H101      1.0  0.23447  0.16820  0.81057  1.0000
  H   H102      1.0  0.20024  0.15521  0.82264  1.0000
  H   H103      1.0  0.17415  0.19572  0.80291  1.0000
  H   H104      1.0  0.18121  0.21113  0.76321  1.0000
  H   H105      1.0  0.21917  0.19578  0.73054  1.0000
  H   H106      1.0  0.24553  0.17954  0.75558  1.0000
  H   H107      1.0  0.20850  0.15249  0.70044  1.0000
  H   H108      1.0  0.22869  0.13081  0.72806  1.0000
  H   H109      1.0  0.14311  0.18342  0.74671  1.0000
  H   H110      1.0  0.17052  0.18074  0.71557  1.0000
  H   H111      1.0  0.23228  0.22231  0.78304  1.0000
  H   H112      1.0  0.22099  0.21107  0.82415  1.0000
  H   H113      1.0  0.20974  0.11115  0.78718  1.0000
  H   H114      1.0  0.24481  0.12552  0.77784  1.0000
  H   H115      1.0  0.25689  0.12544  0.83757  1.0000
  H   H116      1.0  0.22181  0.11193  0.84790  1.0000
  H   H117      1.0  0.24601  0.09063  0.82366  1.0000
  H   H118      1.0  0.25304  0.17856  0.68369  1.0000
  H   H119      1.0  0.27331  0.15551  0.71118  1.0000
  H   H120      1.0  0.25481  0.14084  0.67596  1.0000
  H   H121      1.0  0.15325  0.13230  0.70025  1.0000
  H   H122      1.0  0.12634  0.13425  0.73246  1.0000
  C   C66       1.0  0.25875  0.01795  0.61622  1.0000
  H   H123      1.0  0.43127  0.19015  0.52160  1.0000
  C   C67       1.0  0.25260  0.28344  0.65328  1.0000
  H   H124      1.0  0.41858  0.22724  0.62918  1.0000
  H   H125      1.0  0.45470  0.15978  0.52308  1.0000
  C   C68       1.0  0.42674  0.17060  0.62439  1.0000
  H   H126      1.0  0.41560  0.11183  0.67673  1.0000
  C   C69       1.0  0.05945  0.00286  0.94869  1.0000
  H   H127      1.0  0.23325  0.27744  0.63883  1.0000
  H   H128      1.0  0.45711  0.26533  0.58571  1.0000
  H   H129      1.0  0.03109  0.26355  0.81591  1.0000
  H   H130      1.0  0.26592  0.22602  0.65152  1.0000
  C   C70       1.0  0.47083  0.16856  0.58906  1.0000
  H   H131      1.0  0.41965  0.15600  0.47757  1.0000
  H   H132      1.0  0.47991  0.10534  0.52663  1.0000
  C   C71       1.0  0.99834  0.08690  0.78835  1.0000
  H   H133      1.0  0.42614  0.13807  0.56840  1.0000
  H   H134      1.0  0.99955  0.03369  0.93038  1.0000
  C   C72       1.0  0.27234  0.23773  0.62860  1.0000
  C   C73       1.0  0.43262  0.16718  0.52785  1.0000
  H   H135      1.0  0.21876  0.32281  0.62361  1.0000
  C   C74       1.0  0.41642  0.13492  0.67064  1.0000
  C   C75       1.0  0.42702  0.13880  0.63482  1.0000
  C   C76       1.0  0.43797  0.26099  0.60124  1.0000
  H   H136      1.0  0.24416  0.31156  0.71061  1.0000
  H   H137      1.0  0.00350  0.20944  0.78675  1.0000
  H   H138      1.0  0.41561  0.21322  0.57149  1.0000
  H   H139      1.0  0.03064  0.25399  0.77209  1.0000
  H   H140      1.0  0.26273  0.01690  0.68205  1.0000
  C   C77       1.0  0.24387  0.01790  0.58185  1.0000
  H   H141      1.0  0.48372  0.29199  0.53584  1.0000
  H   H142      1.0  0.04972  0.32078  0.86314  1.0000
  C   C78       1.0  0.47705  0.07088  0.61435  1.0000
  C   C79       1.0  0.06403  0.03483  0.94375  1.0000
  C   C80       1.0  0.20387  0.31768  0.68613  1.0000
  C   C81       1.0  0.00017  0.07887  0.82192  1.0000
  C   C82       1.0  0.47925  0.09570  0.55117  1.0000
  H   H143      1.0  0.13451  0.99842  0.90006  1.0000
  H   H144      1.0  0.16552  0.02110  0.68235  1.0000
  H   H145      1.0  0.25388  0.00184  0.56536  1.0000
  C   C83       1.0  0.43025  0.31525  0.53048  1.0000
  H   H146      1.0  0.30991  0.01712  0.65319  1.0000
  H   H147      1.0  0.19801  0.30476  0.73818  1.0000
  H   H148      1.0  0.07554  0.99172  0.93310  1.0000
  H   H149      1.0  0.00460  0.29476  0.85896  1.0000
  H   H150      1.0  0.99317  0.02872  0.88662  1.0000
  H   H151      1.0  0.48282  0.31873  0.50471  1.0000
  H   H152      1.0  0.03884  0.31976  0.82005  1.0000
  C   C84       1.0  0.32917  0.99804  0.49315  1.0000
  C   C85       1.0  0.13807  0.99792  0.92672  1.0000
  C   C86       1.0  0.17642  0.00305  0.66980  1.0000
  C   C87       1.0  0.26994  0.99675  0.67040  1.0000
  H   H153      1.0  0.33937  0.31679  0.72017  1.0000
  H   H154      1.0  0.16626  0.31759  0.71792  1.0000
  H   H155      1.0  0.33339  0.99895  0.51966  1.0000
  H   H156      1.0  0.33912  0.00518  0.70169  1.0000
  H   H157      1.0  0.30730  0.02346  0.71459  1.0000
  H   H158      1.0  0.43060  0.29163  0.53142  1.0000
  C   C88       1.0  0.00382  0.31825  0.85623  1.0000
  C   C89       1.0  0.31556  0.00341  0.70354  1.0000
  H   H159      1.0  0.99086  0.99866  0.91465  1.0000
  H   H160      1.0  0.41074  0.32262  0.54358  1.0000
  C   C90       1.0  0.32996  0.32305  0.69582  1.0000
  H   H161      1.0  0.45486  0.32260  0.57439  1.0000
  Fe  Fe9       1.0  0.35119  0.63941  0.33658  1.0000
  S   S19       1.0  0.35581  0.62200  0.28484  1.0000
  Fe  Fe10      1.0  0.33426  0.57999  0.36461  1.0000
  S   S20       1.0  0.33694  0.55977  0.31351  1.0000
  S   S21       1.0  0.32501  0.55828  0.41553  1.0000
  Fe  Fe11      1.0  0.37787  0.58493  0.30835  1.0000
  S   S22       1.0  0.41822  0.56364  0.28870  1.0000
  Fe  Fe12      1.0  0.31424  0.59912  0.29396  1.0000
  S   S23       1.0  0.28404  0.60903  0.24975  1.0000
  S   S24       1.0  0.37601  0.60338  0.35973  1.0000
  S   S25       1.0  0.30885  0.61808  0.34549  1.0000
  Fe  Fe13      1.0  0.14825  0.57998  0.03965  1.0000
  S   S26       1.0  0.12272  0.56279  0.08293  1.0000
  S   S27       1.0  0.15382  0.55806  0.98818  1.0000
  Fe  Fe14      1.0  0.15729  0.63843  0.07600  1.0000
  S   S28       1.0  0.13118  0.62424  0.11993  1.0000
  Fe  Fe15      1.0  0.15640  0.58369  0.11612  1.0000
  S   S29       1.0  0.17822  0.56383  0.16225  1.0000
  Fe  Fe16      1.0  0.10050  0.60545  0.08275  1.0000
  S   S30       1.0  0.05404  0.61965  0.07608  1.0000
  S   S31       1.0  0.18317  0.59807  0.07268  1.0000
  S   S32       1.0  0.12546  0.62235  0.03891  1.0000
  H   H162      1.0  0.09138  0.62689  0.97103  1.0000
  C   C91       1.0  0.01956  0.60445  0.08148  1.0000
  C   C92       1.0  0.01499  0.57905  0.09898  1.0000
  C   C93       1.0  0.30019  0.50894  0.23394  1.0000
  H   H163      1.0  0.03291  0.56768  0.10944  1.0000
  C   C94       1.0  0.25332  0.59681  0.22737  1.0000
  C   C95       1.0  0.24364  0.61277  0.19977  1.0000
  C   C96       1.0  0.22061  0.60328  0.17992  1.0000
  C   C97       1.0  0.20691  0.57744  0.18715  1.0000
  C   C98       1.0  0.21656  0.56153  0.21481  1.0000
  C   C99       1.0  0.23947  0.57112  0.23484  1.0000
  H   H164      1.0  0.25423  0.63250  0.19338  1.0000
  H   H165      1.0  0.21361  0.61581  0.15876  1.0000
  H   H166      1.0  0.20618  0.54157  0.22081  1.0000
  H   H167      1.0  0.24651  0.55850  0.25584  1.0000
  C   C100      1.0  0.45599  0.60892  0.29538  1.0000
  C   C101      1.0  0.45257  0.57946  0.29229  1.0000
  H   H168      1.0  0.05765  0.54514  0.04758  1.0000
  H   H169      1.0  0.43743  0.62254  0.29596  1.0000
  H   H170      1.0  0.39647  0.59652  0.18018  1.0000
  C   C102      1.0  0.08278  0.49699  0.07106  1.0000
  C   C103      1.0  0.13596  0.50084  0.98567  1.0000
  C   C104      1.0  0.14617  0.52470  0.96827  1.0000
  H   H171      1.0  0.07562  0.48604  0.02001  1.0000
  H   H172      1.0  0.13300  0.50205  0.01239  1.0000
  H   H173      1.0  0.28490  0.56356  0.18937  1.0000
  C   C105      1.0  0.34166  0.50083  0.41853  1.0000
  C   C106      1.0  0.34640  0.47487  0.43570  1.0000
  H   H174      1.0  0.34429  0.50189  0.39178  1.0000
  H   H175      1.0  0.35301  0.45630  0.42181  1.0000
  H   H176      1.0  0.99917  0.63856  0.05451  1.0000
  H   H177      1.0  0.36574  0.57001  0.24062  1.0000
  H   H178      1.0  0.28519  0.52954  0.17163  1.0000
  C   C107      1.0  0.34731  0.47229  0.14669  1.0000
  H   H179      1.0  0.43746  0.49466  0.36981  1.0000
  H   H180      1.0  0.40767  0.49795  0.39782  1.0000
  H   H181      1.0  0.06299  0.62563  0.00138  1.0000
  H   H182      1.0  0.38379  0.55093  0.20794  1.0000
  C   C108      1.0  0.39732  0.50170  0.34593  1.0000
  C   C109      1.0  0.06569  0.50015  0.03885  1.0000
  C   C110      1.0  0.44367  0.53092  0.43611  1.0000
  H   H183      1.0  0.03910  0.57960  0.01356  1.0000
  H   H184      1.0  0.25550  0.57065  0.13360  1.0000
  H   H185      1.0  0.28225  0.52431  0.28091  1.0000
  C   C111      1.0  0.01888  0.52562  0.99746  1.0000
  H   H186      1.0  0.30929  0.55366  0.24088  1.0000
  H   H187      1.0  0.34912  0.57691  0.16698  1.0000
  H   H188      1.0  0.31137  0.48936  0.22591  1.0000
  C   C112      1.0  0.31943  0.53527  0.22800  1.0000
  H   H189      1.0  0.31760  0.50492  0.13351  1.0000
  H   H190      1.0  0.05523  0.62117  0.95742  1.0000
  H   H191      1.0  0.47468  0.53936  0.28893  1.0000
  H   H192      1.0  0.09150  0.58088  0.00070  1.0000
  H   H193      1.0  0.40779  0.50720  0.32186  1.0000
  H   H194      1.0  0.31325  0.50175  0.28556  1.0000
  H   H195      1.0  0.37779  0.51479  0.34872  1.0000
  H   H196      1.0  0.08182  0.47456  0.07983  1.0000
  C   C113      1.0  0.04695  0.56923  0.99031  1.0000
  N   N6        1.0  0.32591  0.54313  0.19217  1.0000
  H   H197      1.0  0.08812  0.53786  0.02313  1.0000
  H   H198      1.0  0.35664  0.46206  0.16919  1.0000
  H   H199      1.0  0.35793  0.51005  0.19405  1.0000
  H   H200      1.0  0.10547  0.50262  0.06670  1.0000
  H   H201      1.0  0.12201  0.45699  0.98237  1.0000
  H   H202      1.0  0.33942  0.53075  0.24190  1.0000
  C   C114      1.0  0.30112  0.56311  0.13928  1.0000
  C   C115      1.0  0.34360  0.52033  0.17545  1.0000
  H   H203      1.0  0.31851  0.55330  0.12447  1.0000
  N   N7        1.0  0.04873  0.53741  0.99519  1.0000
  H   H204      1.0  0.24735  0.63687  0.31218  1.0000
  C   C116      1.0  0.06542  0.53158  0.02666  1.0000
  H   H205      1.0  0.30600  0.58615  0.14211  1.0000
  H   H206      1.0  0.27930  0.48647  0.27467  1.0000
  C   C117      1.0  0.29340  0.50524  0.27105  1.0000
  C   C118      1.0  0.32727  0.49642  0.15673  1.0000
  C   C119      1.0  0.37078  0.57003  0.21354  1.0000
  H   H207      1.0  0.35827  0.52990  0.15657  1.0000
  H   H208      1.0  0.37687  0.61610  0.21163  1.0000
  H   H209      1.0  0.39107  0.47890  0.34526  1.0000
  H   H210      1.0  0.07392  0.51086  0.09096  1.0000
  H   H211      1.0  0.40354  0.54958  0.38606  1.0000
  H   H212      1.0  0.06408  0.49980  0.96969  1.0000
  H   H213      1.0  0.01918  0.50192  0.99706  1.0000
  H   H214      1.0  0.04386  0.49226  0.04411  1.0000
  H   H215      1.0  0.26805  0.53812  0.11459  1.0000
  C   C120      1.0  0.38908  0.59635  0.20653  1.0000
  C   C121      1.0  0.44588  0.57828  0.41031  1.0000
  C   C122      1.0  0.06383  0.52331  0.96637  1.0000
  H   H216      1.0  0.18125  0.42732  0.96672  1.0000
  C   C123      1.0  0.07528  0.58443  0.98110  1.0000
  C   C124      1.0  0.41775  0.50684  0.37495  1.0000
  H   H217      1.0  0.27955  0.51082  0.22074  1.0000
  H   H218      1.0  0.47511  0.59433  0.37092  1.0000
  C   C125      1.0  0.29829  0.54906  0.17422  1.0000
  H   H219      1.0  0.40811  0.59611  0.22299  1.0000
  H   H220      1.0  0.42927  0.54759  0.35415  1.0000
  C   C126      1.0  0.42399  0.53908  0.37927  1.0000
  C   C127      1.0  0.34287  0.57055  0.19276  1.0000
  C   C128      1.0  0.48351  0.62090  0.29709  1.0000
  C   C129      1.0  0.27336  0.56077  0.11957  1.0000
  H   H221      1.0  0.03090  0.57474  0.97095  1.0000
  H   H222      1.0  0.32952  0.58831  0.20256  1.0000
  C   C130      1.0  0.33275  0.52509  0.43589  1.0000
  H   H223      1.0  0.36477  0.48046  0.13049  1.0000
  H   H224      1.0  0.47723  0.54680  0.36218  1.0000
  H   H225      1.0  0.45573  0.64268  0.36739  1.0000
  H   H226      1.0  0.24883  0.65469  0.35191  1.0000
  H   H227      1.0  0.33526  0.45588  0.13262  1.0000
  C   C131      1.0  0.12975  0.47524  0.96849  1.0000
  H   H228      1.0  0.30985  0.48712  0.17184  1.0000
  H   H229      1.0  0.42872  0.63441  0.39789  1.0000
  C   C132      1.0  0.45314  0.59789  0.38023  1.0000
  N   N8        1.0  0.44731  0.54672  0.40357  1.0000
  H   H230      1.0  0.99795  0.55888  0.02746  1.0000
  C   C133      1.0  0.47703  0.56215  0.29148  1.0000
  H   H231      1.0  0.08403  0.57671  0.95705  1.0000
  H   H232      1.0  0.27560  0.57203  0.09529  1.0000
  H   H233      1.0  0.45992  0.58417  0.43156  1.0000
  H   H234      1.0  0.43815  0.59396  0.35950  1.0000
  H   H235      1.0  0.48584  0.64373  0.29881  1.0000
  H   H236      1.0  0.42400  0.58428  0.41849  1.0000
  H   H237      1.0  0.46602  0.63469  0.40973  1.0000
  C   C134      1.0  0.45073  0.62931  0.38958  1.0000
  H   H238      1.0  0.01157  0.52973  0.05182  1.0000
  C   C135      1.0  0.47556  0.53855  0.38822  1.0000
  H   H239      1.0  0.39633  0.53277  0.43779  1.0000
  H   H240      1.0  0.08666  0.52959  0.96580  1.0000
  H   H241      1.0  0.44674  0.50764  0.43238  1.0000
  H   H242      1.0  0.23845  0.51665  0.43966  1.0000
  H   H243      1.0  0.00640  0.53194  0.97508  1.0000
  C   C136      1.0  0.00109  0.53547  0.02798  1.0000
  H   H244      1.0  0.25982  0.51757  0.96115  1.0000
  H   H245      1.0  0.27600  0.48297  0.95738  1.0000
  C   C137      1.0  0.07081  0.61650  0.97752  1.0000
  C   C138      1.0  0.99589  0.61896  0.06823  1.0000
  H   H246      1.0  0.19697  0.39238  0.96962  1.0000
  H   H247      1.0  0.47712  0.51505  0.38568  1.0000
  C   C139      1.0  0.18866  0.40869  0.95206  1.0000
  Fe  Fe17      1.0  0.31379  0.39859  0.60788  1.0000
  S   S33       1.0  0.30608  0.38698  0.55402  1.0000
  S   S34       1.0  0.27029  0.40824  0.63335  1.0000
  Fe  Fe18      1.0  0.37847  0.38770  0.59804  1.0000
  S   S35       1.0  0.37328  0.37493  0.54444  1.0000
  S   S36       1.0  0.42165  0.38082  0.62348  1.0000
  Fe  Fe19      1.0  0.34449  0.41339  0.54025  1.0000
  S   S37       1.0  0.34796  0.43883  0.49056  1.0000
  Fe  Fe20      1.0  0.33534  0.34988  0.56260  1.0000
  S   S38       1.0  0.35116  0.42737  0.59369  1.0000
  S   S39       1.0  0.34171  0.36030  0.61654  1.0000
  Fe  Fe21      1.0  0.09382  0.38802  0.80661  1.0000
  S   S40       1.0  0.09540  0.37721  0.86108  1.0000
  S   S41       1.0  0.05133  0.38652  0.77834  1.0000
  Fe  Fe22      1.0  0.15962  0.39201  0.80009  1.0000
  S   S42       1.0  0.16407  0.38137  0.85505  1.0000
  S   S43       1.0  0.20427  0.39686  0.77486  1.0000
  Fe  Fe23      1.0  0.13093  0.34747  0.84678  1.0000
  Fe  Fe24      1.0  0.12830  0.41229  0.86515  1.0000
  S   S44       1.0  0.12589  0.43969  0.91345  1.0000
  S   S45       1.0  0.12806  0.35627  0.79181  1.0000
  S   S46       1.0  0.12505  0.42485  0.81063  1.0000
  C   C140      1.0  0.01176  0.40849  0.82369  1.0000
  H   H248      1.0  0.29778  0.47008  0.60463  1.0000
  C   C141      1.0  0.14388  0.49676  0.91633  1.0000
  H   H249      1.0  0.23055  0.42470  0.94226  1.0000
  H   H250      1.0  0.14652  0.49570  0.88960  1.0000
  C   C142      1.0  0.45657  0.32782  0.54743  1.0000
  C   C143      1.0  0.01658  0.39611  0.79244  1.0000
  H   H251      1.0  0.25905  0.49482  0.57380  1.0000
  H   H252      1.0  0.02954  0.41216  0.84028  1.0000
  C   C144      1.0  0.24707  0.42719  0.50646  1.0000
  C   C145      1.0  0.25250  0.40433  0.67300  1.0000
  C   C146      1.0  0.26711  0.39945  0.70294  1.0000
  C   C147      1.0  0.25200  0.39714  0.73354  1.0000
  C   C148      1.0  0.22200  0.39931  0.73496  1.0000
  C   C149      1.0  0.20737  0.40359  0.70490  1.0000
  C   C150      1.0  0.22251  0.40627  0.67435  1.0000
  H   H253      1.0  0.29010  0.39791  0.70264  1.0000
  H   H254      1.0  0.26375  0.39370  0.75632  1.0000
  H   H255      1.0  0.18439  0.40532  0.70524  1.0000
  H   H256      1.0  0.21081  0.40990  0.65154  1.0000
  C   C151      1.0  0.21611  0.44403  0.56991  1.0000
  C   C152      1.0  0.33376  0.49691  0.48790  1.0000
  C   C153      1.0  0.22125  0.46282  0.53848  1.0000
  H   H257      1.0  0.33116  0.49588  0.51464  1.0000
  C   C154      1.0  0.20141  0.44078  0.90327  1.0000
  C   C155      1.0  0.06977  0.51597  0.90404  1.0000
  C   C156      1.0  0.45601  0.39410  0.61235  1.0000
  H   H258      1.0  0.23886  0.35373  0.63368  1.0000
  H   H259      1.0  0.19164  0.45063  0.81886  1.0000
  H   H260      1.0  0.42953  0.51714  0.50140  1.0000
  H   H261      1.0  0.19129  0.50084  0.79917  1.0000
  H   H262      1.0  0.28525  0.37778  0.84841  1.0000
  H   H263      1.0  0.26311  0.47649  0.88060  1.0000
  H   H264      1.0  0.21780  0.39803  0.91320  1.0000
  C   C157      1.0  0.25637  0.32756  0.59431  1.0000
  H   H265      1.0  0.44182  0.42317  0.57431  1.0000
  H   H266      1.0  0.16617  0.45924  0.85086  1.0000
  C   C158      1.0  0.48773  0.42496  0.58020  1.0000
  H   H267      1.0  0.28000  0.42833  0.86404  1.0000
  C   C159      1.0  0.05096  0.52877  0.93131  1.0000
  H   H268      1.0  0.23959  0.46817  0.46775  1.0000
  H   H269      1.0  0.27154  0.43215  0.45916  1.0000
  H   H270      1.0  0.07298  0.49280  0.90832  1.0000
  H   H271      1.0  0.47711  0.36831  0.64930  1.0000
  H   H272      1.0  0.27448  0.44237  0.56054  1.0000
  H   H273      1.0  0.28392  0.35015  0.66188  1.0000
  H   H274      1.0  0.18391  0.43086  0.88889  1.0000
  C   C160      1.0  0.18815  0.45201  0.58712  1.0000
  C   C161      1.0  0.24624  0.52632  0.46321  1.0000
  H   H275      1.0  0.16985  0.44900  0.56993  1.0000
  H   H276      1.0  0.24372  0.36909  0.57493  1.0000
  H   H277      1.0  0.23343  0.44695  0.58840  1.0000
  H   H278      1.0  0.28435  0.50529  0.54185  1.0000
  H   H279      1.0  0.24738  0.37474  0.84159  1.0000
  H   H280      1.0  0.18877  0.47449  0.59562  1.0000
  H   H281      1.0  0.19898  0.49289  0.87718  1.0000
  C   C162      1.0  0.30256  0.48656  0.58542  1.0000
  C   C163      1.0  0.27844  0.48840  0.55998  1.0000
  H   H282      1.0  0.27902  0.33408  0.59592  1.0000
  H   H283      1.0  0.27368  0.47932  0.48173  1.0000
  C   C164      1.0  0.25097  0.47727  0.48969  1.0000
  C   C165      1.0  0.32896  0.52285  0.47074  1.0000
  H   H284      1.0  0.45549  0.35127  0.54444  1.0000
  C   C166      1.0  0.27439  0.45976  0.54160  1.0000
  H   H285      1.0  0.02966  0.51870  0.92937  1.0000
  H   H286      1.0  0.15783  0.54058  0.91959  1.0000
  H   H287      1.0  0.46054  0.53727  0.45406  1.0000
  C   C167      1.0  0.26580  0.38966  0.84111  1.0000
  H   H288      1.0  0.22628  0.42344  0.49377  1.0000
  H   H289      1.0  0.23024  0.50915  0.91204  1.0000
  H   H290      1.0  0.05956  0.51891  0.87929  1.0000
  C   C168      1.0  0.34229  0.47257  0.47049  1.0000
  H   H291      1.0  0.32226  0.54140  0.48461  1.0000
  H   H292      1.0  0.32299  0.48134  0.57284  1.0000
  H   H293      1.0  0.26001  0.45069  0.91260  1.0000
  H   H294      1.0  0.21470  0.42115  0.56342  1.0000
  C   C169      1.0  0.26609  0.50072  0.94318  1.0000
  C   C170      1.0  0.13373  0.47288  0.93369  1.0000
  H   H295      1.0  0.30509  0.50737  0.59817  1.0000
  H   H296      1.0  0.21474  0.50651  0.49430  1.0000
  H   H297      1.0  0.39143  0.52019  0.49750  1.0000
  C   C171      1.0  0.24770  0.46694  0.89869  1.0000
  H   H298      1.0  0.21980  0.34022  0.56413  1.0000
  C   C172      1.0  0.46006  0.41472  0.58747  1.0000
  H   H299      1.0  0.29421  0.45641  0.52689  1.0000
  N   N9        1.0  0.22321  0.45361  0.87994  1.0000
  H   H300      1.0  0.18482  0.43819  0.60932  1.0000
  C   C173      1.0  0.23398  0.43161  0.85535  1.0000
  C   C174      1.0  0.20884  0.47700  0.86023  1.0000
  H   H301      1.0  0.23639  0.54767  0.46593  1.0000
  H   H302      1.0  0.00235  0.50968  0.86985  1.0000
  C   C175      1.0  0.99447  0.48844  0.87796  1.0000
  C   C176      1.0  0.18459  0.46747  0.83636  1.0000
  H   H303      1.0  0.21672  0.41621  0.84916  1.0000
  H   H304      1.0  0.16582  0.50979  0.83158  1.0000
  H   H305      1.0  0.17024  0.39935  0.93855  1.0000
  C   C177      1.0  0.41488  0.53579  0.45445  1.0000
  C   C178      1.0  0.17392  0.49245  0.81534  1.0000
  C   C179      1.0  0.27092  0.41831  0.48162  1.0000
  H   H306      1.0  0.15624  0.48519  0.79904  1.0000
  H   H307      1.0  0.26869  0.39780  0.81529  1.0000
  H   H308      1.0  0.23967  0.44182  0.83102  1.0000
  H   H309      1.0  0.22495  0.48881  0.84503  1.0000
  N   N10       1.0  0.24853  0.45737  0.51946  1.0000
  H   H310      1.0  0.20264  0.46005  0.52152  1.0000
  H   H311      1.0  0.21997  0.48517  0.54711  1.0000
  H   H312      1.0  0.29197  0.41934  0.49374  1.0000
  H   H313      1.0  0.19372  0.33347  0.66923  1.0000
  H   H314      1.0  0.24810  0.41160  0.52739  1.0000
  H   H315      1.0  0.23922  0.34628  0.69410  1.0000
  H   H316      1.0  0.24583  0.51859  0.51600  1.0000
  H   H317      1.0  0.28430  0.38187  0.45248  1.0000
  H   H318      1.0  0.25948  0.40542  0.89069  1.0000
  H   H319      1.0  0.26968  0.52918  0.46150  1.0000
  H   H320      1.0  0.28196  0.50984  0.92549  1.0000
  C   C180      1.0  0.23839  0.50768  0.49322  1.0000
  C   C181      1.0  0.15013  0.52233  0.93348  1.0000
  C   C182      1.0  0.21206  0.41741  0.92743  1.0000
  H   H321      1.0  0.19079  0.45764  0.91814  1.0000
  H   H322      1.0  0.09084  0.52677  0.90351  1.0000
  C   C183      1.0  0.26089  0.41434  0.86518  1.0000
  C   C184      1.0  0.41139  0.51521  0.48379  1.0000
  H   H323      1.0  0.99651  0.38186  0.74711  1.0000
  H   H324      1.0  0.41393  0.55778  0.46450  1.0000
  H   H325      1.0  0.04876  0.55181  0.92592  1.0000
  C   C185      1.0  0.23974  0.49030  0.92445  1.0000
  C   C186      1.0  0.48001  0.38380  0.62955  1.0000
  C   C187      1.0  0.99307  0.39131  0.77137  1.0000
  H   H326      1.0  0.01174  0.47744  0.89181  1.0000
  C   C188      1.0  0.03338  0.32825  0.84511  1.0000
  H   H327      1.0  0.33452  0.34599  0.69150  1.0000
  H   H328      1.0  0.40992  0.49291  0.47472  1.0000
  H   H329      1.0  0.99965  0.32763  0.88111  1.0000
  H   H330      1.0  0.22448  0.48210  0.94337  1.0000
  C   C189      1.0  0.24080  0.33056  0.62820  1.0000
  C   C190      1.0  0.26669  0.38771  0.46973  1.0000
  H   H331      1.0  0.26705  0.37267  0.49117  1.0000
  H   H332      1.0  0.03425  0.35186  0.84415  1.0000
  H   H333      1.0  0.19336  0.34244  0.73053  1.0000
  H   H334      1.0  0.25388  0.34351  0.54362  1.0000
  C   C191      1.0  0.24246  0.34631  0.56770  1.0000
  C   C192      1.0  0.28368  0.32644  0.66298  1.0000
  H   H335      1.0  0.24617  0.38550  0.45622  1.0000
  H   H336      1.0  0.28884  0.33072  0.71715  1.0000
  H   H337      1.0  0.49052  0.44136  0.56146  1.0000
  Fe  Fe25      1.0  0.33193  0.91047  0.37117  1.0000
  S   S47       1.0  0.35473  0.92346  0.32382  1.0000
  S   S48       1.0  0.33019  0.93617  0.42073  1.0000
  Fe  Fe26      1.0  0.32450  0.84811  0.34456  1.0000
  S   S49       1.0  0.34735  0.85769  0.29659  1.0000
  S   S50       1.0  0.30380  0.80492  0.35500  1.0000
  Fe  Fe27      1.0  0.37892  0.88212  0.32829  1.0000
  S   S51       1.0  0.42659  0.87151  0.33207  1.0000
  Fe  Fe28      1.0  0.32086  0.89776  0.29617  1.0000
  S   S52       1.0  0.29911  0.91483  0.24836  1.0000
  S   S53       1.0  0.35714  0.86984  0.37628  1.0000
  S   S54       1.0  0.29676  0.88739  0.34338  1.0000
  S   S55       1.0  0.36722  0.68519  0.34113  1.0000
  Fe  Fe29      1.0  0.13811  0.90957  0.04863  1.0000
  S   S56       1.0  0.12790  0.92076  0.10251  1.0000
  S   S57       1.0  0.13950  0.93639  0.99989  1.0000
  Fe  Fe30      1.0  0.13459  0.84486  0.06375  1.0000
  S   S58       1.0  0.12406  0.85205  0.11745  1.0000
  S   S59       1.0  0.13200  0.80216  0.03708  1.0000
  Fe  Fe31      1.0  0.09429  0.88624  0.09942  1.0000
  S   S60       1.0  0.04950  0.88763  0.12222  1.0000
  Fe  Fe32      1.0  0.15883  0.88553  0.11686  1.0000
  S   S61       1.0  0.18746  0.88043  0.16377  1.0000
  S   S62       1.0  0.10278  0.87701  0.04580  1.0000
  S   S63       1.0  0.17099  0.87622  0.06307  1.0000
  S   S64       1.0  0.17821  0.68166  0.08513  1.0000
  C   C193      1.0  0.14411  0.76874  0.05160  1.0000
  C   C194      1.0  0.15603  0.76524  0.08328  1.0000
  C   C195      1.0  0.16664  0.73846  0.09311  1.0000
  C   C196      1.0  0.16386  0.71464  0.07217  1.0000
  C   C197      1.0  0.15100  0.71794  0.04100  1.0000
  C   C198      1.0  0.14171  0.74500  0.03053  1.0000
  H   H338      1.0  0.15744  0.78331  0.09986  1.0000
  H   H339      1.0  0.17657  0.73595  0.11725  1.0000
  H   H340      1.0  0.14912  0.69984  0.02450  1.0000
  H   H341      1.0  0.13265  0.74761  0.00591  1.0000
  C   C199      1.0  0.01602  0.88905  0.10153  1.0000
  H   H342      1.0  0.03567  0.82041  0.04170  1.0000
  C   C200      1.0  0.04459  0.70215  0.11655  1.0000
  C   C201      1.0  0.22882  0.75519  0.04073  1.0000
  H   H343      1.0  0.03302  0.89147  0.05180  1.0000
  C   C202      1.0  0.26807  0.90456  0.22518  1.0000
  C   C203      1.0  0.26151  0.91921  0.19538  1.0000
  C   C204      1.0  0.23699  0.91239  0.17646  1.0000
  C   C205      1.0  0.21845  0.89074  0.18705  1.0000
  C   C206      1.0  0.22494  0.87619  0.21693  1.0000
  C   C207      1.0  0.24951  0.88296  0.23582  1.0000
  H   H344      1.0  0.27554  0.93602  0.18683  1.0000
  H   H345      1.0  0.23244  0.92389  0.15367  1.0000
  H   H346      1.0  0.21075  0.85960  0.22567  1.0000
  H   H347      1.0  0.25399  0.87155  0.25870  1.0000
  C   C208      1.0  0.32154  0.77176  0.35041  1.0000
  C   C209      1.0  0.35003  0.77016  0.34032  1.0000
  C   C210      1.0  0.36355  0.74348  0.33759  1.0000
  C   C211      1.0  0.34875  0.71807  0.34453  1.0000
  C   C212      1.0  0.32017  0.71963  0.35439  1.0000
  C   C213      1.0  0.30667  0.74634  0.35729  1.0000
  H   H348      1.0  0.36178  0.78950  0.33505  1.0000
  H   H349      1.0  0.38571  0.74256  0.33018  1.0000
  H   H350      1.0  0.30875  0.70033  0.36061  1.0000
  H   H351      1.0  0.28471  0.74737  0.36543  1.0000
  C   C214      1.0  0.46021  0.88724  0.32248  1.0000
  C   C215      1.0  0.46292  0.91498  0.31005  1.0000
  H   H352      1.0  0.28542  0.80166  0.10711  1.0000
  H   H353      1.0  0.44403  0.92750  0.30535  1.0000
  C   C216      1.0  0.48510  0.87124  0.32815  1.0000
  C   C217      1.0  0.39430  0.97922  0.37123  1.0000
  H   H354      1.0  0.00967  0.73276  0.11114  1.0000
  C   C218      1.0  0.40458  0.95115  0.38635  1.0000
  C   C219      1.0  0.30846  0.69702  0.26159  1.0000
  C   C220      1.0  0.20852  0.79004  0.16079  1.0000
  H   H355      1.0  0.25244  0.92999  0.33304  1.0000
  H   H356      1.0  0.05961  0.98173  0.11164  1.0000
  H   H357      1.0  0.29300  0.95002  0.30611  1.0000
  C   C221      1.0  0.05557  0.91194  0.97707  1.0000
  H   H358      1.0  0.21518  0.71278  0.16163  1.0000
  H   H359      1.0  0.24113  0.74954  0.01800  1.0000
  H   H360      1.0  0.47572  0.97895  0.33928  1.0000
  H   H361      1.0  0.26504  0.79914  0.18060  1.0000
  N   N11       1.0  0.25443  0.97363  0.31643  1.0000
  H   H362      1.0  0.17946  0.81482  0.19169  1.0000
  H   H363      1.0  0.21359  0.80745  0.21079  1.0000
  H   H364      1.0  0.07251  0.80848  0.12924  1.0000
  H   H365      1.0  0.31066  0.75932  0.25946  1.0000
  H   H366      1.0  0.19551  0.96242  0.30304  1.0000
  H   H367      1.0  0.01484  0.71014  0.07507  1.0000
  H   H368      1.0  0.26100  0.70005  0.32454  1.0000
  H   H369      1.0  0.27699  0.73597  0.29493  1.0000
  H   H370      1.0  0.23497  0.73215  0.21387  1.0000
  C   C222      1.0  0.21965  0.81630  0.14101  1.0000
  C   C223      1.0  0.01563  0.82139  0.02705  1.0000
  H   H371      1.0  0.06618  0.90412  0.99989  1.0000
  C   C224      1.0  0.27591  0.78851  0.26284  1.0000
  H   H372      1.0  0.17559  0.93912  0.25286  1.0000
  H   H373      1.0  0.26661  0.77388  0.12740  1.0000
  H   H374      1.0  0.22478  0.84495  0.08340  1.0000
  C   C225      1.0  0.14187  0.97030  0.97903  1.0000
  N   N12       1.0  0.24042  0.80995  0.11320  1.0000
  H   H375      1.0  0.09140  0.72247  0.17037  1.0000
  H   H376      1.0  0.36516  0.68038  0.25853  1.0000
  C   C226      1.0  0.06315  0.94365  0.97057  1.0000
  C   C227      1.0  0.05162  0.80137  0.11925  1.0000
  H   H377      1.0  0.22149  0.76866  0.10364  1.0000
  H   H378      1.0  0.27641  0.68084  0.20926  1.0000
  H   H379      1.0  0.03651  0.79813  0.14030  1.0000
  H   H380      1.0  0.37472  0.98660  0.38422  1.0000
  H   H381      1.0  0.25904  0.83264  0.07116  1.0000
  C   C228      1.0  0.24074  0.71010  0.20672  1.0000
  C   C229      1.0  0.33127  0.70506  0.23500  1.0000
  C   C230      1.0  0.26058  0.86163  0.11149  1.0000
  H   H382      1.0  0.09859  0.68402  0.10878  1.0000
  H   H383      1.0  0.29804  0.97925  0.33347  1.0000
  C   C231      1.0  0.30911  0.79722  0.16717  1.0000
  C   C232      1.0  0.07451  0.69808  0.01139  1.0000
  H   H384      1.0  0.11522  0.71791  0.10935  1.0000
  H   H385      1.0  0.09078  0.73526  0.06125  1.0000
  H   H386      1.0  0.01334  0.84335  0.01707  1.0000
  H   H387      1.0  0.28808  0.98543  0.25752  1.0000
  H   H388      1.0  0.38499  0.90542  0.42464  1.0000
  H   H389      1.0  0.27888  0.83110  0.16278  1.0000
  N   N13       1.0  0.05115  0.96501  0.99500  1.0000
  H   H390      1.0  0.08673  0.94535  0.96956  1.0000
  H   H391      1.0  0.22796  0.73620  0.05733  1.0000
  C   C233      1.0  0.46951  0.70965  0.33644  1.0000
  H   H392      1.0  0.22724  0.93772  0.40722  1.0000
  H   H393      1.0  0.24844  0.73937  0.26679  1.0000
  C   C234      1.0  0.26814  0.79752  0.12564  1.0000
  C   C235      1.0  0.44268  0.91206  0.42100  1.0000
  C   C236      1.0  0.19598  0.95110  0.25127  1.0000
  H   H394      1.0  0.28892  0.80615  0.25226  1.0000
  H   H395      1.0  0.13008  0.69328  0.19513  1.0000
  H   H396      1.0  0.32940  0.69048  0.21330  1.0000
  H   H397      1.0  0.13809  0.67856  0.15472  1.0000
  H   H398      1.0  0.06477  0.94588  0.09716  1.0000
  H   H399      1.0  0.04321  0.81866  0.10308  1.0000
  H   H400      1.0  0.38714  0.93546  0.38391  1.0000
  C   C237      1.0  0.19648  0.79857  0.19477  1.0000
  C   C238      1.0  0.25933  0.88907  0.09094  1.0000
  H   H401      1.0  0.20051  0.82738  0.13085  1.0000
  H   H402      1.0  0.31541  0.70581  0.28603  1.0000
  H   H403      1.0  0.37727  0.70675  0.22899  1.0000
  H   H404      1.0  0.22878  0.83152  0.15915  1.0000
  H   H405      1.0  0.01114  0.94611  0.01036  1.0000
  H   H406      1.0  0.32892  0.72708  0.22566  1.0000
  H   H407      1.0  0.43100  0.89887  0.40231  1.0000
  C   C239      1.0  0.27167  0.73482  0.26793  1.0000
  C   C240      1.0  0.26191  0.95505  0.37691  1.0000
  C   C241      1.0  0.36142  0.70223  0.24892  1.0000
  H   H408      1.0  0.25314  0.95169  0.26880  1.0000
  H   H409      1.0  0.46531  0.68922  0.32343  1.0000
  H   H410      1.0  0.25198  0.72272  0.15578  1.0000
  H   H411      1.0  0.01173  0.95729  0.96815  1.0000
  H   H412      1.0  0.28341  0.85638  0.11529  1.0000
  H   H413      1.0  0.31593  0.80421  0.19241  1.0000
  H   H414      1.0  0.09540  0.68265  0.05508  1.0000
  H   H415      1.0  0.05631  0.74924  0.14486  1.0000
  H   H416      1.0  0.45617  0.92692  0.40608  1.0000
  H   H417      1.0  0.22544  0.77396  0.16475  1.0000
  H   H418      1.0  0.23686  0.89602  0.08776  1.0000
  C   C242      1.0  0.25852  0.68468  0.27255  1.0000
  C   C243      1.0  0.06806  0.74976  0.12067  1.0000
  H   H419      1.0  0.39458  0.96549  0.43584  1.0000
  N   N14       1.0  0.27789  0.70546  0.25458  1.0000
  C   C244      1.0  0.25023  0.93383  0.40251  1.0000
  H   H420      1.0  0.23785  0.98607  0.26791  1.0000
  H   H421      1.0  0.48329  0.84974  0.33766  1.0000
  H   H422      1.0  0.28669  0.75934  0.22403  1.0000
  H   H423      1.0  0.31008  0.77362  0.16617  1.0000
  C   C245      1.0  0.23984  0.96662  0.28372  1.0000
  C   C246      1.0  0.01518  0.71102  0.10272  1.0000
  C   C247      1.0  0.23745  0.70767  0.16885  1.0000
  C   C248      1.0  0.07204  0.72191  0.06809  1.0000
  H   H424      1.0  0.18723  0.77963  0.20745  1.0000
  C   C249      1.0  0.28799  0.75988  0.25158  1.0000
  C   C250      1.0  0.26435  0.68011  0.31034  1.0000
  H   H425      1.0  0.27650  0.79021  0.29049  1.0000
  C   C251      1.0  0.21024  0.95180  0.28550  1.0000
  H   H426      1.0  0.08984  0.75771  0.12695  1.0000
  H   H427      1.0  0.99649  0.66869  0.10855  1.0000
  H   H428      1.0  0.14302  0.71611  0.16213  1.0000
  H   H429      1.0  0.25359  0.79107  0.25423  1.0000
  H   H430      1.0  0.46232  0.72757  0.32039  1.0000
  H   H431      1.0  0.22386  0.95081  0.34752  1.0000
  C   C252      1.0  0.22616  0.78887  0.09015  1.0000
  H   H432      1.0  0.03389  0.76813  0.08905  1.0000
  H   H433      1.0  0.03224  0.90884  0.97984  1.0000
  H   H434      1.0  0.01740  0.80627  0.00590  1.0000
  H   H435      1.0  0.27104  0.90622  0.10415  1.0000
  H   H436      1.0  0.09104  0.97312  0.08782  1.0000
  H   H437      1.0  0.24357  0.79815  0.04013  1.0000
  C   C253      1.0  0.01388  0.89128  0.06681  1.0000
  H   H438      1.0  0.05710  0.67876  0.05532  1.0000
  H   H439      1.0  0.26192  0.93631  0.42642  1.0000
  H   H440      1.0  0.06938  0.77896  0.07766  1.0000
  C   C254      1.0  0.05204  0.97615  0.05861  1.0000
  H   H441      1.0  0.21289  0.92937  0.29389  1.0000
  C   C255      1.0  0.05503  0.77399  0.09905  1.0000
  H   H442      1.0  0.42277  0.94368  0.37096  1.0000
  H   H443      1.0  0.08575  0.95670  0.02922  1.0000
  C   C256      1.0  0.09862  0.70312  0.15711  1.0000
  H   H444      1.0  0.25073  0.86626  0.13587  1.0000
  H   H445      1.0  0.05340  0.73294  0.05712  1.0000
  H   H446      1.0  0.26923  0.88598  0.06600  1.0000
  H   H447      1.0  0.28506  0.95093  0.37451  1.0000
  C   C257      1.0  0.24304  0.78031  0.05835  1.0000
  N   N15       1.0  0.06960  0.72011  0.10563  1.0000
  H   H448      1.0  0.20524  0.79740  0.08162  1.0000
  H   H449      1.0  0.45672  0.70990  0.35981  1.0000
  H   H450      1.0  0.04265  0.70230  0.14424  1.0000
  H   H451      1.0  0.05509  0.93542  0.03650  1.0000
  H   H452      1.0  0.25320  0.91163  0.39372  1.0000
  H   H453      1.0  0.20681  0.76085  0.03303  1.0000
  H   H454      1.0  0.32421  0.80634  0.14859  1.0000
  H   H455      1.0  0.25877  0.97669  0.38721  1.0000
  H   H456      1.0  0.31025  0.67341  0.26424  1.0000
  H   H457      1.0  0.47140  0.97245  0.38323  1.0000
  C   C258      1.0  0.27884  0.80766  0.16040  1.0000
  C   C259      1.0  0.27164  0.70296  0.21771  1.0000
  H   H458      1.0  0.28584  0.71680  0.20263  1.0000
  H   H459      1.0  0.22518  0.69509  0.21803  1.0000
  H   H460      1.0  0.08525  0.68496  0.16575  1.0000
  H   H461      1.0  0.19105  0.77971  0.14665  1.0000
  C   C260      1.0  0.01898  0.96346  0.99361  1.0000
  N   N16       1.0  0.42175  0.92851  0.44232  1.0000
  C   C261      1.0  0.24708  0.95158  0.34260  1.0000
  C   C262      1.0  0.46452  0.89275  0.43929  1.0000
  C   C263      1.0  0.06197  0.95717  0.02931  1.0000
  H   H462      1.0  0.36482  0.71763  0.26953  1.0000
  C   C264      1.0  0.24545  0.83687  0.09331  1.0000
  H   H463      1.0  0.02904  0.97244  0.06355  1.0000
  H   H464      1.0  0.26522  0.77411  0.06446  1.0000
  H   H465      1.0  0.06101  0.87047  0.95424  1.0000
  H   H466      1.0  0.09193  0.71271  0.00367  1.0000
  C   C265      1.0  0.28629  0.97240  0.31077  1.0000
  H   H467      1.0  0.07769  0.67747  0.99847  1.0000
  H   H468      1.0  0.43076  0.97109  0.42394  1.0000
  C   C266      1.0  0.48057  0.87395  0.41457  1.0000
  C   C267      1.0  0.12934  0.69740  0.16784  1.0000
  C   C268      1.0  0.07495  0.69331  0.04914  1.0000
  H   H469      1.0  0.05374  0.70710  0.00345  1.0000
  H   H470      1.0  0.04818  0.67935  0.11010  1.0000
  H   H471      1.0  0.46549  0.85997  0.40086  1.0000
  C   C269      1.0  0.41317  0.95513  0.42350  1.0000
  C   C270      1.0  0.09632  0.70604  0.11855  1.0000
  H   H472      1.0  0.23590  0.69153  0.27082  1.0000
  C   C271      1.0  0.39508  0.91135  0.44860  1.0000
  H   H473      1.0  0.24210  0.68561  0.16051  1.0000
  H   H474      1.0  0.20989  0.94029  0.23283  1.0000
  H   H475      1.0  0.33512  0.96489  0.27020  1.0000
  H   H476      1.0  0.38920  0.97612  0.34443  1.0000
  H   H477      1.0  0.28641  0.67265  0.31479  1.0000
  C   C272      1.0  0.24424  0.65763  0.32493  1.0000
  C   C273      1.0  0.49020  0.92637  0.30316  1.0000
  C   C274      1.0  0.32659  0.97005  0.44116  1.0000
  H   H478      1.0  0.19138  0.97302  0.24235  1.0000
  H   H479      1.0  0.22169  0.66436  0.32219  1.0000
  C   C275      1.0  0.06790  0.96869  0.09070  1.0000
  C   C276      1.0  0.99180  0.69105  0.11554  1.0000
  C   C277      1.0  0.33023  0.98711  0.27761  1.0000
  C   C278      1.0  0.48327  0.98519  0.36446  1.0000
  H   H480      1.0  0.25954  0.66341  0.26037  1.0000
  H   H481      1.0  0.99311  0.79141  0.05805  1.0000
  H   H482      1.0  0.99222  0.88636  0.14752  1.0000
  H   H483      1.0  0.99091  0.82800  0.07135  1.0000
  C   C279      1.0  0.99081  0.88808  0.12063  1.0000
  C   C280      1.0  0.39840  0.88313  0.46807  1.0000
  H   H484      1.0  0.28737  0.97235  0.60689  1.0000
  H   H485      1.0  0.41041  0.88601  0.49157  1.0000
  C   C281      1.0  0.41683  0.95610  0.49822  1.0000
  H   H486      1.0  0.17519  0.98420  0.68656  1.0000
  H   H487      1.0  0.27854  0.91223  0.59487  1.0000
  H   H488      1.0  0.33856  0.95311  0.48922  1.0000
  C   C282      1.0  0.33213  0.97198  0.47571  1.0000
  H   H489      1.0  0.41947  0.97752  0.54605  1.0000
  H   H490      1.0  0.44281  0.91929  0.48944  1.0000
  H   H491      1.0  0.45524  0.95024  0.46880  1.0000
  H   H492      1.0  0.31020  0.98528  0.72027  1.0000
  C   C283      1.0  0.26799  0.96595  0.62126  1.0000
  C   C284      1.0  0.43555  0.93781  0.47452  1.0000
  C   C285      1.0  0.36926  0.87071  0.47726  1.0000
  H   H493      1.0  0.28127  0.93782  0.56104  1.0000
  C   C286      1.0  0.22370  0.98638  0.64562  1.0000
  H   H494      1.0  0.37205  0.84999  0.49025  1.0000
  H   H495      1.0  0.21138  0.98137  0.62282  1.0000
  H   H496      1.0  0.40999  0.97618  0.48603  1.0000
  C   C287      1.0  0.43328  0.96439  0.52963  1.0000
  H   H497      1.0  0.23634  0.96074  0.58030  1.0000
  H   H498      1.0  0.25189  0.91312  0.56254  1.0000
  H   H499      1.0  0.13274  0.95230  0.93076  1.0000
  H   H500      1.0  0.23322  0.93541  0.61355  1.0000
  C   C288      1.0  0.26627  0.92645  0.57800  1.0000
  H   H501      1.0  0.35753  0.88537  0.49409  1.0000
  C   C289      1.0  0.24869  0.94773  0.59815  1.0000
  H   H502      1.0  0.27562  0.95061  0.64056  1.0000
  H   H503      1.0  0.22172  0.96717  0.66189  1.0000
  H   H504      1.0  0.35630  0.86707  0.45447  1.0000
  H   H505      1.0  0.26449  0.97954  0.68857  1.0000
  H   H506      1.0  0.45445  0.87871  0.45808  1.0000
  H   H507      1.0  0.39761  0.94415  0.50635  1.0000
  C   C290      1.0  0.06599  0.89309  0.94853  1.0000
  H   H508      1.0  0.31268  0.97923  0.65844  1.0000
  H   H509      1.0  0.43987  0.94513  0.54378  1.0000
  H   H510      1.0  0.37879  0.92449  0.46151  1.0000
  H   H511      1.0  0.05568  0.94836  0.94482  1.0000
  C   C291      1.0  0.13713  0.97170  0.94428  1.0000
  H   H512      1.0  0.05538  0.89901  0.92475  1.0000
  H   H513      1.0  0.45246  0.97715  0.52306  1.0000
  H   H514      1.0  0.08947  0.89520  0.94551  1.0000
  H   H515      1.0  0.48056  0.90612  0.45234  1.0000
  H   H516      1.0  0.40928  0.86719  0.45210  1.0000
  C   C292      1.0  0.76072  0.04476  0.04355  1.0000
  H   H517      1.0  0.75297  0.00166  0.02914  1.0000
  C   C293      1.0  0.76179  0.01289  0.05115  1.0000
  H   H518      1.0  0.69208  0.20280  0.36567  1.0000
  H   H519      1.0  0.72834  0.20264  0.38029  1.0000
  H   H520      1.0  0.62748  0.12842  0.37932  1.0000
  C   C294      1.0  0.70917  0.18918  0.37626  1.0000
  C   C295      1.0  0.57635  0.00231  0.38750  1.0000
  C   C296      1.0  0.67340  0.15625  0.40461  1.0000
  C   C297      1.0  0.60245  0.01293  0.33317  1.0000
  H   H521      1.0  0.65572  0.03368  0.40770  1.0000
  H   H522      1.0  0.73835  0.05188  0.04020  1.0000
  H   H523      1.0  0.77264  0.04923  0.02011  1.0000
  H   H524      1.0  0.60809  0.07312  0.41443  1.0000
  H   H525      1.0  0.71790  0.16398  0.41958  1.0000
  C   C298      1.0  0.61408  0.08594  0.39210  1.0000
  C   C299      1.0  0.69960  0.17613  0.40943  1.0000
  H   H526      1.0  0.77074  0.05707  0.06406  1.0000
  H   H527      1.0  0.72172  0.00990  0.07675  1.0000
  N   N17       1.0  0.65826  0.14606  0.43581  1.0000
  H   H528      1.0  0.58741  0.03022  0.32638  1.0000
  C   C300      1.0  0.81714  0.01139  0.96492  1.0000
  H   H529      1.0  0.78444  0.00673  0.05304  1.0000
  H   H530      1.0  0.88174  0.09592  0.96183  1.0000
  H   H531      1.0  0.74974  0.02137  0.10274  1.0000
  H   H532      1.0  0.65804  0.16728  0.38782  1.0000
  H   H533      1.0  0.52580  0.99214  0.34729  1.0000
  H   H534      1.0  0.81703  0.02313  0.98810  1.0000
  H   H535      1.0  0.62068  0.02200  0.34725  1.0000
  H   H536      1.0  0.68137  0.13785  0.38977  1.0000
  H   H537      1.0  0.71469  0.17223  0.35808  1.0000
  C   C301      1.0  0.62110  0.11656  0.40213  1.0000
  C   C302      1.0  0.64490  0.11734  0.42896  1.0000
  H   H538      1.0  0.59595  0.08581  0.37436  1.0000
  H   H539      1.0  0.65092  0.20816  0.43084  1.0000
  H   H540      1.0  0.52190  0.01211  0.40379  1.0000
  H   H541      1.0  0.87543  0.04464  0.95082  1.0000
  H   H542      1.0  0.60113  0.21618  0.44630  1.0000
  C   C303      1.0  0.65182  0.01469  0.42229  1.0000
  H   H543      1.0  0.61076  0.00329  0.30981  1.0000
  H   H544      1.0  0.80167  0.00630  0.10422  1.0000
  H   H545      1.0  0.71535  0.00696  0.14312  1.0000
  H   H546      1.0  0.56563  0.02299  0.38234  1.0000
  H   H547      1.0  0.81848  0.99099  0.16001  1.0000
  H   H548      1.0  0.57472  0.03618  0.44020  1.0000
  H   H549      1.0  0.63272  0.07589  0.37975  1.0000
  H   H550      1.0  0.61875  0.16812  0.42501  1.0000
  C   C304      1.0  0.56314  0.99053  0.44511  1.0000
  C   C305      1.0  0.63456  0.16617  0.44547  1.0000
  H   H551      1.0  0.66139  0.10178  0.42089  1.0000
  H   H552      1.0  0.59614  0.00799  0.40118  1.0000
  C   C306      1.0  0.74437  0.00544  0.08318  1.0000
  H   H553      1.0  0.70981  0.11802  0.43579  1.0000
  H   H554      1.0  0.95852  0.00482  0.00983  1.0000
  H   H555      1.0  0.69532  0.19374  0.42696  1.0000
  H   H556      1.0  0.60119  0.12600  0.41221  1.0000
  S   S65       1.0  0.60955  0.30596  0.55450  1.0000
  Fe  Fe33      1.0  0.58463  0.09987  0.56308  1.0000
  S   S66       1.0  0.60941  0.11340  0.51749  1.0000
  S   S67       1.0  0.53705  0.10525  0.55137  1.0000
  Fe  Fe34      1.0  0.64079  0.08827  0.60125  1.0000
  S   S68       1.0  0.66780  0.09966  0.55679  1.0000
  S   S69       1.0  0.65934  0.08017  0.65389  1.0000
  Fe  Fe35      1.0  0.63834  0.13732  0.55196  1.0000
  S   S70       1.0  0.66074  0.18019  0.54404  1.0000
  Fe  Fe36      1.0  0.63638  0.07438  0.52564  1.0000
  S   S71       1.0  0.64673  0.05198  0.47544  1.0000
  S   S72       1.0  0.61202  0.12674  0.59696  1.0000
  S   S73       1.0  0.61086  0.06002  0.57063  1.0000
  C   C307      1.0  0.71530  0.06769  0.81904  1.0000
  Fe  Fe37      1.0  0.86870  0.10393  0.79700  1.0000
  S   S74       1.0  0.85646  0.10684  0.85116  1.0000
  S   S75       1.0  0.91385  0.10362  0.77517  1.0000
  Fe  Fe38      1.0  0.80535  0.10431  0.77279  1.0000
  S   S76       1.0  0.78931  0.10708  0.82586  1.0000
  S   S77       1.0  0.78127  0.10365  0.72222  1.0000
  Fe  Fe39      1.0  0.82450  0.13970  0.83320  1.0000
  S   S78       1.0  0.81602  0.18179  0.86037  1.0000
  Fe  Fe40      1.0  0.82253  0.07396  0.83961  1.0000
  S   S79       1.0  0.81520  0.02945  0.86388  1.0000
  S   S80       1.0  0.83873  0.13846  0.77986  1.0000
  S   S81       1.0  0.83669  0.06961  0.78579  1.0000
  C   C308      1.0  0.81629  0.01178  0.90383  1.0000
  C   C309      1.0  0.94863  0.08621  0.82753  1.0000
  C   C310      1.0  0.94674  0.09394  0.79389  1.0000
  H   H557      1.0  0.79277  0.30735  0.77760  1.0000
  H   H558      1.0  0.92964  0.08623  0.84278  1.0000
  C   C311      1.0  0.67805  0.14239  0.46518  1.0000
  C   C312      1.0  0.83820  0.27397  0.82765  1.0000
  C   C313      1.0  0.84776  0.25054  0.80882  1.0000
  C   C314      1.0  0.84081  0.22234  0.81809  1.0000
  C   C315      1.0  0.82447  0.21707  0.84673  1.0000
  C   C316      1.0  0.81497  0.24049  0.86562  1.0000
  C   C317      1.0  0.82164  0.26876  0.85610  1.0000
  H   H559      1.0  0.86088  0.25419  0.78701  1.0000
  H   H560      1.0  0.84844  0.20465  0.80337  1.0000
  H   H561      1.0  0.80235  0.23673  0.88784  1.0000
  H   H562      1.0  0.81413  0.28644  0.87093  1.0000
  C   C318      1.0  0.69330  0.08799  0.67214  1.0000
  C   C319      1.0  0.69543  0.09059  0.70711  1.0000
  C   C320      1.0  0.72187  0.09612  0.72276  1.0000
  C   C321      1.0  0.74686  0.09840  0.70380  1.0000
  C   C322      1.0  0.74473  0.09585  0.66883  1.0000
  C   C323      1.0  0.71823  0.09069  0.65312  1.0000
  H   H563      1.0  0.67641  0.08845  0.72222  1.0000
  H   H564      1.0  0.72291  0.09860  0.74951  1.0000
  H   H565      1.0  0.76382  0.09752  0.65376  1.0000
  H   H566      1.0  0.71717  0.08842  0.62628  1.0000
  H   H567      1.0  0.72370  0.08443  0.83591  1.0000
  H   H568      1.0  0.92715  0.16750  0.81196  1.0000
  H   H569      1.0  0.66721  0.26854  0.62444  1.0000
  H   H570      1.0  0.73604  0.30944  0.81608  1.0000
  H   H571      1.0  0.52986  0.16933  0.58884  1.0000
  H   H572      1.0  0.90564  0.28437  0.86498  1.0000
  C   C324      1.0  0.50476  0.09211  0.56912  1.0000
  C   C325      1.0  0.51222  0.32189  0.58281  1.0000
  H   H573      1.0  0.83020  0.24672  0.68673  1.0000
  H   H574      1.0  0.52292  0.07657  0.61492  1.0000
  C   C326      1.0  0.62488  0.27132  0.55412  1.0000
  C   C327      1.0  0.65410  0.26669  0.54976  1.0000
  C   C328      1.0  0.66475  0.23866  0.54723  1.0000
  C   C329      1.0  0.64645  0.21495  0.54954  1.0000
  C   C330      1.0  0.61739  0.21955  0.55501  1.0000
  C   C331      1.0  0.60666  0.24755  0.55682  1.0000
  H   H575      1.0  0.66835  0.28473  0.54745  1.0000
  H   H576      1.0  0.68727  0.23539  0.54300  1.0000
  H   H577      1.0  0.60304  0.20156  0.55690  1.0000
  H   H578      1.0  0.58404  0.25083  0.56020  1.0000
  N   N18       1.0  0.69545  0.18697  0.65338  1.0000
  C   C332      1.0  0.72135  0.19836  0.67121  1.0000
  C   C333      1.0  0.68015  0.21142  0.63675  1.0000
  C   C334      1.0  0.67669  0.17216  0.67870  1.0000
  C   C335      1.0  0.70363  0.16582  0.62681  1.0000
  C   C336      1.0  0.72619  0.17607  0.60107  1.0000
  C   C337      1.0  0.74187  0.17564  0.68597  1.0000
  C   C338      1.0  0.64775  0.16108  0.66550  1.0000
  C   C339      1.0  0.66628  0.23349  0.66046  1.0000
  C   C340      1.0  0.65165  0.25714  0.64063  1.0000
  C   C341      1.0  0.73360  0.15225  0.57674  1.0000
  C   C342      1.0  0.76785  0.18961  0.70204  1.0000
  C   C343      1.0  0.62984  0.14818  0.69364  1.0000
  H   H579      1.0  0.71475  0.21198  0.69253  1.0000
  H   H580      1.0  0.73384  0.21272  0.65452  1.0000
  H   H581      1.0  0.69508  0.22353  0.62040  1.0000
  H   H582      1.0  0.66339  0.20342  0.61947  1.0000
  H   H583      1.0  0.67268  0.18612  0.70060  1.0000
  H   H584      1.0  0.68771  0.15312  0.68902  1.0000
  H   H585      1.0  0.71129  0.14576  0.63833  1.0000
  H   H586      1.0  0.68459  0.15948  0.61203  1.0000
  H   H587      1.0  0.74627  0.18274  0.61329  1.0000
  H   H588      1.0  0.71790  0.19421  0.58620  1.0000
  H   H589      1.0  0.73111  0.16281  0.70558  1.0000
  H   H590      1.0  0.74987  0.16091  0.66653  1.0000
  H   H591      1.0  0.65144  0.14406  0.64695  1.0000
  H   H592      1.0  0.63502  0.17820  0.65370  1.0000
  H   H593      1.0  0.64985  0.22342  0.67658  1.0000
  H   H594      1.0  0.68252  0.24363  0.67661  1.0000
  H   H595      1.0  0.63442  0.24820  0.62482  1.0000
  H   H596      1.0  0.64201  0.27282  0.65800  1.0000
  H   H597      1.0  0.71419  0.14534  0.56326  1.0000
  H   H598      1.0  0.74940  0.16004  0.55815  1.0000
  H   H599      1.0  0.74282  0.13374  0.59024  1.0000
  H   H600      1.0  0.78191  0.17285  0.71266  1.0000
  H   H601      1.0  0.78023  0.20185  0.68318  1.0000
  H   H602      1.0  0.76124  0.20397  0.72262  1.0000
  H   H603      1.0  0.64135  0.13021  0.70560  1.0000
  H   H604      1.0  0.62473  0.16450  0.71272  1.0000
  H   H605      1.0  0.60958  0.13978  0.68325  1.0000
  N   N19       1.0  0.90484  0.01493  0.89526  1.0000
  H   H606      1.0  0.57870  0.30741  0.48012  1.0000
  H   H607      1.0  0.68913  0.16255  0.47134  1.0000
  H   H608      1.0  0.78504  0.01025  0.79780  1.0000
  H   H609      1.0  0.70070  0.07788  0.80079  1.0000
  C   C344      1.0  0.93448  0.16471  0.83812  1.0000
  C   C345      1.0  0.79368  0.28795  0.71205  1.0000
  C   C346      1.0  0.87758  0.00568  0.80326  1.0000
  H   H610      1.0  0.75227  0.06984  0.78774  1.0000
  C   C347      1.0  0.89690  0.99637  0.92476  1.0000
  H   H611      1.0  0.56015  0.28152  0.45505  1.0000
  H   H612      1.0  0.81367  0.23205  0.72402  1.0000
  H   H613      1.0  0.79574  0.28894  0.68439  1.0000
  C   C348      1.0  0.96433  0.17713  0.84286  1.0000
  C   C349      1.0  0.81154  0.03530  0.69826  1.0000
  H   H614      1.0  0.82186  0.27702  0.75400  1.0000
  C   C350      1.0  0.94772  0.28740  0.84010  1.0000
  H   H615      1.0  0.55219  0.01467  0.50792  1.0000
  H   H616      1.0  0.78290  0.04533  0.75729  1.0000
  C   C351      1.0  0.61743  0.21413  0.46621  1.0000
  C   C352      1.0  0.97520  0.07888  0.84144  1.0000
  H   H617      1.0  0.69076  0.09747  0.46630  1.0000
  H   H618      1.0  0.50606  0.29942  0.58827  1.0000
  H   H619      1.0  0.75404  0.04368  0.82052  1.0000
  H   H620      1.0  0.86058  0.09000  0.92508  1.0000
  H   H621      1.0  0.82176  0.05240  0.71315  1.0000
  C   C353      1.0  0.71924  0.00295  0.70862  1.0000
  C   C354      1.0  0.72513  0.12209  0.48614  1.0000
  H   H622      1.0  0.70134  0.01651  0.71715  1.0000
  C   C355      1.0  0.91689  0.27557  0.84297  1.0000
  H   H623      1.0  0.89476  0.23554  0.85092  1.0000
  C   C356      1.0  0.97178  0.09448  0.77448  1.0000
  C   C357      1.0  0.73175  0.30575  0.70425  1.0000
  C   C358      1.0  0.82252  0.27756  0.72643  1.0000
  H   H624      1.0  0.85087  0.24120  0.72408  1.0000
  C   C359      1.0  0.74006  0.05311  0.80114  1.0000
  C   C360      1.0  0.50354  0.07945  0.60075  1.0000
  C   C361      1.0  0.79536  0.01462  0.72097  1.0000
  H   H625      1.0  0.97645  0.07339  0.86756  1.0000
  H   H626      1.0  0.54234  0.29205  0.54529  1.0000
  H   H627      1.0  0.71256  0.01740  0.78865  1.0000
  H   H628      1.0  0.95979  0.27855  0.86161  1.0000
  C   C362      1.0  0.53816  0.32087  0.63846  1.0000
  H   H629      1.0  0.57120  0.27241  0.49684  1.0000
  C   C363      1.0  0.56005  0.02243  0.45485  1.0000
  C   C364      1.0  0.53721  0.31150  0.53046  1.0000
  C   C365      1.0  0.81675  0.02649  0.93420  1.0000
  C   C366      1.0  0.76708  0.99676  0.78869  1.0000
  C   C367      1.0  0.70727  0.31906  0.68457  1.0000
  C   C368      1.0  0.56696  0.02706  0.49173  1.0000
  H   H630      1.0  0.53482  0.17474  0.63299  1.0000
  H   H631      1.0  0.73710  0.28520  0.69218  1.0000
  H   H632      1.0  0.92493  0.23321  0.82326  1.0000
  H   H633      1.0  0.94172  0.02956  0.86764  1.0000
  C   C369      1.0  0.70073  0.11855  0.46135  1.0000
  H   H634      1.0  0.72380  0.30130  0.72980  1.0000
  H   H635      1.0  0.88040  0.01835  0.78003  1.0000
  C   C370      1.0  0.93659  0.01587  0.88951  1.0000
  C   C371      1.0  0.91685  0.24319  0.84650  1.0000
  H   H636      1.0  0.96277  0.20039  0.83898  1.0000
  H   H637      1.0  0.66559  0.13726  0.48814  1.0000
  H   H638      1.0  0.85446  0.00445  0.80899  1.0000
  H   H639      1.0  0.65970  0.19821  0.47324  1.0000
  C   C372      1.0  0.82963  0.24755  0.71443  1.0000
  H   H640      1.0  0.71684  0.12095  0.51204  1.0000
  H   H641      1.0  0.56469  0.04998  0.49801  1.0000
  H   H642      1.0  0.89748  0.10104  0.92114  1.0000
  C   C373      1.0  0.52028  0.16572  0.61390  1.0000
  H   H643      1.0  0.91594  0.02268  0.82371  1.0000
  H   H644      1.0  0.90468  0.06010  0.88397  1.0000
  H   H645      1.0  0.88411  0.04159  0.83500  1.0000
  C   C374      1.0  0.89144  0.05661  0.93584  1.0000
  H   H646      1.0  0.60768  0.20350  0.48824  1.0000
  H   H647      1.0  0.70316  0.05203  0.83431  1.0000
  H   H648      1.0  0.93001  0.23640  0.86810  1.0000
  C   C375      1.0  0.53424  0.30051  0.49410  1.0000
  C   C376      1.0  0.89280  0.04458  0.89978  1.0000
  C   C377      1.0  0.95496  0.02776  0.91820  1.0000
  H   H649      1.0  0.51847  0.14241  0.61832  1.0000
  H   H650      1.0  0.91914  0.17564  0.85488  1.0000
  H   H651      1.0  0.63898  0.99346  0.50200  1.0000
  H   H652      1.0  0.93397  0.29831  0.77572  1.0000
  S   S82       1.0  0.84802  0.30898  0.81438  1.0000
  H   H653      1.0  0.90440  0.28087  0.82035  1.0000
  C   C378      1.0  0.72909  0.03063  0.77588  1.0000
  H   H654      1.0  0.71771  0.04301  0.75641  1.0000
  C   C379      1.0  0.77168  0.03014  0.74064  1.0000
  C   C380      1.0  0.89139  0.00210  0.86449  1.0000
  C   C381      1.0  0.89348  0.02010  0.83185  1.0000
  H   H655      1.0  0.73618  0.14276  0.48224  1.0000
  H   H656      1.0  0.95781  0.27775  0.81766  1.0000
  C   C382      1.0  0.77378  0.31107  0.76160  1.0000
  H   H657      1.0  0.77790  0.27069  0.71687  1.0000
  H   H658      1.0  0.68917  0.30386  0.68310  1.0000
  C   C383      1.0  0.98652  0.02179  0.91201  1.0000
  H   H659      1.0  0.87334  0.99644  0.92809  1.0000
  H   H660      1.0  0.53345  0.29792  0.64233  1.0000
  H   H661      1.0  0.74078  0.10463  0.48272  1.0000
  H   H662      1.0  0.75965  0.04385  0.72303  1.0000
  C   C384      1.0  0.88228  0.08781  0.93582  1.0000
  H   H663      1.0  0.84021  0.29182  0.71860  1.0000
  N   N20       1.0  0.78280  0.31579  0.72578  1.0000
  H   H664      1.0  0.76081  0.29132  0.76417  1.0000
  H   H665      1.0  0.79689  0.04521  0.67983  1.0000
  H   H666      1.0  0.97056  0.10037  0.74840  1.0000
  H   H667      1.0  0.87035  0.04542  0.89083  1.0000
  H   H668      1.0  0.93428  0.14172  0.84444  1.0000
  H   H669      1.0  0.58923  0.02065  0.49720  1.0000
  H   H670      1.0  0.86842  0.99765  0.86916  1.0000
  H   H671      1.0  0.81632  0.04951  0.93410  1.0000
  H   H672      1.0  0.82847  0.02374  0.68446  1.0000
  H   H673      1.0  0.62272  0.15743  0.46738  1.0000
  N   N21       1.0  0.75150  0.01166  0.76048  1.0000
  H   H674      1.0  0.73320  0.01575  0.69197  1.0000
  H   H675      1.0  0.63558  0.10835  0.45228  1.0000
  H   H676      1.0  0.78664  0.99760  0.70487  1.0000
  H   H677      1.0  0.97068  0.17315  0.86910  1.0000
  H   H678      1.0  0.51900  0.28239  0.49338  1.0000
  H   H679      1.0  0.95232  0.05122  0.91951  1.0000
  H   H680      1.0  0.52638  0.31709  0.47679  1.0000
  H   H681      1.0  0.62435  0.23580  0.47379  1.0000
  H   H682      1.0  0.55822  0.31416  0.59143  1.0000
  C   C385      1.0  0.64246  0.99217  0.47535  1.0000
  H   H683      1.0  0.75280  0.99398  0.81079  1.0000
  H   H684      1.0  0.81109  0.00542  0.73858  1.0000
  H   H685      1.0  0.94469  0.99445  0.88253  1.0000
  C   C386      1.0  0.64312  0.19721  0.45367  1.0000
  C   C387      1.0  0.64689  0.01718  0.45692  1.0000
  H   H686      1.0  0.97709  0.16754  0.79256  1.0000
  C   C388      1.0  0.56283  0.28981  0.48078  1.0000
  N   N22       1.0  0.95045  0.31942  0.83937  1.0000
  H   H687      1.0  0.95313  0.31840  0.89344  1.0000
  H   H688      1.0  0.98707  0.31685  0.80654  1.0000
  H   H689      1.0  0.94936  0.01825  0.94264  1.0000
  H   H690      1.0  0.49434  0.20307  0.61316  1.0000
  C   C389      1.0  0.49101  0.17987  0.61645  1.0000
  C   C390      1.0  0.98593  0.16392  0.81797  1.0000
  C   C391      1.0  0.93506  0.32182  0.77733  1.0000
  H   H691      1.0  0.98553  0.14043  0.82125  1.0000
  C   C392      1.0  0.73618  0.99043  0.73858  1.0000
  H   H692      1.0  0.90543  0.00505  0.94841  1.0000
  H   H693      1.0  0.91213  0.05513  0.94882  1.0000
  H   H694      1.0  0.53795  0.02996  0.45081  1.0000
  Fe  Fe41      1.0  0.63014  0.56996  0.34718  1.0000
  S   S83       1.0  0.61277  0.56460  0.29457  1.0000
  S   S84       1.0  0.62143  0.53367  0.38600  1.0000
  Fe  Fe42      1.0  0.63998  0.63523  0.33445  1.0000
  S   S85       1.0  0.62314  0.63244  0.28258  1.0000
  Fe  Fe43      1.0  0.58804  0.60497  0.30401  1.0000
  S   S86       1.0  0.54201  0.62053  0.29682  1.0000
  Fe  Fe44      1.0  0.64982  0.59263  0.27746  1.0000
  S   S87       1.0  0.67309  0.59077  0.22596  1.0000
  S   S88       1.0  0.60400  0.60947  0.35636  1.0000
  S   S89       1.0  0.66836  0.59630  0.32959  1.0000
  Fe  Fe45      1.0  0.84484  0.63843  0.07075  1.0000
  S   S90       1.0  0.85783  0.61416  0.11696  1.0000
  Fe  Fe46      1.0  0.83705  0.58132  0.03212  1.0000
  S   S91       1.0  0.84878  0.55545  0.07706  1.0000
  S   S92       1.0  0.82754  0.55972  0.98127  1.0000
  Fe  Fe47      1.0  0.82066  0.58525  0.10681  1.0000
  S   S93       1.0  0.79390  0.57010  0.15230  1.0000
  Fe  Fe48      1.0  0.88466  0.58702  0.08340  1.0000
  S   S94       1.0  0.92849  0.56906  0.09733  1.0000
  S   S95       1.0  0.80676  0.60997  0.06143  1.0000
  S   S96       1.0  0.87403  0.61238  0.03749  1.0000
  C   C393      1.0  0.96326  0.58336  0.09079  1.0000
  C   C394      1.0  0.96792  0.60854  0.07285  1.0000
  H   H695      1.0  0.78930  0.46973  0.03271  1.0000
  H   H696      1.0  0.94995  0.62004  0.06271  1.0000
  H   H697      1.0  0.95941  0.52876  0.05021  1.0000
  C   C395      1.0  0.70691  0.58454  0.20605  1.0000
  C   C396      1.0  0.73044  0.57324  0.22297  1.0000
  C   C397      1.0  0.75661  0.56880  0.20604  1.0000
  C   C398      1.0  0.76003  0.57600  0.17206  1.0000
  C   C399      1.0  0.73651  0.58724  0.15506  1.0000
  C   C400      1.0  0.71022  0.59131  0.17188  1.0000
  H   H698      1.0  0.72842  0.56771  0.24911  1.0000
  H   H699      1.0  0.77444  0.55987  0.21955  1.0000
  H   H700      1.0  0.73847  0.59265  0.12890  1.0000
  H   H701      1.0  0.69225  0.59991  0.15835  1.0000
  C   C401      1.0  0.50800  0.60368  0.29619  1.0000
  H   H702      1.0  0.73067  0.56534  0.00999  1.0000
  C   C402      1.0  0.50461  0.57414  0.29378  1.0000
  C   C403      1.0  0.82816  0.47225  0.96949  1.0000
  H   H703      1.0  0.52324  0.56062  0.29284  1.0000
  C   C404      1.0  0.75243  0.47200  0.06729  1.0000
  C   C405      1.0  0.80570  0.48034  0.10326  1.0000
  H   H704      1.0  0.87964  0.44062  0.95132  1.0000
  H   H705      1.0  0.50286  0.57131  0.41202  1.0000
  C   C406      1.0  0.82974  0.49970  0.98412  1.0000
  C   C407      1.0  0.66191  0.50429  0.42499  1.0000
  C   C408      1.0  0.63328  0.50735  0.41575  1.0000
  H   H706      1.0  0.74177  0.46955  0.13531  1.0000
  H   H707      1.0  0.87996  0.64718  0.19015  1.0000
  H   H708      1.0  0.74377  0.42238  0.03018  1.0000
  H   H709      1.0  0.83017  0.45359  0.98518  1.0000
  H   H710      1.0  0.72513  0.65582  0.28651  1.0000
  C   C409      1.0  0.75448  0.65327  0.20582  1.0000
  H   H711      1.0  0.52993  0.55267  0.36351  1.0000
  H   H712      1.0  0.59090  0.49107  0.42416  1.0000
  H   H713      1.0  0.77202  0.55986  0.06962  1.0000
  H   H714      1.0  0.76370  0.49812  0.15168  1.0000
  H   H715      1.0  0.75537  0.47211  0.01248  1.0000
  C   C410      1.0  0.71964  0.50054  0.16454  1.0000
  H   H716      1.0  0.77843  0.41971  0.04992  1.0000
  H   H717      1.0  0.79255  0.52472  0.10389  1.0000
  C   C411      1.0  0.75018  0.57116  0.02409  1.0000
  C   C412      1.0  0.90743  0.57608  0.95868  1.0000
  H   H718      1.0  0.83305  0.50657  0.13483  1.0000
  C   C413      1.0  0.75224  0.55381  0.05634  1.0000
  C   C414      1.0  0.75187  0.52143  0.04906  1.0000
  H   H719      1.0  0.80425  0.62684  0.20003  1.0000
  C   C415      1.0  0.73996  0.51009  0.10692  1.0000
  H   H720      1.0  0.76915  0.56745  0.00808  1.0000
  H   H721      1.0  0.50403  0.53692  0.43186  1.0000
  H   H722      1.0  0.76698  0.51798  0.02793  1.0000
  H   H723      1.0  0.88987  0.53414  0.95971  1.0000
  H   H724      1.0  0.77966  0.63146  0.14934  1.0000
  H   H725      1.0  0.85539  0.61790  0.19421  1.0000
  H   H726      1.0  0.83309  0.50186  0.01068  1.0000
  H   H727      1.0  0.69833  0.49483  0.15455  1.0000
  C   C416      1.0  0.74309  0.49278  0.13960  1.0000
  C   C417      1.0  0.61308  0.48923  0.43111  1.0000
  C   C418      1.0  0.50264  0.54806  0.40746  1.0000
  C   C419      1.0  0.83494  0.48877  0.11672  1.0000
  C   C420      1.0  0.76679  0.46260  0.03408  1.0000
  C   C421      1.0  0.80620  0.65050  0.20200  1.0000
  C   C422      1.0  0.67001  0.48378  0.44924  1.0000
  H   H728      1.0  0.79348  0.47092  0.12413  1.0000
  H   H729      1.0  0.73364  0.55985  0.07197  1.0000
  H   H730      1.0  0.77585  0.42461  0.00541  1.0000
  H   H731      1.0  0.72010  0.52369  0.17014  1.0000
  H   H732      1.0  0.75813  0.45635  0.08691  1.0000
  H   H733      1.0  0.74916  0.59421  0.03006  1.0000
  H   H734      1.0  0.73027  0.51628  0.03915  1.0000
  H   H735      1.0  0.54881  0.54756  0.40209  1.0000
  H   H736      1.0  0.74402  0.53244  0.11472  1.0000
  C   C423      1.0  0.79016  0.50612  0.08699  1.0000
  C   C424      1.0  0.76609  0.43031  0.02980  1.0000
  H   H737      1.0  0.80915  0.46326  0.08463  1.0000
  C   C425      1.0  0.82663  0.52421  0.96441  1.0000
  C   C426      1.0  0.98699  0.56864  0.10364  1.0000
  C   C427      1.0  0.52966  0.54102  0.38772  1.0000
  H   H738      1.0  0.84928  0.49519  0.09594  1.0000
  H   H739      1.0  0.71722  0.50915  0.09895  1.0000
  H   H740      1.0  0.84475  0.47033  0.12972  1.0000
  H   H741      1.0  0.72295  0.48874  0.18828  1.0000
  N   N23       1.0  0.75911  0.50204  0.07806  1.0000
  H   H742      1.0  0.75214  0.63000  0.20184  1.0000
  H   H743      1.0  0.67787  0.51777  0.41349  1.0000
  H   H744      1.0  0.72899  0.46931  0.06397  1.0000
  H   H745      1.0  0.53111  0.51780  0.38288  1.0000
  H   H746      1.0  0.80295  0.51177  0.06446  1.0000
  C   C428      1.0  0.85923  0.64049  0.20109  1.0000
  C   C429      1.0  0.72501  0.65114  0.25935  1.0000
  H   H747      1.0  0.95948  0.52789  0.00533  1.0000
  H   H748      1.0  0.72008  0.62820  0.25618  1.0000
  H   H749      1.0  0.98365  0.54912  0.11753  1.0000
  H   H750      1.0  0.86059  0.64217  0.22869  1.0000
  H   H751      1.0  0.75513  0.63693  0.08951  1.0000
  H   H752      1.0  0.88885  0.58538  0.97190  1.0000
  H   H753      1.0  0.97341  0.49807  0.02910  1.0000
  H   H754      1.0  0.92409  0.57108  0.97746  1.0000
  C   C430      1.0  0.97159  0.52162  0.02797  1.0000
  H   H755      1.0  0.76975  0.64406  0.25672  1.0000
  H   H756      1.0  0.73169  0.64898  0.14250  1.0000
  C   C431      1.0  0.77754  0.65500  0.15110  1.0000
  H   H757      1.0  0.62716  0.59677  0.44307  1.0000
  H   H758      1.0  0.65047  0.56646  0.44308  1.0000
  H   H759      1.0  0.80784  0.65526  0.22903  1.0000
  H   H760      1.0  0.55862  0.65659  0.39188  1.0000
  Fe  Fe49      1.0  0.65141  0.39473  0.61250  1.0000
  S   S97       1.0  0.66582  0.37579  0.56338  1.0000
  S   S98       1.0  0.67606  0.39405  0.66304  1.0000
  Fe  Fe50      1.0  0.58999  0.40572  0.58426  1.0000
  S   S99       1.0  0.60135  0.38717  0.53433  1.0000
  S   S100      1.0  0.54625  0.42756  0.58652  1.0000
  Fe  Fe51      1.0  0.62365  0.35234  0.56340  1.0000
  Fe  Fe52      1.0  0.64198  0.41247  0.53820  1.0000
  S   S101      1.0  0.66149  0.44105  0.49643  1.0000
  S   S102      1.0  0.60988  0.36984  0.61317  1.0000
  S   S103      1.0  0.63002  0.43243  0.58747  1.0000
  Fe  Fe53      1.0  0.88112  0.40920  0.81839  1.0000
  S   S104      1.0  0.86754  0.38335  0.86278  1.0000
  S   S105      1.0  0.92673  0.42673  0.82328  1.0000
  Fe  Fe54      1.0  0.81871  0.40827  0.78942  1.0000
  S   S106      1.0  0.80236  0.38351  0.83390  1.0000
  S   S107      1.0  0.79483  0.41834  0.74004  1.0000
  Fe  Fe55      1.0  0.82991  0.41341  0.86547  1.0000
  S   S108      1.0  0.82169  0.43327  0.91777  1.0000
  Fe  Fe56      1.0  0.84179  0.35631  0.82751  1.0000
  S   S109      1.0  0.84384  0.43951  0.82127  1.0000
  S   S110      1.0  0.85769  0.38082  0.78275  1.0000
  H   H761      1.0  0.82318  0.33289  0.74283  1.0000
  C   C432      1.0  0.51560  0.36871  0.50286  1.0000
  C   C433      1.0  0.82148  0.49318  0.91511  1.0000
  H   H762      1.0  0.68201  0.52655  0.54291  1.0000
  H   H763      1.0  0.81788  0.49101  0.88859  1.0000
  C   C434      1.0  0.96058  0.41253  0.81179  1.0000
  H   H764      1.0  0.90874  0.50977  0.82580  1.0000
  C   C435      1.0  0.96526  0.39942  0.78095  1.0000
  C   C436      1.0  0.51471  0.35873  0.53966  1.0000
  H   H765      1.0  0.94768  0.39661  0.76389  1.0000
  C   C437      1.0  0.70951  0.40070  0.68374  1.0000
  C   C438      1.0  0.73409  0.40970  0.66676  1.0000
  C   C439      1.0  0.75980  0.41478  0.68437  1.0000
  C   C440      1.0  0.76167  0.41078  0.71923  1.0000
  C   C441      1.0  0.73718  0.40150  0.73619  1.0000
  C   C442      1.0  0.71143  0.39657  0.71862  1.0000
  H   H766      1.0  0.73323  0.41308  0.64007  1.0000
  H   H767      1.0  0.77839  0.42210  0.67081  1.0000
  H   H768      1.0  0.73786  0.39873  0.76297  1.0000
  H   H769      1.0  0.69268  0.38978  0.73225  1.0000
  H   H770      1.0  0.98941  0.47578  0.85537  1.0000
  H   H771      1.0  0.54746  0.35013  0.59877  1.0000
  H   H772      1.0  0.76494  0.32798  0.67808  1.0000
  H   H773      1.0  0.94539  0.39417  0.91851  1.0000
  H   H774      1.0  0.61025  0.58444  0.49997  1.0000
  C   C443      1.0  0.51181  0.41401  0.59675  1.0000
  C   C444      1.0  0.91221  0.33373  0.75414  1.0000
  H   H775      1.0  0.64693  0.53038  0.48901  1.0000
  H   H776      1.0  0.97417  0.50632  0.92071  1.0000
  C   C445      1.0  0.58205  0.48966  0.53218  1.0000
  C   C446      1.0  0.96822  0.49164  0.90035  1.0000
  H   H777      1.0  0.97077  0.36838  0.87502  1.0000
  C   C447      1.0  0.89209  0.51873  0.87602  1.0000
  H   H778      1.0  0.70515  0.49875  0.58650  1.0000
  H   H779      1.0  0.53462  0.36708  0.55101  1.0000
  H   H780      1.0  0.73649  0.33970  0.76523  1.0000
  H   H781      1.0  0.60528  0.45507  0.46672  1.0000
  H   H782      1.0  0.52105  0.33378  0.65012  1.0000
  C   C448      1.0  0.89034  0.50352  0.84174  1.0000
  C   C449      1.0  0.86334  0.51205  0.82293  1.0000
  C   C450      1.0  0.61233  0.55190  0.55972  1.0000
  H   H783      1.0  0.57978  0.58104  0.60675  1.0000
  H   H784      1.0  0.54613  0.46109  0.52573  1.0000
  H   H785      1.0  0.87111  0.51613  0.88860  1.0000
  H   H786      1.0  0.58071  0.55407  0.63882  1.0000
  C   C451      1.0  0.62018  0.56762  0.48453  1.0000
  C   C452      1.0  0.66800  0.51696  0.56227  1.0000
  H   H787      1.0  0.75136  0.34741  0.71199  1.0000
  H   H788      1.0  0.88037  0.45839  0.89204  1.0000
  H   H789      1.0  0.89076  0.32624  0.76200  1.0000
  C   C453      1.0  0.64977  0.46592  0.46494  1.0000
  H   H790      1.0  0.61333  0.57118  0.62593  1.0000
  H   H791      1.0  0.89362  0.54181  0.86962  1.0000
  H   H792      1.0  0.89049  0.48009  0.84440  1.0000
  H   H793      1.0  0.86274  0.53543  0.81880  1.0000
  H   H794      1.0  0.86296  0.50138  0.79822  1.0000
  H   H795      1.0  0.67199  0.48208  0.59809  1.0000
  C   C454      1.0  0.94235  0.50242  0.87987  1.0000
  C   C455      1.0  0.59662  0.53996  0.59076  1.0000
  C   C456      1.0  0.51502  0.40116  0.50039  1.0000
  H   H796      1.0  0.49460  0.40954  0.51033  1.0000
  H   H797      1.0  0.64427  0.49200  0.52682  1.0000
  C   C457      1.0  0.90661  0.48660  0.92263  1.0000
  C   C458      1.0  0.68412  0.49161  0.57698  1.0000
  N   N24       1.0  0.91594  0.51020  0.89945  1.0000
  H   H798      1.0  0.94932  0.52099  0.86447  1.0000
  C   C459      1.0  0.59396  0.51791  0.51737  1.0000
  H   H799      1.0  0.98058  0.42644  0.85725  1.0000
  H   H800      1.0  0.63146  0.56382  0.56826  1.0000
  H   H801      1.0  0.57513  0.53228  0.58364  1.0000
  C   C460      1.0  0.59241  0.56308  0.61707  1.0000
  H   H802      1.0  0.93942  0.53050  0.93967  1.0000
  C   C461      1.0  0.94098  0.37113  0.91516  1.0000
  H   H803      1.0  0.55860  0.32597  0.65109  1.0000
  H   H804      1.0  0.93470  0.37588  0.86265  1.0000
  H   H805      1.0  0.53718  0.49818  0.52221  1.0000
  C   C462      1.0  0.54081  0.32760  0.60123  1.0000
  H   H806      1.0  0.57884  0.49066  0.55951  1.0000
  H   H807      1.0  0.93264  0.55295  0.90473  1.0000
  H   H808      1.0  0.92264  0.48352  0.94277  1.0000
  H   H809      1.0  0.85353  0.36926  0.66828  1.0000
  H   H810      1.0  0.59703  0.47188  0.52704  1.0000
  H   H811      1.0  0.84405  0.50543  0.83707  1.0000
  C   C463      1.0  0.63707  0.54606  0.50640  1.0000
  H   H812      1.0  0.81979  0.53921  0.91416  1.0000
  C   C464      1.0  0.82420  0.46866  0.93480  1.0000
  H   H813      1.0  0.76950  0.35566  0.77801  1.0000
  H   H814      1.0  0.88000  0.55510  0.92394  1.0000
  H   H815      1.0  0.59802  0.56843  0.54914  1.0000
  H   H816      1.0  0.93794  0.48521  0.86164  1.0000
  H   H817      1.0  0.57640  0.53383  0.51677  1.0000
  H   H818      1.0  0.66470  0.53255  0.58262  1.0000
  H   H819      1.0  0.60318  0.55687  0.47003  1.0000
  N   N25       1.0  0.51209  0.32710  0.54553  1.0000
  H   H820      1.0  0.59819  0.51272  0.49080  1.0000
  H   H821      1.0  0.60862  0.52242  0.60277  1.0000
  C   C465      1.0  0.82246  0.52059  0.92981  1.0000
  H   H822      1.0  0.95431  0.35900  0.93310  1.0000
  H   H823      1.0  0.68777  0.47508  0.55763  1.0000
  C   C466      1.0  0.94813  0.36276  0.87932  1.0000
  H   H824      1.0  0.65631  0.59518  0.47229  1.0000
  H   H825      1.0  0.62810  0.49458  0.56632  1.0000
  N   N26       1.0  0.62034  0.53059  0.53326  1.0000
  C   C467      1.0  0.63921  0.50736  0.54698  1.0000
  H   H826      1.0  0.73857  0.34675  0.82616  1.0000
  H   H827      1.0  0.93365  0.35588  0.81285  1.0000
  H   H828      1.0  0.91566  0.59220  0.94075  1.0000
  H   H829      1.0  0.91270  0.35737  0.75419  1.0000
  H   H830      1.0  0.55588  0.48031  0.48855  1.0000
  H   H831      1.0  0.65505  0.55822  0.51750  1.0000
  H   H832      1.0  0.91798  0.45036  0.89003  1.0000
  H   H833      1.0  0.98282  0.35030  0.82556  1.0000
  H   H834      1.0  0.55660  0.32518  0.53171  1.0000
  H   H835      1.0  0.51705  0.40781  0.47387  1.0000
  H   H836      1.0  0.88656  0.49248  0.93574  1.0000
  H   H837      1.0  0.79718  0.35880  0.73460  1.0000
  H   H838      1.0  0.52587  0.38578  0.63556  1.0000
  C   C468      1.0  0.92314  0.53584  0.92062  1.0000
  C   C469      1.0  0.90046  0.45739  0.90655  1.0000
  C   C470      1.0  0.55355  0.48197  0.51608  1.0000
  H   H839      1.0  0.83936  0.38467  0.70584  1.0000
  C   C471      1.0  0.75695  0.33568  0.77819  1.0000
  C   C472      1.0  0.80570  0.33836  0.72517  1.0000
  H   H840      1.0  0.53303  0.41055  0.51456  1.0000
  H   H841      1.0  0.96334  0.47047  0.91144  1.0000
  C   C473      1.0  0.89667  0.43454  0.93346  1.0000
  C   C474      1.0  0.50773  0.39348  0.62165  1.0000
  H   H842      1.0  0.89041  0.41415  0.92170  1.0000
  C   C475      1.0  0.94232  0.33069  0.87333  1.0000
  C   C476      1.0  0.63982  0.58237  0.45931  1.0000
  C   C477      1.0  0.89798  0.54916  0.94047  1.0000
  C   C478      1.0  0.62118  0.46875  0.45543  1.0000
  H   H843      1.0  0.90814  0.32932  0.82096  1.0000
  C   C479      1.0  0.84497  0.36429  0.69350  1.0000
  C   C480      1.0  0.81870  0.34524  0.69040  1.0000
  H   H844      1.0  0.80293  0.35683  0.67484  1.0000
  H   H845      1.0  0.91809  0.36711  0.92059  1.0000
  C   C481      1.0  0.98397  0.41671  0.83317  1.0000
  C   C482      1.0  0.93086  0.33240  0.81370  1.0000
  H   H846      1.0  0.86185  0.35346  0.70815  1.0000
  H   H847      1.0  0.53579  0.36165  0.49104  1.0000
  C   C483      1.0  0.98079  0.32706  0.83046  1.0000
  C   C484      1.0  0.75818  0.32566  0.70458  1.0000
  C   C485      1.0  0.74994  0.32856  0.81456  1.0000
  H   H848      1.0  0.95600  0.32899  0.76744  1.0000
  H   H849      1.0  0.91682  0.43131  0.94739  1.0000
  H   H850      1.0  0.76978  0.32457  0.82895  1.0000
  H   H851      1.0  0.49722  0.36054  0.48848  1.0000
  H   H852      1.0  0.49607  0.33546  0.59533  1.0000
  H   H853      1.0  0.49733  0.37024  0.55263  1.0000
  H   H854      1.0  0.91912  0.32758  0.87789  1.0000
  H   H855      1.0  0.91614  0.32634  0.72824  1.0000
  H   H856      1.0  0.69960  0.33862  0.69719  1.0000
  H   H857      1.0  0.82528  0.32577  0.67694  1.0000
  H   H858      1.0  0.71408  0.32462  0.65878  1.0000
  H   H859      1.0  0.69223  0.48183  0.45601  1.0000
  S   S111      1.0  0.65088  0.67855  0.35803  1.0000
  Fe  Fe57      1.0  0.65578  0.90474  0.27710  1.0000
  S   S112      1.0  0.67103  0.88014  0.32210  1.0000
  S   S113      1.0  0.68027  0.91330  0.22728  1.0000
  Fe  Fe58      1.0  0.59296  0.90538  0.30552  1.0000
  S   S114      1.0  0.60509  0.87892  0.34982  1.0000
  S   S115      1.0  0.54892  0.92604  0.30043  1.0000
  Fe  Fe59      1.0  0.64254  0.90931  0.35321  1.0000
  S   S116      1.0  0.64850  0.92805  0.40618  1.0000
  Fe  Fe60      1.0  0.63214  0.85243  0.31486  1.0000
  S   S117      1.0  0.63398  0.80498  0.29982  1.0000
  S   S118      1.0  0.63019  0.93576  0.30869  1.0000
  S   S119      1.0  0.61682  0.87723  0.27009  1.0000
  S   S120      1.0  0.84415  0.68602  0.08514  1.0000
  Fe  Fe61      1.0  0.82758  0.92023  0.03157  1.0000
  S   S121      1.0  0.85183  0.92746  0.07946  1.0000
  S   S122      1.0  0.81720  0.96355  0.00588  1.0000
  Fe  Fe62      1.0  0.83005  0.85430  0.04399  1.0000
  S   S123      1.0  0.85464  0.85897  0.09142  1.0000
  S   S124      1.0  0.82094  0.80995  0.02256  1.0000
  Fe  Fe63      1.0  0.82291  0.89413  0.10301  1.0000
  S   S125      1.0  0.80287  0.89797  0.15593  1.0000
  Fe  Fe64      1.0  0.88081  0.89180  0.06352  1.0000
  S   S126      1.0  0.92837  0.89398  0.04960  1.0000
  S   S127      1.0  0.79738  0.88835  0.05609  1.0000
  S   S128      1.0  0.85734  0.88551  0.01512  1.0000
  C   C486      1.0  0.96377  0.88953  0.10533  1.0000
  C   C487      1.0  0.96167  0.89224  0.07066  1.0000
  C   C488      1.0  0.98688  0.89310  0.05154  1.0000
  H   H860      1.0  0.94462  0.88883  0.12039  1.0000
  H   H861      1.0  0.65599  0.98645  0.37973  1.0000
  C   C489      1.0  0.83794  0.72016  0.06674  1.0000
  C   C490      1.0  0.84083  0.74460  0.08678  1.0000
  C   C491      1.0  0.83581  0.77214  0.07376  1.0000
  C   C492      1.0  0.82798  0.77570  0.04031  1.0000
  C   C493      1.0  0.82528  0.75127  0.02021  1.0000
  C   C494      1.0  0.83025  0.72371  0.03325  1.0000
  H   H862      1.0  0.84702  0.74219  0.11260  1.0000
  H   H863      1.0  0.83762  0.79057  0.08970  1.0000
  H   H864      1.0  0.81913  0.75367  0.99434  1.0000
  H   H865      1.0  0.82793  0.70523  0.01744  1.0000
  C   C495      1.0  0.71444  0.90636  0.20851  1.0000
  C   C496      1.0  0.71626  0.90261  0.17363  1.0000
  C   C497      1.0  0.74286  0.89924  0.15726  1.0000
  C   C498      1.0  0.76833  0.90011  0.17541  1.0000
  C   C499      1.0  0.76648  0.90327  0.21036  1.0000
  C   C500      1.0  0.73985  0.90632  0.22677  1.0000
  H   H866      1.0  0.69687  0.90248  0.15909  1.0000
  H   H867      1.0  0.74368  0.89633  0.13052  1.0000
  H   H868      1.0  0.78588  0.90396  0.22487  1.0000
  H   H869      1.0  0.73908  0.90969  0.25345  1.0000
  C   C501      1.0  0.64598  0.71356  0.34139  1.0000
  C   C502      1.0  0.64258  0.71862  0.30718  1.0000
  C   C503      1.0  0.63938  0.74674  0.29507  1.0000
  C   C504      1.0  0.63913  0.77020  0.31690  1.0000
  C   C505      1.0  0.64256  0.76517  0.35110  1.0000
  C   C506      1.0  0.64612  0.73706  0.36317  1.0000
  H   H870      1.0  0.64262  0.70087  0.29005  1.0000
  H   H871      1.0  0.63679  0.75028  0.26856  1.0000
  H   H872      1.0  0.64252  0.78289  0.36827  1.0000
  H   H873      1.0  0.64893  0.73349  0.38965  1.0000
  C   C507      1.0  0.63183  0.84110  0.19603  1.0000
  H   H874      1.0  0.90871  0.95892  0.97753  1.0000
  H   H875      1.0  0.54433  0.81844  0.31231  1.0000
  H   H876      1.0  0.61787  0.83064  0.21489  1.0000
  H   H877      1.0  0.53125  0.87021  0.32627  1.0000
  H   H878      1.0  0.93567  0.71330  0.03174  1.0000
  H   H879      1.0  0.52316  0.77058  0.30458  1.0000
  H   H880      1.0  0.71210  0.93462  0.05712  1.0000
  H   H881      1.0  0.74295  0.68537  0.13912  1.0000
  H   H882      1.0  0.63032  0.82941  0.17205  1.0000
  H   H883      1.0  0.91187  0.77867  0.10750  1.0000
  H   H884      1.0  0.95341  0.76482  0.02386  1.0000
  N   N27       1.0  0.70471  0.80924  0.22610  1.0000
  C   C508      1.0  0.70917  0.77920  0.23860  1.0000
  C   C509      1.0  0.71006  0.83017  0.25410  1.0000
  C   C510      1.0  0.67388  0.81159  0.21553  1.0000
  C   C511      1.0  0.72291  0.81613  0.19601  1.0000
  C   C512      1.0  0.75554  0.81509  0.20079  1.0000
  C   C513      1.0  0.66265  0.84199  0.20826  1.0000
  C   C514      1.0  0.73447  0.82285  0.27899  1.0000
  C   C515      1.0  0.74437  0.84886  0.29856  1.0000
  C   C516      1.0  0.77109  0.81891  0.16745  1.0000
  H   H885      1.0  0.73140  0.77573  0.24684  1.0000
  H   H886      1.0  0.71382  0.85187  0.24369  1.0000
  H   H887      1.0  0.69069  0.83217  0.27013  1.0000
  H   H888      1.0  0.71715  0.80218  0.17467  1.0000
  H   H889      1.0  0.71854  0.83812  0.18713  1.0000
  H   H890      1.0  0.76247  0.79459  0.21177  1.0000
  H   H891      1.0  0.76241  0.83293  0.21706  1.0000
  H   H892      1.0  0.92667  0.71788  0.07549  1.0000
  H   H893      1.0  0.67539  0.85300  0.18884  1.0000
  H   H894      1.0  0.87109  0.82874  0.97796  1.0000
  H   H895      1.0  0.72670  0.80666  0.29721  1.0000
  H   H896      1.0  0.75351  0.81394  0.26666  1.0000
  H   H897      1.0  0.76123  0.84252  0.31650  1.0000
  H   H898      1.0  0.75336  0.86518  0.28142  1.0000
  H   H899      1.0  0.72650  0.85815  0.31290  1.0000
  H   H900      1.0  0.76563  0.80147  0.14993  1.0000
  H   H901      1.0  0.76537  0.83958  0.15575  1.0000
  H   H902      1.0  0.79448  0.81879  0.17160  1.0000
  N   N28       1.0  0.55107  0.71738  0.31681  1.0000
  C   C517      1.0  0.56451  0.71635  0.28250  1.0000
  C   C518      1.0  0.75123  0.65958  0.09583  1.0000
  H   H903      1.0  0.62408  0.86318  0.19201  1.0000
  C   C519      1.0  0.89832  0.94906  0.95551  1.0000
  C   C520      1.0  0.56487  0.68689  0.26508  1.0000
  H   H904      1.0  0.77278  0.95243  0.13318  1.0000
  C   C521      1.0  0.58166  0.68811  0.23238  1.0000
  H   H905      1.0  0.84049  0.68163  0.19522  1.0000
  H   H906      1.0  0.55332  0.73091  0.26496  1.0000
  H   H907      1.0  0.57962  0.89669  0.41872  1.0000
  C   C522      1.0  0.57445  0.67382  0.39607  1.0000
  C   C523      1.0  0.74916  0.66311  0.13364  1.0000
  C   C524      1.0  0.56519  0.95240  0.40393  1.0000
  H   H908      1.0  0.55449  0.67378  0.33452  1.0000
  H   H909      1.0  0.79540  0.66324  0.13563  1.0000
  H   H910      1.0  0.57506  0.67059  0.28098  1.0000
  H   H911      1.0  0.69574  0.77560  0.26132  1.0000
  C   C525      1.0  0.79590  0.71364  0.16187  1.0000
  N   N29       1.0  0.78021  0.66442  0.18698  1.0000
  C   C526      1.0  0.99024  0.81364  0.04935  1.0000
  H   H912      1.0  0.58688  0.72403  0.28377  1.0000
  C   C527      1.0  0.55119  0.80038  0.32833  1.0000
  H   H913      1.0  0.78338  0.71226  0.13848  1.0000
  N   N30       1.0  0.93577  0.80314  0.04616  1.0000
  C   C528      1.0  0.90990  0.81274  0.02677  1.0000
  C   C529      1.0  0.93337  0.81384  0.08156  1.0000
  H   H914      1.0  0.51874  0.95663  0.36293  1.0000
  C   C530      1.0  0.91259  0.75246  0.04311  1.0000
  C   C531      1.0  0.91182  0.80834  0.98840  1.0000
  C   C532      1.0  0.90861  0.80172  0.10279  1.0000
  C   C533      1.0  0.90726  0.81623  0.13689  1.0000
  H   H915      1.0  0.58145  0.66676  0.22051  1.0000
  H   H916      1.0  0.49251  0.88729  0.39633  1.0000
  H   H917      1.0  0.90601  0.83589  0.03087  1.0000
  H   H918      1.0  0.89013  0.80236  0.03601  1.0000
  H   H919      1.0  0.93157  0.83750  0.08151  1.0000
  H   H920      1.0  0.57194  0.70366  0.21487  1.0000
  C   C534      1.0  0.75321  0.95373  0.07035  1.0000
  H   H921      1.0  0.58282  0.71704  0.38174  1.0000
  H   H922      1.0  0.90305  0.75411  0.01785  1.0000
  H   H923      1.0  0.66315  0.85498  0.23122  1.0000
  H   H924      1.0  0.50390  0.73308  0.35816  1.0000
  H   H925      1.0  0.92228  0.78789  0.98211  1.0000
  H   H926      1.0  0.88783  0.80495  0.09042  1.0000
  C   C535      1.0  0.55683  0.74664  0.33091  1.0000
  C   C536      1.0  0.93990  0.77118  0.04549  1.0000
  H   H927      1.0  0.65966  0.80221  0.23503  1.0000
  H   H928      1.0  0.71652  0.75642  0.19139  1.0000
  H   H929      1.0  0.70313  0.70876  0.21141  1.0000
  H   H930      1.0  0.81759  0.70595  0.15606  1.0000
  C   C537      1.0  0.64762  0.96282  0.42471  1.0000
  C   C538      1.0  0.56634  0.70058  0.37661  1.0000
  H   H931      1.0  0.72950  0.72386  0.23899  1.0000
  C   C539      1.0  0.54832  0.93048  0.42525  1.0000
  H   H932      1.0  0.76871  0.67295  0.08539  1.0000
  C   C540      1.0  0.70726  0.72583  0.22991  1.0000
  C   C541      1.0  0.70249  0.75491  0.21367  1.0000
  C   C542      1.0  0.72022  0.96712  0.11450  1.0000
  C   C543      1.0  0.81765  0.98134  0.96601  1.0000
  H   H933      1.0  0.54295  0.67968  0.25910  1.0000
  H   H934      1.0  0.90453  0.83960  0.13400  1.0000
  H   H935      1.0  0.92705  0.81208  0.15126  1.0000
  H   H936      1.0  0.70783  0.66386  0.24756  1.0000
  H   H937      1.0  0.98550  0.89492  0.02468  1.0000
  H   H938      1.0  0.92463  0.82583  0.97710  1.0000
  H   H939      1.0  0.58025  0.74950  0.33442  1.0000
  C   C544      1.0  0.88252  0.80871  0.97196  1.0000
  H   H940      1.0  0.57520  0.67864  0.42317  1.0000
  C   C545      1.0  0.77135  0.97431  0.12243  1.0000
  H   H941      1.0  0.82490  0.95558  0.14418  1.0000
  H   H942      1.0  0.77652  0.75377  0.17645  1.0000
  H   H943      1.0  0.57417  0.80323  0.33411  1.0000
  H   H944      1.0  0.95290  0.80881  0.09602  1.0000
  H   H945      1.0  0.89957  0.70819  0.04598  1.0000
  H   H946      1.0  0.89605  0.75892  0.06117  1.0000
  H   H947      1.0  0.75942  0.70527  0.19249  1.0000
  H   H948      1.0  0.88884  0.80777  0.15129  1.0000
  H   H949      1.0  0.56255  0.94588  0.37749  1.0000
  H   H950      1.0  0.72007  0.93113  0.99644  1.0000
  H   H951      1.0  0.95206  0.76419  0.06791  1.0000
  H   H952      1.0  0.97101  0.69706  0.10442  1.0000
  C   C546      1.0  0.73848  0.93470  0.01328  1.0000
  C   C547      1.0  0.54627  0.77233  0.30991  1.0000
  H   H953      1.0  0.58826  0.94918  0.40936  1.0000
  C   C548      1.0  0.91922  0.72108  0.04946  1.0000
  H   H954      1.0  0.67000  0.79919  0.19238  1.0000
  H   H955      1.0  0.67993  0.75538  0.20555  1.0000
  N   N31       1.0  0.74760  0.97562  0.09706  1.0000
  H   H956      1.0  0.55817  0.77386  0.28600  1.0000
  H   H957      1.0  0.86962  0.79027  0.98064  1.0000
  H   H958      1.0  0.54589  0.70832  0.38680  1.0000
  C   C549      1.0  0.72832  0.94882  0.04548  1.0000
  H   H959      1.0  0.54747  0.74906  0.35614  1.0000
  C   C550      1.0  0.50118  0.71267  0.34474  1.0000
  C   C551      1.0  0.51236  0.88276  0.32166  1.0000
  H   H960      1.0  0.75414  0.94852  0.00010  1.0000
  C   C552      1.0  0.51965  0.71144  0.31278  1.0000
  H   H961      1.0  0.72069  0.94415  0.12125  1.0000
  H   H962      1.0  0.71760  0.96906  0.03880  1.0000
  H   H963      1.0  0.69243  0.72276  0.25132  1.0000
  C   C553      1.0  0.55632  0.90007  0.41567  1.0000
  H   H964      1.0  0.60297  0.97290  0.35886  1.0000
  C   C554      1.0  0.71265  0.98368  0.14678  1.0000
  C   C555      1.0  0.56498  0.69481  0.33844  1.0000
  C   C556      1.0  0.78135  0.69644  0.19049  1.0000
  H   H965      1.0  0.80798  0.97103  0.08791  1.0000
  H   H966      1.0  0.96577  0.96949  0.02522  1.0000
  H   H967      1.0  0.58764  0.69159  0.33087  1.0000
  H   H968      1.0  0.81205  0.74815  0.19290  1.0000
  H   H969      1.0  0.59584  0.66631  0.38829  1.0000
  H   H970      1.0  0.80710  0.75732  0.14958  1.0000
  C   C557      1.0  0.79800  0.74515  0.17090  1.0000
  H   H971      1.0  0.55028  0.89574  0.38934  1.0000
  C   C558      1.0  0.96155  0.81735  0.03055  1.0000
  H   H972      1.0  0.73459  0.66304  0.19605  1.0000
  H   H973      1.0  0.95783  0.84067  0.02773  1.0000
  H   H974      1.0  0.67752  0.98918  0.18151  1.0000
  H   H975      1.0  0.90528  0.92651  0.95402  1.0000
  H   H976      1.0  0.77267  0.95891  0.05588  1.0000
  H   H977      1.0  0.60418  0.69415  0.23718  1.0000
  H   H978      1.0  0.79204  0.70223  0.21433  1.0000
  H   H979      1.0  0.75932  0.68061  0.25036  1.0000
  C   C559      1.0  0.51508  0.91038  0.30894  1.0000
  H   H980      1.0  0.74847  0.91381  0.01873  1.0000
  H   H981      1.0  0.73088  0.66620  0.08406  1.0000
  H   H982      1.0  0.67840  0.95484  0.16189  1.0000
  H   H983      1.0  0.53867  0.80095  0.35188  1.0000
  H   H984      1.0  0.96504  0.80923  0.00481  1.0000
  H   H985      1.0  0.75799  0.93270  0.08202  1.0000
  H   H986      1.0  0.50670  0.69466  0.36148  1.0000
  H   H987      1.0  0.52503  0.93279  0.42153  1.0000
  H   H988      1.0  0.51020  0.72594  0.29382  1.0000
  H   H989      1.0  0.57000  0.98100  0.33850  1.0000
  H   H990      1.0  0.49596  0.86024  0.42810  1.0000
  H   H991      1.0  0.70177  0.96953  0.09730  1.0000
  H   H992      1.0  0.51639  0.68965  0.30263  1.0000
  H   H993      1.0  0.66669  0.98577  0.13856  1.0000
  C   C560      1.0  0.68192  0.97798  0.15767  1.0000
  H   H994      1.0  0.54494  0.88471  0.43206  1.0000
  C   C561      1.0  0.75414  0.65821  0.24418  1.0000
  C   C562      1.0  0.80135  0.98323  0.11018  1.0000
  C   C563      1.0  0.82368  0.97846  0.13735  1.0000
  H   H995      1.0  0.84494  0.98525  0.12802  1.0000
  H   H996      1.0  0.96219  0.97574  0.98083  1.0000
  C   C564      1.0  0.51528  0.97966  0.36733  1.0000
  H   H997      1.0  0.72651  0.97659  0.16767  1.0000
  C   C565      1.0  0.83545  0.65950  0.18756  1.0000
  H   H998      1.0  0.51282  0.97883  0.42137  1.0000
  C   C566      1.0  0.97023  0.98479  0.00460  1.0000
  N   N32       1.0  0.55754  0.98333  0.40891  1.0000
  H   H999      1.0  0.83604  0.65821  0.16003  1.0000
  C   C567      1.0  0.65195  0.98784  0.40626  1.0000
  H   H1000     1.0  0.87486  0.94933  0.95929  1.0000
  H   H1001     1.0  0.49208  0.94763  0.29296  1.0000
  H   H1002     1.0  0.98994  0.69239  0.14314  1.0000
  C   C568      1.0  0.52648  0.98895  0.40192  1.0000
  C   C569      1.0  0.58730  0.99008  0.35388  1.0000
  H   H1003     1.0  0.76696  0.98871  0.14375  1.0000
  H   H1004     1.0  0.69141  0.96603  0.70265  1.0000
  C   C570      1.0  0.90647  0.96482  0.92336  1.0000
  H   H1005     1.0  0.81546  0.97029  0.81520  1.0000
  H   H1006     1.0  0.79234  0.96593  0.75902  1.0000
  H   H1007     1.0  0.64002  0.94617  0.47413  1.0000
  C   C571      1.0  0.81675  0.98174  0.90493  1.0000
  C   C572      1.0  0.79698  0.95595  0.81105  1.0000
  H   H1008     1.0  0.81648  0.96994  0.88183  1.0000
  H   H1009     1.0  0.92991  0.96318  0.92044  1.0000
  H   H1010     1.0  0.80510  0.93425  0.80566  1.0000
  C   C573      1.0  0.77899  0.96654  0.78179  1.0000
  H   H1011     1.0  0.54843  0.97860  0.46187  1.0000
  H   H1012     1.0  0.81789  0.94363  0.93574  1.0000
  C   C574      1.0  0.81768  0.96666  0.93561  1.0000
  H   H1013     1.0  0.75120  0.97474  0.72782  1.0000
  H   H1014     1.0  0.72100  0.97766  0.75401  1.0000
  H   H1015     1.0  0.76114  0.95121  0.77860  1.0000
  H   H1016     1.0  0.89596  0.95349  0.90247  1.0000
  H   H1017     1.0  0.78396  0.95501  0.83423  1.0000
  H   H1018     1.0  0.88489  0.80724  0.94445  1.0000
  H   H1019     1.0  0.55328  0.93295  0.45214  1.0000
  H   H1020     1.0  0.72315  0.96553  0.67674  1.0000
  H   H1021     1.0  0.90122  0.98119  0.85856  1.0000
  C   C575      1.0  0.64306  0.96528  0.45940  1.0000
  C   C576      1.0  0.70621  0.97927  0.68745  1.0000
  H   H1022     1.0  0.88599  0.98392  0.79885  1.0000
  H   H1023     1.0  0.69397  0.98883  0.66652  1.0000
  H   H1024     1.0  0.58507  0.98372  0.45216  1.0000
