data_image0
_chemical_formula_structural       HFeHSFeHSHFeS3CHFeS2FeSFeNSHC3HCH5C9HCH3C2H5C4H4C2HC2HC6H2CH2CH5CH3CH7CH3C2H5CH2CH2CHC3HCHCH6CH3CHSH2CH4CH2C5H8CHCSH3CH2SC2NCSC2HCH6SH2SC4NHC2H2CSH6SFeS2FeSFeSHNFeSFeS2HFeSHSFeS2HCFeSFeHCFeS2HSCFeSHSH2CSHC3H4C6H4C6H4C4SH3FeHC3H3C2H2FeH8CH5C2H2CHC2H2CH3CHSHNSH6C3HCHCFeH2NC10H24CHC3HNC4HC2HCHC2H7CH10SHCH6CSHC3HCSH2CH2CFeS2HSFeSFeS5FeS2HSFeSFeS2H2SHC6H2CHC6HCH2C6H4C4HCHCHFeNHC3HC4H2CH2CH5C2SCH5NH3CHCH6CH3C2H3CHCHC3H3C4H3CHNC3H7CNC3H4C2H4CH3C2H3CH2CH3CH3FeH5CH14CH2CHCH7NH5C3H2CHC2H3CH3NH3C2HCH5CH7C3H3CH2CH5C2H2C2HCH2C2H2SCHCHC4H4C2HCHCH4NCH2NCH3CH2FeSC2FeHFeS3CSFeS2H3FeSHSCHC9H2C3HFeCH4C2H3C5H5C2HCH3NH3SCHC3H2CH4C2H2C2H3C2HNHNC8HC3H29CH2SC2H4C2H2C2H2CH5CH5SH5C3HCH3SHC3HC3H4SH5CH2CHSFeS2FeSFeSFeSCS3HFeS2FeS2FeSFeS3HCHC6H4C6H4C3H2C6H4C2HCH3C6HCNCSC4H3C2H7CH2CH5C2HC2HCH5CH2NC7H2C2H13C2H7SH7SH7CHC2H2CFeH3NC9H23CH4FeH4SHCH6C2HCHCH5C2HCH6CH10C2HSCH2CNCH3C3H2CH2CH4CH8S2FeS2FeS2FeSFeS4HFeSFeSHFeSFeS2C5H2CH2CH2CHC5HC6H4CHNH3C6H4C6H4CH3C2HCHCH2N2FeHCH3C2H5C3HCH2NH2CH5NH2CH5CH5CHC2H2CH2CH2C2H2CHCHCH6C2H3CH9SH2C2H6CSHC2H8CH5CH2CH6FeCN2CH2CHC3H3CH2CH2NC12H22CH7C5H3CHCHCSCH2CHSH4CHC2H2C2H6NC13H2CHC2NHCH5CHCH2CH2CH5CH9C2H3CH4CH6CH3CH3C4H11SFeS2FeS2Fe2S3CSFeS2FeSFe2S2C2HCHCHC5H2C6H4C3H4CHFeC6H9CH5CHCH2CH7NCH4CHNHC3H2CH7CH2CH13CH3CH6CSHCH2C2H5C2H2CSH2CHNC6HCH4CHCHC2H3CFeHCH4CHCH2CHC2H5CH4CH4SH5CHCHCH4C2H4CNHCHCH3CHCH6CH3C2HCH2C2HCH8CH5C4HCH4CHCH5FeS2FeS2FeSFeCS2HCFeS2FeCFeSFeS2HCHC6HC7H4C6H4CH2C4H2CH5C3H7C2H4CHCH2CH3CH2CH5CH3CH12C3H7CSH2C2H4SH11CHCHSH4CH2C3NC3H7CH2CH4C2H3CFeS2FeS2FeHS2HSFeS2FeSFeS3FeS2FeSHFe2S3FeS2FeCFe2S3C8H7C6H5CH3C6H5C2HC3H2C2H2C2H3C2H4CNHCH6CHC2H3NH3CHC4H3NH8CH8C2H2CSHNCHC4H3C2H3CH10CH6CH2C2H2CHCH2CHFeCH2CH3CH10CH6CH5C2SH3CH2CHCH3SHNC3HCH2CH2CFeHC2H6C2HSFeS2FeSFeSFeS3FeS2FeS2FeSFeS4C6H13C6H4CH2C6HCNC11H24CH6C2HCH4C2H3C3H4C2H2C2HCH4CHNCH4NHCH4C5H3C2H4CHCH3CH9CHNH2C2HCH9NH3SH3C3HCHC2NH5C3H4CH2C2H12CH2C2H4
_chemical_formula_sum              "H1536 Fe96 S192 C864 N48"
_cell_length_a       53.9636
_cell_length_b       54.0723
_cell_length_c       48.1895
_cell_angle_alpha    90.0133
_cell_angle_beta     90.125
_cell_angle_gamma    120.038

_space_group_name_H-M_alt    "P 1"
_space_group_IT_number       1

loop_
  _space_group_symop_operation_xyz
  'x, y, z'

loop_
  _atom_site_type_symbol
  _atom_site_label
  _atom_site_symmetry_multiplicity
  _atom_site_fract_x
  _atom_site_fract_y
  _atom_site_fract_z
  _atom_site_occupancy
  H   H1        1.0  0.32122  0.27665  0.04035  1.0000
  Fe  Fe1       1.0  0.43135  0.10319  0.17578  1.0000
  H   H2        1.0  0.42041  0.25207  0.15131  1.0000
  S   S1        1.0  0.41146  0.10070  0.21847  1.0000
  Fe  Fe2       1.0  0.42866  0.07970  0.11551  1.0000
  H   H3        1.0  0.39284  0.26913  0.19816  1.0000
  S   S2        1.0  0.40513  0.03834  0.08914  1.0000
  H   H4        1.0  0.44294  0.00696  0.09392  1.0000
  Fe  Fe3       1.0  0.45895  0.14448  0.12692  1.0000
  S   S3        1.0  0.42023  0.35419  0.30265  1.0000
  S   S4        1.0  0.44174  0.07138  0.15757  1.0000
  S   S5        1.0  0.41383  0.10868  0.13473  1.0000
  C   C1        1.0  0.43288  0.27654  0.23921  1.0000
  H   H5        1.0  0.39273  0.25878  0.26204  1.0000
  Fe  Fe4       1.0  0.44105  0.31485  0.08936  1.0000
  S   S6        1.0  0.41509  0.32814  0.11532  1.0000
  S   S7        1.0  0.42004  0.26650  0.08390  1.0000
  Fe  Fe5       1.0  0.42503  0.36178  0.08230  1.0000
  S   S8        1.0  0.39251  0.37160  0.06137  1.0000
  Fe  Fe6       1.0  0.45677  0.35880  0.13594  1.0000
  N   N1        1.0  0.43613  0.25261  0.19292  1.0000
  S   S9        1.0  0.44805  0.34633  0.05532  1.0000
  H   H6        1.0  0.13379  0.46846  0.01929  1.0000
  C   C2        1.0  0.99020  0.42579  0.06407  1.0000
  C   C3        1.0  0.45384  0.99637  0.03951  1.0000
  C   C4        1.0  0.46700  0.18857  0.26677  1.0000
  H   H7        1.0  0.31933  0.27991  0.09184  1.0000
  C   C5        1.0  0.02800  0.38297  0.02897  1.0000
  H   H8        1.0  0.46158  0.09614  0.23480  1.0000
  H   H9        1.0  0.06668  0.35812  0.06685  1.0000
  H   H10       1.0  0.34729  0.25866  0.07167  1.0000
  H   H11       1.0  0.20557  0.40303  0.00465  1.0000
  H   H12       1.0  0.46176  0.98972  0.10481  1.0000
  C   C6        1.0  0.46433  0.01123  0.10131  1.0000
  C   C7        1.0  0.46069  0.21159  0.10647  1.0000
  C   C8        1.0  0.00108  0.36023  0.03704  1.0000
  C   C9        1.0  0.45507  0.35668  0.21452  1.0000
  C   C10       1.0  0.35013  0.24890  0.01709  1.0000
  C   C11       1.0  0.45894  0.35334  0.26498  1.0000
  C   C12       1.0  0.43364  0.35408  0.26893  1.0000
  C   C13       1.0  0.41879  0.35540  0.24542  1.0000
  C   C14       1.0  0.42931  0.35652  0.21835  1.0000
  H   H13       1.0  0.47044  0.35198  0.28280  1.0000
  C   C15       1.0  0.39103  0.99945  0.04626  1.0000
  H   H14       1.0  0.39913  0.35586  0.24819  1.0000
  H   H15       1.0  0.41782  0.35791  0.20055  1.0000
  H   H16       1.0  0.44252  0.21150  0.30049  1.0000
  C   C16       1.0  0.36882  0.38527  0.01702  1.0000
  C   C17       1.0  0.39042  0.37952  0.02561  1.0000
  H   H17       1.0  0.32074  0.99789  0.03236  1.0000
  H   H18       1.0  0.35418  0.38537  0.03226  1.0000
  H   H19       1.0  0.99373  0.44909  0.27815  1.0000
  H   H20       1.0  0.40117  0.46901  0.01683  1.0000
  H   H21       1.0  0.42065  0.29430  0.17513  1.0000
  C   C18       1.0  0.40922  0.37968  0.00553  1.0000
  C   C19       1.0  0.43621  0.24594  0.09310  1.0000
  C   C20       1.0  0.41889  0.21624  0.09671  1.0000
  C   C21       1.0  0.43102  0.19914  0.10344  1.0000
  H   H22       1.0  0.44849  0.01906  0.17001  1.0000
  H   H23       1.0  0.39692  0.19402  0.19299  1.0000
  H   H24       1.0  0.39596  0.20634  0.09406  1.0000
  H   H25       1.0  0.41747  0.17628  0.10576  1.0000
  C   C22       1.0  0.40299  0.02854  0.05329  1.0000
  C   C23       1.0  0.44187  0.22868  0.18556  1.0000
  H   H26       1.0  0.40777  0.15384  0.18890  1.0000
  C   C24       1.0  0.41259  0.04859  0.03177  1.0000
  C   C25       1.0  0.46584  0.25838  0.09626  1.0000
  H   H27       1.0  0.42160  0.07100  0.03664  1.0000
  C   C26       1.0  0.44185  0.08513  0.30343  1.0000
  C   C27       1.0  0.41651  0.08611  0.30111  1.0000
  C   C28       1.0  0.40769  0.09116  0.27509  1.0000
  C   C29       1.0  0.42374  0.09472  0.25089  1.0000
  C   C30       1.0  0.44903  0.09359  0.25317  1.0000
  C   C31       1.0  0.45794  0.08875  0.27923  1.0000
  H   H28       1.0  0.40350  0.08261  0.31933  1.0000
  H   H29       1.0  0.38799  0.09175  0.27362  1.0000
  C   C32       1.0  0.09543  0.35232  0.03926  1.0000
  H   H30       1.0  0.02876  0.45864  0.08477  1.0000
  H   H31       1.0  0.45603  0.28876  0.24459  1.0000
  C   C33       1.0  0.46374  0.28062  0.18961  1.0000
  H   H32       1.0  0.42622  0.37577  0.01170  1.0000
  H   H33       1.0  0.00378  0.41099  0.29259  1.0000
  H   H34       1.0  0.02808  0.42515  0.07891  1.0000
  H   H35       1.0  0.35240  0.31065  0.03981  1.0000
  H   H36       1.0  0.15581  0.39410  0.02053  1.0000
  C   C34       1.0  0.47797  0.24128  0.10282  1.0000
  H   H37       1.0  0.37852  0.29350  0.07006  1.0000
  H   H38       1.0  0.48248  0.98816  0.06359  1.0000
  H   H39       1.0  0.46575  0.44632  0.23314  1.0000
  C   C35       1.0  0.41607  0.26930  0.26633  1.0000
  H   H40       1.0  0.10495  0.43250  0.02423  1.0000
  H   H41       1.0  0.42419  0.00688  0.14088  1.0000
  H   H42       1.0  0.07908  0.33507  0.08017  1.0000
  H   H43       1.0  0.44871  0.47873  0.02126  1.0000
  H   H44       1.0  0.41346  0.17383  0.15744  1.0000
  H   H45       1.0  0.46276  0.23295  0.19439  1.0000
  H   H46       1.0  0.31276  0.00674  0.08030  1.0000
  C   C36       1.0  0.38879  0.99050  0.01828  1.0000
  H   H47       1.0  0.01504  0.42621  0.02912  1.0000
  H   H48       1.0  0.44395  0.22759  0.16262  1.0000
  H   H49       1.0  0.47031  0.21053  0.26743  1.0000
  C   C37       1.0  0.45966  0.24915  0.32588  1.0000
  C   C38       1.0  0.41007  0.03962  0.00378  1.0000
  H   H50       1.0  0.38766  0.26836  0.13478  1.0000
  H   H51       1.0  0.01614  0.45923  0.03478  1.0000
  H   H52       1.0  0.32923  0.19743  0.04623  1.0000
  H   H53       1.0  0.32463  0.19010  0.00932  1.0000
  H   H54       1.0  0.44365  0.17936  0.17819  1.0000
  C   C39       1.0  0.08550  0.35495  0.06826  1.0000
  H   H55       1.0  0.47734  0.08762  0.28058  1.0000
  H   H56       1.0  0.36412  0.24755  0.03340  1.0000
  C   C40       1.0  0.42619  0.24900  0.22281  1.0000
  H   H57       1.0  0.00640  0.42779  0.10571  1.0000
  H   H58       1.0  0.11387  0.34874  0.04152  1.0000
  C   C41       1.0  0.31869  0.22539  0.02263  1.0000
  H   H59       1.0  0.47511  0.26268  0.30967  1.0000
  C   C42       1.0  0.41909  0.19814  0.19530  1.0000
  C   C43       1.0  0.35487  0.28167  0.06858  1.0000
  C   C44       1.0  0.40282  0.27199  0.17747  1.0000
  H   H60       1.0  0.47352  0.16256  0.23624  1.0000
  C   C45       1.0  0.47812  0.18492  0.23878  1.0000
  H   H61       1.0  0.04172  0.39829  0.04438  1.0000
  C   C46       1.0  0.11998  0.44772  0.00873  1.0000
  H   H62       1.0  0.30969  0.23027  0.04110  1.0000
  H   H63       1.0  0.46469  0.28836  0.14480  1.0000
  H   H64       1.0  0.46063  0.29909  0.19376  1.0000
  H   H65       1.0  0.15285  0.43604  0.01210  1.0000
  H   H66       1.0  0.39391  0.22889  0.17455  1.0000
  H   H67       1.0  0.03249  0.44581  0.30237  1.0000
  C   C47       1.0  0.34309  0.29127  0.09251  1.0000
  H   H68       1.0  0.42773  0.16414  0.30934  1.0000
  H   H69       1.0  0.39877  0.29522  0.02951  1.0000
  H   H70       1.0  0.46123  0.42060  0.20692  1.0000
  C   C48       1.0  0.41329  0.25039  0.17324  1.0000
  H   H71       1.0  0.99866  0.46209  0.31305  1.0000
  S   S10       1.0  0.47277  0.11606  0.10536  1.0000
  H   H72       1.0  0.07729  0.33315  0.02958  1.0000
  H   H73       1.0  0.08334  0.37981  0.01809  1.0000
  C   C49       1.0  0.42126  0.17500  0.17898  1.0000
  H   H74       1.0  0.44378  0.17280  0.26732  1.0000
  H   H75       1.0  0.45038  0.42926  0.04221  1.0000
  H   H76       1.0  0.42049  0.25499  0.27931  1.0000
  H   H77       1.0  0.37322  0.28338  0.15896  1.0000
  C   C50       1.0  0.37964  0.26695  0.15626  1.0000
  H   H78       1.0  0.42800  0.29110  0.22735  1.0000
  H   H79       1.0  0.36044  0.24555  0.15922  1.0000
  C   C51       1.0  0.47435  0.43287  0.22510  1.0000
  C   C52       1.0  0.34501  0.28737  0.04023  1.0000
  C   C53       1.0  0.10352  0.37937  0.02170  1.0000
  C   C54       1.0  0.01501  0.43502  0.08450  1.0000
  C   C55       1.0  0.44237  0.16009  0.32219  1.0000
  H   H80       1.0  0.42243  0.19536  0.21758  1.0000
  H   H81       1.0  0.34978  0.28637  0.11259  1.0000
  H   H82       1.0  0.35151  0.31468  0.09147  1.0000
  H   H83       1.0  0.36127  0.47798  0.00980  1.0000
  H   H84       1.0  0.40274  0.23358  0.22402  1.0000
  H   H85       1.0  0.11708  0.39797  0.03527  1.0000
  H   H86       1.0  0.42242  0.28924  0.27822  1.0000
  H   H87       1.0  0.44050  0.14021  0.31357  1.0000
  C   C56       1.0  0.31659  0.19648  0.02760  1.0000
  H   H88       1.0  0.29389  0.17990  0.03111  1.0000
  C   C57       1.0  0.00974  0.42968  0.30630  1.0000
  S   S11       1.0  0.47084  0.36041  0.18128  1.0000
  H   H89       1.0  0.10300  0.37316  0.07975  1.0000
  H   H90       1.0  0.39262  0.32160  0.01488  1.0000
  H   H91       1.0  0.42540  0.44463  0.00654  1.0000
  C   C58       1.0  0.99074  0.44257  0.30033  1.0000
  H   H92       1.0  0.46093  0.04537  0.06506  1.0000
  H   H93       1.0  0.43663  0.23944  0.23537  1.0000
  S   S12       1.0  0.46419  0.39413  0.10599  1.0000
  C   C59       1.0  0.47834  0.28634  0.16085  1.0000
  C   C60       1.0  0.38730  0.29901  0.01228  1.0000
  N   N2        1.0  0.35546  0.27901  0.01484  1.0000
  C   C61       1.0  0.00144  0.43567  0.03405  1.0000
  S   S13       1.0  0.47748  0.19133  0.11447  1.0000
  C   C62       1.0  0.44412  0.00848  0.14939  1.0000
  C   C63       1.0  0.45101  0.21779  0.32181  1.0000
  H   H94       1.0  0.00758  0.42270  0.32830  1.0000
  C   C64       1.0  0.44611  0.46484  0.00312  1.0000
  H   H95       1.0  0.47956  0.28200  0.20534  1.0000
  H   H96       1.0  0.45201  0.01420  0.03033  1.0000
  H   H97       1.0  0.47323  0.08247  0.02776  1.0000
  H   H98       1.0  0.47892  0.46527  0.04940  1.0000
  H   H99       1.0  0.47227  0.41763  0.24165  1.0000
  H   H100      1.0  0.47947  0.28113  0.09320  1.0000
  S   S14       1.0  0.47518  0.14014  0.16865  1.0000
  H   H101      1.0  0.48271  0.26912  0.15485  1.0000
  H   H102      1.0  0.44043  0.25158  0.32464  1.0000
  S   S15       1.0  0.99113  0.35602  0.07276  1.0000
  C   C65       1.0  0.46968  0.35488  0.23798  1.0000
  C   C66       1.0  0.47142  0.44684  0.03500  1.0000
  C   C67       1.0  0.46912  0.45566  0.00537  1.0000
  C   C68       1.0  0.98389  0.34029  0.01692  1.0000
  N   N3        1.0  0.47293  0.18412  0.31994  1.0000
  H   H103      1.0  0.46721  0.18954  0.22177  1.0000
  C   C69       1.0  0.47657  0.21290  0.32771  1.0000
  C   C70       1.0  0.48232  0.00746  0.05581  1.0000
  H   H104      1.0  0.33653  0.99245  0.07921  1.0000
  H   H105      1.0  0.14389  0.36190  0.00201  1.0000
  C   C71       1.0  0.46931  0.02602  0.12999  1.0000
  S   S16       1.0  0.48249  0.34458  0.11057  1.0000
  H   H106      1.0  0.47835  0.04611  0.30717  1.0000
  H   H107      1.0  0.47833  0.01266  0.30569  1.0000
  H   H108      1.0  0.47182  0.04755  0.12784  1.0000
  H   H109      1.0  0.30499  0.22304  0.00446  1.0000
  H   H110      1.0  0.44435  0.31382  0.00189  1.0000
  H   H111      1.0  0.07788  0.36977  0.50205  1.0000
  S   S17       1.0  0.45481  0.06314  0.41698  1.0000
  Fe  Fe7       1.0  0.45605  0.13653  0.41879  1.0000
  S   S18       1.0  0.41729  0.09532  0.40479  1.0000
  S   S19       1.0  0.15111  0.46930  0.62977  1.0000
  Fe  Fe8       1.0  0.42644  0.07445  0.44178  1.0000
  S   S20       1.0  0.39408  0.04626  0.47556  1.0000
  Fe  Fe9       1.0  0.44872  0.08708  0.38119  1.0000
  S   S21       1.0  0.46264  0.11653  0.45689  1.0000
  H   H112      1.0  0.06494  0.47268  0.53987  1.0000
  N   N4        1.0  0.00042  0.46983  0.48928  1.0000
  Fe  Fe10      1.0  0.39265  0.46445  0.61474  1.0000
  S   S22       1.0  0.38197  0.41901  0.61999  1.0000
  Fe  Fe11      1.0  0.33137  0.44638  0.59730  1.0000
  S   S23       1.0  0.31722  0.39968  0.60117  1.0000
  S   S24       1.0  0.30308  0.46606  0.58926  1.0000
  H   H113      1.0  0.01520  0.46117  0.39320  1.0000
  Fe  Fe12      1.0  0.35884  0.41091  0.57917  1.0000
  S   S25       1.0  0.36339  0.38075  0.54817  1.0000
  H   H114      1.0  0.38970  0.13016  0.37371  1.0000
  S   S26       1.0  0.37154  0.45711  0.57283  1.0000
  Fe  Fe13      1.0  0.44035  0.31127  0.38889  1.0000
  S   S27       1.0  0.41190  0.33020  0.38146  1.0000
  S   S28       1.0  0.41615  0.26327  0.39714  1.0000
  H   H115      1.0  0.99653  0.42609  0.52529  1.0000
  C   C72       1.0  0.03003  0.47735  0.49896  1.0000
  Fe  Fe14      1.0  0.44371  0.36754  0.40724  1.0000
  S   S29       1.0  0.43402  0.39602  0.43585  1.0000
  Fe  Fe15      1.0  0.43962  0.35138  0.34410  1.0000
  H   H116      1.0  0.34676  0.26904  0.45794  1.0000
  C   C73       1.0  0.39175  0.40032  0.36561  1.0000
  Fe  Fe16      1.0  0.13984  0.43071  0.60340  1.0000
  S   S30       1.0  0.09810  0.40263  0.62577  1.0000
  S   S31       1.0  0.16690  0.40995  0.59375  1.0000
  H   H117      1.0  0.47108  0.02478  0.33794  1.0000
  S   S32       1.0  0.08428  0.45412  0.61999  1.0000
  C   C74       1.0  0.39745  0.13562  0.35201  1.0000
  Fe  Fe17      1.0  0.07798  0.41742  0.59316  1.0000
  S   S33       1.0  0.03458  0.38791  0.57209  1.0000
  H   H118      1.0  0.27804  0.28019  0.35472  1.0000
  S   S34       1.0  0.11889  0.44301  0.56974  1.0000
  H   H119      1.0  0.27089  0.35591  0.64975  1.0000
  H   H120      1.0  0.43826  0.14034  0.36274  1.0000
  C   C75       1.0  0.02238  0.38643  0.53726  1.0000
  S   S35       1.0  0.98982  0.37837  0.44662  1.0000
  H   H121      1.0  0.47795  0.02678  0.49081  1.0000
  C   C76       1.0  0.00150  0.38070  0.48179  1.0000
  C   C77       1.0  0.02988  0.40135  0.48874  1.0000
  C   C78       1.0  0.04025  0.40426  0.51623  1.0000
  H   H122      1.0  0.44751  0.13744  0.51045  1.0000
  H   H123      1.0  0.30884  0.28999  0.39546  1.0000
  H   H124      1.0  0.04399  0.41515  0.47267  1.0000
  H   H125      1.0  0.06211  0.42018  0.52109  1.0000
  C   C79       1.0  0.26519  0.44990  0.59108  1.0000
  C   C80       1.0  0.24704  0.42035  0.58884  1.0000
  C   C81       1.0  0.21706  0.40854  0.58968  1.0000
  C   C82       1.0  0.20484  0.42608  0.59283  1.0000
  C   C83       1.0  0.22300  0.45563  0.59509  1.0000
  C   C84       1.0  0.46146  0.25326  0.40459  1.0000
  H   H126      1.0  0.25610  0.40666  0.58585  1.0000
  H   H127      1.0  0.20324  0.38569  0.58770  1.0000
  H   H128      1.0  0.30501  0.34506  0.39846  1.0000
  H   H129      1.0  0.00273  0.48740  0.62271  1.0000
  C   C85       1.0  0.38560  0.38650  0.51846  1.0000
  C   C86       1.0  0.39860  0.41226  0.50369  1.0000
  C   C87       1.0  0.41381  0.41489  0.47892  1.0000
  C   C88       1.0  0.41666  0.39202  0.46861  1.0000
  C   C89       1.0  0.40440  0.36654  0.48382  1.0000
  C   C90       1.0  0.38875  0.36374  0.50832  1.0000
  H   H130      1.0  0.39633  0.42994  0.51099  1.0000
  H   H131      1.0  0.42315  0.43473  0.46748  1.0000
  H   H132      1.0  0.40649  0.34877  0.47647  1.0000
  H   H133      1.0  0.37885  0.34369  0.51946  1.0000
  C   C91       1.0  0.45522  0.20564  0.41223  1.0000
  C   C92       1.0  0.42554  0.19399  0.41064  1.0000
  C   C93       1.0  0.41394  0.21192  0.40594  1.0000
  C   C94       1.0  0.43181  0.24163  0.40293  1.0000
  S   S36       1.0  0.46918  0.39031  0.36899  1.0000
  H   H134      1.0  0.42414  0.13595  0.53780  1.0000
  H   H135      1.0  0.41156  0.17122  0.41312  1.0000
  H   H136      1.0  0.39097  0.20275  0.40481  1.0000
  Fe  Fe18      1.0  0.12625  0.47896  0.59835  1.0000
  H   H137      1.0  0.17555  0.41165  0.66147  1.0000
  C   C95       1.0  0.39567  0.02318  0.50131  1.0000
  C   C96       1.0  0.41153  0.00939  0.49759  1.0000
  C   C97       1.0  0.03838  0.48036  0.62674  1.0000
  H   H138      1.0  0.43691  0.17274  0.36402  1.0000
  H   H139      1.0  0.44817  0.01966  0.62599  1.0000
  H   H140      1.0  0.42315  0.01244  0.47844  1.0000
  C   C98       1.0  0.12472  0.42095  0.49951  1.0000
  C   C99       1.0  0.99403  0.45237  0.46295  1.0000
  H   H141      1.0  0.46954  0.25685  0.34664  1.0000
  H   H142      1.0  0.43086  0.05105  0.56513  1.0000
  Fe  Fe19      1.0  0.10833  0.44215  0.65043  1.0000
  H   H143      1.0  0.02569  0.45989  0.63805  1.0000
  H   H144      1.0  0.32575  0.31761  0.37015  1.0000
  H   H145      1.0  0.11792  0.36020  0.61897  1.0000
  H   H146      1.0  0.11427  0.43166  0.50990  1.0000
  H   H147      1.0  0.43058  0.10057  0.56312  1.0000
  H   H148      1.0  0.36788  0.02882  0.52944  1.0000
  H   H149      1.0  0.11512  0.41380  0.47856  1.0000
  H   H150      1.0  0.46497  0.13173  0.55609  1.0000
  C   C100      1.0  0.38027  0.01834  0.52625  1.0000
  H   H151      1.0  0.45070  0.08070  0.58765  1.0000
  H   H152      1.0  0.48091  0.21699  0.35042  1.0000
  H   H153      1.0  0.27883  0.31371  0.35874  1.0000
  H   H154      1.0  0.43954  0.40223  0.62323  1.0000
  H   H155      1.0  0.23220  0.38100  0.63611  1.0000
  C   C101      1.0  0.41236  0.99156  0.51862  1.0000
  C   C102      1.0  0.44162  0.03323  0.61438  1.0000
  H   H156      1.0  0.27058  0.39936  0.63328  1.0000
  H   H157      1.0  0.46292  0.06401  0.48975  1.0000
  C   C103      1.0  0.45289  0.06609  0.57287  1.0000
  H   H158      1.0  0.29829  0.35741  0.49001  1.0000
  C   C104      1.0  0.36802  0.37166  0.37658  1.0000
  C   C105      1.0  0.46242  0.04816  0.59045  1.0000
  H   H159      1.0  0.28137  0.44191  0.64722  1.0000
  H   H160      1.0  0.24914  0.34918  0.61922  1.0000
  C   C106      1.0  0.30836  0.30832  0.38564  1.0000
  H   H161      1.0  0.46883  0.10591  0.51356  1.0000
  H   H162      1.0  0.43578  0.43773  0.65084  1.0000
  H   H163      1.0  0.03222  0.45793  0.49938  1.0000
  C   C107      1.0  0.45606  0.09358  0.53163  1.0000
  H   H164      1.0  0.02404  0.48102  0.54403  1.0000
  S   S37       1.0  0.35436  0.45843  0.63848  1.0000
  H   H165      1.0  0.38835  0.14820  0.34284  1.0000
  N   N5        1.0  0.47203  0.08273  0.54887  1.0000
  S   S38       1.0  0.46566  0.33004  0.34988  1.0000
  H   H166      1.0  0.23224  0.33736  0.65262  1.0000
  H   H167      1.0  0.34941  0.36429  0.36238  1.0000
  H   H168      1.0  0.40633  0.38428  0.64206  1.0000
  H   H169      1.0  0.41354  0.10514  0.51595  1.0000
  H   H170      1.0  0.47545  0.27608  0.40247  1.0000
  H   H171      1.0  0.46288  0.03123  0.57781  1.0000
  C   C108      1.0  0.01226  0.46840  0.43712  1.0000
  C   C109      1.0  0.98353  0.36314  0.50289  1.0000
  C   C110      1.0  0.38138  0.00077  0.54743  1.0000
  H   H172      1.0  0.34862  0.38768  0.40407  1.0000
  C   C111      1.0  0.27993  0.29639  0.37008  1.0000
  H   H173      1.0  0.41956  0.01922  0.60637  1.0000
  C   C112      1.0  0.47306  0.23533  0.40917  1.0000
  Fe  Fe20      1.0  0.34237  0.41261  0.64137  1.0000
  H   H174      1.0  0.35141  0.27667  0.42130  1.0000
  H   H175      1.0  0.99557  0.28283  0.53443  1.0000
  N   N6        1.0  0.08247  0.34658  0.53661  1.0000
  C   C113      1.0  0.05094  0.33091  0.54348  1.0000
  C   C114      1.0  0.10019  0.35410  0.56296  1.0000
  C   C115      1.0  0.08908  0.37415  0.52241  1.0000
  C   C116      1.0  0.09032  0.32987  0.51691  1.0000
  C   C117      1.0  0.08163  0.29901  0.52547  1.0000
  C   C118      1.0  0.03006  0.32325  0.51856  1.0000
  C   C119      1.0  0.12121  0.39554  0.51657  1.0000
  C   C120      1.0  0.08796  0.33239  0.58732  1.0000
  C   C121      1.0  0.11051  0.33883  0.60970  1.0000
  C   C122      1.0  0.08723  0.28349  0.50191  1.0000
  H   H176      1.0  0.27205  0.47787  0.66547  1.0000
  H   H177      1.0  0.21397  0.46943  0.59734  1.0000
  H   H178      1.0  0.04626  0.34389  0.55824  1.0000
  H   H179      1.0  0.04456  0.31075  0.55472  1.0000
  H   H180      1.0  0.12226  0.35850  0.55830  1.0000
  H   H181      1.0  0.10320  0.37445  0.57193  1.0000
  H   H182      1.0  0.08078  0.38572  0.53507  1.0000
  H   H183      1.0  0.20103  0.44675  0.64861  1.0000
  H   H184      1.0  0.08144  0.32916  0.49586  1.0000
  H   H185      1.0  0.11389  0.34093  0.51396  1.0000
  H   H186      1.0  0.05861  0.28615  0.53069  1.0000
  H   H187      1.0  0.09478  0.29945  0.54338  1.0000
  H   H188      1.0  0.03153  0.34281  0.50951  1.0000
  H   H189      1.0  0.03464  0.31181  0.50208  1.0000
  H   H190      1.0  0.37625  0.35666  0.37539  1.0000
  H   H191      1.0  0.13334  0.40390  0.53625  1.0000
  H   H192      1.0  0.06998  0.33359  0.59720  1.0000
  H   H193      1.0  0.07965  0.31012  0.58047  1.0000
  H   H194      1.0  0.33398  0.38706  0.49605  1.0000
  H   H195      1.0  0.10115  0.32269  0.62649  1.0000
  H   H196      1.0  0.12921  0.33823  0.60089  1.0000
  H   H197      1.0  0.07404  0.28162  0.48342  1.0000
  H   H198      1.0  0.11023  0.29508  0.49607  1.0000
  H   H199      1.0  0.08145  0.26163  0.50873  1.0000
  C   C123      1.0  0.43001  0.39593  0.64427  1.0000
  H   H200      1.0  0.39726  0.39757  0.34405  1.0000
  C   C124      1.0  0.25297  0.46742  0.59416  1.0000
  C   C125      1.0  0.43204  0.12340  0.52643  1.0000
  C   C126      1.0  0.43013  0.15301  0.35197  1.0000
  H   H201      1.0  0.99366  0.31391  0.54508  1.0000
  N   N7        1.0  0.34028  0.34740  0.42203  1.0000
  C   C127      1.0  0.35585  0.33083  0.42504  1.0000
  C   C128      1.0  0.35922  0.37470  0.40641  1.0000
  C   C129      1.0  0.33590  0.35571  0.45081  1.0000
  C   C130      1.0  0.31141  0.33035  0.40806  1.0000
  H   H202      1.0  0.38975  0.11547  0.34014  1.0000
  C   C131      1.0  0.34260  0.30548  0.44571  1.0000
  C   C132      1.0  0.32341  0.37604  0.45239  1.0000
  H   H203      1.0  0.37946  0.29907  0.44547  1.0000
  C   C133      1.0  0.99905  0.30397  0.52768  1.0000
  H   H204      1.0  0.14784  0.43676  0.49708  1.0000
  C   C134      1.0  0.35589  0.28645  0.44232  1.0000
  C   C135      1.0  0.31503  0.37854  0.48212  1.0000
  H   H205      1.0  0.37829  0.34526  0.43187  1.0000
  H   H206      1.0  0.35801  0.32238  0.40485  1.0000
  H   H207      1.0  0.43649  0.07519  0.52264  1.0000
  H   H208      1.0  0.37913  0.38818  0.41863  1.0000
  H   H209      1.0  0.35648  0.36624  0.46240  1.0000
  H   H210      1.0  0.32127  0.33640  0.46305  1.0000
  H   H211      1.0  0.29447  0.31787  0.42369  1.0000
  C   C136      1.0  0.44645  0.11272  0.54670  1.0000
  H   H212      1.0  0.30650  0.39344  0.48277  1.0000
  H   H213      1.0  0.44157  0.04914  0.62892  1.0000
  H   H214      1.0  0.34682  0.31362  0.46740  1.0000
  H   H215      1.0  0.31910  0.29224  0.44279  1.0000
  H   H216      1.0  0.30414  0.36834  0.43907  1.0000
  H   H217      1.0  0.33967  0.39792  0.44576  1.0000
  H   H218      1.0  0.26166  0.28597  0.38472  1.0000
  H   H219      1.0  0.41133  0.40823  0.37862  1.0000
  H   H220      1.0  0.13136  0.38553  0.50458  1.0000
  H   H221      1.0  0.37043  0.99840  0.56684  1.0000
  S   S39       1.0  0.47082  0.34749  0.41692  1.0000
  H   H222      1.0  0.98441  0.30071  0.51006  1.0000
  C   C137      1.0  0.99390  0.36609  0.53038  1.0000
  H   H223      1.0  0.03892  0.47548  0.60442  1.0000
  H   H224      1.0  0.03515  0.47538  0.44066  1.0000
  H   H225      1.0  0.45942  0.04057  0.53295  1.0000
  H   H226      1.0  0.38471  0.41642  0.36554  1.0000
  H   H227      1.0  0.43669  0.38134  0.65349  1.0000
  H   H228      1.0  0.00544  0.43044  0.41469  1.0000
  C   C138      1.0  0.47793  0.06266  0.53189  1.0000
  S   S40       1.0  0.47139  0.18435  0.41738  1.0000
  H   H229      1.0  0.23288  0.42484  0.64808  1.0000
  C   C139      1.0  0.25099  0.35464  0.64163  1.0000
  C   C140      1.0  0.25206  0.38324  0.64531  1.0000
  C   C141      1.0  0.00242  0.44910  0.41151  1.0000
  H   H230      1.0  0.99728  0.43381  0.46616  1.0000
  C   C142      1.0  0.19191  0.43373  0.66758  1.0000
  S   S41       1.0  0.45349  0.07771  0.33550  1.0000
  H   H231      1.0  0.43322  0.20509  0.33643  1.0000
  H   H232      1.0  0.01044  0.48741  0.43194  1.0000
  C   C143      1.0  0.44022  0.42259  0.66232  1.0000
  H   H233      1.0  0.46371  0.43239  0.66471  1.0000
  H   H234      1.0  0.32434  0.98983  0.49432  1.0000
  C   C144      1.0  0.99387  0.34260  0.98943  1.0000
  Fe  Fe21      1.0  0.30617  0.42255  0.89213  1.0000
  S   S42       1.0  0.32318  0.39542  0.87332  1.0000
  S   S43       1.0  0.25725  0.40167  0.89453  1.0000
  H   H235      1.0  0.28798  0.46393  0.82179  1.0000
  S   S44       1.0  0.38644  0.44954  0.88051  1.0000
  Fe  Fe22      1.0  0.35182  0.43473  0.84803  1.0000
  S   S45       1.0  0.36679  0.44529  0.80264  1.0000
  Fe  Fe23      1.0  0.35646  0.41317  0.90793  1.0000
  S   S46       1.0  0.37929  0.39336  0.93228  1.0000
  S   S47       1.0  0.33363  0.46088  0.86563  1.0000
  S   S48       1.0  0.33760  0.43752  0.92790  1.0000
  S   S49       1.0  0.32665  0.38886  0.68263  1.0000
  S   S50       1.0  0.10734  0.45331  0.69625  1.0000
  Fe  Fe24      1.0  0.13091  0.43885  0.90517  1.0000
  S   S51       1.0  0.09916  0.39349  0.89418  1.0000
  S   S52       1.0  0.17671  0.45444  0.91978  1.0000
  H   H236      1.0  0.46308  0.43687  0.99173  1.0000
  S   S53       1.0  0.05358  0.41429  0.88076  1.0000
  Fe  Fe25      1.0  0.06735  0.40017  0.91888  1.0000
  S   S54       1.0  0.03294  0.36577  0.94686  1.0000
  Fe  Fe26      1.0  0.08858  0.41237  0.85736  1.0000
  S   S55       1.0  0.08465  0.39225  0.81471  1.0000
  S   S56       1.0  0.09985  0.44461  0.93217  1.0000
  H   H237      1.0  0.27969  0.40173  0.72842  1.0000
  H   H238      1.0  0.06962  0.47103  0.81013  1.0000
  S   S57       1.0  0.39489  0.00051  0.96083  1.0000
  H   H239      1.0  0.15334  0.45358  0.98083  1.0000
  C   C145      1.0  0.10112  0.43567  0.72884  1.0000
  C   C146      1.0  0.10400  0.45130  0.75321  1.0000
  C   C147      1.0  0.09920  0.43842  0.77961  1.0000
  C   C148      1.0  0.09121  0.40960  0.78196  1.0000
  C   C149      1.0  0.08863  0.39402  0.75764  1.0000
  C   C150      1.0  0.09363  0.40696  0.73122  1.0000
  H   H240      1.0  0.23785  0.47894  0.92077  1.0000
  H   H241      1.0  0.10146  0.45072  0.79809  1.0000
  C   C151      1.0  0.45822  0.46415  0.89993  1.0000
  H   H242      1.0  0.41261  0.48473  0.95470  1.0000
  C   C152      1.0  0.23547  0.41709  0.90140  1.0000
  C   C153      1.0  0.24697  0.44572  0.90914  1.0000
  C   C154      1.0  0.22871  0.45686  0.91446  1.0000
  C   C155      1.0  0.19882  0.43970  0.91175  1.0000
  C   C156      1.0  0.18734  0.41112  0.90391  1.0000
  C   C157      1.0  0.20554  0.39987  0.89899  1.0000
  H   H243      1.0  0.26991  0.45922  0.91125  1.0000
  C   C158      1.0  0.45185  0.46635  0.95187  1.0000
  H   H244      1.0  0.16439  0.39750  0.90227  1.0000
  H   H245      1.0  0.19641  0.37763  0.89324  1.0000
  C   C159      1.0  0.35175  0.42937  0.76999  1.0000
  C   C160      1.0  0.33402  0.39985  0.76670  1.0000
  C   C161      1.0  0.32623  0.38784  0.73986  1.0000
  C   C162      1.0  0.33573  0.40515  0.71602  1.0000
  C   C163      1.0  0.35228  0.43477  0.71936  1.0000
  C   C164      1.0  0.36028  0.44676  0.74617  1.0000
  H   H246      1.0  0.32730  0.38616  0.78478  1.0000
  H   H247      1.0  0.31320  0.36491  0.73755  1.0000
  H   H248      1.0  0.35930  0.44842  0.70130  1.0000
  H   H249      1.0  0.37367  0.46964  0.74847  1.0000
  C   C165      1.0  0.38379  0.38960  0.96859  1.0000
  C   C166      1.0  0.18180  0.46632  0.74281  1.0000
  C   C167      1.0  0.27974  0.42879  0.76077  1.0000
  C   C168      1.0  0.32837  0.31057  0.95678  1.0000
  H   H250      1.0  0.23505  0.40345  0.72245  1.0000
  C   C169      1.0  0.46721  0.45265  0.71708  1.0000
  H   H251      1.0  0.38282  0.39742  0.78191  1.0000
  C   C170      1.0  0.14695  0.38379  0.00007  1.0000
  H   H252      1.0  0.44064  0.44151  0.89917  1.0000
  Fe  Fe27      1.0  0.08778  0.45848  0.89297  1.0000
  N   N8        1.0  0.18878  0.43524  0.81413  1.0000
  H   H253      1.0  0.06975  0.33313  0.92740  1.0000
  C   C171      1.0  0.21321  0.43170  0.82512  1.0000
  C   C172      1.0  0.16228  0.40600  0.81255  1.0000
  C   C173      1.0  0.41435  0.47283  0.97270  1.0000
  H   H254      1.0  0.13179  0.41120  0.95945  1.0000
  C   C174      1.0  0.26646  0.44949  0.83061  1.0000
  C   C175      1.0  0.15332  0.38850  0.83989  1.0000
  C   C176      1.0  0.99417  0.44338  0.98553  1.0000
  C   C177      1.0  0.12141  0.40809  0.97997  1.0000
  H   H255      1.0  0.21103  0.39496  0.66924  1.0000
  H   H256      1.0  0.29730  0.42781  0.77184  1.0000
  C   C178      1.0  0.12932  0.35782  0.83489  1.0000
  H   H257      1.0  0.30502  0.29665  0.96026  1.0000
  H   H258      1.0  0.21496  0.46824  0.78425  1.0000
  C   C179      1.0  0.43568  0.48668  0.71942  1.0000
  H   H259      1.0  0.21012  0.41037  0.81927  1.0000
  H   H260      1.0  0.16501  0.39284  0.79634  1.0000
  H   H261      1.0  0.14338  0.40764  0.80610  1.0000
  H   H262      1.0  0.27535  0.39308  0.68354  1.0000
  H   H263      1.0  0.17839  0.44430  0.85487  1.0000
  C   C180      1.0  0.37010  0.47206  0.99183  1.0000
  C   C181      1.0  0.40942  0.39734  0.74786  1.0000
  S   S58       1.0  0.12196  0.45750  0.86716  1.0000
  C   C182      1.0  0.18272  0.45344  0.83358  1.0000
  H   H264      1.0  0.14533  0.39834  0.85500  1.0000
  H   H265      1.0  0.17134  0.38724  0.84940  1.0000
  H   H266      1.0  0.16395  0.39428  0.95712  1.0000
  H   H267      1.0  0.24597  0.45008  0.79273  1.0000
  H   H268      1.0  0.30135  0.43954  0.72175  1.0000
  N   N9        1.0  0.25543  0.41938  0.68283  1.0000
  H   H269      1.0  0.24913  0.47580  0.81806  1.0000
  H   H270      1.0  0.42268  0.47903  0.73859  1.0000
  H   H271      1.0  0.25430  0.44109  0.72043  1.0000
  C   C183      1.0  0.06123  0.48581  0.81353  1.0000
  H   H272      1.0  0.45872  0.47432  0.87976  1.0000
  C   C184      1.0  0.43339  0.31828  0.98470  1.0000
  H   H273      1.0  0.23753  0.37376  0.68791  1.0000
  H   H274      1.0  0.12266  0.34627  0.85498  1.0000
  H   H275      1.0  0.11039  0.35747  0.82538  1.0000
  H   H276      1.0  0.13674  0.34643  0.82103  1.0000
  H   H277      1.0  0.11940  0.37272  0.93653  1.0000
  H   H278      1.0  0.17932  0.42390  0.98034  1.0000
  C   C185      1.0  0.21564  0.43376  0.68503  1.0000
  H   H279      1.0  0.41852  0.40615  0.79206  1.0000
  H   H280      1.0  0.26690  0.45486  0.85290  1.0000
  H   H281      1.0  0.34854  0.39428  0.98259  1.0000
  C   C186      1.0  0.02817  0.45055  0.94597  1.0000
  C   C187      1.0  0.08749  0.32882  0.93172  1.0000
  H   H282      1.0  0.40714  0.45154  0.69253  1.0000
  H   H283      1.0  0.40150  0.40613  0.68692  1.0000
  H   H284      1.0  0.16262  0.45302  0.82749  1.0000
  C   C188      1.0  0.09913  0.35592  0.97729  1.0000
  H   H285      1.0  0.21375  0.40886  0.96815  1.0000
  C   C189      1.0  0.42979  0.46146  0.69981  1.0000
  H   H286      1.0  0.39989  0.44978  0.96780  1.0000
  C   C190      1.0  0.28799  0.47418  0.67650  1.0000
  C   C191      1.0  0.41886  0.42834  0.73864  1.0000
  C   C192      1.0  0.11089  0.35303  0.94896  1.0000
  H   H287      1.0  0.04742  0.48393  0.79560  1.0000
  H   H288      1.0  0.18112  0.44321  0.67952  1.0000
  H   H289      1.0  0.46793  0.00804  0.73343  1.0000
  C   C193      1.0  0.40016  0.39245  0.77827  1.0000
  C   C194      1.0  0.19666  0.39605  0.98345  1.0000
  C   C195      1.0  0.02067  0.36540  0.98131  1.0000
  C   C196      1.0  0.34532  0.31122  0.98248  1.0000
  H   H290      1.0  0.25911  0.41273  0.77017  1.0000
  H   H291      1.0  0.43089  0.44311  0.75605  1.0000
  H   H292      1.0  0.00561  0.41210  0.96936  1.0000
  C   C197      1.0  0.28054  0.42262  0.72994  1.0000
  H   H293      1.0  0.44315  0.47132  0.68109  1.0000
  N   N10       1.0  0.43545  0.43889  0.71180  1.0000
  C   C198      1.0  0.01591  0.43535  0.97353  1.0000
  C   C199      1.0  0.47839  0.43260  0.72630  1.0000
  C   C200      1.0  0.25506  0.42180  0.71406  1.0000
  H   H294      1.0  0.12826  0.34798  0.95221  1.0000
  H   H295      1.0  0.03942  0.47411  0.94859  1.0000
  H   H296      1.0  0.35643  0.24257  0.99756  1.0000
  H   H297      1.0  0.09419  0.33602  0.98842  1.0000
  H   H298      1.0  0.18800  0.45398  0.72893  1.0000
  H   H299      1.0  0.10988  0.47353  0.75162  1.0000
  H   H300      1.0  0.39185  0.30118  0.96652  1.0000
  C   C201      1.0  0.36560  0.39043  0.98880  1.0000
  N   N11       1.0  0.44482  0.47905  0.97646  1.0000
  C   C202      1.0  0.40576  0.38444  0.97727  1.0000
  C   C203      1.0  0.19507  0.44718  0.78499  1.0000
  C   C204      1.0  0.17124  0.40062  0.97867  1.0000
  H   H301      1.0  0.00585  0.46692  0.98907  1.0000
  H   H302      1.0  0.04811  0.47909  0.83272  1.0000
  H   H303      1.0  0.42004  0.38377  0.96195  1.0000
  H   H304      1.0  0.34405  0.27160  0.97121  1.0000
  C   C205      1.0  0.22883  0.41758  0.67010  1.0000
  C   C206      1.0  0.20696  0.48486  0.83699  1.0000
  H   H305      1.0  0.43604  0.44306  0.95042  1.0000
  H   H306      1.0  0.39203  0.36975  0.78385  1.0000
  H   H307      1.0  0.46914  0.98865  0.00063  1.0000
  H   H308      1.0  0.09134  0.39466  0.71271  1.0000
  C   C207      1.0  0.17147  0.45117  0.77071  1.0000
  H   H309      1.0  0.19922  0.43301  0.77133  1.0000
  H   H310      1.0  0.07883  0.30812  0.94279  1.0000
  H   H311      1.0  0.21342  0.43202  0.84825  1.0000
  C   C208      1.0  0.33955  0.28085  0.98987  1.0000
  C   C209      1.0  0.42485  0.41489  0.69084  1.0000
  H   H312      1.0  0.09651  0.32715  0.91157  1.0000
  H   H313      1.0  0.15214  0.43021  0.76646  1.0000
  H   H314      1.0  0.08250  0.37172  0.75923  1.0000
  C   C210      1.0  0.44676  0.99330  0.72400  1.0000
  H   H315      1.0  0.42648  0.39190  0.74543  1.0000
  H   H316      1.0  0.16530  0.46423  0.78355  1.0000
  C   C211      1.0  0.24391  0.45341  0.81513  1.0000
  H   H317      1.0  0.47945  0.46473  0.69844  1.0000
  H   H318      1.0  0.47139  0.42523  0.74785  1.0000
  H   H319      1.0  0.26200  0.42713  0.82881  1.0000
  C   C212      1.0  0.40114  0.48040  0.99769  1.0000
  H   H320      1.0  0.41732  0.05538  0.98740  1.0000
  H   H321      1.0  0.22477  0.48556  0.84921  1.0000
  H   H322      1.0  0.04375  0.44459  0.93797  1.0000
  Fe  Fe28      1.0  0.36672  0.47329  0.89929  1.0000
  H   H323      1.0  0.39846  0.42863  0.73717  1.0000
  H   H324      1.0  0.43038  0.99697  0.73412  1.0000
  H   H325      1.0  0.39081  0.38203  0.73505  1.0000
  H   H326      1.0  0.47093  0.41387  0.71238  1.0000
  H   H327      1.0  0.33495  0.30279  0.93845  1.0000
  C   C213      1.0  0.13881  0.43699  0.99581  1.0000
  H   H328      1.0  0.42647  0.39657  0.69888  1.0000
  H   H329      1.0  0.44277  0.31663  0.96478  1.0000
  H   H330      1.0  0.28294  0.45056  0.76366  1.0000
  H   H331      1.0  0.20589  0.42299  0.70497  1.0000
  H   H332      1.0  0.16429  0.46814  0.73261  1.0000
  H   H333      1.0  0.09986  0.40480  0.97463  1.0000
  H   H334      1.0  0.44715  0.99802  0.70152  1.0000
  H   H335      1.0  0.36823  0.32581  0.97796  1.0000
  H   H336      1.0  0.03421  0.44166  0.98790  1.0000
  H   H337      1.0  0.47391  0.46905  0.73368  1.0000
  H   H338      1.0  0.43278  0.47961  0.91870  1.0000
  H   H339      1.0  0.19015  0.37321  0.98053  1.0000
  H   H340      1.0  0.47900  0.46489  0.90289  1.0000
  H   H341      1.0  0.33263  0.33250  0.95221  1.0000
  C   C214      1.0  0.45305  0.48009  0.92334  1.0000
  H   H342      1.0  0.30135  0.44226  0.67619  1.0000
  H   H343      1.0  0.43734  0.34044  0.98678  1.0000
  C   C215      1.0  0.25518  0.39188  0.67639  1.0000
  H   H344      1.0  0.31246  0.99609  0.94235  1.0000
  C   C216      1.0  0.40130  0.29677  0.98497  1.0000
  H   H345      1.0  0.23178  0.45625  0.68956  1.0000
  H   H346      1.0  0.35681  0.44864  0.98850  1.0000
  H   H347      1.0  0.31605  0.26755  0.99311  1.0000
  H   H348      1.0  0.10750  0.45123  0.99245  1.0000
  H   H349      1.0  0.07813  0.35483  0.97377  1.0000
  H   H350      1.0  0.01096  0.44408  0.93020  1.0000
  H   H351      1.0  0.33896  0.32046  0.99973  1.0000
  N   N12       1.0  0.11848  0.38200  0.99446  1.0000
  H   H352      1.0  0.47290  0.46771  0.95428  1.0000
  H   H353      1.0  0.28736  0.47791  0.69900  1.0000
  H   H354      1.0  0.36877  0.48349  0.97321  1.0000
  H   H355      1.0  0.05786  0.40380  0.99524  1.0000
  H   H356      1.0  0.39873  0.27521  0.98264  1.0000
  C   C217      1.0  0.39811  0.01052  0.99673  1.0000
  C   C218      1.0  0.28215  0.44366  0.67023  1.0000
  C   C219      1.0  0.03736  0.38603  0.00114  1.0000
  H   H357      1.0  0.13215  0.64035  0.03674  1.0000
  H   H358      1.0  0.03420  0.67630  0.19368  1.0000
  C   C220      1.0  0.09144  0.60486  0.02336  1.0000
  H   H359      1.0  0.07819  0.63217  0.24472  1.0000
  C   C221      1.0  0.01145  0.63468  0.06394  1.0000
  C   C222      1.0  0.04101  0.64881  0.05806  1.0000
  H   H360      1.0  0.43523  0.98395  0.05331  1.0000
  H   H361      1.0  0.99053  0.60827  0.23884  1.0000
  H   H362      1.0  0.05616  0.65533  0.07504  1.0000
  C   C223      1.0  0.05987  0.58736  0.03298  1.0000
  H   H363      1.0  0.07056  0.68221  0.22530  1.0000
  H   H364      1.0  0.27638  0.88770  0.03592  1.0000
  H   H365      1.0  0.38358  0.98367  0.06264  1.0000
  N   N13       1.0  0.03295  0.64532  0.24241  1.0000
  H   H366      1.0  0.01621  0.53696  0.04622  1.0000
  H   H367      1.0  0.09300  0.61509  0.00310  1.0000
  H   H368      1.0  0.29848  0.93687  0.05395  1.0000
  C   C224      1.0  0.11038  0.66451  0.21890  1.0000
  C   C225      1.0  0.00320  0.68870  0.20320  1.0000
  H   H369      1.0  0.45269  0.95796  0.02351  1.0000
  C   C226      1.0  0.01833  0.63168  0.32222  1.0000
  H   H370      1.0  0.05273  0.66805  0.28032  1.0000
  H   H371      1.0  0.07848  0.50493  0.02191  1.0000
  H   H372      1.0  0.00773  0.57877  0.05179  1.0000
  H   H373      1.0  0.03989  0.59642  0.22765  1.0000
  H   H374      1.0  0.07404  0.66615  0.02649  1.0000
  C   C227      1.0  0.05127  0.65499  0.03048  1.0000
  H   H375      1.0  0.02674  0.61678  0.32457  1.0000
  H   H376      1.0  0.12781  0.66219  0.22857  1.0000
  H   H377      1.0  0.99722  0.52742  0.01455  1.0000
  H   H378      1.0  0.05754  0.65083  0.20495  1.0000
  H   H379      1.0  0.01141  0.61590  0.20872  1.0000
  H   H380      1.0  0.03258  0.68502  0.24665  1.0000
  H   H381      1.0  0.10170  0.64363  0.04635  1.0000
  C   C228      1.0  0.01273  0.61564  0.23169  1.0000
  C   C229      1.0  0.06111  0.65859  0.22685  1.0000
  C   C230      1.0  0.45166  0.97675  0.01569  1.0000
  H   H382      1.0  0.10941  0.61903  0.06481  1.0000
  H   H383      1.0  0.11905  0.68733  0.21334  1.0000
  H   H384      1.0  0.10110  0.59104  0.02120  1.0000
  C   C231      1.0  0.02014  0.59216  0.23864  1.0000
  H   H385      1.0  0.25580  0.91911  0.03135  1.0000
  H   H386      1.0  0.01924  0.71015  0.21110  1.0000
  C   C232      1.0  0.99225  0.62655  0.04161  1.0000
  H   H387      1.0  0.03834  0.51316  0.02991  1.0000
  H   H388      1.0  0.05967  0.57710  0.05306  1.0000
  H   H389      1.0  0.00226  0.54636  0.23385  1.0000
  H   H390      1.0  0.07165  0.54458  0.03846  1.0000
  H   H391      1.0  0.10327  0.65133  0.19970  1.0000
  C   C233      1.0  0.03213  0.64752  0.00822  1.0000
  C   C234      1.0  0.10968  0.62836  0.04420  1.0000
  H   H392      1.0  0.29334  0.85286  0.03314  1.0000
  H   H393      1.0  0.00111  0.64708  0.29119  1.0000
  C   C235      1.0  0.08550  0.65463  0.23925  1.0000
  C   C236      1.0  0.99641  0.56283  0.22888  1.0000
  H   H394      1.0  0.31373  0.90392  0.04403  1.0000
  C   C237      1.0  0.01938  0.66350  0.23707  1.0000
  H   H395      1.0  0.04902  0.63368  0.27858  1.0000
  H   H396      1.0  0.99800  0.65406  0.24706  1.0000
  C   C238      1.0  0.30867  0.95276  0.03697  1.0000
  C   C239      1.0  0.01431  0.66779  0.20609  1.0000
  H   H397      1.0  0.05308  0.60310  0.03837  1.0000
  H   H398      1.0  0.37980  0.96810  0.01340  1.0000
  S   S59       1.0  0.00010  0.62848  0.09946  1.0000
  C   C240      1.0  0.26407  0.92602  0.00991  1.0000
  H   H399      1.0  0.44088  0.98668  0.15225  1.0000
  C   C241      1.0  0.01162  0.54620  0.02758  1.0000
  H   H400      1.0  0.99895  0.69066  0.18097  1.0000
  C   C242      1.0  0.03799  0.64571  0.27330  1.0000
  C   C243      1.0  0.30547  0.91743  0.00383  1.0000
  C   C244      1.0  0.99443  0.56037  0.03800  1.0000
  C   C245      1.0  0.29777  0.89469  0.02693  1.0000
  H   H401      1.0  0.99325  0.56268  0.20607  1.0000
  H   H402      1.0  0.02281  0.59060  0.26127  1.0000
  H   H403      1.0  0.99491  0.61147  0.28524  1.0000
  H   H404      1.0  0.09399  0.66770  0.25842  1.0000
  C   C246      1.0  0.01097  0.63335  0.29188  1.0000
  C   C247      1.0  0.29809  0.86831  0.01599  1.0000
  H   H405      1.0  0.03436  0.65314  0.33013  1.0000
  C   C248      1.0  0.00255  0.63314  0.01404  1.0000
  H   H406      1.0  0.33186  0.95968  0.03793  1.0000
  C   C249      1.0  0.05826  0.53102  0.02108  1.0000
  H   H407      1.0  0.31941  0.87429  0.00728  1.0000
  H   H408      1.0  0.99801  0.64727  0.19672  1.0000
  H   H409      1.0  0.98285  0.68087  0.21481  1.0000
  H   H410      1.0  0.20527  0.88731  0.01090  1.0000
  N   N14       1.0  0.03909  0.56571  0.01248  1.0000
  C   C250      1.0  0.07468  0.51829  0.00693  1.0000
  H   H411      1.0  0.98682  0.56806  0.02039  1.0000
  H   H412      1.0  0.29949  0.96989  0.08939  1.0000
  N   N15       1.0  0.29627  0.93912  0.00915  1.0000
  C   C251      1.0  0.30589  0.97905  0.04498  1.0000
  H   H413      1.0  0.28367  0.97466  0.04179  1.0000
  H   H414      1.0  0.25815  0.94245  0.00458  1.0000
  H   H415      1.0  0.32911  0.92850  0.00140  1.0000
  C   C252      1.0  0.31415  0.98741  0.07535  1.0000
  H   H416      1.0  0.43095  0.96889  0.00461  1.0000
  H   H417      1.0  0.41302  0.50369  0.00186  1.0000
  Fe  Fe29      1.0  0.37911  0.93982  0.60942  1.0000
  S   S60       1.0  0.35942  0.89212  0.60373  1.0000
  C   C253      1.0  0.99054  0.51035  0.50607  1.0000
  C   C254      1.0  0.19111  0.63683  0.66230  1.0000
  Fe  Fe30      1.0  0.38275  0.89369  0.64288  1.0000
  H   H418      1.0  0.99466  0.56856  0.59344  1.0000
  Fe  Fe31      1.0  0.32423  0.88750  0.63196  1.0000
  S   S61       1.0  0.27615  0.86168  0.62405  1.0000
  S   S62       1.0  0.40457  0.94133  0.64758  1.0000
  S   S63       1.0  0.34229  0.93506  0.63541  1.0000
  C   C255      1.0  0.12459  0.53361  0.63433  1.0000
  S   S64       1.0  0.13730  0.52255  0.58223  1.0000
  Fe  Fe32      1.0  0.14916  0.69764  0.64358  1.0000
  S   S65       1.0  0.11194  0.70540  0.64922  1.0000
  S   S66       1.0  0.19703  0.72647  0.63513  1.0000
  H   H419      1.0  0.17007  0.63098  0.65310  1.0000
  H   H420      1.0  0.23344  0.59821  0.58570  1.0000
  H   H421      1.0  0.24709  0.69340  0.58677  1.0000
  Fe  Fe33      1.0  0.08530  0.66298  0.62662  1.0000
  S   S67       1.0  0.04463  0.64450  0.59906  1.0000
  H   H422      1.0  0.38005  0.91015  0.54131  1.0000
  S   S68       1.0  0.12317  0.65705  0.61853  1.0000
  C   C256      1.0  0.24229  0.69311  0.60926  1.0000
  H   H423      1.0  0.04396  0.51468  0.52585  1.0000
  C   C257      1.0  0.36294  0.89182  0.52960  1.0000
  C   C258      1.0  0.01829  0.63223  0.50601  1.0000
  C   C259      1.0  0.06791  0.49439  0.53684  1.0000
  C   C260      1.0  0.00745  0.61960  0.55489  1.0000
  C   C261      1.0  0.03559  0.63993  0.56291  1.0000
  C   C262      1.0  0.05512  0.65620  0.54218  1.0000
  C   C263      1.0  0.04641  0.65258  0.51403  1.0000
  C   C264      1.0  0.98656  0.67775  0.58400  1.0000
  C   C265      1.0  0.99896  0.49644  0.48245  1.0000
  H   H424      1.0  0.07677  0.67204  0.54786  1.0000
  H   H425      1.0  0.06158  0.66579  0.49832  1.0000
  C   C266      1.0  0.13012  0.54234  0.60664  1.0000
  C   C267      1.0  0.12989  0.56710  0.59837  1.0000
  C   C268      1.0  0.12411  0.58303  0.61774  1.0000
  H   H426      1.0  0.06037  0.60562  0.55030  1.0000
  Fe  Fe34      1.0  0.11332  0.63493  0.65961  1.0000
  C   C269      1.0  0.46215  0.56850  0.58751  1.0000
  H   H427      1.0  0.13402  0.57378  0.57692  1.0000
  H   H428      1.0  0.12349  0.60180  0.61117  1.0000
  H   H429      1.0  0.23478  0.70880  0.61187  1.0000
  H   H430      1.0  0.07009  0.58668  0.61534  1.0000
  C   C270      1.0  0.45667  0.53007  0.61760  1.0000
  C   C271      1.0  0.44559  0.54029  0.59723  1.0000
  H   H431      1.0  0.44756  0.51971  0.53949  1.0000
  H   H432      1.0  0.42445  0.52641  0.58878  1.0000
  H   H433      1.0  0.27644  0.90754  0.65947  1.0000
  C   C272      1.0  0.25439  0.82424  0.62879  1.0000
  C   C273      1.0  0.26620  0.80679  0.63375  1.0000
  C   C274      1.0  0.24824  0.77698  0.63620  1.0000
  C   C275      1.0  0.21829  0.76431  0.63414  1.0000
  C   C276      1.0  0.20644  0.78185  0.62991  1.0000
  H   H434      1.0  0.04746  0.52325  0.59469  1.0000
  H   H435      1.0  0.28920  0.81617  0.63500  1.0000
  H   H436      1.0  0.25761  0.76361  0.63946  1.0000
  H   H437      1.0  0.22504  0.58936  0.62208  1.0000
  H   H438      1.0  0.46643  0.52479  0.50731  1.0000
  C   C277      1.0  0.43750  0.87925  0.63471  1.0000
  C   C278      1.0  0.45601  0.87009  0.64471  1.0000
  H   H439      1.0  0.00684  0.56017  0.56252  1.0000
  C   C279      1.0  0.44487  0.89623  0.61091  1.0000
  H   H440      1.0  0.46551  0.85156  0.56271  1.0000
  H   H441      1.0  0.24178  0.64094  0.62738  1.0000
  H   H442      1.0  0.43063  0.90327  0.60302  1.0000
  N   N16       1.0  0.21914  0.66358  0.61790  1.0000
  H   H443      1.0  0.45371  0.57628  0.57149  1.0000
  H   H444      1.0  0.31471  0.74130  0.62285  1.0000
  H   H445      1.0  0.27866  0.68955  0.62562  1.0000
  S   S69       1.0  0.40513  0.86881  0.65210  1.0000
  C   C280      1.0  0.27129  0.70537  0.62483  1.0000
  H   H446      1.0  0.02452  0.50235  0.65344  1.0000
  C   C281      1.0  0.99904  0.61533  0.52668  1.0000
  C   C282      1.0  0.20447  0.61124  0.60333  1.0000
  C   C283      1.0  0.21636  0.59090  0.60164  1.0000
  H   H447      1.0  0.98405  0.51730  0.61115  1.0000
  H   H448      1.0  0.37306  0.88670  0.51218  1.0000
  C   C284      1.0  0.21531  0.66430  0.64890  1.0000
  H   H449      1.0  0.16681  0.65087  0.53504  1.0000
  H   H450      1.0  0.06054  0.49130  0.63520  1.0000
  H   H451      1.0  0.98376  0.67535  0.43822  1.0000
  H   H452      1.0  0.08010  0.56638  0.57595  1.0000
  C   C285      1.0  0.47253  0.81538  0.55823  1.0000
  C   C286      1.0  0.00210  0.53173  0.59736  1.0000
  H   H453      1.0  0.12488  0.51464  0.64098  1.0000
  H   H454      1.0  0.45829  0.72876  0.55459  1.0000
  C   C287      1.0  0.07699  0.60036  0.55654  1.0000
  C   C288      1.0  0.11865  0.57426  0.64545  1.0000
  H   H455      1.0  0.19891  0.56920  0.59578  1.0000
  H   H456      1.0  0.43733  0.81851  0.57710  1.0000
  H   H457      1.0  0.18705  0.60245  0.61875  1.0000
  C   C289      1.0  0.99296  0.55065  0.58093  1.0000
  C   C290      1.0  0.04288  0.52828  0.61579  1.0000
  H   H458      1.0  0.01924  0.55500  0.49484  1.0000
  N   N17       1.0  0.02954  0.54706  0.61402  1.0000
  H   H459      1.0  0.00342  0.51730  0.58165  1.0000
  N   N18       1.0  0.30284  0.91221  0.53330  1.0000
  C   C291      1.0  0.31362  0.93603  0.51228  1.0000
  C   C292      1.0  0.32742  0.90805  0.54182  1.0000
  C   C293      1.0  0.27889  0.88543  0.52038  1.0000
  C   C294      1.0  0.29134  0.91915  0.55888  1.0000
  C   C295      1.0  0.31114  0.94869  0.57240  1.0000
  C   C296      1.0  0.29207  0.94559  0.50331  1.0000
  C   C297      1.0  0.26868  0.85748  0.53724  1.0000
  C   C298      1.0  0.34106  0.89929  0.51821  1.0000
  H   H460      1.0  0.31944  0.49459  0.64349  1.0000
  C   C299      1.0  0.29655  0.95350  0.59731  1.0000
  C   C300      1.0  0.30626  0.97125  0.48376  1.0000
  C   C301      1.0  0.24302  0.83223  0.52331  1.0000
  H   H461      1.0  0.32003  0.92962  0.49284  1.0000
  H   H462      1.0  0.33360  0.95505  0.51981  1.0000
  H   H463      1.0  0.34509  0.92811  0.55068  1.0000
  H   H464      1.0  0.32092  0.89225  0.55898  1.0000
  H   H465      1.0  0.28480  0.88199  0.49920  1.0000
  H   H466      1.0  0.25976  0.88781  0.51716  1.0000
  H   H467      1.0  0.27034  0.91758  0.55446  1.0000
  H   H468      1.0  0.28678  0.90303  0.57539  1.0000
  H   H469      1.0  0.31668  0.96646  0.55769  1.0000
  H   H470      1.0  0.33128  0.95014  0.57978  1.0000
  H   H471      1.0  0.27365  0.92805  0.49214  1.0000
  H   H472      1.0  0.28374  0.95193  0.52131  1.0000
  H   H473      1.0  0.26209  0.85949  0.55852  1.0000
  H   H474      1.0  0.28590  0.85200  0.53888  1.0000
  H   H475      1.0  0.32480  0.88043  0.50656  1.0000
  H   H476      1.0  0.35254  0.91727  0.50345  1.0000
  H   H477      1.0  0.02272  0.59256  0.63720  1.0000
  H   H478      1.0  0.09346  0.61805  0.56935  1.0000
  H   H479      1.0  0.04286  0.58970  0.59865  1.0000
  H   H480      1.0  0.28997  0.93603  0.61270  1.0000
  H   H481      1.0  0.00102  0.69919  0.57506  1.0000
  H   H482      1.0  0.27735  0.95445  0.59053  1.0000
  H   H483      1.0  0.04407  0.56256  0.65567  1.0000
  H   H484      1.0  0.31448  0.96594  0.46489  1.0000
  H   H485      1.0  0.29043  0.97754  0.47724  1.0000
  H   H486      1.0  0.23633  0.81259  0.53575  1.0000
  H   H487      1.0  0.22464  0.83604  0.52206  1.0000
  H   H488      1.0  0.24868  0.82867  0.50211  1.0000
  H   H489      1.0  0.29866  0.72752  0.58942  1.0000
  C   C302      1.0  0.19186  0.65771  0.60350  1.0000
  H   H490      1.0  0.44057  0.82375  0.54002  1.0000
  H   H491      1.0  0.31166  0.97404  0.60757  1.0000
  S   S70       1.0  0.00818  0.62964  0.47022  1.0000
  C   C303      1.0  0.22444  0.81164  0.62705  1.0000
  C   C304      1.0  0.19397  0.66183  0.57153  1.0000
  H   H492      1.0  0.18346  0.77239  0.62813  1.0000
  H   H493      1.0  0.21508  0.82495  0.62323  1.0000
  H   H494      1.0  0.47103  0.80641  0.60131  1.0000
  H   H495      1.0  0.04638  0.49173  0.48375  1.0000
  C   C305      1.0  0.16443  0.64763  0.55784  1.0000
  C   C306      1.0  0.45278  0.82805  0.55972  1.0000
  H   H496      1.0  0.18434  0.67198  0.61193  1.0000
  H   H497      1.0  0.17422  0.63588  0.60802  1.0000
  C   C307      1.0  0.47035  0.90343  0.59681  1.0000
  C   C308      1.0  0.05140  0.57499  0.60111  1.0000
  H   H498      1.0  0.47562  0.91593  0.57799  1.0000
  H   H499      1.0  0.24274  0.64955  0.59193  1.0000
  C   C309      1.0  0.11886  0.54951  0.65364  1.0000
  H   H500      1.0  0.04648  0.55550  0.55944  1.0000
  H   H501      1.0  0.19462  0.61060  0.58292  1.0000
  H   H502      1.0  0.99632  0.66405  0.58106  1.0000
  H   H503      1.0  0.20475  0.68500  0.56656  1.0000
  H   H504      1.0  0.20660  0.65300  0.56201  1.0000
  C   C310      1.0  0.06338  0.57231  0.57264  1.0000
  H   H505      1.0  0.28794  0.74887  0.60960  1.0000
  H   H506      1.0  0.21145  0.68218  0.65428  1.0000
  H   H507      1.0  0.42499  0.98134  0.51547  1.0000
  H   H508      1.0  0.08733  0.59831  0.53747  1.0000
  H   H509      1.0  0.06394  0.53981  0.62660  1.0000
  S   S71       1.0  0.40176  0.96659  0.57044  1.0000
  H   H510      1.0  0.01967  0.51314  0.47352  1.0000
  H   H511      1.0  0.23512  0.66863  0.66009  1.0000
  H   H512      1.0  0.35236  0.87289  0.54340  1.0000
  H   H513      1.0  0.15260  0.62431  0.56201  1.0000
  H   H514      1.0  0.15181  0.65726  0.56566  1.0000
  C   C311      1.0  0.29450  0.73240  0.61072  1.0000
  C   C312      1.0  0.22843  0.64222  0.61040  1.0000
  C   C313      1.0  0.02375  0.55261  0.64337  1.0000
  H   H515      1.0  0.26919  0.71142  0.64637  1.0000
  C   C314      1.0  0.39756  0.98730  0.54381  1.0000
  H   H516      1.0  0.08511  0.50610  0.52135  1.0000
  H   H517      1.0  0.47650  0.76721  0.58994  1.0000
  H   H518      1.0  0.07497  0.50600  0.55694  1.0000
  S   S72       1.0  0.07449  0.63860  0.66693  1.0000
  H   H519      1.0  0.00241  0.51275  0.52553  1.0000
  C   C315      1.0  0.00972  0.57131  0.64692  1.0000
  C   C316      1.0  0.31759  0.49670  0.66621  1.0000
  C   C317      1.0  0.02500  0.49918  0.63072  1.0000
  H   H520      1.0  0.99200  0.60709  0.57064  1.0000
  C   C318      1.0  0.99597  0.53993  0.49753  1.0000
  C   C319      1.0  0.03990  0.49250  0.52747  1.0000
  C   C320      1.0  0.46575  0.51901  0.52952  1.0000
  H   H521      1.0  0.98779  0.54863  0.51367  1.0000
  H   H522      1.0  0.19542  0.61896  0.66006  1.0000
  H   H523      1.0  0.98792  0.56046  0.63778  1.0000
  H   H524      1.0  0.00892  0.53227  0.65397  1.0000
  S   S73       1.0  0.43754  0.49474  0.62976  1.0000
  H   H525      1.0  0.45887  0.79231  0.55350  1.0000
  H   H526      1.0  0.98458  0.68020  0.60663  1.0000
  H   H527      1.0  0.46182  0.49683  0.53113  1.0000
  H   H528      1.0  0.26680  0.49033  0.59566  1.0000
  H   H529      1.0  0.48124  0.73097  0.52643  1.0000
  C   C321      1.0  0.48193  0.87804  0.63109  1.0000
  H   H530      1.0  0.45033  0.85686  0.66306  1.0000
  H   H531      1.0  0.98470  0.53866  0.47778  1.0000
  C   C322      1.0  0.48092  0.73723  0.54833  1.0000
  H   H532      1.0  0.99869  0.62349  0.33507  1.0000
  S   S74       1.0  0.36497  0.95336  0.71377  1.0000
  Fe  Fe35      1.0  0.37274  0.92386  0.88304  1.0000
  S   S75       1.0  0.35524  0.88222  0.90637  1.0000
  S   S76       1.0  0.37580  0.91460  0.83677  1.0000
  Fe  Fe36      1.0  0.37928  0.95714  0.93882  1.0000
  S   S77       1.0  0.36139  0.91712  0.96393  1.0000
  Fe  Fe37      1.0  0.38982  0.90726  0.93772  1.0000
  S   S78       1.0  0.41941  0.89532  0.95982  1.0000
  Fe  Fe38      1.0  0.32854  0.89620  0.92990  1.0000
  S   S79       1.0  0.27978  0.87194  0.93434  1.0000
  C   C323      1.0  0.30942  0.96222  0.98732  1.0000
  S   S80       1.0  0.34466  0.93710  0.90570  1.0000
  S   S81       1.0  0.39561  0.51789  0.91626  1.0000
  S   S82       1.0  0.09086  0.69026  0.73049  1.0000
  H   H533      1.0  0.48113  0.95823  0.92672  1.0000
  Fe  Fe39      1.0  0.15303  0.70537  0.94936  1.0000
  S   S83       1.0  0.11688  0.70511  0.92540  1.0000
  S   S84       1.0  0.19718  0.74049  0.96382  1.0000
  Fe  Fe40      1.0  0.12361  0.63963  0.94804  1.0000
  S   S85       1.0  0.08653  0.63495  0.92314  1.0000
  S   S86       1.0  0.12934  0.60309  0.96280  1.0000
  Fe  Fe41      1.0  0.11861  0.67227  0.89753  1.0000
  S   S87       1.0  0.12964  0.67295  0.85130  1.0000
  Fe  Fe42      1.0  0.08750  0.66755  0.95332  1.0000
  S   S88       1.0  0.04390  0.65531  0.97289  1.0000
  S   S89       1.0  0.15562  0.67408  0.92082  1.0000
  S   S90       1.0  0.12368  0.67068  0.97893  1.0000
  H   H534      1.0  0.28330  0.84636  0.68809  1.0000
  C   C324      1.0  0.43896  0.96225  0.72827  1.0000
  H   H535      1.0  0.01951  0.55139  0.95432  1.0000
  C   C325      1.0  0.08815  0.52099  0.91145  1.0000
  C   C326      1.0  0.07636  0.53893  0.91127  1.0000
  C   C327      1.0  0.08889  0.56421  0.92693  1.0000
  C   C328      1.0  0.11300  0.57138  0.94325  1.0000
  C   C329      1.0  0.12407  0.55281  0.94436  1.0000
  C   C330      1.0  0.11178  0.52770  0.92834  1.0000
  H   H536      1.0  0.05778  0.53350  0.89856  1.0000
  H   H537      1.0  0.07987  0.57808  0.92644  1.0000
  H   H538      1.0  0.14263  0.55822  0.95713  1.0000
  H   H539      1.0  0.12092  0.51388  0.92863  1.0000
  C   C331      1.0  0.10099  0.68424  0.76396  1.0000
  C   C332      1.0  0.12264  0.67744  0.76746  1.0000
  C   C333      1.0  0.13106  0.67427  0.79434  1.0000
  C   C334      1.0  0.11756  0.67709  0.81812  1.0000
  C   C335      1.0  0.09573  0.68363  0.81469  1.0000
  C   C336      1.0  0.08768  0.68740  0.78776  1.0000
  H   H540      1.0  0.13332  0.67527  0.74945  1.0000
  H   H541      1.0  0.14850  0.67005  0.79674  1.0000
  H   H542      1.0  0.08523  0.68606  0.83272  1.0000
  H   H543      1.0  0.07100  0.69278  0.78534  1.0000
  C   C337      1.0  0.43160  0.53602  0.90510  1.0000
  C   C338      1.0  0.45175  0.56113  0.91870  1.0000
  C   C339      1.0  0.44065  0.52530  0.88340  1.0000
  H   H544      1.0  0.44486  0.56980  0.93525  1.0000
  H   H545      1.0  0.99096  0.54705  0.97682  1.0000
  C   C340      1.0  0.25726  0.83503  0.94137  1.0000
  C   C341      1.0  0.26821  0.81776  0.95018  1.0000
  C   C342      1.0  0.24948  0.78879  0.95654  1.0000
  C   C343      1.0  0.21965  0.77662  0.95381  1.0000
  C   C344      1.0  0.20870  0.79386  0.94479  1.0000
  C   C345      1.0  0.22743  0.82294  0.93872  1.0000
  H   H546      1.0  0.29109  0.82683  0.95256  1.0000
  H   H547      1.0  0.25814  0.77573  0.96385  1.0000
  H   H548      1.0  0.18581  0.78499  0.94339  1.0000
  H   H549      1.0  0.21873  0.83622  0.93224  1.0000
  C   C346      1.0  0.44598  0.89462  0.93916  1.0000
  C   C347      1.0  0.28862  0.82629  0.87445  1.0000
  H   H550      1.0  0.15812  0.60770  0.75859  1.0000
  C   C348      1.0  0.44635  0.89830  0.91043  1.0000
  H   H551      1.0  0.29040  0.82086  0.89630  1.0000
  H   H552      1.0  0.41914  0.90459  0.69982  1.0000
  H   H553      1.0  0.43011  0.90149  0.90062  1.0000
  C   C349      1.0  0.36623  0.94135  0.74794  1.0000
  C   C350      1.0  0.36739  0.91641  0.75268  1.0000
  C   C351      1.0  0.37018  0.90862  0.77998  1.0000
  C   C352      1.0  0.37117  0.92519  0.80299  1.0000
  C   C353      1.0  0.36902  0.94959  0.79830  1.0000
  C   C354      1.0  0.36673  0.95767  0.77093  1.0000
  H   H554      1.0  0.36667  0.90343  0.73529  1.0000
  C   C355      1.0  0.48086  0.57485  0.91120  1.0000
  N   N19       1.0  0.21006  0.76506  0.85987  1.0000
  C   C356      1.0  0.18343  0.75842  0.87590  1.0000
  S   S91       1.0  0.11029  0.59287  0.67022  1.0000
  C   C357      1.0  0.23508  0.79153  0.87204  1.0000
  C   C358      1.0  0.20720  0.77050  0.82963  1.0000
  C   C359      1.0  0.17990  0.74730  0.81467  1.0000
  C   C360      1.0  0.17369  0.78097  0.87369  1.0000
  H   H555      1.0  0.37167  0.88963  0.78337  1.0000
  H   H556      1.0  0.03645  0.59383  0.84024  1.0000
  H   H557      1.0  0.45133  0.92191  0.76694  1.0000
  C   C361      1.0  0.45390  0.50468  0.79861  1.0000
  C   C362      1.0  0.14488  0.77061  0.88787  1.0000
  H   H558      1.0  0.12501  0.59454  0.73922  1.0000
  H   H559      1.0  0.18654  0.75620  0.89839  1.0000
  H   H560      1.0  0.16520  0.73716  0.86979  1.0000
  H   H561      1.0  0.02474  0.59744  0.93719  1.0000
  H   H562      1.0  0.29988  0.94043  0.67733  1.0000
  H   H563      1.0  0.23624  0.78934  0.89488  1.0000
  H   H564      1.0  0.23206  0.81028  0.86940  1.0000
  C   C363      1.0  0.48069  0.61732  0.83388  1.0000
  H   H565      1.0  0.23156  0.70330  0.91153  1.0000
  H   H566      1.0  0.16010  0.74450  0.82453  1.0000
  C   C364      1.0  0.19667  0.50255  0.85273  1.0000
  H   H567      1.0  0.18945  0.80121  0.88395  1.0000
  H   H568      1.0  0.17115  0.78565  0.85183  1.0000
  H   H569      1.0  0.98745  0.62722  0.99707  1.0000
  H   H570      1.0  0.45858  0.49895  0.72540  1.0000
  H   H571      1.0  0.24346  0.75214  0.89835  1.0000
  C   C365      1.0  0.46740  0.89723  0.89424  1.0000
  C   C366      1.0  0.26481  0.80033  0.85943  1.0000
  H   H572      1.0  0.30945  0.83319  0.86409  1.0000
  C   C367      1.0  0.28069  0.91889  0.67964  1.0000
  C   C368      1.0  0.24613  0.89935  0.99117  1.0000
  H   H573      1.0  0.47522  0.60168  0.85104  1.0000
  C   C369      1.0  0.42843  0.50757  0.70526  1.0000
  H   H574      1.0  0.13836  0.78701  0.88575  1.0000
  H   H575      1.0  0.12810  0.75047  0.87813  1.0000
  H   H576      1.0  0.14642  0.76697  0.91031  1.0000
  H   H577      1.0  0.46597  0.58588  0.80158  1.0000
  H   H578      1.0  0.02823  0.59694  0.99794  1.0000
  C   C370      1.0  0.08617  0.51644  0.81628  1.0000
  H   H579      1.0  0.22563  0.77227  0.81766  1.0000
  H   H580      1.0  0.46656  0.91810  0.68106  1.0000
  N   N20       1.0  0.09740  0.56893  0.82241  1.0000
  C   C371      1.0  0.08195  0.58547  0.82683  1.0000
  C   C372      1.0  0.11129  0.57535  0.79399  1.0000
  C   C373      1.0  0.07524  0.53746  0.82323  1.0000
  C   C374      1.0  0.11904  0.57463  0.84500  1.0000
  C   C375      1.0  0.14227  0.60619  0.84980  1.0000
  C   C376      1.0  0.06680  0.58126  0.85518  1.0000
  C   C377      1.0  0.46941  0.92915  0.75197  1.0000
  H   H581      1.0  0.43016  0.86617  0.70804  1.0000
  H   H582      1.0  0.46447  0.95904  0.95892  1.0000
  C   C378      1.0  0.15903  0.60953  0.87650  1.0000
  C   C379      1.0  0.05253  0.59952  0.85706  1.0000
  H   H583      1.0  0.09821  0.52182  0.79651  1.0000
  H   H584      1.0  0.06563  0.57999  0.81016  1.0000
  H   H585      1.0  0.09667  0.60883  0.82484  1.0000
  H   H586      1.0  0.27674  0.94625  0.95461  1.0000
  H   H587      1.0  0.09572  0.56101  0.77799  1.0000
  H   H588      1.0  0.05730  0.53287  0.80873  1.0000
  H   H589      1.0  0.06554  0.53109  0.84422  1.0000
  H   H590      1.0  0.10801  0.56571  0.86504  1.0000
  H   H591      1.0  0.13075  0.56300  0.84072  1.0000
  H   H592      1.0  0.13301  0.62029  0.85180  1.0000
  H   H593      1.0  0.15779  0.61371  0.83244  1.0000
  H   H594      1.0  0.04977  0.55876  0.85820  1.0000
  H   H595      1.0  0.08243  0.58775  0.87249  1.0000
  C   C380      1.0  0.31600  0.97810  0.93705  1.0000
  C   C381      1.0  0.46721  0.53704  0.79558  1.0000
  H   H596      1.0  0.45579  0.95458  0.69082  1.0000
  H   H597      1.0  0.06877  0.62259  0.85546  1.0000
  H   H598      1.0  0.46654  0.88700  0.97380  1.0000
  H   H599      1.0  0.17988  0.77604  0.78285  1.0000
  H   H600      1.0  0.23090  0.74153  0.84675  1.0000
  H   H601      1.0  0.25211  0.86304  0.68593  1.0000
  H   H602      1.0  0.17631  0.63211  0.87890  1.0000
  S   S92       1.0  0.34581  0.88469  0.67063  1.0000
  H   H603      1.0  0.44265  0.51778  0.68714  1.0000
  H   H604      1.0  0.30427  0.97935  0.99144  1.0000
  H   H605      1.0  0.11448  0.54249  0.67501  1.0000
  H   H606      1.0  0.99080  0.55537  0.68766  1.0000
  H   H607      1.0  0.20623  0.72977  0.90631  1.0000
  H   H608      1.0  0.38680  0.83059  0.73156  1.0000
  H   H609      1.0  0.26983  0.78285  0.86093  1.0000
  S   S93       1.0  0.40916  0.94802  0.91354  1.0000
  H   H610      1.0  0.30841  0.97108  0.91549  1.0000
  H   H611      1.0  0.14648  0.63201  0.74709  1.0000
  H   H612      1.0  0.46718  0.89951  0.87195  1.0000
  H   H613      1.0  0.45975  0.52142  0.95991  1.0000
  H   H614      1.0  0.20773  0.82335  0.69472  1.0000
  H   H615      1.0  0.13736  0.62234  0.79716  1.0000
  H   H616      1.0  0.99576  0.59241  0.95953  1.0000
  C   C382      1.0  0.18919  0.64083  0.69347  1.0000
  H   H617      1.0  0.23180  0.81060  0.68684  1.0000
  C   C383      1.0  0.46974  0.53845  0.87649  1.0000
  C   C384      1.0  0.22681  0.70771  0.89024  1.0000
  H   H618      1.0  0.26215  0.92150  0.68513  1.0000
  H   H619      1.0  0.46008  0.54448  0.81374  1.0000
  C   C385      1.0  0.42247  0.87359  0.72579  1.0000
  Fe  Fe43      1.0  0.10374  0.67972  0.68878  1.0000
  H   H620      1.0  0.20284  0.76731  0.71592  1.0000
  H   H621      1.0  0.21474  0.52470  0.85554  1.0000
  H   H622      1.0  0.40581  0.49642  0.69808  1.0000
  N   N21       1.0  0.26394  0.85221  0.72524  1.0000
  C   C386      1.0  0.23493  0.82615  0.72996  1.0000
  C   C387      1.0  0.27582  0.86708  0.75268  1.0000
  C   C388      1.0  0.25954  0.87248  0.70698  1.0000
  C   C389      1.0  0.28475  0.84529  0.71112  1.0000
  C   C390      1.0  0.28154  0.81558  0.71719  1.0000
  C   C391      1.0  0.21776  0.81129  0.70319  1.0000
  C   C392      1.0  0.28620  0.90246  0.70233  1.0000
  C   C393      1.0  0.28232  0.85040  0.77487  1.0000
  C   C394      1.0  0.29110  0.86673  0.80239  1.0000
  H   H623      1.0  0.18863  0.49335  0.87358  1.0000
  H   H624      1.0  0.38160  0.85805  0.74699  1.0000
  H   H625      1.0  0.22124  0.83192  0.74254  1.0000
  H   H626      1.0  0.23664  0.80994  0.74258  1.0000
  H   H627      1.0  0.29669  0.88705  0.74965  1.0000
  H   H628      1.0  0.26112  0.87373  0.76193  1.0000
  H   H629      1.0  0.24230  0.87588  0.71557  1.0000
  H   H630      1.0  0.20253  0.87228  0.97686  1.0000
  H   H631      1.0  0.46112  0.49934  0.81815  1.0000
  H   H632      1.0  0.30708  0.86191  0.71645  1.0000
  H   H633      1.0  0.26220  0.79841  0.70677  1.0000
  H   H634      1.0  0.27956  0.81061  0.73960  1.0000
  H   H635      1.0  0.16885  0.59572  0.87607  1.0000
  H   H636      1.0  0.06999  0.56171  0.98716  1.0000
  H   H637      1.0  0.43328  0.87250  0.74498  1.0000
  H   H638      1.0  0.29158  0.91561  0.72148  1.0000
  H   H639      1.0  0.26358  0.82907  0.77904  1.0000
  H   H640      1.0  0.30065  0.84800  0.76803  1.0000
  H   H641      1.0  0.30915  0.88885  0.79933  1.0000
  H   H642      1.0  0.27280  0.86771  0.81171  1.0000
  H   H643      1.0  0.29834  0.85590  0.81720  1.0000
  H   H644      1.0  0.45845  0.54087  0.77629  1.0000
  H   H645      1.0  0.20910  0.64477  0.70414  1.0000
  C   C395      1.0  0.12282  0.60591  0.78229  1.0000
  H   H646      1.0  0.47897  0.57441  0.70872  1.0000
  H   H647      1.0  0.15936  0.73871  0.77426  1.0000
  H   H648      1.0  0.30404  0.79226  0.71016  1.0000
  H   H649      1.0  0.43782  0.95792  0.75089  1.0000
  Fe  Fe44      1.0  0.36577  0.93214  0.67300  1.0000
  H   H650      1.0  0.05435  0.59515  0.97776  1.0000
  H   H651      1.0  0.17092  0.62112  0.70217  1.0000
  H   H652      1.0  0.98928  0.56756  0.93173  1.0000
  H   H653      1.0  0.17880  0.78046  0.72468  1.0000
  S   S94       1.0  0.14194  0.67434  0.68409  1.0000
  H   H654      1.0  0.45969  0.49564  0.78074  1.0000
  C   C396      1.0  0.46393  0.51106  0.97794  1.0000
  H   H655      1.0  0.47664  0.52932  0.86043  1.0000
  H   H656      1.0  0.25424  0.90236  0.96968  1.0000
  H   H657      1.0  0.20693  0.68860  0.88283  1.0000
  H   H658      1.0  0.42530  0.50672  0.87203  1.0000
  H   H659      1.0  0.32707  0.82981  0.71703  1.0000
  H   H660      1.0  0.36972  0.96256  0.81571  1.0000
  C   C397      1.0  0.47613  0.92116  0.70221  1.0000
  C   C398      1.0  0.19382  0.78073  0.70880  1.0000
  H   H661      1.0  0.12921  0.57070  0.79368  1.0000
  C   C399      1.0  0.48075  0.97239  0.94321  1.0000
  H   H662      1.0  0.19450  0.71977  0.85582  1.0000
  C   C400      1.0  0.42824  0.90435  0.72054  1.0000
  H   H663      1.0  0.47073  0.50263  0.92285  1.0000
  H   H664      1.0  0.26556  0.80621  0.83728  1.0000
  H   H665      1.0  0.20841  0.79151  0.82690  1.0000
  H   H666      1.0  0.03510  0.53197  0.98539  1.0000
  H   H667      1.0  0.43150  0.52459  0.72011  1.0000
  C   C401      1.0  0.21481  0.89174  0.98981  1.0000
  C   C402      1.0  0.30721  0.81389  0.70627  1.0000
  H   H668      1.0  0.14474  0.60384  0.89481  1.0000
  C   C403      1.0  0.03418  0.58159  0.98934  1.0000
  H   H669      1.0  0.21518  0.49553  0.81679  1.0000
  H   H670      1.0  0.28451  0.84448  0.87421  1.0000
  H   H671      1.0  0.18559  0.65897  0.69761  1.0000
  H   H672      1.0  0.37890  0.85281  0.70970  1.0000
  H   H673      1.0  0.43019  0.49450  0.79931  1.0000
  H   H674      1.0  0.47720  0.91369  0.75456  1.0000
  C   C404      1.0  0.01148  0.56289  0.96724  1.0000
  H   H675      1.0  0.04150  0.59588  0.87734  1.0000
  H   H676      1.0  0.24486  0.71156  0.87646  1.0000
  H   H677      1.0  0.41498  0.90788  0.73594  1.0000
  H   H678      1.0  0.18159  0.77118  0.68937  1.0000
  H   H679      1.0  0.17940  0.50346  0.84099  1.0000
  H   H680      1.0  0.10478  0.60968  0.77765  1.0000
  H   H681      1.0  0.32105  0.51839  0.67042  1.0000
  H   H682      1.0  0.30506  0.90074  0.69620  1.0000
  H   H683      1.0  0.33325  0.97264  0.98807  1.0000
  H   H684      1.0  0.46251  0.62123  0.83098  1.0000
  C   C405      1.0  0.21448  0.73967  0.86186  1.0000
  C   C406      1.0  0.13911  0.61017  0.75517  1.0000
  H   H685      1.0  0.47502  0.90065  0.70759  1.0000
  S   S95       1.0  0.07344  0.49112  0.88941  1.0000
  C   C407      1.0  0.46706  0.89031  0.95163  1.0000
  H   H686      1.0  0.10038  0.51664  0.83309  1.0000
  H   H687      1.0  0.30969  0.81797  0.68357  1.0000
  C   C408      1.0  0.46032  0.95537  0.71351  1.0000
  N   N22       1.0  0.45911  0.92802  0.72251  1.0000
  C   C409      1.0  0.00615  0.57592  0.67765  1.0000
  H   H688      1.0  0.17918  0.72645  0.81499  1.0000
  H   H689      1.0  0.06246  0.50479  0.98897  1.0000
  H   H690      1.0  0.30345  0.93563  0.95026  1.0000
  C   C410      1.0  0.39043  0.85254  0.72872  1.0000
  C   C411      1.0  0.00498  0.58124  0.94777  1.0000
  C   C412      1.0  0.22300  0.73388  0.89089  1.0000
  H   H691      1.0  0.41731  0.94866  0.71929  1.0000
  H   H692      1.0  0.29692  0.90621  0.98385  1.0000
  C   C413      1.0  0.05080  0.54806  0.00008  1.0000
  H   H693      1.0  0.19785  0.75661  0.77288  1.0000
  H   H694      1.0  0.36573  0.97693  0.76757  1.0000
  C   C414      1.0  0.17938  0.75530  0.78433  1.0000
  H   H695      1.0  0.02695  0.58523  0.68879  1.0000
  H   H696      1.0  0.21294  0.90943  0.98024  1.0000
  H   H697      1.0  0.33929  0.98573  0.93781  1.0000
  H   H698      1.0  0.45864  0.51978  0.99643  1.0000
  C   C415      1.0  0.29973  0.95309  0.95697  1.0000
  H   H699      1.0  0.09578  0.53563  0.99952  1.0000
  H   H700      1.0  0.28156  0.85760  0.99960  1.0000
  H   H701      1.0  0.99779  0.59089  0.67970  1.0000
  H   H702      1.0  0.33460  0.49449  0.67700  1.0000
  H   H703      1.0  0.20033  0.48819  0.74573  1.0000
  H   H704      1.0  0.47420  0.98693  0.93362  1.0000
  H   H705      1.0  0.48210  0.97403  0.71605  1.0000
  H   H706      1.0  0.24652  0.88043  0.99952  1.0000
  S   S96       1.0  0.70301  0.06877  0.31688  1.0000
  S   S97       1.0  0.52321  0.10607  0.16146  1.0000
  Fe  Fe45      1.0  0.66182  0.05618  0.09938  1.0000
  S   S98       1.0  0.67896  0.09594  0.07407  1.0000
  S   S99       1.0  0.64674  0.01319  0.07756  1.0000
  Fe  Fe46      1.0  0.66902  0.08935  0.15492  1.0000
  S   S100      1.0  0.68667  0.13123  0.13204  1.0000
  S   S101      1.0  0.66065  0.09303  0.20110  1.0000
  Fe  Fe47      1.0  0.65152  0.10634  0.10108  1.0000
  S   S102      1.0  0.62169  0.11925  0.08117  1.0000
  Fe  Fe48      1.0  0.71242  0.11662  0.10752  1.0000
  S   S103      1.0  0.76028  0.14009  0.09814  1.0000
  S   S104      1.0  0.63231  0.06534  0.12483  1.0000
  S   S105      1.0  0.69679  0.07595  0.13206  1.0000
  S   S106      1.0  0.52518  0.41169  0.05696  1.0000
  H   H707      1.0  0.48950  0.35474  0.23532  1.0000
  Fe  Fe49      1.0  0.94707  0.34228  0.09203  1.0000
  S   S107      1.0  0.91236  0.34330  0.06730  1.0000
  Fe  Fe50      1.0  0.91451  0.33340  0.14760  1.0000
  S   S108      1.0  0.87890  0.33576  0.12566  1.0000
  H   H708      1.0  0.77909  0.47604  0.16587  1.0000
  Fe  Fe51      1.0  0.88104  0.30666  0.09390  1.0000
  S   S109      1.0  0.83641  0.27420  0.07842  1.0000
  Fe  Fe52      1.0  0.91279  0.37186  0.10118  1.0000
  S   S110      1.0  0.91173  0.41081  0.08586  1.0000
  S   S111      1.0  0.91563  0.30271  0.11632  1.0000
  C   C416      1.0  0.92125  0.43869  0.10970  1.0000
  C   C417      1.0  0.92367  0.46439  0.10049  1.0000
  C   C418      1.0  0.64560  0.25839  0.11513  1.0000
  C   C419      1.0  0.92555  0.43534  0.13773  1.0000
  C   C420      1.0  0.48364  0.05243  0.07013  1.0000
  H   H709      1.0  0.54604  0.11038  0.32160  1.0000
  H   H710      1.0  0.92365  0.41551  0.14496  1.0000
  C   C421      1.0  0.48400  0.03178  0.31863  1.0000
  H   H711      1.0  0.50953  0.45063  0.15517  1.0000
  H   H712      1.0  0.54090  0.41676  0.16552  1.0000
  C   C422      1.0  0.58412  0.04441  0.03946  1.0000
  H   H713      1.0  0.90329  0.20563  0.12889  1.0000
  H   H714      1.0  0.56295  0.21456  0.08552  1.0000
  C   C423      1.0  0.92993  0.48658  0.11932  1.0000
  H   H715      1.0  0.60685  0.46346  0.20818  1.0000
  C   C424      1.0  0.57151  0.46153  0.07478  1.0000
  C   C425      1.0  0.55443  0.43202  0.07896  1.0000
  C   C426      1.0  0.56113  0.41892  0.10034  1.0000
  C   C427      1.0  0.90003  0.32140  0.24972  1.0000
  C   C428      1.0  0.60160  0.46492  0.11376  1.0000
  H   H716      1.0  0.54829  0.39608  0.10337  1.0000
  C   C429      1.0  0.78119  0.17761  0.09393  1.0000
  C   C430      1.0  0.76875  0.19487  0.09266  1.0000
  C   C431      1.0  0.78602  0.22450  0.08830  1.0000
  C   C432      1.0  0.81591  0.23726  0.08593  1.0000
  C   C433      1.0  0.82840  0.22005  0.08763  1.0000
  C   C434      1.0  0.81107  0.19032  0.09136  1.0000
  H   H717      1.0  0.74577  0.18534  0.09443  1.0000
  H   H718      1.0  0.77616  0.23762  0.08662  1.0000
  H   H719      1.0  0.85129  0.22959  0.08513  1.0000
  H   H720      1.0  0.82084  0.17708  0.09211  1.0000
  C   C435      1.0  0.78601  0.44124  0.15313  1.0000
  H   H721      1.0  0.67816  0.15736  0.32864  1.0000
  N   N23       1.0  0.83576  0.45260  0.13308  1.0000
  H   H722      1.0  0.95215  0.38548  0.02781  1.0000
  H   H723      1.0  0.55083  0.04237  0.13709  1.0000
  H   H724      1.0  0.58814  0.07533  0.20795  1.0000
  C   C436      1.0  0.54934  0.10847  0.13817  1.0000
  C   C437      1.0  0.54881  0.11444  0.11001  1.0000
  C   C438      1.0  0.57116  0.11786  0.09252  1.0000
  C   C439      1.0  0.59377  0.11483  0.10310  1.0000
  C   C440      1.0  0.59392  0.10836  0.13112  1.0000
  C   C441      1.0  0.57176  0.10518  0.14856  1.0000
  H   H725      1.0  0.53134  0.11657  0.10181  1.0000
  H   H726      1.0  0.57103  0.12290  0.07082  1.0000
  H   H727      1.0  0.61133  0.10615  0.13951  1.0000
  H   H728      1.0  0.57219  0.10041  0.17027  1.0000
  C   C442      1.0  0.69208  0.07655  0.28470  1.0000
  C   C443      1.0  0.67626  0.09057  0.28357  1.0000
  C   C444      1.0  0.66721  0.09567  0.25780  1.0000
  C   C445      1.0  0.67394  0.08700  0.23274  1.0000
  C   C446      1.0  0.69052  0.07374  0.23377  1.0000
  C   C447      1.0  0.69950  0.06855  0.25962  1.0000
  H   H729      1.0  0.67077  0.09727  0.30258  1.0000
  H   H730      1.0  0.65479  0.10631  0.25728  1.0000
  H   H731      1.0  0.69596  0.06700  0.21471  1.0000
  H   H732      1.0  0.71187  0.05781  0.26020  1.0000
  C   C448      1.0  0.58503  0.43526  0.11729  1.0000
  H   H733      1.0  0.60043  0.03501  0.00301  1.0000
  H   H734      1.0  0.52542  0.08061  0.05063  1.0000
  H   H735      1.0  0.86522  0.46879  0.22761  1.0000
  C   C449      1.0  0.90890  0.40746  0.29680  1.0000
  C   C450      1.0  0.55114  0.17517  0.06425  1.0000
  H   H736      1.0  0.83610  0.08645  0.06311  1.0000
  C   C451      1.0  0.95904  0.35509  0.25639  1.0000
  H   H737      1.0  0.56445  0.04071  0.33087  1.0000
  C   C452      1.0  0.81668  0.23465  0.31545  1.0000
  H   H738      1.0  0.53499  0.44465  0.13669  1.0000
  H   H739      1.0  0.51760  0.46384  0.23545  1.0000
  N   N24       1.0  0.97894  0.42817  0.01182  1.0000
  N   N25       1.0  0.48678  0.02749  0.07953  1.0000
  Fe  Fe53      1.0  0.48678  0.37752  0.07961  1.0000
  H   H740      1.0  0.56394  0.37050  0.20111  1.0000
  C   C453      1.0  0.76698  0.45459  0.15603  1.0000
  H   H741      1.0  0.63324  0.04189  0.31901  1.0000
  H   H742      1.0  0.90949  0.40254  0.27439  1.0000
  H   H743      1.0  0.89222  0.41367  0.29892  1.0000
  C   C454      1.0  0.64950  0.02633  0.02110  1.0000
  C   C455      1.0  0.50717  0.31409  0.16108  1.0000
  H   H744      1.0  0.52206  0.31275  0.17614  1.0000
  H   H745      1.0  0.55319  0.05778  0.24640  1.0000
  H   H746      1.0  0.75908  0.45681  0.13538  1.0000
  H   H747      1.0  0.94196  0.48556  0.24038  1.0000
  H   H748      1.0  0.50385  0.41967  0.18840  1.0000
  C   C456      1.0  0.87312  0.47378  0.20593  1.0000
  C   C457      1.0  0.60057  0.47922  0.21474  1.0000
  C   C458      1.0  0.48346  0.18431  0.29089  1.0000
  H   H749      1.0  0.90532  0.45186  0.27395  1.0000
  C   C459      1.0  0.55297  0.47166  0.17397  1.0000
  H   H750      1.0  0.86072  0.33594  0.31291  1.0000
  H   H751      1.0  0.86482  0.48518  0.05190  1.0000
  N   N26       1.0  0.54872  0.44965  0.19556  1.0000
  H   H752      1.0  0.65518  0.26307  0.13626  1.0000
  H   H753      1.0  0.83676  0.44667  0.08857  1.0000
  C   C460      1.0  0.73882  0.16339  0.24095  1.0000
  H   H754      1.0  0.50600  0.20175  0.28853  1.0000
  H   H755      1.0  0.64226  0.27614  0.10830  1.0000
  H   H756      1.0  0.60021  0.10533  0.32972  1.0000
  H   H757      1.0  0.49888  0.05577  0.02682  1.0000
  H   H758      1.0  0.52702  0.18643  0.09160  1.0000
  N   N27       1.0  0.93781  0.43160  0.30588  1.0000
  H   H759      1.0  0.57752  0.44039  0.17281  1.0000
  H   H760      1.0  0.61299  0.47770  0.25752  1.0000
  C   C461      1.0  0.60999  0.03448  0.31771  1.0000
  H   H761      1.0  0.50159  0.21679  0.17144  1.0000
  H   H762      1.0  0.96833  0.47364  0.28974  1.0000
  H   H763      1.0  0.56942  0.41541  0.22069  1.0000
  H   H764      1.0  0.50153  0.19979  0.23689  1.0000
  H   H765      1.0  0.48880  0.02841  0.14028  1.0000
  C   C462      1.0  0.72767  0.05086  0.07948  1.0000
  H   H766      1.0  0.70421  0.11958  0.01435  1.0000
  H   H767      1.0  0.61124  0.15940  0.19086  1.0000
  H   H768      1.0  0.82501  0.27814  0.32204  1.0000
  H   H769      1.0  0.96336  0.32241  0.02278  1.0000
  H   H770      1.0  0.74823  0.44083  0.16927  1.0000
  C   C463      1.0  0.73050  0.04668  0.04808  1.0000
  H   H771      1.0  0.72799  0.17605  0.23775  1.0000
  C   C464      1.0  0.64354  0.00546  0.04128  1.0000
  C   C465      1.0  0.83235  0.37846  0.13720  1.0000
  H   H772      1.0  0.57404  0.10478  0.27200  1.0000
  H   H773      1.0  0.81686  0.36753  0.12004  1.0000
  C   C466      1.0  0.74236  0.15980  0.27192  1.0000
  H   H774      1.0  0.75990  0.17418  0.23040  1.0000
  H   H775      1.0  0.51195  0.45488  0.29338  1.0000
  C   C467      1.0  0.76347  0.18886  0.28545  1.0000
  H   H776      1.0  0.54029  0.16149  0.12299  1.0000
  H   H777      1.0  0.51028  0.10566  0.01909  1.0000
  C   C468      1.0  0.72114  0.19417  0.32447  1.0000
  C   C469      1.0  0.73152  0.09048  0.03308  1.0000
  H   H778      1.0  0.71275  0.02589  0.11729  1.0000
  H   H779      1.0  0.75070  0.14485  0.27386  1.0000
  C   C470      1.0  0.53287  0.45374  0.33217  1.0000
  H   H780      1.0  0.80196  0.45650  0.11277  1.0000
  C   C471      1.0  0.59130  0.08919  0.22619  1.0000
  H   H781      1.0  0.73315  0.01599  0.09494  1.0000
  C   C472      1.0  0.60572  0.05984  0.31158  1.0000
  H   H782      1.0  0.56243  0.44993  0.23796  1.0000
  H   H783      1.0  0.57654  0.20397  0.18425  1.0000
  H   H784      1.0  0.60054  0.01826  0.30092  1.0000
  H   H785      1.0  0.61685  0.07589  0.32816  1.0000
  H   H786      1.0  0.59596  0.44825  0.00627  1.0000
  H   H787      1.0  0.61638  0.20108  0.16475  1.0000
  C   C473      1.0  0.91747  0.33132  0.22597  1.0000
  C   C474      1.0  0.79403  0.07676  0.04868  1.0000
  H   H788      1.0  0.79262  0.43878  0.17416  1.0000
  H   H789      1.0  0.94200  0.42201  0.03505  1.0000
  H   H790      1.0  0.56617  0.47156  0.05832  1.0000
  C   C475      1.0  0.71690  0.02285  0.09534  1.0000
  H   H791      1.0  0.58236  0.10323  0.22120  1.0000
  H   H792      1.0  0.90646  0.24022  0.12472  1.0000
  H   H793      1.0  0.65581  0.04787  0.02746  1.0000
  H   H794      1.0  0.59070  0.42485  0.13316  1.0000
  H   H795      1.0  0.76639  0.13251  0.01924  1.0000
  H   H796      1.0  0.70809  0.03395  0.04037  1.0000
  H   H797      1.0  0.56755  0.03335  0.05557  1.0000
  H   H798      1.0  0.93480  0.45480  0.17833  1.0000
  H   H799      1.0  0.52452  0.47630  0.11019  1.0000
  S   S112      1.0  0.90105  0.32010  0.19279  1.0000
  H   H800      1.0  0.72543  0.14210  0.23119  1.0000
  H   H801      1.0  0.93036  0.46899  0.02772  1.0000
  C   C476      1.0  0.81179  0.45944  0.13377  1.0000
  C   C477      1.0  0.52644  0.44717  0.30072  1.0000
  H   H802      1.0  0.73221  0.09793  0.05473  1.0000
  H   H803      1.0  0.51692  0.31798  0.14010  1.0000
  H   H804      1.0  0.52884  0.07501  0.28985  1.0000
  H   H805      1.0  0.56947  0.04646  0.10483  1.0000
  H   H806      1.0  0.80820  0.40956  0.11841  1.0000
  H   H807      1.0  0.98200  0.36804  0.25883  1.0000
  C   C478      1.0  0.50240  0.06964  0.04506  1.0000
  S   S113      1.0  0.95785  0.35338  0.31358  1.0000
  H   H808      1.0  0.77273  0.41951  0.14416  1.0000
  C   C479      1.0  0.58302  0.02294  0.01816  1.0000
  C   C480      1.0  0.56590  0.38777  0.18723  1.0000
  H   H809      1.0  0.58680  0.47149  0.30621  1.0000
  H   H810      1.0  0.86235  0.42056  0.15137  1.0000
  H   H811      1.0  0.73013  0.14143  0.04064  1.0000
  H   H812      1.0  0.89836  0.31963  0.29462  1.0000
  H   H813      1.0  0.82354  0.10875  0.07803  1.0000
  H   H814      1.0  0.53659  0.99756  0.01962  1.0000
  H   H815      1.0  0.83445  0.47119  0.19131  1.0000
  H   H816      1.0  0.55285  0.37788  0.16828  1.0000
  C   C481      1.0  0.92669  0.46811  0.28183  1.0000
  H   H817      1.0  0.82741  0.22248  0.32142  1.0000
  H   H818      1.0  0.62618  0.47617  0.33272  1.0000
  H   H819      1.0  0.53277  0.19516  0.31878  1.0000
  H   H820      1.0  0.59902  0.17962  0.21060  1.0000
  H   H821      1.0  0.50432  0.33243  0.16665  1.0000
  C   C482      1.0  0.93383  0.48311  0.14743  1.0000
  H   H822      1.0  0.82054  0.48245  0.13900  1.0000
  H   H823      1.0  0.87062  0.46115  0.10520  1.0000
  C   C483      1.0  0.74356  0.11743  0.01441  1.0000
  H   H824      1.0  0.58149  0.13372  0.30859  1.0000
  H   H825      1.0  0.57352  0.18022  0.06064  1.0000
  H   H826      1.0  0.58477  0.05593  0.25451  1.0000
  H   H827      1.0  0.85652  0.27471  0.32003  1.0000
  H   H828      1.0  0.72078  0.15005  0.28129  1.0000
  H   H829      1.0  0.50722  0.41087  0.27269  1.0000
  Fe  Fe54      1.0  0.48469  0.10881  0.14787  1.0000
  C   C484      1.0  0.56784  0.46477  0.22006  1.0000
  N   N28       1.0  0.76620  0.18924  0.31664  1.0000
  N   N29       1.0  0.56647  0.07357  0.30373  1.0000
  C   C485      1.0  0.55205  0.03090  0.11847  1.0000
  H   H830      1.0  0.58872  0.40126  0.18119  1.0000
  H   H831      1.0  0.48701  0.43910  0.03568  1.0000
  C   C486      1.0  0.51585  0.04742  0.32595  1.0000
  H   H832      1.0  0.75759  0.20491  0.27858  1.0000
  C   C487      1.0  0.84780  0.46160  0.18579  1.0000
  C   C488      1.0  0.58127  0.08943  0.27762  1.0000
  C   C489      1.0  0.76057  0.14050  0.33319  1.0000
  H   H833      1.0  0.85811  0.41659  0.11422  1.0000
  H   H834      1.0  0.56430  0.45104  0.00270  1.0000
  H   H835      1.0  0.51568  0.41832  0.22215  1.0000
  C   C490      1.0  0.85779  0.46901  0.15528  1.0000
  H   H836      1.0  0.50096  0.25113  0.10481  1.0000
  H   H837      1.0  0.83552  0.43829  0.18945  1.0000
  C   C491      1.0  0.94707  0.34849  0.22945  1.0000
  H   H838      1.0  0.97711  0.43503  0.07150  1.0000
  H   H839      1.0  0.52492  0.40605  0.30219  1.0000
  N   N30       1.0  0.84620  0.22861  0.18669  1.0000
  C   C492      1.0  0.86249  0.23184  0.16020  1.0000
  C   C493      1.0  0.83318  0.24779  0.18609  1.0000
  C   C494      1.0  0.86760  0.23824  0.21027  1.0000
  C   C495      1.0  0.82354  0.19796  0.19199  1.0000
  C   C496      1.0  0.80079  0.18291  0.16899  1.0000
  C   C497      1.0  0.87805  0.21433  0.15816  1.0000
  C   C498      1.0  0.85648  0.24052  0.23934  1.0000
  C   C499      1.0  0.82379  0.25348  0.15740  1.0000
  C   C500      1.0  0.80801  0.27019  0.16034  1.0000
  C   C501      1.0  0.78152  0.15114  0.17539  1.0000
  C   C502      1.0  0.89132  0.21739  0.12948  1.0000
  C   C503      1.0  0.88000  0.24932  0.26127  1.0000
  H   H840      1.0  0.87890  0.25479  0.15716  1.0000
  H   H841      1.0  0.84832  0.22602  0.14182  1.0000
  H   H842      1.0  0.81457  0.23962  0.20043  1.0000
  H   H843      1.0  0.84875  0.26946  0.19401  1.0000
  H   H844      1.0  0.88644  0.25964  0.20547  1.0000
  H   H845      1.0  0.87614  0.22344  0.21278  1.0000
  H   H846      1.0  0.83356  0.18474  0.19653  1.0000
  H   H847      1.0  0.81125  0.19646  0.21098  1.0000
  H   H848      1.0  0.81075  0.18432  0.14860  1.0000
  H   H849      1.0  0.78677  0.19241  0.16758  1.0000
  H   H850      1.0  0.89576  0.22203  0.17349  1.0000
  H   H851      1.0  0.86303  0.19126  0.16163  1.0000
  H   H852      1.0  0.83818  0.21981  0.24601  1.0000
  H   H853      1.0  0.84958  0.25670  0.23941  1.0000
  H   H854      1.0  0.84291  0.26659  0.14429  1.0000
  H   H855      1.0  0.80963  0.23346  0.14612  1.0000
  H   H856      1.0  0.82192  0.29102  0.17075  1.0000
  H   H857      1.0  0.80239  0.27447  0.13937  1.0000
  H   H858      1.0  0.78798  0.25772  0.17238  1.0000
  H   H859      1.0  0.77125  0.14798  0.19601  1.0000
  H   H860      1.0  0.76430  0.14125  0.15952  1.0000
  H   H861      1.0  0.79405  0.13995  0.17487  1.0000
  C   C504      1.0  0.85038  0.46181  0.10516  1.0000
  H   H862      1.0  0.87441  0.20832  0.11326  1.0000
  H   H863      1.0  0.81764  0.23707  0.29256  1.0000
  H   H864      1.0  0.87258  0.25305  0.28147  1.0000
  H   H865      1.0  0.88555  0.23228  0.26404  1.0000
  H   H866      1.0  0.89961  0.26936  0.25515  1.0000
  H   H867      1.0  0.78366  0.06048  0.06519  1.0000
  H   H868      1.0  0.87711  0.30836  0.24730  1.0000
  C   C505      1.0  0.93184  0.45756  0.15657  1.0000
  C   C506      1.0  0.92094  0.45192  0.01173  1.0000
  C   C507      1.0  0.89727  0.37894  0.31294  1.0000
  C   C508      1.0  0.53811  0.48502  0.12902  1.0000
  C   C509      1.0  0.91200  0.32786  0.27661  1.0000
  H   H869      1.0  0.57584  0.17741  0.11122  1.0000
  H   H870      1.0  0.60572  0.24188  0.15397  1.0000
  H   H871      1.0  0.81176  0.41201  0.15478  1.0000
  C   C510      1.0  0.84652  0.41086  0.13428  1.0000
  H   H872      1.0  0.58769  0.00780  0.02937  1.0000
  C   C511      1.0  0.59496  0.47807  0.09231  1.0000
  H   H873      1.0  0.74813  0.06690  0.08912  1.0000
  C   C512      1.0  0.82402  0.42078  0.13538  1.0000
  S   S114      1.0  0.94858  0.37252  0.12544  1.0000
  C   C513      1.0  0.53451  0.05979  0.29955  1.0000
  H   H874      1.0  0.54095  0.22057  0.12708  1.0000
  H   H875      1.0  0.52299  0.18893  0.14696  1.0000
  C   C514      1.0  0.94163  0.34469  0.28012  1.0000
  H   H876      1.0  0.71193  0.05811  0.08235  1.0000
  S   S115      1.0  0.62957  0.48488  0.13729  1.0000
  H   H877      1.0  0.52516  0.24903  0.15256  1.0000
  H   H878      1.0  0.57349  0.14602  0.19476  1.0000
  H   H879      1.0  0.82118  0.37132  0.15744  1.0000
  H   H880      1.0  0.92404  0.47653  0.30194  1.0000
  C   C515      1.0  0.57344  0.05042  0.31033  1.0000
  H   H881      1.0  0.94885  0.44773  0.26409  1.0000
  C   C516      1.0  0.57630  0.07067  0.25149  1.0000
  C   C517      1.0  0.55343  0.00715  0.00330  1.0000
  H   H882      1.0  0.56759  0.24731  0.17191  1.0000
  H   H883      1.0  0.60541  0.05521  0.04985  1.0000
  C   C518      1.0  0.96306  0.39615  0.00826  1.0000
  C   C519      1.0  0.50567  0.45176  0.21675  1.0000
  H   H884      1.0  0.49777  0.10676  0.05345  1.0000
  H   H885      1.0  0.58969  0.24680  0.12410  1.0000
  H   H886      1.0  0.59261  0.16749  0.14785  1.0000
  H   H887      1.0  0.55055  0.16991  0.17104  1.0000
  H   H888      1.0  0.87696  0.46674  0.15240  1.0000
  H   H889      1.0  0.54328  0.21508  0.19043  1.0000
  N   N31       1.0  0.56784  0.20344  0.14021  1.0000
  C   C520      1.0  0.55883  0.18238  0.11654  1.0000
  C   C521      1.0  0.57124  0.18957  0.16606  1.0000
  C   C522      1.0  0.54362  0.20934  0.14522  1.0000
  C   C523      1.0  0.59486  0.23136  0.13417  1.0000
  C   C524      1.0  0.61730  0.23007  0.11491  1.0000
  C   C525      1.0  0.54955  0.19134  0.08956  1.0000
  C   C526      1.0  0.54632  0.22756  0.17117  1.0000
  C   C527      1.0  0.59503  0.18150  0.16563  1.0000
  C   C528      1.0  0.59458  0.16571  0.19213  1.0000
  C   C529      1.0  0.49545  0.09253  0.03588  1.0000
  C   C530      1.0  0.73765  0.17817  0.33084  1.0000
  C   C531      1.0  0.52325  0.23612  0.17121  1.0000
  C   C532      1.0  0.51812  0.43343  0.20533  1.0000
  H   H890      1.0  0.60478  0.10285  0.28107  1.0000
  H   H891      1.0  0.77656  0.23358  0.31841  1.0000
  C   C533      1.0  0.77689  0.09219  0.04265  1.0000
  H   H892      1.0  0.78453  0.19568  0.27559  1.0000
  C   C534      1.0  0.51658  0.03893  0.09097  1.0000
  C   C535      1.0  0.55608  0.42876  0.18266  1.0000
  N   N32       1.0  0.74693  0.07373  0.03142  1.0000
  H   H893      1.0  0.56297  0.03252  0.29516  1.0000
  C   C536      1.0  0.51141  0.41505  0.29523  1.0000
  H   H894      1.0  0.91215  0.37049  0.31199  1.0000
  H   H895      1.0  0.84903  0.37216  0.13619  1.0000
  H   H896      1.0  0.53335  0.39099  0.20944  1.0000
  H   H897      1.0  0.52120  0.05537  0.10714  1.0000
  H   H898      1.0  0.78996  0.10973  0.02786  1.0000
  C   C537      1.0  0.83421  0.26451  0.32786  1.0000
  H   H899      1.0  0.61639  0.06910  0.29161  1.0000
  C   C538      1.0  0.55549  0.40575  0.20230  1.0000
  H   H900      1.0  0.53286  0.05039  0.07461  1.0000
  H   H901      1.0  0.96079  0.35621  0.21142  1.0000
  C   C539      1.0  0.74895  0.06571  0.00185  1.0000
  H   H902      1.0  0.61467  0.10259  0.22995  1.0000
  H   H903      1.0  0.73263  0.21614  0.33313  1.0000
  C   C540      1.0  0.82431  0.09796  0.05868  1.0000
  H   H904      1.0  0.48902  0.06798  0.08738  1.0000
  H   H905      1.0  0.71815  0.19529  0.30183  1.0000
  H   H906      1.0  0.77669  0.10339  0.06200  1.0000
  H   H907      1.0  0.52560  0.24905  0.18998  1.0000
  H   H908      1.0  0.49058  0.40391  0.30631  1.0000
  C   C541      1.0  0.86850  0.35611  0.30110  1.0000
  H   H909      1.0  0.70834  0.07661  0.02846  1.0000
  H   H910      1.0  0.50046  0.01746  0.04093  1.0000
  H   H911      1.0  0.95293  0.40418  0.28919  1.0000
  H   H912      1.0  0.73973  0.03248  0.04525  1.0000
  H   H913      1.0  0.97057  0.45788  0.03475  1.0000
  H   H914      1.0  0.62189  0.21301  0.12082  1.0000
  H   H915      1.0  0.79585  0.06608  0.02978  1.0000
  H   H916      1.0  0.88688  0.46427  0.20195  1.0000
  H   H917      1.0  0.79595  0.17377  0.30993  1.0000
  C   C542      1.0  0.94677  0.45542  0.28498  1.0000
  C   C543      1.0  0.72737  0.13356  0.01890  1.0000
  H   H918      1.0  0.74509  0.12884  0.31641  1.0000
  H   H919      1.0  0.95718  0.40929  0.32560  1.0000
  H   H920      1.0  0.83620  0.11434  0.04254  1.0000
  C   C544      1.0  0.52338  0.01640  0.10308  1.0000
  H   H921      1.0  0.60947  0.22585  0.09316  1.0000
  H   H922      1.0  0.53735  0.15183  0.06728  1.0000
  H   H923      1.0  0.54593  0.45742  0.28782  1.0000
  H   H924      1.0  0.87077  0.35185  0.27896  1.0000
  C   C545      1.0  0.95892  0.43844  0.02149  1.0000
  H   H925      1.0  0.66091  0.25707  0.10067  1.0000
  H   H926      1.0  0.97693  0.40224  0.06534  1.0000
  H   H927      1.0  0.92029  0.46700  0.07882  1.0000
  H   H928      1.0  0.69662  0.00573  0.08616  1.0000
  H   H929      1.0  0.97826  0.38836  0.00436  1.0000
  H   H930      1.0  0.58085  0.06102  0.02932  1.0000
  C   C546      1.0  0.95870  0.42060  0.30577  1.0000
  H   H931      1.0  0.50681  0.00183  0.11789  1.0000
  H   H932      1.0  0.85233  0.36301  0.30294  1.0000
  H   H933      1.0  0.78962  0.12582  0.31975  1.0000
  C   C547      1.0  0.78038  0.17244  0.32583  1.0000
  H   H934      1.0  0.52694  0.04183  0.28449  1.0000
  H   H935      1.0  0.90401  0.43195  0.02151  1.0000
  H   H936      1.0  0.55756  0.01463  0.12535  1.0000
  C   C548      1.0  0.53223  0.46058  0.14873  1.0000
  C   C549      1.0  0.78520  0.21988  0.32574  1.0000
  C   C550      1.0  0.57655  0.09452  0.32753  1.0000
  C   C551      1.0  0.56913  0.11875  0.32557  1.0000
  H   H937      1.0  0.49587  0.23034  0.31741  1.0000
  H   H938      1.0  0.57495  0.48145  0.16514  1.0000
  H   H939      1.0  0.52482  0.00328  0.08612  1.0000
  H   H940      1.0  0.56399  0.48201  0.22756  1.0000
  H   H941      1.0  0.50655  0.46710  0.20097  1.0000
  H   H942      1.0  0.54352  0.18146  0.04557  1.0000
  H   H943      1.0  0.72290  0.15533  0.32594  1.0000
  H   H944      1.0  0.68052  0.19146  0.33395  1.0000
  H   H945      1.0  0.48337  0.16388  0.28696  1.0000
  H   H946      1.0  0.97062  0.48525  0.33314  1.0000
  H   H947      1.0  0.73602  0.15235  0.00489  1.0000
  S   S116      1.0  0.53348  0.11720  0.44829  1.0000
  Fe  Fe55      1.0  0.64204  0.07651  0.39299  1.0000
  S   S117      1.0  0.65433  0.04326  0.38515  1.0000
  S   S118      1.0  0.59465  0.05895  0.38755  1.0000
  Fe  Fe56      1.0  0.70412  0.12287  0.40290  1.0000
  S   S119      1.0  0.72007  0.09212  0.39630  1.0000
  S   S120      1.0  0.73163  0.17065  0.41122  1.0000
  Fe  Fe57      1.0  0.68995  0.07690  0.35950  1.0000
  Fe  Fe58      1.0  0.68244  0.06149  0.42290  1.0000
  S   S121      1.0  0.68190  0.02901  0.45425  1.0000
  S   S122      1.0  0.67582  0.10903  0.36498  1.0000
  S   S123      1.0  0.66840  0.09339  0.43177  1.0000
  C   C552      1.0  0.51808  0.00272  0.43766  1.0000
  S   S124      1.0  0.54105  0.39112  0.36637  1.0000
  Fe  Fe59      1.0  0.89464  0.29901  0.39825  1.0000
  S   S125      1.0  0.94202  0.31777  0.38966  1.0000
  S   S126      1.0  0.86742  0.25013  0.40123  1.0000
  Fe  Fe60      1.0  0.89934  0.35711  0.39387  1.0000
  S   S127      1.0  0.87601  0.38178  0.38930  1.0000
  Fe  Fe61      1.0  0.93560  0.34290  0.35588  1.0000
  Fe  Fe62      1.0  0.94914  0.35301  0.41958  1.0000
  S   S128      1.0  0.88838  0.32223  0.36267  1.0000
  S   S129      1.0  0.90214  0.33265  0.43051  1.0000
  C   C553      1.0  0.88973  0.41339  0.40882  1.0000
  C   C554      1.0  0.90615  0.41724  0.43259  1.0000
  H   H948      1.0  0.56820  0.08309  0.34746  1.0000
  C   C555      1.0  0.88385  0.43486  0.40067  1.0000
  H   H949      1.0  0.91052  0.40065  0.43911  1.0000
  C   C556      1.0  0.78520  0.08565  0.40542  1.0000
  H   H950      1.0  0.87110  0.43191  0.38230  1.0000
  C   C557      1.0  0.57959  0.44333  0.43256  1.0000
  C   C558      1.0  0.55914  0.42112  0.41579  1.0000
  C   C559      1.0  0.56624  0.41756  0.38877  1.0000
  C   C560      1.0  0.59391  0.43596  0.37882  1.0000
  C   C561      1.0  0.54670  0.15279  0.55397  1.0000
  H   H951      1.0  0.53793  0.40680  0.42376  1.0000
  H   H952      1.0  0.56265  0.16677  0.53828  1.0000
  C   C562      1.0  0.76937  0.19236  0.40793  1.0000
  C   C563      1.0  0.78199  0.22219  0.41034  1.0000
  C   C564      1.0  0.81188  0.24023  0.40797  1.0000
  C   C565      1.0  0.82955  0.22856  0.40353  1.0000
  C   C566      1.0  0.81688  0.19869  0.40108  1.0000
  C   C567      1.0  0.78696  0.18070  0.40305  1.0000
  H   H953      1.0  0.76859  0.23146  0.41416  1.0000
  H   H954      1.0  0.82129  0.26314  0.41001  1.0000
  H   H955      1.0  0.83036  0.18946  0.39759  1.0000
  H   H956      1.0  0.77751  0.15788  0.40082  1.0000
  C   C568      1.0  0.67033  0.01823  0.48925  1.0000
  C   C569      1.0  0.67103  0.03718  0.50950  1.0000
  C   C570      1.0  0.66478  0.02844  0.53753  1.0000
  H   H957      1.0  0.51072  0.09832  0.57322  1.0000
  H   H958      1.0  0.74868  0.16903  0.47138  1.0000
  H   H959      1.0  0.49604  0.24458  0.41049  1.0000
  H   H960      1.0  0.67779  0.05899  0.50389  1.0000
  C   C571      1.0  0.53177  0.99337  0.46001  1.0000
  H   H961      1.0  0.84806  0.19653  0.47539  1.0000
  Fe  Fe63      1.0  0.49029  0.10607  0.43071  1.0000
  C   C572      1.0  0.55041  0.10075  0.43182  1.0000
  C   C573      1.0  0.57923  0.10994  0.43767  1.0000
  C   C574      1.0  0.59318  0.09727  0.42423  1.0000
  C   C575      1.0  0.57810  0.07507  0.40532  1.0000
  C   C576      1.0  0.54916  0.06549  0.40002  1.0000
  C   C577      1.0  0.53540  0.07848  0.41299  1.0000
  H   H962      1.0  0.59088  0.12724  0.45222  1.0000
  H   H963      1.0  0.61555  0.10480  0.42836  1.0000
  H   H964      1.0  0.53738  0.04815  0.38558  1.0000
  H   H965      1.0  0.51320  0.07128  0.40840  1.0000
  H   H966      1.0  0.56331  0.47565  0.39868  1.0000
  H   H967      1.0  0.92771  0.44465  0.46738  1.0000
  H   H968      1.0  0.53106  0.19611  0.38254  1.0000
  H   H969      1.0  0.72740  0.06652  0.49350  1.0000
  H   H970      1.0  0.97974  0.35233  0.54644  1.0000
  C   C578      1.0  0.72558  0.44649  0.39624  1.0000
  H   H971      1.0  0.57348  0.02897  0.44876  1.0000
  H   H972      1.0  0.61207  0.03054  0.51867  1.0000
  H   H973      1.0  0.58328  0.47539  0.35810  1.0000
  H   H974      1.0  0.72403  0.03284  0.53328  1.0000
  H   H975      1.0  0.62050  0.09464  0.51535  1.0000
  C   C579      1.0  0.95447  0.47626  0.37448  1.0000
  H   H976      1.0  0.59958  0.43280  0.35815  1.0000
  C   C580      1.0  0.91603  0.44218  0.44849  1.0000
  H   H977      1.0  0.77170  0.47079  0.44580  1.0000
  H   H978      1.0  0.59979  0.14488  0.35772  1.0000
  C   C581      1.0  0.61396  0.45886  0.39513  1.0000
  H   H979      1.0  0.72711  0.09899  0.45915  1.0000
  H   H980      1.0  0.79330  0.13637  0.35596  1.0000
  H   H981      1.0  0.75519  0.14032  0.50824  1.0000
  H   H982      1.0  0.64722  0.08505  0.52462  1.0000
  H   H983      1.0  0.51968  0.06465  0.34085  1.0000
  H   H984      1.0  0.83488  0.26330  0.35085  1.0000
  H   H985      1.0  0.61369  0.00006  0.48162  1.0000
  N   N33       1.0  0.55198  0.48469  0.34082  1.0000
  C   C582      1.0  0.56190  0.01822  0.46822  1.0000
  H   H986      1.0  0.78564  0.07858  0.51743  1.0000
  H   H987      1.0  0.56248  0.20884  0.36121  1.0000
  H   H988      1.0  0.77762  0.11845  0.42079  1.0000
  H   H989      1.0  0.53091  0.11609  0.52779  1.0000
  C   C583      1.0  0.77787  0.12566  0.33870  1.0000
  H   H990      1.0  0.57408  0.44593  0.45351  1.0000
  N   N34       1.0  0.58035  0.01069  0.48600  1.0000
  H   H991      1.0  0.93241  0.40374  0.53481  1.0000
  C   C584      1.0  0.74701  0.04773  0.53800  1.0000
  C   C585      1.0  0.59988  0.03624  0.50373  1.0000
  C   C586      1.0  0.52571  0.47136  0.41800  1.0000
  H   H992      1.0  0.85221  0.16553  0.47701  1.0000
  H   H993      1.0  0.49476  0.11978  0.57546  1.0000
  C   C587      1.0  0.76272  0.06455  0.51206  1.0000
  H   H994      1.0  0.84127  0.17719  0.50758  1.0000
  H   H995      1.0  0.66678  0.04371  0.55315  1.0000
  H   H996      1.0  0.72285  0.15924  0.49883  1.0000
  H   H997      1.0  0.74720  0.07037  0.44695  1.0000
  H   H998      1.0  0.80890  0.11889  0.43479  1.0000
  H   H999      1.0  0.92871  0.42286  0.34972  1.0000
  H   H1000     1.0  0.78011  0.07595  0.46105  1.0000
  C   C588      1.0  0.97774  0.45178  0.51025  1.0000
  H   H1001     1.0  0.72502  0.45344  0.44053  1.0000
  H   H1002     1.0  0.97948  0.44138  0.40709  1.0000
  C   C589      1.0  0.63644  0.08927  0.50709  1.0000
  H   H1003     1.0  0.61175  0.06848  0.47055  1.0000
  H   H1004     1.0  0.96163  0.34728  0.49803  1.0000
  H   H1005     1.0  0.71897  0.11214  0.50338  1.0000
  H   H1006     1.0  0.68475  0.40729  0.40271  1.0000
  H   H1007     1.0  0.80714  0.15574  0.45317  1.0000
  H   H1008     1.0  0.79645  0.16738  0.48304  1.0000
  H   H1009     1.0  0.57242  0.15385  0.35035  1.0000
  H   H1010     1.0  0.81006  0.11832  0.48735  1.0000
  H   H1011     1.0  0.55744  0.14540  0.56877  1.0000
  H   H1012     1.0  0.76078  0.04854  0.49647  1.0000
  H   H1013     1.0  0.61301  0.02204  0.45443  1.0000
  H   H1014     1.0  0.71220  0.14048  0.46625  1.0000
  H   H1015     1.0  0.51246  0.13617  0.52452  1.0000
  C   C590      1.0  0.53918  0.19328  0.36228  1.0000
  H   H1016     1.0  0.95633  0.44683  0.50246  1.0000
  H   H1017     1.0  0.56250  0.00472  0.54550  1.0000
  H   H1018     1.0  0.54152  0.44025  0.34028  1.0000
  C   C591      1.0  0.60681  0.46263  0.42205  1.0000
  H   H1019     1.0  0.74643  0.09296  0.51920  1.0000
  H   H1020     1.0  0.74813  0.45191  0.39353  1.0000
  H   H1021     1.0  0.75780  0.13209  0.45239  1.0000
  H   H1022     1.0  0.56360  0.12221  0.36996  1.0000
  H   H1023     1.0  0.96831  0.40823  0.49993  1.0000
  H   H1024     1.0  0.79328  0.12922  0.51198  1.0000
  C   C592      1.0  0.62196  0.06331  0.48789  1.0000
  S   S130      1.0  0.48652  0.12875  0.39385  1.0000
  H   H1025     1.0  0.65283  0.10798  0.49529  1.0000
  C   C593      1.0  0.54715  0.99162  0.52891  1.0000
  H   H1026     1.0  0.96073  0.42115  0.56042  1.0000
  H   H1027     1.0  0.74864  0.06237  0.55499  1.0000
  C   C594      1.0  0.72996  0.15079  0.48148  1.0000
  C   C595      1.0  0.89462  0.46026  0.41614  1.0000
  H   H1028     1.0  0.76284  0.07127  0.39835  1.0000
  H   H1029     1.0  0.50285  0.46379  0.41320  1.0000
  H   H1030     1.0  0.63910  0.05993  0.47944  1.0000
  H   H1031     1.0  0.58710  0.04291  0.51656  1.0000
  H   H1032     1.0  0.51481  0.05522  0.49502  1.0000
  C   C596      1.0  0.72201  0.46262  0.42100  1.0000
  C   C597      1.0  0.78607  0.10504  0.42898  1.0000
  H   H1033     1.0  0.48697  0.15545  0.33566  1.0000
  H   H1034     1.0  0.53061  0.00778  0.41814  1.0000
  C   C598      1.0  0.83929  0.17491  0.48465  1.0000
  S   S131      1.0  0.94619  0.37948  0.38480  1.0000
  H   H1035     1.0  0.79458  0.07247  0.41228  1.0000
  H   H1036     1.0  0.79780  0.09889  0.38754  1.0000
  C   C599      1.0  0.91059  0.46384  0.44022  1.0000
  H   H1037     1.0  0.79333  0.18199  0.34498  1.0000
  N   N35       1.0  0.76554  0.10355  0.47821  1.0000
  C   C600      1.0  0.74722  0.11593  0.46898  1.0000
  C   C601      1.0  0.76875  0.08728  0.45431  1.0000
  C   C602      1.0  0.74930  0.08215  0.50087  1.0000
  C   C603      1.0  0.79443  0.12597  0.48928  1.0000
  C   C604      1.0  0.80797  0.15629  0.47609  1.0000
  C   C605      1.0  0.73801  0.12929  0.49256  1.0000
  H   H1038     1.0  0.97788  0.46062  0.35219  1.0000
  C   C606      1.0  0.57678  0.13594  0.35255  1.0000
  H   H1039     1.0  0.69901  0.45644  0.42100  1.0000
  H   H1040     1.0  0.71028  0.40303  0.38223  1.0000
  H   H1041     1.0  0.53012  0.44632  0.38608  1.0000
  H   H1042     1.0  0.48396  0.06176  0.59958  1.0000
  C   C607      1.0  0.49338  0.04971  0.48688  1.0000
  H   H1043     1.0  0.62139  0.99021  0.42260  1.0000
  C   C608      1.0  0.70782  0.41417  0.40047  1.0000
  H   H1044     1.0  0.51129  0.44468  0.34181  1.0000
  C   C609      1.0  0.52375  0.19835  0.33824  1.0000
  C   C610      1.0  0.95398  0.40796  0.54124  1.0000
  H   H1045     1.0  0.74073  0.17887  0.35370  1.0000
  H   H1046     1.0  0.95259  0.38719  0.54594  1.0000
  H   H1047     1.0  0.51964  0.48571  0.36647  1.0000
  C   C611      1.0  0.69146  0.17900  0.33775  1.0000
  Fe  Fe64      1.0  0.49388  0.36784  0.37703  1.0000
  H   H1048     1.0  0.71516  0.40770  0.41925  1.0000
  C   C612      1.0  0.59907  0.00378  0.46815  1.0000
  H   H1049     1.0  0.78567  0.22124  0.34889  1.0000
  H   H1050     1.0  0.89022  0.47684  0.40968  1.0000
  H   H1051     1.0  0.55809  0.03438  0.47874  1.0000
  H   H1052     1.0  0.76315  0.10306  0.34460  1.0000
  C   C613      1.0  0.54108  0.46910  0.39236  1.0000
  H   H1053     1.0  0.98052  0.46356  0.52987  1.0000
  C   C614      1.0  0.52176  0.12738  0.53938  1.0000
  H   H1054     1.0  0.53607  0.17139  0.36112  1.0000
  H   H1055     1.0  0.49514  0.05325  0.46409  1.0000
  C   C615      1.0  0.96149  0.46663  0.34727  1.0000
  H   H1056     1.0  0.49633  0.06140  0.54083  1.0000
  C   C616      1.0  0.49090  0.17752  0.33941  1.0000
  C   C617      1.0  0.97564  0.42295  0.51801  1.0000
  H   H1057     1.0  0.52649  0.45763  0.43475  1.0000
  H   H1058     1.0  0.94613  0.45871  0.38993  1.0000
  H   H1059     1.0  0.53906  0.16561  0.56528  1.0000
  H   H1060     1.0  0.71768  0.45140  0.37694  1.0000
  H   H1061     1.0  0.68931  0.47843  0.45357  1.0000
  C   C618      1.0  0.65672  0.00035  0.54572  1.0000
  H   H1062     1.0  0.52886  0.22092  0.33935  1.0000
  H   H1063     1.0  0.69322  0.17708  0.36056  1.0000
  H   H1064     1.0  0.97107  0.44308  0.45708  1.0000
  H   H1065     1.0  0.49909  0.09111  0.49595  1.0000
  C   C619      1.0  0.49943  0.10688  0.56064  1.0000
  H   H1066     1.0  0.51709  0.02182  0.44456  1.0000
  H   H1067     1.0  0.63507  0.47330  0.38709  1.0000
  H   H1068     1.0  0.89388  0.38186  0.33500  1.0000
  H   H1069     1.0  0.74835  0.13858  0.35237  1.0000
  S   S132      1.0  0.65326  0.99174  0.58194  1.0000
  H   H1070     1.0  0.60006  0.02450  0.33786  1.0000
  H   H1071     1.0  0.75661  0.03491  0.54535  1.0000
  H   H1072     1.0  0.53657  0.00336  0.52116  1.0000
  H   H1073     1.0  0.93834  0.48300  0.37101  1.0000
  H   H1074     1.0  0.52041  0.03197  0.33661  1.0000
  C   C620      1.0  0.66203  0.99011  0.49740  1.0000
  H   H1075     1.0  0.91649  0.44483  0.33556  1.0000
  C   C621      1.0  0.93467  0.44062  0.33474  1.0000
  H   H1076     1.0  0.48453  0.17776  0.36129  1.0000
  C   C622      1.0  0.48313  0.06863  0.50029  1.0000
  H   H1077     1.0  0.58678  0.45632  0.97276  1.0000
  H   H1078     1.0  0.58021  0.01719  0.90424  1.0000
  H   H1079     1.0  0.70310  0.09612  0.86623  1.0000
  H   H1080     1.0  0.65171  0.03559  0.97726  1.0000
  C   C623      1.0  0.67469  0.04085  0.84469  1.0000
  C   C624      1.0  0.65612  0.00025  0.77350  1.0000
  H   H1081     1.0  0.59308  0.00635  0.96689  1.0000
  H   H1082     1.0  0.94742  0.39437  0.96537  1.0000
  H   H1083     1.0  0.93388  0.43064  0.98255  1.0000
  H   H1084     1.0  0.57133  0.01913  0.95321  1.0000
  C   C625      1.0  0.67356  0.06755  0.83464  1.0000
  N   N36       1.0  0.66255  0.01519  0.82550  1.0000
  H   H1085     1.0  0.61310  0.02277  0.84011  1.0000
  C   C626      1.0  0.72492  0.04345  0.95583  1.0000
  H   H1086     1.0  0.66404  0.03457  0.86535  1.0000
  C   C627      1.0  0.51034  0.98985  0.95647  1.0000
  H   H1087     1.0  0.70096  0.01194  0.82499  1.0000
  H   H1088     1.0  0.91090  0.45849  0.99536  1.0000
  H   H1089     1.0  0.65090  0.02484  0.74038  1.0000
  C   C628      1.0  0.66815  0.02453  0.79549  1.0000
  H   H1090     1.0  0.61492  0.01693  0.80338  1.0000
  C   C629      1.0  0.61077  0.00692  0.82416  1.0000
  H   H1091     1.0  0.68554  0.00785  0.87665  1.0000
  H   H1092     1.0  0.70390  0.03142  0.94507  1.0000
  H   H1093     1.0  0.68512  0.02603  0.74036  1.0000
  H   H1094     1.0  0.65219  0.06213  0.82670  1.0000
  H   H1095     1.0  0.73547  0.03032  0.95523  1.0000
  H   H1096     1.0  0.69783  0.04882  0.84886  1.0000
  C   C630      1.0  0.93951  0.38374  0.98568  1.0000
  H   H1097     1.0  0.92102  0.38591  0.99238  1.0000
  H   H1098     1.0  0.51992  0.46712  0.74039  1.0000
  H   H1099     1.0  0.49061  0.47279  0.99906  1.0000
  C   C631      1.0  0.66178  0.01230  0.74404  1.0000
  C   C632      1.0  0.63117  0.99544  0.83117  1.0000
  H   H1100     1.0  0.91033  0.34306  0.96629  1.0000
  C   C633      1.0  0.68133  0.08930  0.85808  1.0000
  H   H1101     1.0  0.52557  0.00184  0.93957  1.0000
  H   H1102     1.0  0.76367  0.08499  0.98961  1.0000
  C   C634      1.0  0.64699  0.01924  0.99261  1.0000
  C   C635      1.0  0.57096  0.99912  0.95945  1.0000
  H   H1103     1.0  0.68107  0.10845  0.85013  1.0000
  C   C636      1.0  0.67811  0.99899  0.83141  1.0000
  H   H1104     1.0  0.74165  0.11161  0.99213  1.0000
  H   H1105     1.0  0.73827  0.06380  0.94455  1.0000
  H   H1106     1.0  0.96002  0.46734  0.98892  1.0000
  H   H1107     1.0  0.68929  0.07822  0.81765  1.0000
  H   H1108     1.0  0.69165  0.03803  0.79197  1.0000
  H   H1109     1.0  0.65919  0.03839  0.79007  1.0000
  H   H1110     1.0  0.97876  0.43965  0.96859  1.0000
  H   H1111     1.0  0.66559  0.08001  0.87525  1.0000
  C   C637      1.0  0.58673  0.45994  0.99545  1.0000
  H   H1112     1.0  0.62775  0.98989  0.85354  1.0000
  H   H1113     1.0  0.56535  0.99233  0.82255  1.0000
  H   H1114     1.0  0.98079  0.32639  0.97437  1.0000
  H   H1115     1.0  0.65316  0.99442  0.72884  1.0000
  H   H1116     1.0  0.94557  0.34849  0.97278  1.0000
  C   C638      1.0  0.63838  0.99122  0.98382  1.0000
  C   C639      1.0  0.67757  0.98960  0.86202  1.0000
  C   C640      1.0  0.92840  0.35188  0.98131  1.0000
  C   C641      1.0  0.51111  0.44830  0.72633  1.0000
  H   H1117     1.0  0.60909  0.01168  0.91578  1.0000
  C   C642      1.0  0.94405  0.44704  0.99895  1.0000
  H   H1118     1.0  0.50950  0.00543  0.97084  1.0000
  H   H1119     1.0  0.70882  0.06163  0.98510  1.0000
  H   H1120     1.0  0.51949  0.45548  0.70502  1.0000
  H   H1121     1.0  0.51863  0.43370  0.73369  1.0000
  C   C643      1.0  0.72016  0.04931  0.98579  1.0000
  H   H1122     1.0  0.55062  0.02408  0.99321  1.0000
  C   C644      1.0  0.58619  0.00086  0.90956  1.0000
  H   H1123     1.0  0.58332  0.98795  0.89074  1.0000
  H   H1124     1.0  0.70588  0.02829  0.99553  1.0000
  H   H1125     1.0  0.71890  0.99142  0.86032  1.0000
  H   H1126     1.0  0.92065  0.34001  0.00116  1.0000
  H   H1127     1.0  0.75876  0.05187  0.00127  1.0000
  Fe  Fe65      1.0  0.66464  0.58737  0.10478  1.0000
  S   S133      1.0  0.67664  0.55515  0.08970  1.0000
  S   S134      1.0  0.63771  0.60121  0.07806  1.0000
  Fe  Fe66      1.0  0.68626  0.58632  0.16530  1.0000
  S   S135      1.0  0.69873  0.55407  0.15325  1.0000
  S   S136      1.0  0.70233  0.60459  0.20888  1.0000
  Fe  Fe67      1.0  0.71732  0.57995  0.11494  1.0000
  S   S137      1.0  0.76391  0.59628  0.10273  1.0000
  Fe  Fe68      1.0  0.65724  0.53231  0.12980  1.0000
  C   C645      1.0  0.72507  0.52587  0.20522  1.0000
  S   S138      1.0  0.70667  0.61380  0.12746  1.0000
  S   S139      1.0  0.64316  0.56278  0.14421  1.0000
  H   H1128     1.0  0.71976  0.50725  0.21874  1.0000
  C   C646      1.0  0.65493  0.55824  0.01759  1.0000
  Fe  Fe69      1.0  0.89387  0.56744  0.13735  1.0000
  S   S140      1.0  0.92745  0.61368  0.14465  1.0000
  S   S141      1.0  0.84566  0.54492  0.12834  1.0000
  Fe  Fe70      1.0  0.93384  0.54624  0.15755  1.0000
  C   C647      1.0  0.66500  0.64208  0.00266  1.0000
  Fe  Fe71      1.0  0.93568  0.59786  0.18524  1.0000
  S   S142      1.0  0.93938  0.61897  0.22737  1.0000
  Fe  Fe72      1.0  0.95870  0.60212  0.12486  1.0000
  S   S143      1.0  0.90085  0.55292  0.17884  1.0000
  S   S144      1.0  0.92458  0.55687  0.11518  1.0000
  H   H1129     1.0  0.75244  0.55625  0.23527  1.0000
  C   C648      1.0  0.60442  0.49178  0.00232  1.0000
  H   H1130     1.0  0.93156  0.50626  0.11217  1.0000
  C   C649      1.0  0.93822  0.57859  0.31225  1.0000
  C   C650      1.0  0.93653  0.56413  0.28739  1.0000
  C   C651      1.0  0.93560  0.57561  0.26138  1.0000
  C   C652      1.0  0.93707  0.60214  0.25982  1.0000
  C   C653      1.0  0.93827  0.61643  0.28467  1.0000
  C   C654      1.0  0.93862  0.60465  0.31076  1.0000
  H   H1131     1.0  0.96950  0.61579  0.04562  1.0000
  C   C655      1.0  0.96810  0.53931  0.05454  1.0000
  C   C656      1.0  0.78620  0.58178  0.11126  1.0000
  C   C657      1.0  0.81609  0.59925  0.10883  1.0000
  C   C658      1.0  0.83465  0.58864  0.11487  1.0000
  C   C659      1.0  0.82347  0.56013  0.12276  1.0000
  C   C660      1.0  0.79359  0.54268  0.12541  1.0000
  C   C661      1.0  0.77506  0.55351  0.12005  1.0000
  H   H1132     1.0  0.82495  0.62114  0.10203  1.0000
  H   H1133     1.0  0.85754  0.60230  0.11261  1.0000
  H   H1134     1.0  0.78468  0.52058  0.13142  1.0000
  H   H1135     1.0  0.75214  0.53979  0.12195  1.0000
  C   C662      1.0  0.68696  0.59126  0.24205  1.0000
  C   C663      1.0  0.65734  0.57497  0.24592  1.0000
  C   C664      1.0  0.64595  0.56774  0.27296  1.0000
  C   C665      1.0  0.66395  0.57601  0.29642  1.0000
  C   C666      1.0  0.69360  0.59135  0.29251  1.0000
  C   C667      1.0  0.70498  0.59925  0.26550  1.0000
  H   H1136     1.0  0.64322  0.56897  0.22813  1.0000
  H   H1137     1.0  0.62303  0.55609  0.27572  1.0000
  H   H1138     1.0  0.70775  0.59806  0.31032  1.0000
  H   H1139     1.0  0.72791  0.61206  0.26280  1.0000
  C   C668      1.0  0.67163  0.72148  0.03007  1.0000
  H   H1140     1.0  0.86532  0.59757  0.21265  1.0000
  H   H1141     1.0  0.86224  0.59153  0.17551  1.0000
  C   C669      1.0  0.55777  0.52579  0.06415  1.0000
  C   C670      1.0  0.61551  0.61781  0.03464  1.0000
  C   C671      1.0  0.63992  0.61766  0.04507  1.0000
  C   C672      1.0  0.66468  0.62990  0.02878  1.0000
  H   H1142     1.0  0.59621  0.60854  0.04698  1.0000
  H   H1143     1.0  0.68371  0.63020  0.03639  1.0000
  C   C673      1.0  0.59524  0.53963  0.02672  1.0000
  H   H1144     1.0  0.64085  0.50491  0.23641  1.0000
  H   H1145     1.0  0.95338  0.52082  0.04144  1.0000
  H   H1146     1.0  0.68365  0.66971  0.33401  1.0000
  H   H1147     1.0  0.69992  0.57542  0.02733  1.0000
  H   H1148     1.0  0.53454  0.51306  0.06882  1.0000
  C   C674      1.0  0.59856  0.49196  0.31751  1.0000
  C   C675      1.0  0.76260  0.57719  0.19468  1.0000
  C   C676      1.0  0.87643  0.50054  0.06894  1.0000
  H   H1149     1.0  0.79599  0.58054  0.25123  1.0000
  H   H1150     1.0  0.63020  0.96109  0.04782  1.0000
  H   H1151     1.0  0.88621  0.49733  0.20384  1.0000
  H   H1152     1.0  0.60739  0.49583  0.19841  1.0000
  H   H1153     1.0  0.61215  0.50985  0.24864  1.0000
  H   H1154     1.0  0.87014  0.50829  0.11132  1.0000
  H   H1155     1.0  0.65729  0.68010  0.04959  1.0000
  C   C677      1.0  0.63230  0.97035  0.00398  1.0000
  C   C678      1.0  0.64742  0.80672  0.00759  1.0000
  H   H1156     1.0  0.68613  0.71868  0.01570  1.0000
  H   H1157     1.0  0.63580  0.61196  0.31272  1.0000
  H   H1158     1.0  0.80170  0.67848  0.16602  1.0000
  H   H1159     1.0  0.64103  0.50141  0.30469  1.0000
  C   C679      1.0  0.66649  0.64453  0.28602  1.0000
  H   H1160     1.0  0.76903  0.63928  0.19810  1.0000
  C   C680      1.0  0.61755  0.49376  0.24102  1.0000
  H   H1161     1.0  0.60563  0.53152  0.04106  1.0000
  H   H1162     1.0  0.57743  0.55267  0.28588  1.0000
  C   C681      1.0  0.63485  0.97745  0.03247  1.0000
  H   H1163     1.0  0.85092  0.63474  0.20683  1.0000
  H   H1164     1.0  0.72526  0.51953  0.18331  1.0000
  H   H1165     1.0  0.54380  0.54892  0.29743  1.0000
  C   C682      1.0  0.68650  0.57433  0.00933  1.0000
  H   H1166     1.0  0.67677  0.66795  0.28273  1.0000
  H   H1167     1.0  0.58300  0.68516  0.00884  1.0000
  C   C683      1.0  0.78176  0.65971  0.15823  1.0000
  H   H1168     1.0  0.56091  0.49640  0.12258  1.0000
  H   H1169     1.0  0.60775  0.50094  0.08942  1.0000
  H   H1170     1.0  0.52653  0.49799  0.31745  1.0000
  H   H1171     1.0  0.80885  0.58168  0.17287  1.0000
  H   H1172     1.0  0.67083  0.81959  0.00386  1.0000
  C   C684      1.0  0.61567  0.62953  0.00831  1.0000
  H   H1173     1.0  0.55332  0.49995  0.02860  1.0000
  H   H1174     1.0  0.69310  0.59651  0.00288  1.0000
  H   H1175     1.0  0.54867  0.96132  0.01972  1.0000
  C   C685      1.0  0.86666  0.60749  0.19212  1.0000
  H   H1176     1.0  0.60350  0.56206  0.03332  1.0000
  H   H1177     1.0  0.88128  0.52217  0.06221  1.0000
  H   H1178     1.0  0.81351  0.57859  0.20854  1.0000
  H   H1179     1.0  0.78515  0.65476  0.13665  1.0000
  H   H1180     1.0  0.74516  0.52481  0.32713  1.0000
  H   H1181     1.0  0.56927  0.51782  0.07717  1.0000
  H   H1182     1.0  0.59161  0.72081  0.01771  1.0000
  H   H1183     1.0  0.81701  0.64471  0.18031  1.0000
  H   H1184     1.0  0.93622  0.54401  0.28830  1.0000
  H   H1185     1.0  0.58782  0.54416  0.33438  1.0000
  H   H1186     1.0  0.54583  0.91380  0.02476  1.0000
  H   H1187     1.0  0.94006  0.61611  0.32965  1.0000
  C   C686      1.0  0.66774  0.70301  0.05553  1.0000
  C   C687      1.0  0.80266  0.61402  0.27934  1.0000
  C   C688      1.0  0.56594  0.55505  0.30384  1.0000
  H   H1188     1.0  0.56557  0.54850  0.06961  1.0000
  H   H1189     1.0  0.65259  0.56955  0.03574  1.0000
  H   H1190     1.0  0.64048  0.75590  0.03013  1.0000
  H   H1191     1.0  0.76449  0.66520  0.15793  1.0000
  H   H1192     1.0  0.65452  0.70583  0.07147  1.0000
  H   H1193     1.0  0.81390  0.63772  0.28036  1.0000
  H   H1194     1.0  0.93438  0.56423  0.24249  1.0000
  C   C689      1.0  0.84555  0.61850  0.19034  1.0000
  S   S145      1.0  0.64825  0.56874  0.33002  1.0000
  H   H1195     1.0  0.76992  0.54342  0.21194  1.0000
  H   H1196     1.0  0.68339  0.63864  0.28797  1.0000
  C   C690      1.0  0.80668  0.60410  0.25084  1.0000
  C   C691      1.0  0.56279  0.52301  0.03340  1.0000
  H   H1197     1.0  0.82993  0.61229  0.24806  1.0000
  H   H1198     1.0  0.81008  0.63900  0.22692  1.0000
  H   H1199     1.0  0.55730  0.50269  0.29957  1.0000
  H   H1200     1.0  0.74592  0.58310  0.19873  1.0000
  S   S146      1.0  0.96935  0.59043  0.16644  1.0000
  H   H1201     1.0  0.77954  0.60530  0.28373  1.0000
  H   H1202     1.0  0.95645  0.55021  0.06176  1.0000
  H   H1203     1.0  0.64323  0.80519  0.03026  1.0000
  H   H1204     1.0  0.84879  0.62923  0.16990  1.0000
  H   H1205     1.0  0.86613  0.49232  0.15321  1.0000
  H   H1206     1.0  0.81167  0.60626  0.29567  1.0000
  H   H1207     1.0  0.88887  0.62553  0.18945  1.0000
  H   H1208     1.0  0.60392  0.49375  0.02509  1.0000
  H   H1209     1.0  0.63173  0.64263  0.30961  1.0000
  H   H1210     1.0  0.75251  0.61629  0.16849  1.0000
  H   H1211     1.0  0.70814  0.53167  0.20781  1.0000
  C   C692      1.0  0.54951  0.50448  0.32035  1.0000
  H   H1212     1.0  0.79675  0.61711  0.15612  1.0000
  C   C693      1.0  0.75428  0.55094  0.21342  1.0000
  H   H1213     1.0  0.89700  0.50117  0.07299  1.0000
  S   S147      1.0  0.93970  0.50970  0.17176  1.0000
  H   H1214     1.0  0.53311  0.50044  0.13920  1.0000
  H   H1215     1.0  0.93934  0.63693  0.28374  1.0000
  H   H1216     1.0  0.75975  0.57001  0.17260  1.0000
  H   H1217     1.0  0.77434  0.61289  0.23415  1.0000
  C   C694      1.0  0.64256  0.71225  0.01558  1.0000
  H   H1218     1.0  0.68217  0.74413  0.03683  1.0000
  H   H1219     1.0  0.67193  0.77468  0.01025  1.0000
  C   C695      1.0  0.64839  0.76005  0.00833  1.0000
  C   C696      1.0  0.77293  0.63383  0.17697  1.0000
  C   C697      1.0  0.62815  0.49604  0.32399  1.0000
  N   N37       1.0  0.79219  0.60267  0.19873  1.0000
  C   C698      1.0  0.81411  0.59378  0.19278  1.0000
  C   C699      1.0  0.79606  0.62480  0.17734  1.0000
  C   C700      1.0  0.79524  0.61545  0.22734  1.0000
  H   H1220     1.0  0.63531  0.69091  0.00606  1.0000
  H   H1221     1.0  0.62694  0.70850  0.03237  1.0000
  H   H1222     1.0  0.60159  0.50980  0.30390  1.0000
  H   H1223     1.0  0.55175  0.48976  0.18353  1.0000
  H   H1224     1.0  0.55108  0.53158  0.02164  1.0000
  H   H1225     1.0  0.65320  0.63343  0.26754  1.0000
  H   H1226     1.0  0.68895  0.70925  0.06477  1.0000
  C   C701      1.0  0.56543  0.53665  0.32815  1.0000
  H   H1227     1.0  0.57730  0.57788  0.31014  1.0000
  H   H1228     1.0  0.92367  0.50085  0.25843  1.0000
  C   C702      1.0  0.64773  0.63564  0.31197  1.0000
  H   H1229     1.0  0.95957  0.51060  0.26859  1.0000
  H   H1230     1.0  0.64961  0.53666  0.02449  1.0000
  H   H1231     1.0  0.97593  0.55697  0.23942  1.0000
  H   H1232     1.0  0.83862  0.49327  0.09024  1.0000
  C   C703      1.0  0.85814  0.49215  0.09520  1.0000
  C   C704      1.0  0.93883  0.49276  0.26103  1.0000
  H   H1233     1.0  0.97449  0.53159  0.07310  1.0000
  H   H1234     1.0  0.65248  0.68951  0.32160  1.0000
  H   H1235     1.0  0.65436  0.73418  0.33468  1.0000
  C   C705      1.0  0.54990  0.91398  0.00216  1.0000
  Fe  Fe73      1.0  0.59965  0.89003  0.63086  1.0000
  S   S148      1.0  0.63269  0.93385  0.64662  1.0000
  S   S149      1.0  0.59509  0.84736  0.64450  1.0000
  Fe  Fe74      1.0  0.55938  0.91145  0.61216  1.0000
  S   S150      1.0  0.58850  0.95559  0.62797  1.0000
  S   S151      1.0  0.51991  0.90250  0.58797  1.0000
  Fe  Fe75      1.0  0.62329  0.95107  0.60699  1.0000
  H   H1236     1.0  0.54010  0.81037  0.61771  1.0000
  S   S152      1.0  0.59345  0.90697  0.58998  1.0000
  S   S153      1.0  0.56271  0.89121  0.65122  1.0000
  H   H1237     1.0  0.95917  0.51493  0.55770  1.0000
  S   S154      1.0  0.56568  0.68558  0.63233  1.0000
  Fe  Fe76      1.0  0.61567  0.65982  0.60104  1.0000
  S   S155      1.0  0.59171  0.67509  0.57486  1.0000
  S   S156      1.0  0.64048  0.63964  0.58195  1.0000
  Fe  Fe77      1.0  0.60499  0.71028  0.60644  1.0000
  S   S157      1.0  0.62252  0.75604  0.59112  1.0000
  Fe  Fe78      1.0  0.55476  0.64906  0.60329  1.0000
  S   S158      1.0  0.51062  0.62136  0.58486  1.0000
  S   S159      1.0  0.63169  0.69676  0.63158  1.0000
  S   S160      1.0  0.57779  0.63184  0.62817  1.0000
  Fe  Fe79      1.0  0.72075  0.57908  0.40685  1.0000
  S   S161      1.0  0.70542  0.60907  0.39262  1.0000
  S   S162      1.0  0.76600  0.58907  0.39525  1.0000
  Fe  Fe80      1.0  0.66050  0.53330  0.42285  1.0000
  S   S163      1.0  0.64110  0.55938  0.40909  1.0000
  H   H1238     1.0  0.72041  0.53701  0.48249  1.0000
  Fe  Fe81      1.0  0.66966  0.57063  0.37167  1.0000
  Fe  Fe82      1.0  0.67794  0.59562  0.43145  1.0000
  S   S164      1.0  0.66594  0.62548  0.45443  1.0000
  S   S165      1.0  0.68585  0.54115  0.38385  1.0000
  S   S166      1.0  0.69632  0.56888  0.44727  1.0000
  Fe  Fe83      1.0  0.90217  0.57510  0.43821  1.0000
  S   S167      1.0  0.94174  0.60848  0.41598  1.0000
  S   S168      1.0  0.86699  0.58161  0.45743  1.0000
  Fe  Fe84      1.0  0.92555  0.53367  0.44134  1.0000
  C   C706      1.0  0.71536  0.68881  0.41440  1.0000
  Fe  Fe85      1.0  0.96668  0.59785  0.44726  1.0000
  Fe  Fe86      1.0  0.93725  0.57132  0.39031  1.0000
  S   S169      1.0  0.92760  0.56688  0.47041  1.0000
  S   S170      1.0  0.89638  0.53847  0.41123  1.0000
  S   S171      1.0  0.63179  0.49074  0.44317  1.0000
  C   C707      1.0  0.50314  0.80466  0.64016  1.0000
  C   C708      1.0  0.62563  0.61741  0.36847  1.0000
  C   C709      1.0  0.79338  0.58629  0.41318  1.0000
  C   C710      1.0  0.81555  0.58646  0.39768  1.0000
  C   C711      1.0  0.83794  0.58457  0.41082  1.0000
  C   C712      1.0  0.83870  0.58297  0.43975  1.0000
  C   C713      1.0  0.81654  0.58281  0.45529  1.0000
  C   C714      1.0  0.79395  0.58437  0.44211  1.0000
  H   H1239     1.0  0.81546  0.58816  0.37531  1.0000
  H   H1240     1.0  0.85485  0.58482  0.39857  1.0000
  H   H1241     1.0  0.81696  0.58168  0.47768  1.0000
  H   H1242     1.0  0.77727  0.58458  0.45433  1.0000
  H   H1243     1.0  0.97409  0.49472  0.38318  1.0000
  H   H1244     1.0  0.81519  0.48886  0.41696  1.0000
  H   H1245     1.0  0.52674  0.82450  0.54479  1.0000
  C   C715      1.0  0.64587  0.63473  0.54621  1.0000
  C   C716      1.0  0.65756  0.61736  0.53927  1.0000
  C   C717      1.0  0.66327  0.61374  0.51138  1.0000
  C   C718      1.0  0.65765  0.62775  0.48995  1.0000
  C   C719      1.0  0.64546  0.64470  0.49685  1.0000
  C   C720      1.0  0.63946  0.64805  0.52471  1.0000
  H   H1246     1.0  0.66266  0.60694  0.55565  1.0000
  H   H1247     1.0  0.67264  0.60064  0.50654  1.0000
  H   H1248     1.0  0.64103  0.65572  0.48058  1.0000
  H   H1249     1.0  0.63071  0.66166  0.52963  1.0000
  H   H1250     1.0  0.98182  0.66965  0.48907  1.0000
  C   C721      1.0  0.73203  0.50789  0.39788  1.0000
  H   H1251     1.0  0.58368  0.59406  0.58926  1.0000
  H   H1252     1.0  0.60143  0.62764  0.39894  1.0000
  H   H1253     1.0  0.54085  0.63185  0.52499  1.0000
  C   C722      1.0  0.60126  0.82204  0.62718  1.0000
  C   C723      1.0  0.58574  0.79332  0.63560  1.0000
  C   C724      1.0  0.59124  0.77269  0.62392  1.0000
  C   C725      1.0  0.61298  0.78073  0.60432  1.0000
  C   C726      1.0  0.62806  0.80933  0.59541  1.0000
  C   C727      1.0  0.62212  0.82989  0.60663  1.0000
  H   H1254     1.0  0.73602  0.52940  0.40416  1.0000
  H   H1255     1.0  0.57880  0.75058  0.63011  1.0000
  H   H1256     1.0  0.64479  0.81569  0.58007  1.0000
  H   H1257     1.0  0.63431  0.85194  0.60004  1.0000
  H   H1258     1.0  0.59515  0.56960  0.57847  1.0000
  C   C728      1.0  0.53443  0.82946  0.56651  1.0000
  C   C729      1.0  0.59362  0.54856  0.48500  1.0000
  H   H1259     1.0  0.57282  0.98309  0.43145  1.0000
  C   C730      1.0  0.49366  0.53995  0.54420  1.0000
  C   C731      1.0  0.57193  0.55694  0.52846  1.0000
  C   C732      1.0  0.65417  0.76943  0.65901  1.0000
  H   H1260     1.0  0.51984  0.77699  0.54341  1.0000
  H   H1261     1.0  0.57889  0.64676  0.51934  1.0000
  C   C733      1.0  0.70584  0.50139  0.45340  1.0000
  C   C734      1.0  0.58254  0.49138  0.34429  1.0000
  H   H1262     1.0  0.55550  0.51090  0.37649  1.0000
  H   H1263     1.0  0.63584  0.75129  0.64847  1.0000
  C   C735      1.0  0.69673  0.68531  0.38907  1.0000
  C   C736      1.0  0.74774  0.51303  0.36963  1.0000
  H   H1264     1.0  0.92559  0.56227  0.53173  1.0000
  H   H1265     1.0  0.67509  0.63929  0.39303  1.0000
  H   H1266     1.0  0.55792  0.80592  0.57239  1.0000
  C   C737      1.0  0.52429  0.81775  0.61553  1.0000
  C   C738      1.0  0.49784  0.76977  0.55096  1.0000
  H   H1267     1.0  0.83349  0.61809  0.52584  1.0000
  H   H1268     1.0  0.67711  0.70661  0.34933  1.0000
  H   H1269     1.0  0.67677  0.63520  0.34269  1.0000
  H   H1270     1.0  0.97450  0.65383  0.53445  1.0000
  C   C739      1.0  0.57759  0.57128  0.58855  1.0000
  N   N38       1.0  0.54876  0.56049  0.54257  1.0000
  H   H1271     1.0  0.61111  0.57112  0.48379  1.0000
  C   C740      1.0  0.55505  0.59093  0.54017  1.0000
  H   H1272     1.0  0.56965  0.82651  0.52453  1.0000
  H   H1273     1.0  0.52115  0.59007  0.62783  1.0000
  H   H1274     1.0  0.59296  0.57718  0.52976  1.0000
  H   H1275     1.0  0.75176  0.52893  0.45045  1.0000
  H   H1276     1.0  0.73481  0.54219  0.35258  1.0000
  H   H1277     1.0  0.57711  0.60606  0.54765  1.0000
  C   C741      1.0  0.65410  0.69477  0.34402  1.0000
  H   H1278     1.0  0.74825  0.49395  0.36225  1.0000
  C   C742      1.0  0.58093  0.83981  0.54294  1.0000
  C   C743      1.0  0.52455  0.96380  0.54231  1.0000
  H   H1279     1.0  0.85970  0.65325  0.53773  1.0000
  H   H1280     1.0  0.64923  0.95960  0.53112  1.0000
  H   H1281     1.0  0.49595  0.98520  0.43333  1.0000
  N   N39       1.0  0.64964  0.64779  0.36422  1.0000
  H   H1282     1.0  0.71092  0.50493  0.34407  1.0000
  H   H1283     1.0  0.65743  0.65606  0.40834  1.0000
  H   H1284     1.0  0.50773  0.95025  0.52703  1.0000
  C   C744      1.0  0.77213  0.50422  0.41897  1.0000
  H   H1285     1.0  0.54055  0.85232  0.56931  1.0000
  C   C745      1.0  0.56685  0.54679  0.49771  1.0000
  C   C746      1.0  0.60815  0.61155  0.39565  1.0000
  C   C747      1.0  0.56240  0.82806  0.56885  1.0000
  C   C748      1.0  0.55721  0.63123  0.51147  1.0000
  H   H1286     1.0  0.63985  0.51354  0.33916  1.0000
  H   H1287     1.0  0.63347  0.67348  0.38250  1.0000
  H   H1288     1.0  0.49611  0.87092  0.63890  1.0000
  N   N40       1.0  0.51118  0.81096  0.58681  1.0000
  H   H1289     1.0  0.95679  0.54699  0.55775  1.0000
  H   H1290     1.0  0.78588  0.50535  0.46217  1.0000
  H   H1291     1.0  0.62111  0.61201  0.41375  1.0000
  H   H1292     1.0  0.82912  0.52423  0.43143  1.0000
  H   H1293     1.0  0.66164  0.97525  0.48212  1.0000
  H   H1294     1.0  0.65443  0.78941  0.65324  1.0000
  H   H1295     1.0  0.61529  0.65547  0.35194  1.0000
  H   H1296     1.0  0.49262  0.54036  0.64430  1.0000
  C   C749      1.0  0.54866  0.55383  0.57305  1.0000
  H   H1297     1.0  0.73514  0.71007  0.41388  1.0000
  H   H1298     1.0  0.51833  0.54219  0.50848  1.0000
  H   H1299     1.0  0.78492  0.52799  0.41863  1.0000
  H   H1300     1.0  0.54949  0.52409  0.49654  1.0000
  H   H1301     1.0  0.57056  0.60228  0.49755  1.0000
  H   H1302     1.0  0.60117  0.83944  0.54596  1.0000
  H   H1303     1.0  0.57024  0.57781  0.41552  1.0000
  H   H1304     1.0  0.57523  0.84136  0.58664  1.0000
  C   C750      1.0  0.96156  0.65840  0.47710  1.0000
  C   C751      1.0  0.66897  0.65583  0.38933  1.0000
  H   H1305     1.0  0.58888  0.53964  0.46363  1.0000
  H   H1306     1.0  0.95785  0.63692  0.47153  1.0000
  C   C752      1.0  0.96597  0.67497  0.45015  1.0000
  S   S172      1.0  0.92371  0.49478  0.46080  1.0000
  H   H1307     1.0  0.51580  0.51718  0.53354  1.0000
  N   N41       1.0  0.93153  0.64349  0.52249  1.0000
  C   C753      1.0  0.90707  0.64536  0.53550  1.0000
  H   H1308     1.0  0.58635  0.86224  0.53914  1.0000
  C   C754      1.0  0.93547  0.65551  0.49346  1.0000
  C   C755      1.0  0.92520  0.61308  0.52019  1.0000
  C   C756      1.0  0.91873  0.59613  0.54764  1.0000
  C   C757      1.0  0.87742  0.62785  0.52107  1.0000
  H   H1309     1.0  0.53241  0.97454  0.45200  1.0000
  H   H1310     1.0  0.96729  0.49683  0.51051  1.0000
  H   H1311     1.0  0.55498  0.63781  0.49022  1.0000
  C   C758      1.0  0.90860  0.56462  0.54222  1.0000
  C   C759      1.0  0.85432  0.63056  0.53679  1.0000
  H   H1312     1.0  0.49131  0.81638  0.64321  1.0000
  H   H1313     1.0  0.91239  0.66812  0.53623  1.0000
  H   H1314     1.0  0.90384  0.63828  0.55742  1.0000
  C   C760      1.0  0.95701  0.66412  0.57032  1.0000
  H   H1315     1.0  0.69139  0.70259  0.39028  1.0000
  H   H1316     1.0  0.70992  0.68824  0.37046  1.0000
  H   H1317     1.0  0.91654  0.64179  0.48021  1.0000
  H   H1318     1.0  0.90727  0.60082  0.50540  1.0000
  H   H1319     1.0  0.94372  0.61258  0.51088  1.0000
  H   H1320     1.0  0.90173  0.59699  0.55970  1.0000
  H   H1321     1.0  0.93851  0.60468  0.56034  1.0000
  H   H1322     1.0  0.87776  0.63548  0.49964  1.0000
  H   H1323     1.0  0.87060  0.60480  0.52025  1.0000
  H   H1324     1.0  0.68278  0.75222  0.65300  1.0000
  C   C761      1.0  0.55320  0.60119  0.51069  1.0000
  H   H1325     1.0  0.68279  0.51105  0.48440  1.0000
  H   H1326     1.0  0.63421  0.60244  0.36822  1.0000
  H   H1327     1.0  0.72163  0.67212  0.41458  1.0000
  H   H1328     1.0  0.56642  0.58073  0.37867  1.0000
  H   H1329     1.0  0.59606  0.57474  0.62932  1.0000
  H   H1330     1.0  0.90355  0.55290  0.56222  1.0000
  C   C762      1.0  0.51959  0.53932  0.53109  1.0000
  H   H1331     1.0  0.94628  0.66462  0.43717  1.0000
  H   H1332     1.0  0.70367  0.68723  0.43390  1.0000
  C   C763      1.0  0.95914  0.66155  0.53842  1.0000
  C   C764      1.0  0.50033  0.57635  0.61903  1.0000
  H   H1333     1.0  0.70852  0.49508  0.39403  1.0000
  H   H1334     1.0  0.94768  0.67793  0.57490  1.0000
  C   C765      1.0  0.65483  0.98108  0.52525  1.0000
  H   H1335     1.0  0.58720  0.56521  0.39173  1.0000
  C   C766      1.0  0.68151  0.77150  0.64750  1.0000
  H   H1336     1.0  0.85194  0.62204  0.55819  1.0000
  H   H1337     1.0  0.57526  0.54072  0.53955  1.0000
  C   C767      1.0  0.73619  0.50566  0.44837  1.0000
  H   H1338     1.0  0.61001  0.61062  0.35105  1.0000
  Fe  Fe87      1.0  0.59118  0.66987  0.65618  1.0000
  C   C768      1.0  0.64231  0.71502  0.34797  1.0000
  H   H1339     1.0  0.56951  0.78699  0.65142  1.0000
  H   H1340     1.0  0.88899  0.55480  0.52909  1.0000
  C   C769      1.0  0.66597  0.64791  0.33877  1.0000
  H   H1341     1.0  0.94704  0.52506  0.58841  1.0000
  H   H1342     1.0  0.53625  0.49372  0.42569  1.0000
  H   H1343     1.0  0.51732  0.98632  0.47824  1.0000
  C   C770      1.0  0.58135  0.58196  0.39522  1.0000
  H   H1344     1.0  0.53665  0.84126  0.61878  1.0000
  H   H1345     1.0  0.57031  0.53866  0.61921  1.0000
  H   H1346     1.0  0.97015  0.68405  0.53081  1.0000
  H   H1347     1.0  0.77024  0.53073  0.37175  1.0000
  H   H1348     1.0  0.59565  0.51212  0.35525  1.0000
  H   H1349     1.0  0.53326  0.55794  0.58461  1.0000
  H   H1350     1.0  0.53215  0.58705  0.50089  1.0000
  H   H1351     1.0  0.49757  0.84192  0.59276  1.0000
  H   H1352     1.0  0.77716  0.49743  0.39908  1.0000
  H   H1353     1.0  0.70069  0.79079  0.65572  1.0000
  C   C771      1.0  0.63701  0.66713  0.36152  1.0000
  H   H1354     1.0  0.54134  0.53070  0.57590  1.0000
  H   H1355     1.0  0.97162  0.69734  0.45466  1.0000
  H   H1356     1.0  0.54757  0.96661  0.49391  1.0000
  H   H1357     1.0  0.59381  0.95329  0.41958  1.0000
  H   H1358     1.0  0.69996  0.51215  0.43722  1.0000
  H   H1359     1.0  0.48808  0.77862  0.53682  1.0000
  C   C772      1.0  0.49865  0.77931  0.58152  1.0000
  H   H1360     1.0  0.93725  0.67696  0.49408  1.0000
  H   H1361     1.0  0.68151  0.77313  0.62450  1.0000
  H   H1362     1.0  0.49613  0.56154  0.54265  1.0000
  H   H1363     1.0  0.55843  0.56325  0.62976  1.0000
  H   H1364     1.0  0.94338  0.64324  0.58038  1.0000
  C   C773      1.0  0.96209  0.53321  0.57061  1.0000
  C   C774      1.0  0.57531  0.56123  0.61855  1.0000
  S   S173      1.0  0.96593  0.56409  0.41940  1.0000
  H   H1365     1.0  0.82438  0.49519  0.45325  1.0000
  H   H1366     1.0  0.54084  0.59469  0.55415  1.0000
  H   H1367     1.0  0.60098  0.53617  0.49750  1.0000
  C   C775      1.0  0.48967  0.58656  0.59827  1.0000
  H   H1368     1.0  0.56060  0.55955  0.48457  1.0000
  H   H1369     1.0  0.64472  0.72217  0.36993  1.0000
  C   C776      1.0  0.48826  0.81921  0.58616  1.0000
  H   H1370     1.0  0.56789  0.95837  0.45916  1.0000
  C   C777      1.0  0.60514  0.97136  0.43432  1.0000
  H   H1371     1.0  0.70857  0.50262  0.49864  1.0000
  H   H1372     1.0  0.51424  0.96859  0.55981  1.0000
  H   H1373     1.0  0.53462  0.95174  0.55062  1.0000
  S   S174      1.0  0.94220  0.56414  0.34408  1.0000
  H   H1374     1.0  0.97760  0.59917  0.52095  1.0000
  N   N42       1.0  0.74066  0.49473  0.42104  1.0000
  C   C778      1.0  0.48903  0.89456  0.60697  1.0000
  C   C779      1.0  0.58367  0.97799  0.44823  1.0000
  C   C780      1.0  0.56330  0.98593  0.50538  1.0000
  H   H1375     1.0  0.51082  0.77094  0.59312  1.0000
  C   C781      1.0  0.81517  0.50105  0.43551  1.0000
  H   H1376     1.0  0.55435  0.54051  0.34554  1.0000
  H   H1377     1.0  0.49106  0.53350  0.56631  1.0000
  C   C782      1.0  0.70446  0.51382  0.48148  1.0000
  H   H1378     1.0  0.53004  0.79447  0.66604  1.0000
  H   H1379     1.0  0.48759  0.82615  0.54090  1.0000
  C   C783      1.0  0.48400  0.54817  0.62850  1.0000
  Fe  Fe88      1.0  0.59520  0.93489  0.66570  1.0000
  H   H1380     1.0  0.48748  0.78176  0.63643  1.0000
  C   C784      1.0  0.73366  0.52170  0.34704  1.0000
  C   C785      1.0  0.78472  0.49416  0.44246  1.0000
  H   H1381     1.0  0.49063  0.72741  0.56151  1.0000
  H   H1382     1.0  0.57769  0.97942  0.51573  1.0000
  H   H1383     1.0  0.51207  0.93623  0.65588  1.0000
  H   H1384     1.0  0.61934  0.70434  0.34200  1.0000
  H   H1385     1.0  0.74053  0.49519  0.46610  1.0000
  H   H1386     1.0  0.61625  0.96534  0.45007  1.0000
  C   C786      1.0  0.54160  0.48878  0.36864  1.0000
  C   C787      1.0  0.51887  0.80697  0.66731  1.0000
  H   H1387     1.0  0.98254  0.49168  0.46597  1.0000
  S   S175      1.0  0.58865  0.94587  0.70999  1.0000
  Fe  Fe89      1.0  0.61037  0.91405  0.86643  1.0000
  S   S176      1.0  0.57361  0.87167  0.87858  1.0000
  S   S177      1.0  0.63044  0.91850  0.82373  1.0000
  Fe  Fe90      1.0  0.61354  0.93999  0.92542  1.0000
  S   S178      1.0  0.57649  0.89878  0.94105  1.0000
  Fe  Fe91      1.0  0.59734  0.87703  0.91849  1.0000
  S   S179      1.0  0.61091  0.84591  0.93486  1.0000
  Fe  Fe92      1.0  0.55620  0.89699  0.89950  1.0000
  S   S180      1.0  0.51336  0.89012  0.88512  1.0000
  S   S181      1.0  0.63560  0.91860  0.90527  1.0000
  S   S182      1.0  0.59191  0.93917  0.88504  1.0000
  Fe  Fe93      1.0  0.61169  0.66006  0.92693  1.0000
  S   S183      1.0  0.56518  0.64608  0.93351  1.0000
  S   S184      1.0  0.64266  0.65842  0.95922  1.0000
  Fe  Fe94      1.0  0.60862  0.67400  0.86412  1.0000
  S   S185      1.0  0.56215  0.66022  0.86701  1.0000
  S   S186      1.0  0.63377  0.69089  0.82368  1.0000
  Fe  Fe95      1.0  0.57395  0.68454  0.90735  1.0000
  S   S187      1.0  0.55316  0.71174  0.91450  1.0000
  Fe  Fe96      1.0  0.55798  0.62362  0.89252  1.0000
  S   S188      1.0  0.52634  0.57764  0.88206  1.0000
  S   S189      1.0  0.62097  0.70030  0.90346  1.0000
  S   S190      1.0  0.60393  0.63558  0.88695  1.0000
  S   S191      1.0  0.57820  0.66321  0.70227  1.0000
  C   C788      1.0  0.61845  0.68472  0.78985  1.0000
  C   C789      1.0  0.63601  0.69011  0.76643  1.0000
  C   C790      1.0  0.62437  0.68445  0.73932  1.0000
  C   C791      1.0  0.59500  0.67352  0.73538  1.0000
  C   C792      1.0  0.57776  0.66950  0.75872  1.0000
  C   C793      1.0  0.58931  0.67486  0.78578  1.0000
  H   H1388     1.0  0.65864  0.69800  0.76932  1.0000
  H   H1389     1.0  0.63796  0.68775  0.72160  1.0000
  H   H1390     1.0  0.55519  0.66182  0.75587  1.0000
  H   H1391     1.0  0.57568  0.67126  0.80351  1.0000
  H   H1392     1.0  0.63882  0.77972  0.97221  1.0000
  H   H1393     1.0  0.48432  0.97318  0.76576  1.0000
  H   H1394     1.0  0.64782  0.78455  0.78964  1.0000
  H   H1395     1.0  0.67584  0.77569  0.79121  1.0000
  H   H1396     1.0  0.67310  0.78046  0.69958  1.0000
  H   H1397     1.0  0.56917  0.49663  0.98684  1.0000
  H   H1398     1.0  0.59209  0.82503  0.74542  1.0000
  H   H1399     1.0  0.59027  0.57623  0.91184  1.0000
  H   H1400     1.0  0.57142  0.73245  0.72942  1.0000
  C   C794      1.0  0.59463  0.80890  0.92740  1.0000
  C   C795      1.0  0.61192  0.79636  0.92482  1.0000
  C   C796      1.0  0.59962  0.76673  0.92034  1.0000
  C   C797      1.0  0.56987  0.74927  0.91898  1.0000
  C   C798      1.0  0.55263  0.76183  0.92150  1.0000
  C   C799      1.0  0.56492  0.79149  0.92561  1.0000
  H   H1401     1.0  0.63493  0.80965  0.92633  1.0000
  H   H1402     1.0  0.61305  0.75736  0.91801  1.0000
  H   H1403     1.0  0.52957  0.74848  0.92063  1.0000
  H   H1404     1.0  0.55134  0.80074  0.92823  1.0000
  C   C800      1.0  0.57950  0.98300  0.82439  1.0000
  H   H1405     1.0  0.69371  0.77518  0.91112  1.0000
  H   H1406     1.0  0.61097  0.69881  0.96800  1.0000
  C   C801      1.0  0.59789  0.93392  0.74060  1.0000
  C   C802      1.0  0.58307  0.93152  0.76536  1.0000
  C   C803      1.0  0.59182  0.92529  0.79076  1.0000
  C   C804      1.0  0.61607  0.92225  0.79180  1.0000
  C   C805      1.0  0.63038  0.92380  0.76694  1.0000
  C   C806      1.0  0.62121  0.92933  0.74142  1.0000
  H   H1407     1.0  0.54585  0.69331  0.69477  1.0000
  C   C807      1.0  0.52208  0.93577  0.67590  1.0000
  N   N43       1.0  0.58360  0.80688  0.83126  1.0000
  C   C808      1.0  0.59317  0.81177  0.80132  1.0000
  C   C809      1.0  0.57873  0.77818  0.84127  1.0000
  C   C810      1.0  0.55532  0.80637  0.83253  1.0000
  C   C811      1.0  0.60452  0.83076  0.84983  1.0000
  C   C812      1.0  0.63549  0.83615  0.85059  1.0000
  C   C813      1.0  0.59886  0.84041  0.78824  1.0000
  C   C814      1.0  0.53877  0.79649  0.86043  1.0000
  C   C815      1.0  0.59854  0.76752  0.82954  1.0000
  C   C816      1.0  0.59364  0.74036  0.84420  1.0000
  C   C817      1.0  0.65561  0.86433  0.86521  1.0000
  C   C818      1.0  0.51100  0.79755  0.85920  1.0000
  H   H1408     1.0  0.57686  0.79404  0.78824  1.0000
  H   H1409     1.0  0.61314  0.81100  0.79850  1.0000
  H   H1410     1.0  0.57983  0.77798  0.86437  1.0000
  H   H1411     1.0  0.55670  0.76089  0.83573  1.0000
  H   H1412     1.0  0.54058  0.79213  0.81600  1.0000
  H   H1413     1.0  0.55844  0.82801  0.82842  1.0000
  H   H1414     1.0  0.60534  0.85116  0.84438  1.0000
  H   H1415     1.0  0.59711  0.82676  0.87169  1.0000
  H   H1416     1.0  0.64421  0.83740  0.82955  1.0000
  H   H1417     1.0  0.63604  0.81884  0.86248  1.0000
  H   H1418     1.0  0.57929  0.84225  0.78815  1.0000
  H   H1419     1.0  0.61599  0.85894  0.79966  1.0000
  H   H1420     1.0  0.55168  0.81049  0.87769  1.0000
  H   H1421     1.0  0.53294  0.77424  0.86564  1.0000
  H   H1422     1.0  0.59385  0.76221  0.80716  1.0000
  H   H1423     1.0  0.62144  0.78372  0.83173  1.0000
  H   H1424     1.0  0.60000  0.74480  0.86634  1.0000
  H   H1425     1.0  0.57078  0.72335  0.84293  1.0000
  H   H1426     1.0  0.60680  0.73227  0.83429  1.0000
  H   H1427     1.0  0.64841  0.86420  0.88679  1.0000
  H   H1428     1.0  0.67757  0.86747  0.86602  1.0000
  H   H1429     1.0  0.65639  0.88261  0.85386  1.0000
  H   H1430     1.0  0.50331  0.79844  0.68467  1.0000
  H   H1431     1.0  0.59669  0.62934  0.00075  1.0000
  C   C819      1.0  0.62803  0.76080  0.73597  1.0000
  H   H1432     1.0  0.62908  0.84260  0.75700  1.0000
  H   H1433     1.0  0.64257  0.55170  0.97401  1.0000
  H   H1434     1.0  0.57414  0.97050  0.84391  1.0000
  H   H1435     1.0  0.59827  0.74585  0.67095  1.0000
  H   H1436     1.0  0.55259  0.57330  0.82502  1.0000
  H   H1437     1.0  0.67291  0.79432  0.74479  1.0000
  C   C820      1.0  0.59298  0.50910  0.98676  1.0000
  C   C821      1.0  0.58286  0.57136  0.93368  1.0000
  H   H1438     1.0  0.55458  0.68569  0.96820  1.0000
  C   C822      1.0  0.60864  0.84282  0.75812  1.0000
  H   H1439     1.0  0.51978  0.97707  0.79939  1.0000
  H   H1440     1.0  0.62275  0.79495  0.67765  1.0000
  H   H1441     1.0  0.61219  0.86328  0.74917  1.0000
  H   H1442     1.0  0.60564  0.62583  0.80106  1.0000
  C   C823      1.0  0.50759  0.58926  0.75986  1.0000
  C   C824      1.0  0.63515  0.77700  0.99482  1.0000
  H   H1443     1.0  0.61201  0.79539  0.71200  1.0000
  H   H1444     1.0  0.49657  0.78302  0.84279  1.0000
  H   H1445     1.0  0.63761  0.84890  0.70300  1.0000
  C   C825      1.0  0.65479  0.76973  0.78173  1.0000
  C   C826      1.0  0.51347  0.55482  0.97563  1.0000
  C   C827      1.0  0.54571  0.71372  0.69316  1.0000
  H   H1446     1.0  0.54218  0.69261  0.00029  1.0000
  H   H1447     1.0  0.58033  0.92373  0.80966  1.0000
  H   H1448     1.0  0.50662  0.54882  0.81625  1.0000
  H   H1449     1.0  0.59269  0.57211  0.98909  1.0000
  C   C828      1.0  0.65759  0.77184  0.75016  1.0000
  C   C829      1.0  0.59905  0.55881  0.94874  1.0000
  H   H1450     1.0  0.54526  0.95175  0.67483  1.0000
  H   H1451     1.0  0.64149  0.58046  0.99080  1.0000
  C   C830      1.0  0.51905  0.97028  0.97218  1.0000
  C   C831      1.0  0.49304  0.95860  0.76303  1.0000
  H   H1452     1.0  0.61625  0.76958  0.74746  1.0000
  C   C832      1.0  0.54776  0.59309  0.78670  1.0000
  H   H1453     1.0  0.69047  0.56316  0.99205  1.0000
  H   H1454     1.0  0.50530  0.56979  0.69013  1.0000
  H   H1455     1.0  0.57360  0.96529  0.93693  1.0000
  H   H1456     1.0  0.51152  0.96907  0.74881  1.0000
  C   C833      1.0  0.60014  0.74234  0.69332  1.0000
  H   H1457     1.0  0.64909  0.92137  0.76745  1.0000
  N   N44       1.0  0.60347  0.53915  0.99687  1.0000
  C   C834      1.0  0.51196  0.57386  0.73477  1.0000
  H   H1458     1.0  0.62351  0.97466  0.82046  1.0000
  H   H1459     1.0  0.51983  0.61262  0.75550  1.0000
  H   H1460     1.0  0.55947  0.55596  0.93344  1.0000
  H   H1461     1.0  0.52610  0.71092  0.70350  1.0000
  N   N45       1.0  0.51617  0.58350  0.78794  1.0000
  H   H1462     1.0  0.68835  0.95665  0.85253  1.0000
  C   C835      1.0  0.50030  0.55213  0.79519  1.0000
  H   H1463     1.0  0.51472  0.60445  0.70360  1.0000
  H   H1464     1.0  0.51080  0.59153  0.83089  1.0000
  H   H1465     1.0  0.61623  0.73736  0.74037  1.0000
  H   H1466     1.0  0.51274  0.96506  0.69646  1.0000
  C   C836      1.0  0.56265  0.59448  0.81480  1.0000
  C   C837      1.0  0.51198  0.60094  0.81008  1.0000
  C   C838      1.0  0.69631  0.97602  0.86575  1.0000
  C   C839      1.0  0.48837  0.88955  0.93542  1.0000
  C   C840      1.0  0.58740  0.70601  0.00010  1.0000
  H   H1467     1.0  0.66024  0.82463  0.72875  1.0000
  H   H1468     1.0  0.62600  0.94878  0.99765  1.0000
  H   H1469     1.0  0.59673  0.58899  0.79685  1.0000
  C   C841      1.0  0.69128  0.76031  0.92816  1.0000
  C   C842      1.0  0.50853  0.94307  0.70004  1.0000
  H   H1470     1.0  0.55155  0.57873  0.77306  1.0000
  H   H1471     1.0  0.66691  0.75851  0.74354  1.0000
  H   H1472     1.0  0.56326  0.72171  0.97702  1.0000
  H   H1473     1.0  0.67567  0.82185  0.69642  1.0000
  C   C843      1.0  0.64050  0.64186  0.99208  1.0000
  H   H1474     1.0  0.56174  0.60994  0.82931  1.0000
  C   C844      1.0  0.48597  0.60564  0.80701  1.0000
  H   H1475     1.0  0.63291  0.93125  0.72258  1.0000
  H   H1476     1.0  0.56493  0.93489  0.76492  1.0000
  H   H1477     1.0  0.60449  0.60520  0.83080  1.0000
  C   C845      1.0  0.59428  0.60419  0.81048  1.0000
  H   H1478     1.0  0.50403  0.88536  0.94499  1.0000
  H   H1479     1.0  0.68392  0.73886  0.91901  1.0000
  H   H1480     1.0  0.53661  0.56293  0.97915  1.0000
  H   H1481     1.0  0.51555  0.81965  0.85503  1.0000
  H   H1482     1.0  0.55987  0.61467  0.77714  1.0000
  H   H1483     1.0  0.53088  0.62295  0.81097  1.0000
  H   H1484     1.0  0.67612  0.86767  0.70046  1.0000
  H   H1485     1.0  0.59502  0.53936  0.93729  1.0000
  H   H1486     1.0  0.56567  0.53721  0.97871  1.0000
  C   C846      1.0  0.56715  0.98146  0.93284  1.0000
  H   H1487     1.0  0.64946  0.75280  0.93816  1.0000
  N   N46       1.0  0.62785  0.76612  0.70512  1.0000
  H   H1488     1.0  0.57309  0.92240  0.99876  1.0000
  H   H1489     1.0  0.59994  0.72170  0.69446  1.0000
  C   C847      1.0  0.66964  0.75913  0.94935  1.0000
  C   C848      1.0  0.65699  0.82177  0.70599  1.0000
  H   H1490     1.0  0.57039  0.75743  0.70531  1.0000
  C   C849      1.0  0.65200  0.76466  0.69085  1.0000
  H   H1491     1.0  0.63263  0.98652  0.77568  1.0000
  H   H1492     1.0  0.53799  0.89163  0.99438  1.0000
  H   H1493     1.0  0.53484  0.82962  0.67192  1.0000
  H   H1494     1.0  0.63918  0.74753  0.78818  1.0000
  H   H1495     1.0  0.50387  0.51273  0.96402  1.0000
  H   H1496     1.0  0.54492  0.97052  0.92482  1.0000
  H   H1497     1.0  0.58694  0.59156  0.94379  1.0000
  H   H1498     1.0  0.53489  0.58062  0.73204  1.0000
  H   H1499     1.0  0.54374  0.93113  0.96423  1.0000
  N   N47       1.0  0.64236  0.73260  0.99413  1.0000
  H   H1500     1.0  0.62219  0.57482  0.94725  1.0000
  H   H1501     1.0  0.71252  0.76805  0.93807  1.0000
  H   H1502     1.0  0.51487  0.94270  0.78954  1.0000
  S   S192      1.0  0.63605  0.98365  0.94755  1.0000
  H   H1503     1.0  0.67838  0.78106  0.95774  1.0000
  H   H1504     1.0  0.50667  0.54005  0.78101  1.0000
  H   H1505     1.0  0.65007  0.74341  0.69477  1.0000
  C   C850      1.0  0.57221  0.73796  0.70713  1.0000
  C   C851      1.0  0.66525  0.73809  0.97307  1.0000
  C   C852      1.0  0.63556  0.55764  0.99339  1.0000
  H   H1506     1.0  0.51063  0.56030  0.95407  1.0000
  C   C853      1.0  0.58923  0.55186  0.97947  1.0000
  H   H1507     1.0  0.51968  0.94257  0.71924  1.0000
  C   C854      1.0  0.62861  0.79399  0.69963  1.0000
  C   C855      1.0  0.56027  0.70125  0.98541  1.0000
  N   N48       1.0  0.54961  0.98453  0.98250  1.0000
  H   H1508     1.0  0.61131  0.73126  0.96430  1.0000
  H   H1509     1.0  0.66621  0.98681  0.77532  1.0000
  H   H1510     1.0  0.59896  0.50925  0.96469  1.0000
  H   H1511     1.0  0.68445  0.65172  0.99052  1.0000
  H   H1512     1.0  0.57511  0.96834  0.80659  1.0000
  C   C856      1.0  0.50410  0.95558  0.79132  1.0000
  C   C857      1.0  0.50206  0.58110  0.70775  1.0000
  C   C858      1.0  0.49650  0.52244  0.97986  1.0000
  H   H1513     1.0  0.66101  0.71752  0.96361  1.0000
  H   H1514     1.0  0.51420  0.95217  0.95805  1.0000
  H   H1515     1.0  0.51979  0.91434  0.67885  1.0000
  H   H1516     1.0  0.61164  0.76568  0.99801  1.0000
  C   C859      1.0  0.61342  0.71751  0.98009  1.0000
  H   H1517     1.0  0.49631  0.59402  0.92194  1.0000
  H   H1518     1.0  0.50185  0.51804  0.00085  1.0000
  C   C860      1.0  0.48994  0.56312  0.89042  1.0000
  C   C861      1.0  0.65619  0.84778  0.69460  1.0000
  H   H1519     1.0  0.57866  0.97087  0.99814  1.0000
  H   H1520     1.0  0.49951  0.55034  0.73744  1.0000
  H   H1521     1.0  0.50395  0.96033  0.98986  1.0000
  H   H1522     1.0  0.62682  0.49925  0.99586  1.0000
  H   H1523     1.0  0.68659  0.74735  0.98316  1.0000
  H   H1524     1.0  0.63708  0.81793  0.99784  1.0000
  H   H1525     1.0  0.49980  0.79066  0.87947  1.0000
  H   H1526     1.0  0.51650  0.92197  0.99009  1.0000
  H   H1527     1.0  0.50636  0.56578  0.99042  1.0000
  H   H1528     1.0  0.49031  0.62149  0.79031  1.0000
  H   H1529     1.0  0.49996  0.63778  0.83983  1.0000
  H   H1530     1.0  0.69559  0.96956  0.88775  1.0000
  C   C862      1.0  0.55529  0.96322  0.99754  1.0000
  H   H1531     1.0  0.65552  0.97343  0.86818  1.0000
  H   H1532     1.0  0.66898  0.97904  0.81893  1.0000
  C   C863      1.0  0.53992  0.93208  0.98662  1.0000
  C   C864      1.0  0.48845  0.89285  0.90663  1.0000
  H   H1533     1.0  0.48624  0.94523  0.80645  1.0000
  H   H1534     1.0  0.48481  0.58357  0.75944  1.0000
  H   H1535     1.0  0.54483  0.71864  0.67092  1.0000
  H   H1536     1.0  0.65456  0.84675  0.67157  1.0000
