data_image0
_chemical_formula_structural       S2HFeS2FeSHFeSFeS3CHCHCHC2HC6H5CHC2H6CHCHNC11H14C2H11CH3SHSCHCNCHCFeH3CHCHC2H3CHCFeCH6FeH2CH2CH2C3H4C3H2CHCHCH4CH2CHCHCH6CNCH5CHCH2CFeS2FeSNFeSFeS6C3H4C6H4CHCSHCH3C2HCHCH3CH9C3H4CH3CH2CHCFeHNC11H16C3H3CH2C2FeCHNC3H4CH6CH7C2HCH2CHCHC3H7CH2C2H2FeH5SHNCH2C2HCSFeS2FeS2FeSFeS3HC4HCHSCH2C4H3C6H9NC12H24C2H4C3HNC2HCH6C2H2CH3CH3C3H2NHCH2CNH3CH3CH2CH6SHC2H3C2H2CHC2H2CH3CH7CHSHCH4CH4SH2CH2CH3CH4CHFeS2FeS2FeHFeS3NHC2HC6H4C3H2CHC2HC2H4SHCHC2HCH4SH4CH2SHCH2CHCH2SH2CHCHCHC2HCH5CH2C2H3CHCHC2H8CH2C2H3C4H4CFeNHCNCH3CH6CHCH4CHFeCSFeHS2HFeS2H2CHCHCHC3H3C6H3CH4CH6CHCH2CH3CHSH4C2HN2C2H3C2H2SCH3SH2SHCFeH5CH4CFeH4CH2CH2CH2CHCH3C3HCHFeSHSFeS3CSH3CHC8H7NC9HC2H12CH6SH3CH2CH5FeH2CNH3FeS2H2CSHCH3C2H3CH2CHCH2CH5SH3S2HCFeS2HS2H2FeSHSC6H4C3H2CH2NC8FeHC2H11CH8CH12FeC2FeHCHCFeH4CHFeS2HCSHFeS2HFeH2SCHCHC6H4CH2SFeH4CSH2CH2NC10H15SH4CH9CH6CH2FeCHCFeHCH2CH3CH4FeS2FeS2FeSFeS3H2CHC2H5C2H3C6H5C2HCHN2H4CHC2HCNC2HNC2H3CHCHCHCHC6HC2HCH2C2H4CH6CHC2H3CHCHCH2CH2CHCH2CH9C2H8CH2SHCH3CH3SH2CH2CHSHCHCHCH2C2H3CH3FeSHFeS2FeSFeS3CSH2SHC3H4C6H5CHCHCH3C2HCHCH2C2H4CHC2H4C2HCH6C2NC12H23NH2CH3CH5SCFeH5CHNH2C2HCH2S2FeS2FeS2FeSFeS3C4H3CFeCHC2H4C8H14CHSHFeC3H3CHNC4HC2HCHC2H3CH14NHSHC2H3CH4CH3CH2CH2CHCH3CH4CH2CHC2HCHFeS2FeS2FeSFeS4CSHC6H4C4H6C2H3C4H2NC6HC4H13CH8CH6C2HCH7C3H2NH3SH5C2H2CH3CHC4H6CHCH2NCH2C3H4CHC2H4C2HCHFeCHCH4
_chemical_formula_sum              "S128 H1024 Fe64 C576 N32"
_cell_length_a       38.0323
_cell_length_b       36.5319
_cell_length_c       37.2283
_cell_angle_alpha    89.5209
_cell_angle_beta     91.5463
_cell_angle_gamma    91.4276

_space_group_name_H-M_alt    "P 1"
_space_group_IT_number       1

loop_
  _space_group_symop_operation_xyz
  'x, y, z'

loop_
  _atom_site_type_symbol
  _atom_site_label
  _atom_site_symmetry_multiplicity
  _atom_site_fract_x
  _atom_site_fract_y
  _atom_site_fract_z
  _atom_site_occupancy
  S   S1        1.0  0.28754  0.35259  0.32851  1.0000
  S   S2        1.0  0.26875  0.29044  0.24610  1.0000
  H   H1        1.0  0.33159  0.19531  0.35653  1.0000
  Fe  Fe1       1.0  0.18893  0.10629  0.17878  1.0000
  S   S3        1.0  0.16055  0.14314  0.14006  1.0000
  S   S4        1.0  0.23091  0.12271  0.21992  1.0000
  Fe  Fe2       1.0  0.14928  0.03754  0.15315  1.0000
  S   S5        1.0  0.11796  0.06900  0.11123  1.0000
  H   H2        1.0  0.22997  0.41034  0.11056  1.0000
  Fe  Fe3       1.0  0.16955  0.09854  0.09986  1.0000
  S   S6        1.0  0.18737  0.11884  0.04489  1.0000
  Fe  Fe4       1.0  0.11145  0.11118  0.15421  1.0000
  S   S7        1.0  0.05985  0.13327  0.17447  1.0000
  S   S8        1.0  0.20100  0.06362  0.13811  1.0000
  S   S9        1.0  0.13964  0.07768  0.19664  1.0000
  C   C1        1.0  0.03088  0.16571  0.15460  1.0000
  H   H3        1.0  0.28147  0.39672  0.43441  1.0000
  C   C2        1.0  0.12046  0.02720  0.27913  1.0000
  H   H4        1.0  0.28577  0.49285  0.09457  1.0000
  C   C3        1.0  0.29295  0.08814  0.11864  1.0000
  H   H5        1.0  0.23565  0.05780  0.05343  1.0000
  C   C4        1.0  0.25226  0.20165  0.08504  1.0000
  C   C5        1.0  0.02691  0.26123  0.50740  1.0000
  H   H6        1.0  0.05026  0.32743  0.48344  1.0000
  C   C6        1.0  0.24110  0.16941  0.22706  1.0000
  C   C7        1.0  0.26544  0.17943  0.25445  1.0000
  C   C8        1.0  0.27423  0.21649  0.26067  1.0000
  C   C9        1.0  0.25890  0.24366  0.23923  1.0000
  C   C10       1.0  0.23488  0.23362  0.21157  1.0000
  C   C11       1.0  0.22577  0.19662  0.20567  1.0000
  H   H7        1.0  0.27747  0.15845  0.27102  1.0000
  H   H8        1.0  0.29286  0.22400  0.28196  1.0000
  H   H9        1.0  0.22319  0.25459  0.19477  1.0000
  H   H10       1.0  0.20710  0.18920  0.18448  1.0000
  H   H11       1.0  0.13179  0.01583  0.25460  1.0000
  C   C12       1.0  0.27092  0.31414  0.45437  1.0000
  H   H12       1.0  0.26871  0.38288  0.50042  1.0000
  C   C13       1.0  0.21033  0.33301  0.46022  1.0000
  C   C14       1.0  0.24039  0.32918  0.43924  1.0000
  H   H13       1.0  0.26913  0.22573  0.09231  1.0000
  H   H14       1.0  0.18705  0.34506  0.44832  1.0000
  H   H15       1.0  0.24004  0.33815  0.41146  1.0000
  H   H16       1.0  0.29541  0.12877  0.05909  1.0000
  H   H17       1.0  0.13102  0.27548  0.45707  1.0000
  H   H18       1.0  0.26557  0.08918  0.10802  1.0000
  C   C15       1.0  0.03826  0.18389  0.12237  1.0000
  H   H19       1.0  0.22688  0.41567  0.46572  1.0000
  C   C16       1.0  0.31253  0.15044  0.07185  1.0000
  H   H20       1.0  0.30976  0.07978  0.09637  1.0000
  N   N1        1.0  0.10899  0.24082  0.21612  1.0000
  C   C17       1.0  0.09686  0.20766  0.23734  1.0000
  C   C18       1.0  0.08107  0.26940  0.21750  1.0000
  C   C19       1.0  0.11501  0.22907  0.17808  1.0000
  C   C20       1.0  0.14299  0.25687  0.23151  1.0000
  C   C21       1.0  0.14288  0.26722  0.27184  1.0000
  C   C22       1.0  0.12439  0.17736  0.24352  1.0000
  C   C23       1.0  0.12428  0.26013  0.15100  1.0000
  C   C24       1.0  0.04583  0.25990  0.19731  1.0000
  C   C25       1.0  0.17954  0.27986  0.28513  1.0000
  C   C26       1.0  0.10935  0.14585  0.26607  1.0000
  C   C27       1.0  0.12375  0.24572  0.11256  1.0000
  H   H21       1.0  0.07369  0.19421  0.22358  1.0000
  H   H22       1.0  0.08708  0.21580  0.26394  1.0000
  H   H23       1.0  0.07432  0.27469  0.24586  1.0000
  H   H24       1.0  0.09115  0.29626  0.20721  1.0000
  H   H25       1.0  0.09190  0.21306  0.16729  1.0000
  H   H26       1.0  0.13713  0.20982  0.17745  1.0000
  H   H27       1.0  0.16493  0.23797  0.22742  1.0000
  H   H28       1.0  0.15059  0.28232  0.21669  1.0000
  H   H29       1.0  0.13475  0.24368  0.28893  1.0000
  H   H30       1.0  0.12469  0.28998  0.27610  1.0000
  H   H31       1.0  0.13229  0.16573  0.21762  1.0000
  H   H32       1.0  0.14835  0.18798  0.25797  1.0000
  H   H33       1.0  0.15110  0.27149  0.15713  1.0000
  H   H34       1.0  0.10544  0.28275  0.15155  1.0000
  C   C28       1.0  0.30539  0.12576  0.13402  1.0000
  C   C29       1.0  0.05982  0.01380  0.25974  1.0000
  H   H35       1.0  0.17863  0.28859  0.31358  1.0000
  H   H36       1.0  0.19829  0.25712  0.28358  1.0000
  H   H37       1.0  0.18943  0.30337  0.26882  1.0000
  H   H38       1.0  0.08601  0.13300  0.25216  1.0000
  H   H39       1.0  0.12961  0.12474  0.26999  1.0000
  H   H40       1.0  0.10178  0.15573  0.29284  1.0000
  H   H41       1.0  0.09651  0.23746  0.10399  1.0000
  H   H42       1.0  0.13321  0.26753  0.09398  1.0000
  H   H43       1.0  0.14093  0.22177  0.11043  1.0000
  H   H44       1.0  0.19589  0.18958  0.08231  1.0000
  H   H45       1.0  0.27786  0.06486  0.17037  1.0000
  C   C30       1.0  0.24382  0.07459  0.03093  1.0000
  H   H46       1.0  0.17435  0.08036  0.29109  1.0000
  H   H47       1.0  0.02179  0.22534  0.08415  1.0000
  H   H48       1.0  0.21023  0.21843  0.11957  1.0000
  S   S10       1.0  0.33556  0.27762  0.33362  1.0000
  H   H49       1.0  0.21762  0.47548  0.10047  1.0000
  S   S11       1.0  0.31008  0.30977  0.42978  1.0000
  C   C31       1.0  0.30971  0.20635  0.15978  1.0000
  H   H50       1.0  0.30921  0.17481  0.05409  1.0000
  C   C32       1.0  0.23679  0.46259  0.08305  1.0000
  N   N2        1.0  0.30067  0.15837  0.10926  1.0000
  C   C33       1.0  0.21424  0.21215  0.09085  1.0000
  H   H51       1.0  0.06127  0.30781  0.42871  1.0000
  C   C34       1.0  0.26666  0.48962  0.07146  1.0000
  Fe  Fe5       1.0  0.33735  0.38310  0.31368  1.0000
  H   H52       1.0  0.30487  0.21993  0.38745  1.0000
  H   H53       1.0  0.20796  0.23680  0.07449  1.0000
  H   H54       1.0  0.28387  0.21933  0.15551  1.0000
  C   C35       1.0  0.07584  0.29071  0.44871  1.0000
  H   H55       1.0  0.25488  0.19631  0.05591  1.0000
  C   C36       1.0  0.21030  0.32165  0.49644  1.0000
  H   H56       1.0  0.26538  0.43878  0.12876  1.0000
  C   C37       1.0  0.25251  0.43003  0.47158  1.0000
  C   C38       1.0  0.29472  0.05819  0.14750  1.0000
  H   H57       1.0  0.30043  0.44192  0.44220  1.0000
  H   H58       1.0  0.22200  0.45200  0.05905  1.0000
  H   H59       1.0  0.24646  0.14397  0.09517  1.0000
  C   C39       1.0  0.26206  0.16707  0.10734  1.0000
  H   H60       1.0  0.25154  0.16959  0.13482  1.0000
  C   C40       1.0  0.25171  0.42973  0.10348  1.0000
  Fe  Fe6       1.0  0.32016  0.32315  0.37051  1.0000
  C   C41       1.0  0.33856  0.46911  0.26481  1.0000
  H   H61       1.0  0.09363  0.23815  0.49267  1.0000
  H   H62       1.0  0.32544  0.24727  0.19940  1.0000
  H   H63       1.0  0.03335  0.23491  0.20888  1.0000
  H   H64       1.0  0.28515  0.03172  0.13593  1.0000
  H   H65       1.0  0.03760  0.04255  0.19302  1.0000
  H   H66       1.0  0.33341  0.12316  0.14289  1.0000
  Fe  Fe7       1.0  0.30629  0.30957  0.29078  1.0000
  H   H67       1.0  0.29098  0.12971  0.15934  1.0000
  H   H68       1.0  0.12491  0.31972  0.43641  1.0000
  C   C42       1.0  0.32087  0.19520  0.38401  1.0000
  H   H69       1.0  0.06153  0.17719  0.10796  1.0000
  H   H70       1.0  0.06436  0.26267  0.44585  1.0000
  C   C43       1.0  0.27083  0.30271  0.49058  1.0000
  H   H71       1.0  0.19208  0.04104  0.26953  1.0000
  H   H72       1.0  0.05501  0.04379  0.25831  1.0000
  C   C44       1.0  0.27536  0.42592  0.43873  1.0000
  C   C45       1.0  0.18207  0.05147  0.29515  1.0000
  C   C46       1.0  0.15094  0.02786  0.30786  1.0000
  H   H73       1.0  0.03045  0.31640  0.18781  1.0000
  H   H74       1.0  0.26120  0.43624  0.41435  1.0000
  H   H75       1.0  0.11426  0.05619  0.27250  1.0000
  H   H76       1.0  0.27050  0.41511  0.08671  1.0000
  C   C47       1.0  0.01974  0.29082  0.20014  1.0000
  C   C48       1.0  0.11438  0.29111  0.43772  1.0000
  C   C49       1.0  0.27020  0.41290  0.50563  1.0000
  H   H77       1.0  0.04977  0.25538  0.16830  1.0000
  H   H78       1.0  0.08294  0.04971  0.32775  1.0000
  C   C50       1.0  0.32253  0.19005  0.12420  1.0000
  H   H79       1.0  0.31428  0.45803  0.17665  1.0000
  C   C51       1.0  0.32374  0.47171  0.20081  1.0000
  H   H80       1.0  0.29878  0.42047  0.50588  1.0000
  C   C52       1.0  0.03952  0.01223  0.19415  1.0000
  H   H81       1.0  0.32224  0.05504  0.15761  1.0000
  H   H82       1.0  0.20383  0.05085  0.31564  1.0000
  H   H83       1.0  0.28141  0.47475  0.05088  1.0000
  H   H84       1.0  0.14261  0.03932  0.33367  1.0000
  C   C53       1.0  0.24068  0.30623  0.51144  1.0000
  H   H85       1.0  0.30338  0.17062  0.38690  1.0000
  H   H86       1.0  0.11641  0.27874  0.41073  1.0000
  C   C54       1.0  0.01565  0.21116  0.10891  1.0000
  H   H87       1.0  0.24733  0.45944  0.47471  1.0000
  C   C55       1.0  0.22532  0.10608  0.02179  1.0000
  H   H88       1.0  0.30704  0.18489  0.18085  1.0000
  C   C56       1.0  0.07120  0.30687  0.48686  1.0000
  H   H89       1.0  0.09527  0.32340  0.49472  1.0000
  H   H90       1.0  0.03080  0.23676  0.49045  1.0000
  H   H91       1.0  0.29422  0.29094  0.50259  1.0000
  H   H92       1.0  0.01005  0.27946  0.49053  1.0000
  H   H93       1.0  0.31798  0.42325  0.23431  1.0000
  H   H94       1.0  0.32476  0.21264  0.10409  1.0000
  C   C57       1.0  0.32593  0.45188  0.23343  1.0000
  N   N3        1.0  0.08723  0.00618  0.28887  1.0000
  C   C58       1.0  0.03559  0.01810  0.33227  1.0000
  H   H95       1.0  0.28601  0.03928  0.01693  1.0000
  H   H96       1.0  0.27924  0.49230  0.51281  1.0000
  H   H97       1.0  0.33827  0.19288  0.43897  1.0000
  H   H98       1.0  0.01361  0.29589  0.22865  1.0000
  H   H99       1.0  0.09310  0.01332  0.21185  1.0000
  C   C59       1.0  0.07559  0.02011  0.32475  1.0000
  H   H100      1.0  0.03942  0.05413  0.37878  1.0000
  C   C60       1.0  0.33547  0.23584  0.17419  1.0000
  H   H101      1.0  0.33835  0.25857  0.15439  1.0000
  H   H102      1.0  0.02166  0.03876  0.31544  1.0000
  C   C61       1.0  0.02869  0.02651  0.37157  1.0000
  Fe  Fe8       1.0  0.11753  0.29679  0.64193  1.0000
  S   S12       1.0  0.15790  0.30740  0.68672  1.0000
  S   S13       1.0  0.05958  0.28394  0.65255  1.0000
  Fe  Fe9       1.0  0.16918  0.31856  0.58271  1.0000
  S   S14       1.0  0.21247  0.33063  0.62301  1.0000
  N   N4        1.0  0.25466  0.42112  0.54166  1.0000
  Fe  Fe10      1.0  0.19473  0.27883  0.65054  1.0000
  S   S15       1.0  0.23808  0.23912  0.66333  1.0000
  Fe  Fe11      1.0  0.17238  0.35875  0.65590  1.0000
  S   S16       1.0  0.19148  0.41487  0.67665  1.0000
  S   S17       1.0  0.15352  0.26471  0.60797  1.0000
  S   S18       1.0  0.12998  0.35026  0.61349  1.0000
  S   S19       1.0  0.31732  0.06939  0.95362  1.0000
  S   S20       1.0  0.27655  0.18410  0.82137  1.0000
  S   S21       1.0  0.29317  0.08545  0.84996  1.0000
  C   C62       1.0  0.03782  0.33479  0.55056  1.0000
  C   C63       1.0  0.28241  0.08477  0.97988  1.0000
  C   C64       1.0  0.26468  0.11695  0.97154  1.0000
  H   H103      1.0  0.20542  0.45539  0.58719  1.0000
  H   H104      1.0  0.11984  0.29936  0.78569  1.0000
  H   H105      1.0  0.27278  0.13359  0.94890  1.0000
  H   H106      1.0  0.30995  0.36731  0.54321  1.0000
  C   C65       1.0  0.24733  0.22271  0.70720  1.0000
  C   C66       1.0  0.22651  0.23156  0.73611  1.0000
  C   C67       1.0  0.23541  0.21887  0.77089  1.0000
  C   C68       1.0  0.26517  0.19744  0.77700  1.0000
  C   C69       1.0  0.28565  0.18813  0.74801  1.0000
  C   C70       1.0  0.27675  0.20078  0.71323  1.0000
  H   H107      1.0  0.20350  0.24792  0.73160  1.0000
  H   H108      1.0  0.21911  0.22547  0.79317  1.0000
  H   H109      1.0  0.30860  0.17161  0.75245  1.0000
  H   H110      1.0  0.29291  0.19379  0.69094  1.0000
  C   C71       1.0  0.17214  0.44384  0.70861  1.0000
  H   H111      1.0  0.24542  0.29882  0.86763  1.0000
  C   C72       1.0  0.14176  0.43342  0.72685  1.0000
  S   S22       1.0  0.31640  0.01165  0.78401  1.0000
  H   H112      1.0  0.12845  0.40764  0.72063  1.0000
  C   C73       1.0  0.17546  0.50076  0.74346  1.0000
  H   H113      1.0  0.27168  0.31513  0.68153  1.0000
  H   H114      1.0  0.24096  0.29695  0.53912  1.0000
  H   H115      1.0  0.03424  0.15600  0.61500  1.0000
  C   C74       1.0  0.03236  0.24491  0.64210  1.0000
  C   C75       1.0  0.04611  0.21151  0.63185  1.0000
  H   H116      1.0  0.29078  0.30914  0.85646  1.0000
  C   C76       1.0  0.19530  0.43053  0.57304  1.0000
  H   H117      1.0  0.07430  0.20856  0.63111  1.0000
  C   C77       1.0  0.24335  0.01987  0.90542  1.0000
  H   H118      1.0  0.30095  0.45200  0.55984  1.0000
  H   H119      1.0  0.10529  0.44778  0.76762  1.0000
  H   H120      1.0  0.12373  0.33647  0.75380  1.0000
  C   C78       1.0  0.12866  0.45628  0.75352  1.0000
  H   H121      1.0  0.23712  0.49644  0.53389  1.0000
  H   H122      1.0  0.27168  0.26433  0.84787  1.0000
  H   H123      1.0  0.13835  0.02275  0.94739  1.0000
  H   H124      1.0  0.23259  0.41842  0.82558  1.0000
  H   H125      1.0  0.21431  0.09709  0.86210  1.0000
  H   H126      1.0  0.13471  0.07928  0.89724  1.0000
  H   H127      1.0  0.15967  0.09640  0.83622  1.0000
  H   H128      1.0  0.23103  0.47957  0.00391  1.0000
  H   H129      1.0  0.20372  0.39914  0.52512  1.0000
  C   C79       1.0  0.26180  0.38915  0.56663  1.0000
  C   C80       1.0  0.06187  0.30094  0.55109  1.0000
  C   C81       1.0  0.21521  0.42436  0.53782  1.0000
  H   H130      1.0  0.22244  0.15218  0.98542  1.0000
  H   H131      1.0  0.18016  0.30333  0.76419  1.0000
  H   H132      1.0  0.20141  0.43605  0.79281  1.0000
  H   H133      1.0  0.23415  0.09681  0.90527  1.0000
  C   C82       1.0  0.14535  0.49008  0.76207  1.0000
  H   H134      1.0  0.17057  0.08076  0.95088  1.0000
  H   H135      1.0  0.12275  0.34596  0.80135  1.0000
  H   H136      1.0  0.17892  0.31434  0.81137  1.0000
  C   C83       1.0  0.26625  0.29410  0.84796  1.0000
  H   H137      1.0  0.29689  0.34541  0.75518  1.0000
  H   H138      1.0  0.28339  0.37277  0.71717  1.0000
  C   C84       1.0  0.18971  0.13180  0.90091  1.0000
  H   H139      1.0  0.01148  0.37086  0.58664  1.0000
  C   C85       1.0  0.11854  0.19590  0.54626  1.0000
  Fe  Fe12      1.0  0.33117  0.08901  0.89693  1.0000
  H   H140      1.0  0.16549  0.48155  0.00890  1.0000
  N   N5        1.0  0.22998  0.36262  0.77461  1.0000
  C   C86       1.0  0.23985  0.34199  0.74150  1.0000
  C   C87       1.0  0.19037  0.36179  0.77691  1.0000
  C   C88       1.0  0.24180  0.40214  0.76950  1.0000
  C   C89       1.0  0.24715  0.34793  0.80876  1.0000
  C   C90       1.0  0.25421  0.30619  0.81032  1.0000
  C   C91       1.0  0.27903  0.34609  0.73115  1.0000
  C   C92       1.0  0.22953  0.42964  0.79792  1.0000
  C   C93       1.0  0.17231  0.32406  0.78374  1.0000
  C   C94       1.0  0.13225  0.32676  0.78096  1.0000
  C   C95       1.0  0.17959  0.49973  0.98972  1.0000
  C   C96       1.0  0.28945  0.31588  0.70569  1.0000
  H   H141      1.0  0.11699  0.26697  0.52380  1.0000
  H   H142      1.0  0.22396  0.35141  0.71771  1.0000
  H   H143      1.0  0.23301  0.31241  0.74388  1.0000
  H   H144      1.0  0.18174  0.37918  0.79920  1.0000
  H   H145      1.0  0.17857  0.37359  0.75181  1.0000
  H   H146      1.0  0.23271  0.41254  0.74272  1.0000
  H   H147      1.0  0.27103  0.40443  0.76939  1.0000
  H   H148      1.0  0.27320  0.36173  0.81408  1.0000
  H   H149      1.0  0.23113  0.35474  0.83231  1.0000
  H   H150      1.0  0.27520  0.29908  0.79165  1.0000
  H   H151      1.0  0.23059  0.28962  0.80275  1.0000
  H   H152      1.0  0.19792  0.19068  0.89613  1.0000
  H   H153      1.0  0.23797  0.16528  0.89745  1.0000
  H   H154      1.0  0.25423  0.39561  0.59452  1.0000
  H   H155      1.0  0.21203  0.06035  0.95360  1.0000
  H   H156      1.0  0.05117  0.35178  0.60539  1.0000
  C   C97       1.0  0.21028  0.16525  0.88711  1.0000
  C   C98       1.0  0.15187  0.05998  0.88327  1.0000
  C   C99       1.0  0.11157  0.06560  0.82805  1.0000
  H   H157      1.0  0.30495  0.05396  0.66510  1.0000
  H   H158      1.0  0.14446  0.41078  0.55152  1.0000
  H   H159      1.0  0.21013  0.16541  0.85726  1.0000
  C   C100      1.0  0.02332  0.18161  0.62310  1.0000
  H   H160      1.0  0.16274  0.13303  0.88903  1.0000
  H   H161      1.0  0.18806  0.13449  0.93044  1.0000
  C   C101      1.0  0.20806  0.09584  0.89115  1.0000
  C   C102      1.0  0.27192  0.45479  0.55827  1.0000
  Fe  Fe13      1.0  0.31614  0.13977  0.83304  1.0000
  C   C103      1.0  0.18557  0.05763  0.94030  1.0000
  H   H162      1.0  0.16043  0.04425  0.00825  1.0000
  N   N6        1.0  0.18842  0.06064  0.90005  1.0000
  C   C104      1.0  0.30397  0.34406  0.59564  1.0000
  C   C105      1.0  0.23626  0.12747  0.99236  1.0000
  C   C106      1.0  0.17059  0.01944  0.99534  1.0000
  H   H163      1.0  0.08668  0.23340  0.57423  1.0000
  H   H164      1.0  0.26054  0.04448  0.90840  1.0000
  H   H165      1.0  0.14395  0.21127  0.54973  1.0000
  H   H166      1.0  0.01905  0.23440  0.56073  1.0000
  C   C107      1.0  0.30051  0.37641  0.56955  1.0000
  H   H167      1.0  0.28816  0.28883  0.71951  1.0000
  H   H168      1.0  0.21223  0.48615  0.70304  1.0000
  H   H169      1.0  0.23928  0.48574  0.81488  1.0000
  H   H170      1.0  0.01147  0.32366  0.60091  1.0000
  H   H171      1.0  0.31682  0.32093  0.69692  1.0000
  H   H172      1.0  0.05466  0.28299  0.57400  1.0000
  C   C108      1.0  0.27222  0.06404  0.01006  1.0000
  H   H173      1.0  0.24874  0.47774  0.76853  1.0000
  H   H174      1.0  0.08898  0.31109  0.55832  1.0000
  H   H175      1.0  0.15156  0.45997  0.54824  1.0000
  H   H176      1.0  0.14237  0.43881  0.59101  1.0000
  H   H177      1.0  0.19771  0.40667  0.59145  1.0000
  H   H178      1.0  0.26403  0.45756  0.58670  1.0000
  H   H179      1.0  0.11637  0.17556  0.56849  1.0000
  C   C109      1.0  0.15602  0.43533  0.56528  1.0000
  C   C110      1.0  0.08749  0.22169  0.54700  1.0000
  H   H180      1.0  0.24517  0.36500  0.55833  1.0000
  C   C111      1.0  0.02745  0.34585  0.58821  1.0000
  H   H181      1.0  0.29591  0.35182  0.62296  1.0000
  H   H182      1.0  0.27845  0.46181  0.80382  1.0000
  C   C112      1.0  0.25041  0.46588  0.79608  1.0000
  H   H183      1.0  0.28739  0.32037  0.58623  1.0000
  C   C113      1.0  0.18876  0.47771  0.71698  1.0000
  H   H184      1.0  0.23839  0.00873  0.93269  1.0000
  C   C114      1.0  0.32947  0.04151  0.67583  1.0000
  C   C115      1.0  0.26550  0.49164  0.53872  1.0000
  C   C116      1.0  0.20842  0.02912  0.88523  1.0000
  H   H185      1.0  0.13908  0.03255  0.88715  1.0000
  H   H186      1.0  0.31835  0.39869  0.57964  1.0000
  H   H187      1.0  0.21517  0.03479  0.85675  1.0000
  H   H188      1.0  0.05205  0.35853  0.53830  1.0000
  H   H189      1.0  0.16512  0.04861  0.82717  1.0000
  H   H190      1.0  0.33176  0.33543  0.59733  1.0000
  H   H191      1.0  0.09511  0.08565  0.84175  1.0000
  C   C117      1.0  0.14961  0.06833  0.84232  1.0000
  H   H192      1.0  0.11071  0.07182  0.79878  1.0000
  H   H193      1.0  0.19861  0.01618  0.00364  1.0000
  C   C118      1.0  0.16690  0.02233  0.95444  1.0000
  C   C119      1.0  0.09118  0.25248  0.51860  1.0000
  H   H194      1.0  0.10043  0.03754  0.83225  1.0000
  H   H195      1.0  0.17879  0.48652  0.96293  1.0000
  Fe  Fe14      1.0  0.33627  0.06017  0.81875  1.0000
  H   H196      1.0  0.06350  0.20461  0.54150  1.0000
  H   H197      1.0  0.33209  0.04777  0.70499  1.0000
  H   H198      1.0  0.20785  0.44684  0.51916  1.0000
  H   H199      1.0  0.01331  0.32967  0.53437  1.0000
  H   H200      1.0  0.11852  0.18097  0.52039  1.0000
  S   S23       1.0  0.17199  0.32773  0.52197  1.0000
  H   H201      1.0  0.05605  0.05360  0.73011  1.0000
  N   N7        1.0  0.06207  0.27986  0.51639  1.0000
  C   C120      1.0  0.05466  0.02318  0.72950  1.0000
  H   H202      1.0  0.06903  0.01259  0.75364  1.0000
  H   H203      1.0  0.06784  0.01353  0.70517  1.0000
  C   C121      1.0  0.01637  0.00943  0.72966  1.0000
  C   C122      1.0  0.33395  0.50897  0.19920  1.0000
  H   H204      1.0  0.30393  0.81305  0.36590  1.0000
  C   C123      1.0  0.22997  0.54601  0.11842  1.0000
  S   S24       1.0  0.30965  0.63348  0.13043  1.0000
  Fe  Fe15      1.0  0.17088  0.76099  0.31506  1.0000
  S   S25       1.0  0.20860  0.80027  0.34292  1.0000
  S   S26       1.0  0.18203  0.71628  0.27564  1.0000
  Fe  Fe16      1.0  0.10637  0.79115  0.35024  1.0000
  S   S27       1.0  0.13863  0.83385  0.38097  1.0000
  S   S28       1.0  0.04647  0.78640  0.34843  1.0000
  Fe  Fe17      1.0  0.16775  0.84242  0.32932  1.0000
  S   S29       1.0  0.18594  0.89845  0.30876  1.0000
  Fe  Fe18      1.0  0.17720  0.78900  0.39250  1.0000
  S   S30       1.0  0.19968  0.77002  0.44704  1.0000
  S   S31       1.0  0.13257  0.80381  0.29797  1.0000
  S   S32       1.0  0.14250  0.74582  0.36518  1.0000
  H   H205      1.0  0.20358  0.62532  0.02207  1.0000
  C   C124      1.0  0.09865  0.66545  0.30633  1.0000
  C   C125      1.0  0.23047  0.57712  0.14566  1.0000
  C   C126      1.0  0.23270  0.78813  0.47730  1.0000
  C   C127      1.0  0.24775  0.82321  0.47319  1.0000
  H   H206      1.0  0.23797  0.52108  0.13344  1.0000
  C   C128      1.0  0.12432  0.63440  0.31576  1.0000
  H   H207      1.0  0.23940  0.84028  0.45083  1.0000
  S   S33       1.0  0.33111  0.65444  0.02569  1.0000
  C   C129      1.0  0.03881  0.71290  0.36721  1.0000
  H   H208      1.0  0.32483  0.73763  0.37402  1.0000
  H   H209      1.0  0.06559  0.71489  0.37764  1.0000
  C   C130      1.0  0.14049  0.91886  0.21020  1.0000
  C   C131      1.0  0.15059  0.90098  0.24244  1.0000
  C   C132      1.0  0.17412  0.91831  0.26674  1.0000
  C   C133      1.0  0.18849  0.95288  0.25781  1.0000
  H   H210      1.0  0.12171  0.90566  0.19185  1.0000
  H   H211      1.0  0.13955  0.87423  0.24884  1.0000
  H   H212      1.0  0.28219  0.55628  0.10146  1.0000
  C   C134      1.0  0.28876  0.71588  0.22223  1.0000
  C   C135      1.0  0.26130  0.69274  0.20989  1.0000
  C   C136      1.0  0.22856  0.69309  0.22649  1.0000
  C   C137      1.0  0.22323  0.71653  0.25539  1.0000
  C   C138      1.0  0.25076  0.73950  0.26780  1.0000
  C   C139      1.0  0.28344  0.73919  0.25121  1.0000
  H   H213      1.0  0.26525  0.67469  0.18755  1.0000
  H   H214      1.0  0.20733  0.67517  0.21689  1.0000
  H   H215      1.0  0.24698  0.75724  0.29034  1.0000
  H   H216      1.0  0.30481  0.75680  0.26102  1.0000
  H   H217      1.0  0.05407  0.88101  0.30644  1.0000
  H   H218      1.0  0.22834  0.71803  0.38651  1.0000
  H   H219      1.0  0.14326  0.63145  0.29387  1.0000
  H   H220      1.0  0.21324  0.94304  0.15396  1.0000
  H   H221      1.0  0.12861  0.64754  0.37290  1.0000
  N   N8        1.0  0.22982  0.83859  0.19323  1.0000
  C   C140      1.0  0.21558  0.86614  0.16640  1.0000
  C   C141      1.0  0.20006  0.81551  0.20863  1.0000
  C   C142      1.0  0.24715  0.86021  0.22360  1.0000
  C   C143      1.0  0.25703  0.81440  0.17740  1.0000
  C   C144      1.0  0.24595  0.79340  0.14283  1.0000
  C   C145      1.0  0.24294  0.89312  0.14929  1.0000
  C   C146      1.0  0.26103  0.83754  0.25618  1.0000
  C   C147      1.0  0.16825  0.80591  0.18299  1.0000
  C   C148      1.0  0.14556  0.77450  0.19788  1.0000
  C   C149      1.0  0.27730  0.77450  0.12686  1.0000
  C   C150      1.0  0.23939  0.93247  0.16226  1.0000
  C   C151      1.0  0.27821  0.86233  0.28484  1.0000
  H   H222      1.0  0.19476  0.88222  0.17904  1.0000
  H   H223      1.0  0.20131  0.85263  0.14364  1.0000
  H   H224      1.0  0.21030  0.78952  0.22021  1.0000
  H   H225      1.0  0.18833  0.82964  0.23175  1.0000
  H   H226      1.0  0.22840  0.88026  0.23411  1.0000
  H   H227      1.0  0.26995  0.87683  0.21396  1.0000
  H   H228      1.0  0.28179  0.83015  0.17230  1.0000
  H   H229      1.0  0.26499  0.79290  0.19708  1.0000
  H   H230      1.0  0.23507  0.81177  0.12173  1.0000
  H   H231      1.0  0.22632  0.77152  0.14927  1.0000
  H   H232      1.0  0.27052  0.88499  0.15372  1.0000
  H   H233      1.0  0.23846  0.89339  0.11962  1.0000
  H   H234      1.0  0.28131  0.81834  0.24791  1.0000
  H   H235      1.0  0.23929  0.82180  0.26886  1.0000
  H   H236      1.0  0.15142  0.83024  0.17965  1.0000
  H   H237      1.0  0.17633  0.79780  0.15598  1.0000
  H   H238      1.0  0.13539  0.78173  0.22444  1.0000
  H   H239      1.0  0.12277  0.76888  0.17931  1.0000
  H   H240      1.0  0.16105  0.74919  0.20068  1.0000
  H   H241      1.0  0.04094  0.00570  0.38955  1.0000
  H   H242      1.0  0.18971  0.99732  0.21901  1.0000
  H   H243      1.0  0.29796  0.79493  0.11930  1.0000
  H   H244      1.0  0.25942  0.77667  0.39993  1.0000
  H   H245      1.0  0.23249  0.73922  0.51015  1.0000
  C   C152      1.0  0.30913  0.80443  0.39418  1.0000
  C   C153      1.0  0.04747  0.75973  0.25267  1.0000
  H   H246      1.0  0.03328  0.68986  0.24644  1.0000
  H   H247      1.0  0.30044  0.65096  0.41433  1.0000
  H   H248      1.0  0.28416  0.86393  0.49545  1.0000
  H   H249      1.0  0.24250  0.93411  0.19193  1.0000
  C   C154      1.0  0.09565  0.96608  0.29116  1.0000
  C   C155      1.0  0.27311  0.83656  0.49859  1.0000
  C   C156      1.0  0.27681  0.67826  0.35328  1.0000
  H   H250      1.0  0.04141  0.94373  0.28317  1.0000
  N   N9        1.0  0.07318  0.65886  0.27508  1.0000
  C   C157      1.0  0.04874  0.62716  0.28445  1.0000
  C   C158      1.0  0.07149  0.72956  0.26668  1.0000
  H   H251      1.0  0.06233  0.78628  0.25221  1.0000
  C   C159      1.0  0.02004  0.67912  0.36828  1.0000
  H   H252      1.0  0.09985  0.89388  0.31248  1.0000
  H   H253      1.0  0.24860  0.71834  0.42966  1.0000
  H   H254      1.0  0.29255  0.76318  0.43173  1.0000
  H   H255      1.0  0.30162  0.82695  0.41210  1.0000
  H   H256      1.0  0.18065  0.64510  0.43976  1.0000
  H   H257      1.0  0.11325  0.59812  0.25403  1.0000
  C   C160      1.0  0.25587  0.55419  0.08783  1.0000
  C   C161      1.0  0.17855  0.97064  0.22555  1.0000
  H   H258      1.0  0.26858  0.75926  0.10238  1.0000
  H   H259      1.0  0.16076  0.99996  0.31313  1.0000
  C   C162      1.0  0.19420  0.67175  0.43427  1.0000
  H   H260      1.0  0.06287  0.60103  0.28625  1.0000
  H   H261      1.0  0.02351  0.99094  0.32617  1.0000
  H   H262      1.0  0.11677  0.62676  0.17623  1.0000
  C   C163      1.0  0.24394  0.76638  0.50663  1.0000
  H   H263      1.0  0.07946  0.89332  0.26789  1.0000
  H   H264      1.0  0.08221  0.73833  0.29338  1.0000
  H   H265      1.0  0.09363  0.72743  0.24808  1.0000
  C   C164      1.0  0.02295  0.74397  0.35258  1.0000
  C   C165      1.0  0.07539  0.89956  0.29659  1.0000
  C   C166      1.0  0.25926  0.63866  0.02430  1.0000
  H   H266      1.0  0.22410  0.60355  0.13231  1.0000
  H   H267      1.0  0.01616  0.56177  0.25844  1.0000
  N   N10       1.0  0.28208  0.70004  0.38748  1.0000
  H   H268      1.0  0.10702  0.95705  0.26568  1.0000
  C   C167      1.0  0.28759  0.76985  0.40308  1.0000
  H   H269      1.0  0.33767  0.79965  0.39849  1.0000
  H   H270      1.0  0.25919  0.88241  0.29441  1.0000
  C   C168      1.0  0.24664  0.70244  0.40451  1.0000
  N   N11       1.0  0.25590  0.52688  0.05757  1.0000
  H   H271      1.0  0.05815  0.94308  0.32921  1.0000
  H   H272      1.0  0.30141  0.87735  0.27401  1.0000
  H   H273      1.0  0.29085  0.70040  0.46416  1.0000
  C   C169      1.0  0.05105  0.69252  0.27058  1.0000
  H   H274      1.0  0.32029  0.57553  0.06037  1.0000
  H   H275      1.0  0.24503  0.64831  0.43141  1.0000
  H   H276      1.0  0.28705  0.84549  0.30818  1.0000
  C   C170      1.0  0.14603  0.64324  0.34989  1.0000
  H   H277      1.0  0.07751  0.66400  0.21707  1.0000
  H   H278      1.0  0.07747  0.59807  0.22203  1.0000
  C   C171      1.0  0.06498  0.93945  0.30068  1.0000
  H   H279      1.0  0.25675  0.57957  0.15934  1.0000
  H   H280      1.0  0.32922  0.52741  0.06497  1.0000
  H   H281      1.0  0.20719  0.96622  0.27614  1.0000
  H   H282      1.0  0.22040  0.65016  0.38929  1.0000
  H   H283      1.0  0.17603  0.68914  0.41817  1.0000
  H   H284      1.0  0.28435  0.74658  0.35097  1.0000
  S   S34       1.0  0.14003  0.97617  0.16173  1.0000
  H   H285      1.0  0.27010  0.64911  0.35958  1.0000
  C   C172      1.0  0.29583  0.73794  0.37751  1.0000
  C   C173      1.0  0.22794  0.66552  0.41401  1.0000
  H   H286      1.0  0.03270  0.65518  0.37932  1.0000
  H   H287      1.0  0.25396  0.68882  0.33715  1.0000
  H   H288      1.0  0.28865  0.75463  0.14638  1.0000
  C   C174      1.0  0.15402  0.95400  0.20189  1.0000
  C   C175      1.0  0.30827  0.68036  0.41146  1.0000
  H   H289      1.0  0.25980  0.64537  0.05256  1.0000
  H   H290      1.0  0.25987  0.95042  0.15000  1.0000
  C   C176      1.0  0.22020  0.52655  0.03872  1.0000
  H   H291      1.0  0.06995  0.97070  0.22037  1.0000
  C   C177      1.0  0.32014  0.54901  0.04600  1.0000
  C   C178      1.0  0.12768  0.61266  0.20047  1.0000
  H   H292      1.0  0.16271  0.66824  0.34574  1.0000
  H   H293      1.0  0.11017  0.60799  0.32043  1.0000
  C   C179      1.0  0.09272  0.65330  0.24075  1.0000
  H   H294      1.0  0.11576  0.68991  0.30140  1.0000
  H   H295      1.0  0.21068  0.57119  0.16645  1.0000
  H   H296      1.0  0.11659  0.96119  0.31194  1.0000
  C   C180      1.0  0.10165  0.61337  0.23105  1.0000
  H   H297      1.0  0.08395  0.67157  0.33085  1.0000
  H   H298      1.0  0.25054  0.58202  0.07687  1.0000
  H   H299      1.0  0.15303  0.62627  0.20882  1.0000
  H   H300      1.0  0.20034  0.68541  0.46035  1.0000
  H   H301      1.0  0.13291  0.58386  0.19342  1.0000
  H   H302      1.0  0.16352  0.62015  0.35662  1.0000
  H   H303      1.0  0.11771  0.66997  0.24134  1.0000
  C   C181      1.0  0.31538  0.69619  0.44953  1.0000
  H   H304      1.0  0.02342  0.62397  0.23032  1.0000
  S   S35       1.0  0.32986  0.71714  0.20185  1.0000
  H   H305      1.0  0.03760  0.75356  0.22498  1.0000
  C   C182      1.0  0.28258  0.54023  0.03072  1.0000
  H   H306      1.0  0.02476  0.76259  0.27052  1.0000
  H   H307      1.0  0.27616  0.65924  0.28191  1.0000
  H   H308      1.0  0.21190  0.55513  0.03306  1.0000
  H   H309      1.0  0.03405  0.00075  0.26592  1.0000
  C   C183      1.0  0.01616  0.62154  0.25891  1.0000
  H   H310      1.0  0.03327  0.69512  0.29362  1.0000
  H   H311      1.0  0.08985  0.00571  0.34709  1.0000
  H   H312      1.0  0.20254  0.54248  0.10801  1.0000
  H   H313      1.0  0.03831  0.63082  0.31188  1.0000
  S   S36       1.0  0.33183  0.53228  0.15720  1.0000
  H   H314      1.0  0.19950  0.51490  0.05612  1.0000
  H   H315      1.0  0.33044  0.72249  0.44760  1.0000
  C   C184      1.0  0.30860  0.67779  0.32787  1.0000
  H   H316      1.0  0.31426  0.70550  0.31670  1.0000
  H   H317      1.0  0.32277  0.65454  0.27683  1.0000
  C   C185      1.0  0.30108  0.65211  0.29620  1.0000
  H   H318      1.0  0.29904  0.62322  0.30563  1.0000
  H   H319      1.0  0.32380  0.64378  0.47662  1.0000
  H   H320      1.0  0.01365  0.99983  0.20125  1.0000
  C   C186      1.0  0.06818  0.00096  0.22131  1.0000
  H   H321      1.0  0.30705  0.95116  0.50867  1.0000
  H   H322      1.0  0.27331  0.56530  0.01663  1.0000
  H   H323      1.0  0.33439  0.68012  0.39884  1.0000
  H   H324      1.0  0.33273  0.66819  0.34195  1.0000
  C   C187      1.0  0.33785  0.67047  0.47260  1.0000
  H   H325      1.0  0.04626  0.00264  0.16698  1.0000
  Fe  Fe19      1.0  0.09578  0.63448  0.85526  1.0000
  S   S37       1.0  0.11528  0.58024  0.87558  1.0000
  S   S38       1.0  0.04302  0.65724  0.87196  1.0000
  Fe  Fe20      1.0  0.16644  0.65265  0.82186  1.0000
  S   S39       1.0  0.19167  0.59976  0.83946  1.0000
  S   S40       1.0  0.18936  0.70499  0.79795  1.0000
  Fe  Fe21      1.0  0.13949  0.57375  0.82127  1.0000
  H   H326      1.0  0.22998  0.89259  0.65346  1.0000
  Fe  Fe22      1.0  0.16592  0.60930  0.89238  1.0000
  S   S41       1.0  0.18632  0.60163  0.95039  1.0000
  S   S42       1.0  0.11614  0.62638  0.79993  1.0000
  S   S43       1.0  0.14470  0.66358  0.87598  1.0000
  N   N12       1.0  0.08984  0.76824  0.78156  1.0000
  H   H327      1.0  0.30909  0.52095  0.56617  1.0000
  C   C188      1.0  0.16407  0.84428  0.79142  1.0000
  C   C189      1.0  0.33869  0.97323  0.76731  1.0000
  H   H328      1.0  0.27748  0.76267  0.55447  1.0000
  C   C190      1.0  0.22401  0.70297  0.76775  1.0000
  C   C191      1.0  0.23823  0.73568  0.75366  1.0000
  C   C192      1.0  0.26736  0.73513  0.73124  1.0000
  C   C193      1.0  0.28261  0.70187  0.72320  1.0000
  C   C194      1.0  0.26800  0.66913  0.73688  1.0000
  C   C195      1.0  0.23852  0.66962  0.75880  1.0000
  H   H329      1.0  0.22696  0.76154  0.76040  1.0000
  H   H330      1.0  0.27840  0.76043  0.72065  1.0000
  H   H331      1.0  0.27959  0.64330  0.73052  1.0000
  H   H332      1.0  0.22743  0.64428  0.76926  1.0000
  C   C196      1.0  0.22615  0.61925  0.97003  1.0000
  C   C197      1.0  0.25711  0.62216  0.95069  1.0000
  C   C198      1.0  0.28902  0.63284  0.96820  1.0000
  H   H333      1.0  0.29051  0.94650  0.74863  1.0000
  H   H334      1.0  0.29838  0.60877  0.85238  1.0000
  C   C199      1.0  0.26374  0.99131  0.88527  1.0000
  H   H335      1.0  0.25664  0.61502  0.92253  1.0000
  C   C200      1.0  0.21781  0.50628  0.00223  1.0000
  C   C201      1.0  0.01310  0.68905  0.81066  1.0000
  H   H336      1.0  0.09562  0.78076  0.89289  1.0000
  C   C202      1.0  0.12718  0.82741  0.79569  1.0000
  C   C203      1.0  0.06101  0.78469  0.75801  1.0000
  H   H337      1.0  0.30477  0.87434  0.63092  1.0000
  H   H338      1.0  0.04216  0.76280  0.74827  1.0000
  H   H339      1.0  0.08412  0.73719  0.71051  1.0000
  H   H340      1.0  0.16583  0.52618  0.98717  1.0000
  S   S44       1.0  0.12780  0.51706  0.79671  1.0000
  H   H341      1.0  0.08494  0.66941  0.72435  1.0000
  C   C204      1.0  0.33535  0.91430  0.73583  1.0000
  H   H342      1.0  0.11688  0.71655  0.78447  1.0000
  C   C205      1.0  0.10487  0.72589  0.72862  1.0000
  C   C206      1.0  0.33621  0.97076  0.55636  1.0000
  H   H343      1.0  0.20521  0.69322  0.93121  1.0000
  C   C207      1.0  0.31886  0.94484  0.75041  1.0000
  H   H344      1.0  0.26433  0.87387  0.68241  1.0000
  H   H345      1.0  0.07220  0.79717  0.73329  1.0000
  H   H346      1.0  0.11476  0.68364  0.68975  1.0000
  H   H347      1.0  0.21238  0.74014  0.94554  1.0000
  S   S45       1.0  0.32097  0.80727  0.66547  1.0000
  H   H348      1.0  0.31223  0.66314  0.89424  1.0000
  H   H349      1.0  0.02871  0.67063  0.79545  1.0000
  H   H350      1.0  0.24651  0.84770  0.64506  1.0000
  H   H351      1.0  0.26847  0.94874  0.63651  1.0000
  C   C208      1.0  0.09534  0.72969  0.76874  1.0000
  H   H352      1.0  0.30543  0.98926  0.68628  1.0000
  H   H353      1.0  0.10840  0.84629  0.78257  1.0000
  S   S46       1.0  0.32050  0.70013  0.69718  1.0000
  H   H354      1.0  0.13177  0.67413  0.73431  1.0000
  C   C209      1.0  0.27728  0.66376  0.84871  1.0000
  H   H355      1.0  0.32175  0.71018  0.95771  1.0000
  H   H356      1.0  0.28536  0.51960  0.00921  1.0000
  C   C210      1.0  0.10924  0.68576  0.71879  1.0000
  H   H357      1.0  0.31303  0.63386  0.95336  1.0000
  C   C211      1.0  0.28902  0.62839  0.83149  1.0000
  H   H358      1.0  0.27003  0.74125  0.83866  1.0000
  H   H359      1.0  0.28870  0.98567  0.90029  1.0000
  S   S47       1.0  0.31501  0.83380  0.56023  1.0000
  H   H360      1.0  0.22715  0.70905  0.87089  1.0000
  H   H361      1.0  0.25505  0.65656  0.86636  1.0000
  C   C212      1.0  0.32801  0.00002  0.67081  1.0000
  H   H362      1.0  0.15532  0.99519  0.00506  1.0000
  C   C213      1.0  0.29589  0.74642  0.85248  1.0000
  H   H363      1.0  0.33862  0.57441  0.99649  1.0000
  C   C214      1.0  0.10337  0.74573  0.84668  1.0000
  H   H364      1.0  0.27602  0.74322  0.92948  1.0000
  C   C215      1.0  0.31833  0.94300  0.58230  1.0000
  C   C216      1.0  0.01199  0.83009  0.74746  1.0000
  H   H365      1.0  0.18414  0.82673  0.80469  1.0000
  C   C217      1.0  0.09292  0.75140  0.88556  1.0000
  H   H366      1.0  0.16565  0.87170  0.80411  1.0000
  H   H367      1.0  0.29225  0.78250  0.78780  1.0000
  H   H368      1.0  0.05257  0.83571  0.78837  1.0000
  H   H369      1.0  0.13008  0.79387  0.74913  1.0000
  H   H370      1.0  0.24811  0.96535  0.88271  1.0000
  C   C218      1.0  0.12426  0.78930  0.77795  1.0000
  H   H371      1.0  0.07412  0.79349  0.83113  1.0000
  H   H372      1.0  0.14652  0.77283  0.78871  1.0000
  C   C219      1.0  0.07847  0.76594  0.82007  1.0000
  C   C220      1.0  0.29234  0.93201  0.64102  1.0000
  H   H373      1.0  0.07144  0.71238  0.77336  1.0000
  H   H374      1.0  0.10138  0.71591  0.84146  1.0000
  H   H375      1.0  0.13114  0.75514  0.84412  1.0000
  C   C221      1.0  0.25392  0.87577  0.65430  1.0000
  H   H376      1.0  0.31976  0.89262  0.72316  1.0000
  C   C222      1.0  0.28399  0.81497  0.52822  1.0000
  H   H377      1.0  0.26656  0.61537  0.81637  1.0000
  C   C223      1.0  0.32379  0.98981  0.63045  1.0000
  C   C224      1.0  0.30771  0.68185  0.87101  1.0000
  H   H378      1.0  0.32673  0.91490  0.57541  1.0000
  H   H379      1.0  0.23075  0.52324  0.98118  1.0000
  H   H380      1.0  0.27033  0.69515  0.92534  1.0000
  H   H381      1.0  0.05241  0.75163  0.82137  1.0000
  H   H382      1.0  0.06534  0.74175  0.88945  1.0000
  H   H383      1.0  0.29475  0.77496  0.86269  1.0000
  H   H384      1.0  0.12245  0.82575  0.82491  1.0000
  H   H385      1.0  0.13022  0.74025  0.72308  1.0000
  C   C225      1.0  0.28184  0.89228  0.62978  1.0000
  H   H386      1.0  0.23237  0.75630  0.88332  1.0000
  H   H387      1.0  0.26784  0.68204  0.82694  1.0000
  C   C226      1.0  0.27158  0.72101  0.90935  1.0000
  C   C227      1.0  0.20639  0.72227  0.92206  1.0000
  H   H388      1.0  0.17021  0.84754  0.76253  1.0000
  H   H389      1.0  0.11026  0.73535  0.90389  1.0000
  H   H390      1.0  0.18017  0.72945  0.91064  1.0000
  C   C228      1.0  0.23413  0.72766  0.89340  1.0000
  C   C229      1.0  0.03714  0.81325  0.77534  1.0000
  C   C230      1.0  0.29031  0.64101  0.00507  1.0000
  C   C231      1.0  0.31988  0.77895  0.79727  1.0000
  H   H391      1.0  0.26691  0.52519  0.58705  1.0000
  H   H392      1.0  0.27071  0.89158  0.60190  1.0000
  H   H393      1.0  0.29728  0.93141  0.67059  1.0000
  H   H394      1.0  0.28984  0.94382  0.57451  1.0000
  C   C232      1.0  0.28037  0.52375  0.56097  1.0000
  Fe  Fe23      1.0  0.34112  0.80506  0.60880  1.0000
  N   N13       1.0  0.30181  0.72024  0.88364  1.0000
  H   H395      1.0  0.27608  0.54984  0.54614  1.0000
  C   C233      1.0  0.26947  0.77961  0.53186  1.0000
  N   N14       1.0  0.32347  0.94936  0.62224  1.0000
  C   C234      1.0  0.22742  0.62755  0.00690  1.0000
  H   H396      1.0  0.18861  0.52662  0.74965  1.0000
  H   H397      1.0  0.17785  0.99728  0.94302  1.0000
  H   H398      1.0  0.32214  0.99708  0.55652  1.0000
  C   C235      1.0  0.33474  0.95653  0.51782  1.0000
  H   H399      1.0  0.02056  0.79982  0.79604  1.0000
  H   H400      1.0  0.27055  0.00157  0.85806  1.0000
  H   H401      1.0  0.33219  0.68101  0.85531  1.0000
  H   H402      1.0  0.31032  0.63431  0.81226  1.0000
  H   H403      1.0  0.01650  0.97906  0.73073  1.0000
  H   H404      1.0  0.29894  0.00201  0.61990  1.0000
  C   C236      1.0  0.01526  0.68801  0.84820  1.0000
  H   H405      1.0  0.02682  0.84525  0.72652  1.0000
  C   C237      1.0  0.32294  0.74543  0.82193  1.0000
  H   H406      1.0  0.31788  0.72059  0.80529  1.0000
  H   H407      1.0  0.19182  0.00361  0.88433  1.0000
  H   H408      1.0  0.33641  0.77552  0.77341  1.0000
  H   H409      1.0  0.33244  0.76283  0.91102  1.0000
  C   C238      1.0  0.33469  0.73336  0.90401  1.0000
  H   H410      1.0  0.32909  0.80409  0.81164  1.0000
  Fe  Fe24      1.0  0.58832  0.14679  0.34185  1.0000
  C   C239      1.0  0.43825  0.43933  0.27086  1.0000
  S   S48       1.0  0.53007  0.15807  0.35121  1.0000
  Fe  Fe25      1.0  0.63454  0.09567  0.29762  1.0000
  H   H411      1.0  0.51571  0.38093  0.17393  1.0000
  S   S49       1.0  0.60876  0.08963  0.35117  1.0000
  S   S50       1.0  0.61109  0.15111  0.28694  1.0000
  H   H412      1.0  0.55081  0.23379  0.33255  1.0000
  Fe  Fe26      1.0  0.38234  0.31357  0.31998  1.0000
  S   S51       1.0  0.36863  0.35740  0.35888  1.0000
  S   S52       1.0  0.44100  0.30141  0.31639  1.0000
  H   H413      1.0  0.62348  0.18673  0.19165  1.0000
  H   H414      1.0  0.61671  0.01129  0.18776  1.0000
  C   C240      1.0  0.39396  0.23154  0.47257  1.0000
  H   H415      1.0  0.43793  0.21213  0.50605  1.0000
  C   C241      1.0  0.64777  0.10860  0.16419  1.0000
  H   H416      1.0  0.36500  0.16847  0.40843  1.0000
  C   C242      1.0  0.44356  0.40503  0.29517  1.0000
  H   H417      1.0  0.38405  0.23068  0.38106  1.0000
  C   C243      1.0  0.51999  0.41113  0.17321  1.0000
  C   C244      1.0  0.44877  0.41560  0.33461  1.0000
  C   C245      1.0  0.46791  0.19684  0.43638  1.0000
  H   H418      1.0  0.46674  0.38949  0.28710  1.0000
  H   H419      1.0  0.44677  0.32982  0.39284  1.0000
  H   H420      1.0  0.47529  0.20944  0.46248  1.0000
  C   C246      1.0  0.50587  0.19771  0.33905  1.0000
  C   C247      1.0  0.46882  0.19549  0.33823  1.0000
  C   C248      1.0  0.44851  0.22667  0.33080  1.0000
  C   C249      1.0  0.46505  0.26068  0.32449  1.0000
  C   C250      1.0  0.50208  0.26280  0.32487  1.0000
  C   C251      1.0  0.52238  0.23157  0.33199  1.0000
  H   H421      1.0  0.45578  0.16936  0.34318  1.0000
  H   H422      1.0  0.42013  0.22433  0.32972  1.0000
  H   H423      1.0  0.51524  0.28886  0.31983  1.0000
  C   C252      1.0  0.67148  0.26113  0.09120  1.0000
  H   H424      1.0  0.63176  0.08283  0.16625  1.0000
  H   H425      1.0  0.63684  0.12532  0.14169  1.0000
  H   H426      1.0  0.37421  0.25345  0.47452  1.0000
  H   H427      1.0  0.63083  0.22704  0.14047  1.0000
  C   C253      1.0  0.65555  0.26830  0.02492  1.0000
  H   H428      1.0  0.45941  0.45951  0.27874  1.0000
  H   H429      1.0  0.41319  0.45186  0.27866  1.0000
  H   H430      1.0  0.41882  0.37653  0.23490  1.0000
  H   H431      1.0  0.39893  0.47278  0.21725  1.0000
  H   H432      1.0  0.35931  0.11878  0.08891  1.0000
  H   H433      1.0  0.45176  0.39041  0.35124  1.0000
  C   C254      1.0  0.48350  0.15870  0.43582  1.0000
  H   H434      1.0  0.52834  0.41919  0.14583  1.0000
  C   C255      1.0  0.48611  0.43049  0.18191  1.0000
  H   H435      1.0  0.41637  0.17214  0.44598  1.0000
  H   H436      1.0  0.36898  0.16454  0.07348  1.0000
  C   C256      1.0  0.35165  0.13999  0.06895  1.0000
  H   H437      1.0  0.49489  0.43325  0.23883  1.0000
  H   H438      1.0  0.66430  0.27618  0.16793  1.0000
  H   H439      1.0  0.42431  0.18561  0.40101  1.0000
  C   C257      1.0  0.41067  0.40307  0.22280  1.0000
  H   H440      1.0  0.66301  0.23204  0.08846  1.0000
  S   S53       1.0  0.63534  0.17358  0.37018  1.0000
  H   H441      1.0  0.38752  0.12038  0.02933  1.0000
  H   H442      1.0  0.42827  0.46567  0.18263  1.0000
  H   H443      1.0  0.47278  0.43318  0.33848  1.0000
  H   H444      1.0  0.64742  0.23898  0.02248  1.0000
  C   C258      1.0  0.42707  0.46780  0.21224  1.0000
  C   C259      1.0  0.47423  0.42090  0.22054  1.0000
  H   H445      1.0  0.35855  0.25235  0.41360  1.0000
  N   N15       1.0  0.43804  0.43281  0.23077  1.0000
  N   N16       1.0  0.40717  0.22962  0.43480  1.0000
  C   C260      1.0  0.42934  0.26295  0.42504  1.0000
  C   C261      1.0  0.42744  0.19496  0.42940  1.0000
  H   H446      1.0  0.64564  0.12398  0.18963  1.0000
  H   H447      1.0  0.37772  0.34088  0.19296  1.0000
  H   H448      1.0  0.54144  0.41892  0.19273  1.0000
  C   C262      1.0  0.41207  0.30056  0.42960  1.0000
  C   C263      1.0  0.64445  0.20839  0.19348  1.0000
  H   H449      1.0  0.36561  0.36126  0.15029  1.0000
  H   H450      1.0  0.63407  0.23178  0.20850  1.0000
  S   S54       1.0  0.34366  0.44497  0.30616  1.0000
  C   C264      1.0  0.43791  0.33193  0.42093  1.0000
  H   H451      1.0  0.38558  0.40985  0.23573  1.0000
  H   H452      1.0  0.43741  0.26109  0.39658  1.0000
  H   H453      1.0  0.45434  0.26427  0.44100  1.0000
  S   S55       1.0  0.35424  0.34188  0.27390  1.0000
  H   H454      1.0  0.37936  0.20586  0.47963  1.0000
  H   H455      1.0  0.64689  0.27605  0.09627  1.0000
  S   S56       1.0  0.62935  0.05697  0.24927  1.0000
  H   H456      1.0  0.35014  0.18155  0.12940  1.0000
  C   C265      1.0  0.35068  0.19415  0.41235  1.0000
  Fe  Fe27      1.0  0.65917  0.17405  0.31552  1.0000
  H   H457      1.0  0.66703  0.19643  0.14288  1.0000
  H   H458      1.0  0.38899  0.30317  0.41114  1.0000
  H   H459      1.0  0.40348  0.30439  0.45752  1.0000
  H   H460      1.0  0.42483  0.38219  0.17028  1.0000
  H   H461      1.0  0.47673  0.14484  0.41000  1.0000
  C   C266      1.0  0.64287  0.01169  0.23989  1.0000
  H   H462      1.0  0.46121  0.33150  0.43956  1.0000
  H   H463      1.0  0.46600  0.42284  0.16117  1.0000
  H   H464      1.0  0.48064  0.21338  0.41490  1.0000
  H   H465      1.0  0.42551  0.43034  0.34393  1.0000
  C   C267      1.0  0.40197  0.39470  0.18280  1.0000
  Fe  Fe28      1.0  0.65798  0.11737  0.37492  1.0000
  H   H466      1.0  0.36164  0.22408  0.18032  1.0000
  H   H467      1.0  0.42480  0.35853  0.42383  1.0000
  H   H468      1.0  0.41995  0.38659  0.29361  1.0000
  H   H469      1.0  0.47658  0.39079  0.22463  1.0000
  C   C268      1.0  0.37546  0.22849  0.40939  1.0000
  H   H470      1.0  0.39424  0.41953  0.16754  1.0000
  H   H471      1.0  0.49145  0.46039  0.17925  1.0000
  C   C269      1.0  0.37124  0.36704  0.17914  1.0000
  H   H472      1.0  0.47659  0.49808  0.22618  1.0000
  H   H473      1.0  0.43985  0.26099  0.49755  1.0000
  C   C270      1.0  0.35897  0.12525  0.03166  1.0000
  H   H474      1.0  0.34452  0.09882  0.02723  1.0000
  H   H475      1.0  0.47362  0.14165  0.45840  1.0000
  C   C271      1.0  0.65532  0.22019  0.15579  1.0000
  H   H476      1.0  0.51265  0.16105  0.43842  1.0000
  C   C272      1.0  0.42216  0.23712  0.50286  1.0000
  H   H477      1.0  0.34715  0.37811  0.19083  1.0000
  H   H478      1.0  0.63236  0.28470  0.03130  1.0000
  H   H479      1.0  0.66721  0.19718  0.20877  1.0000
  C   C273      1.0  0.44795  0.50298  0.22381  1.0000
  C   C274      1.0  0.66233  0.39537  0.74130  1.0000
  C   C275      1.0  0.57380  0.34971  0.72748  1.0000
  H   H480      1.0  0.35250  0.05396  0.66216  1.0000
  C   C276      1.0  0.55353  0.47058  0.71695  1.0000
  H   H481      1.0  0.62648  0.11515  0.65056  1.0000
  Fe  Fe29      1.0  0.39109  0.11649  0.84875  1.0000
  S   S57       1.0  0.45070  0.12787  0.85035  1.0000
  H   H482      1.0  0.55832  0.25375  0.77903  1.0000
  S   S58       1.0  0.37305  0.05995  0.86708  1.0000
  Fe  Fe30      1.0  0.60047  0.28125  0.85435  1.0000
  S   S59       1.0  0.63569  0.32184  0.88468  1.0000
  S   S60       1.0  0.54053  0.27803  0.85739  1.0000
  S   S61       1.0  0.35187  0.14514  0.88221  1.0000
  C   C277      1.0  0.65924  0.41298  0.70751  1.0000
  S   S62       1.0  0.62038  0.29836  0.80030  1.0000
  H   H483      1.0  0.59736  0.39682  0.78804  1.0000
  H   H484      1.0  0.60254  0.39345  0.85691  1.0000
  H   H485      1.0  0.66534  0.27780  0.99852  1.0000
  C   C278      1.0  0.55807  0.41352  0.82501  1.0000
  H   H486      1.0  0.42564  0.24693  0.56032  1.0000
  C   C279      1.0  0.57336  0.39306  0.85757  1.0000
  C   C280      1.0  0.53538  0.24342  0.76275  1.0000
  C   C281      1.0  0.47399  0.17047  0.85535  1.0000
  C   C282      1.0  0.50983  0.17025  0.86573  1.0000
  C   C283      1.0  0.53039  0.20294  0.86690  1.0000
  C   C284      1.0  0.51525  0.23638  0.85785  1.0000
  C   C285      1.0  0.47914  0.23680  0.84852  1.0000
  C   C286      1.0  0.45861  0.20403  0.84712  1.0000
  H   H487      1.0  0.52176  0.14450  0.87268  1.0000
  H   H488      1.0  0.55795  0.20234  0.87472  1.0000
  H   H489      1.0  0.46707  0.26254  0.84176  1.0000
  H   H490      1.0  0.43108  0.20466  0.83912  1.0000
  H   H491      1.0  0.63421  0.15065  0.86712  1.0000
  H   H492      1.0  0.51143  0.25600  0.77317  1.0000
  H   H493      1.0  0.59795  0.34767  0.74464  1.0000
  N   N17       1.0  0.56693  0.14236  0.75768  1.0000
  C   C287      1.0  0.57274  0.13377  0.79712  1.0000
  C   C288      1.0  0.53459  0.12157  0.74339  1.0000
  C   C289      1.0  0.59868  0.12942  0.73816  1.0000
  C   C290      1.0  0.56426  0.18302  0.75082  1.0000
  C   C291      1.0  0.53207  0.20178  0.76618  1.0000
  C   C292      1.0  0.60608  0.15119  0.81558  1.0000
  C   C293      1.0  0.59492  0.12703  0.69653  1.0000
  C   C294      1.0  0.50317  0.11624  0.76909  1.0000
  C   C295      1.0  0.47042  0.10092  0.74920  1.0000
  H   H494      1.0  0.62188  0.14790  0.74387  1.0000
  C   C296      1.0  0.61060  0.13729  0.85426  1.0000
  C   C297      1.0  0.56412  0.45021  0.75234  1.0000
  H   H495      1.0  0.57383  0.10351  0.80108  1.0000
  H   H496      1.0  0.55033  0.14251  0.81302  1.0000
  H   H497      1.0  0.52471  0.13455  0.71800  1.0000
  H   H498      1.0  0.54152  0.09308  0.73635  1.0000
  H   H499      1.0  0.60621  0.10172  0.74811  1.0000
  H   H500      1.0  0.55259  0.33341  0.74027  1.0000
  H   H501      1.0  0.58857  0.19777  0.76068  1.0000
  H   H502      1.0  0.56297  0.18900  0.72158  1.0000
  H   H503      1.0  0.52918  0.19510  0.79486  1.0000
  H   H504      1.0  0.50778  0.19301  0.75107  1.0000
  H   H505      1.0  0.50284  0.42907  0.77618  1.0000
  H   H506      1.0  0.60386  0.18136  0.81634  1.0000
  C   C298      1.0  0.66557  0.47209  0.73590  1.0000
  H   H507      1.0  0.57533  0.10547  0.68832  1.0000
  H   H508      1.0  0.51005  0.09641  0.79084  1.0000
  H   H509      1.0  0.49581  0.14187  0.78214  1.0000
  H   H510      1.0  0.47587  0.07419  0.73679  1.0000
  H   H511      1.0  0.44889  0.09665  0.76856  1.0000
  H   H512      1.0  0.46132  0.12047  0.72814  1.0000
  S   S63       1.0  0.63873  0.23598  0.86177  1.0000
  H   H513      1.0  0.56340  0.36419  0.85814  1.0000
  H   H514      1.0  0.58668  0.15329  0.68430  1.0000
  H   H515      1.0  0.63041  0.14442  0.80164  1.0000
  C   C299      1.0  0.49461  0.37157  0.76296  1.0000
  H   H516      1.0  0.56866  0.44207  0.82637  1.0000
  H   H517      1.0  0.58740  0.14380  0.87025  1.0000
  C   C300      1.0  0.56820  0.39512  0.78945  1.0000
  H   H518      1.0  0.52914  0.41363  0.82785  1.0000
  H   H519      1.0  0.44911  0.39211  0.79022  1.0000
  H   H520      1.0  0.53842  0.25192  0.73427  1.0000
  H   H521      1.0  0.61421  0.10721  0.85476  1.0000
  H   H522      1.0  0.56186  0.36549  0.79262  1.0000
  Fe  Fe31      1.0  0.65808  0.33573  0.83038  1.0000
  H   H523      1.0  0.56560  0.40653  0.88268  1.0000
  H   H524      1.0  0.58922  0.30327  0.69618  1.0000
  C   C301      1.0  0.62989  0.11739  0.68019  1.0000
  N   N18       1.0  0.55188  0.41060  0.75528  1.0000
  H   H525      1.0  0.65561  0.39679  0.68346  1.0000
  H   H526      1.0  0.66685  0.50165  0.73415  1.0000
  H   H527      1.0  0.50493  0.35858  0.78799  1.0000
  Fe  Fe32      1.0  0.66081  0.25547  0.80956  1.0000
  S   S64       1.0  0.66895  0.39565  0.81602  1.0000
  S   S65       1.0  0.65346  0.47247  0.66192  1.0000
  H   H528      1.0  0.38740  0.22017  0.54605  1.0000
  H   H529      1.0  0.55783  0.33229  0.67345  1.0000
  C   C302      1.0  0.45489  0.37479  0.76681  1.0000
  S   S66       1.0  0.35665  0.11493  0.79813  1.0000
  H   H530      1.0  0.49869  0.35326  0.73992  1.0000
  C   C303      1.0  0.40498  0.24371  0.53884  1.0000
  H   H531      1.0  0.58912  0.40389  0.71275  1.0000
  H   H532      1.0  0.38943  0.26907  0.53758  1.0000
  H   H533      1.0  0.44285  0.34715  0.77126  1.0000
  C   C304      1.0  0.56453  0.39063  0.72267  1.0000
  C   C305      1.0  0.58152  0.33210  0.69155  1.0000
  H   H534      1.0  0.59336  0.45221  0.75537  1.0000
  H   H535      1.0  0.54518  0.39290  0.69981  1.0000
  H   H536      1.0  0.55373  0.46668  0.77448  1.0000
  C   C306      1.0  0.51225  0.40953  0.75599  1.0000
  H   H537      1.0  0.44274  0.38682  0.74208  1.0000
  H   H538      1.0  0.60358  0.34700  0.67839  1.0000
  C   C307      1.0  0.66030  0.45144  0.70466  1.0000
  H   H539      1.0  0.50095  0.41937  0.72990  1.0000
  C   C308      1.0  0.66683  0.41612  0.77259  1.0000
  H   H540      1.0  0.65169  0.25877  0.67717  1.0000
  H   H541      1.0  0.56268  0.45630  0.69287  1.0000
  C   C309      1.0  0.66882  0.45450  0.76963  1.0000
  H   H542      1.0  0.63920  0.09076  0.69096  1.0000
  H   H543      1.0  0.66134  0.36581  0.74315  1.0000
  H   H544      1.0  0.52456  0.47313  0.71449  1.0000
  H   H545      1.0  0.65016  0.13906  0.68624  1.0000
  H   H546      1.0  0.35089  0.14501  0.01031  1.0000
  S   S67       1.0  0.66921  0.21274  0.76715  1.0000
  H   H547      1.0  0.67211  0.30378  0.67104  1.0000
  H   H548      1.0  0.67255  0.47080  0.79363  1.0000
  H   H549      1.0  0.45669  0.66163  0.21623  1.0000
  S   S68       1.0  0.38123  0.63027  0.18310  1.0000
  S   S69       1.0  0.37686  0.69031  0.11605  1.0000
  H   H550      1.0  0.37714  0.84527  0.24536  1.0000
  C   C310      1.0  0.46766  0.68450  0.23285  1.0000
  Fe  Fe33      1.0  0.41240  0.64545  0.13428  1.0000
  S   S70       1.0  0.47209  0.65069  0.14119  1.0000
  S   S71       1.0  0.38421  0.60291  0.10013  1.0000
  H   H551      1.0  0.43895  0.51208  0.25040  1.0000
  S   S72       1.0  0.64426  0.80330  0.17582  1.0000
  S   S73       1.0  0.66220  0.77643  0.09370  1.0000
  H   H552      1.0  0.35810  0.52006  0.28740  1.0000
  H   H553      1.0  0.63089  0.73409  0.28471  1.0000
  Fe  Fe34      1.0  0.61987  0.80721  0.12041  1.0000
  S   S74       1.0  0.56132  0.79682  0.10785  1.0000
  H   H554      1.0  0.47494  0.67331  0.25977  1.0000
  S   S75       1.0  0.64551  0.86259  0.10946  1.0000
  C   C311      1.0  0.49746  0.69037  0.12973  1.0000
  C   C312      1.0  0.48354  0.71819  0.10805  1.0000
  C   C313      1.0  0.50380  0.75016  0.10091  1.0000
  C   C314      1.0  0.53828  0.75461  0.11508  1.0000
  C   C315      1.0  0.55259  0.72634  0.13597  1.0000
  C   C316      1.0  0.53224  0.69440  0.14323  1.0000
  H   H555      1.0  0.45705  0.71519  0.09696  1.0000
  H   H556      1.0  0.49262  0.77173  0.08448  1.0000
  H   H557      1.0  0.57915  0.72929  0.14692  1.0000
  H   H558      1.0  0.54342  0.67288  0.15972  1.0000
  C   C317      1.0  0.44196  0.53440  0.19708  1.0000
  C   C318      1.0  0.64094  0.74147  0.25781  1.0000
  C   C319      1.0  0.39060  0.79940  0.10953  1.0000
  H   H559      1.0  0.62228  0.76009  0.24386  1.0000
  H   H560      1.0  0.41583  0.70008  0.24654  1.0000
  C   C320      1.0  0.64466  0.96116  0.19680  1.0000
  H   H561      1.0  0.36220  0.80242  0.10285  1.0000
  H   H562      1.0  0.34323  0.68292  0.49940  1.0000
  N   N19       1.0  0.44429  0.77279  0.19694  1.0000
  C   C321      1.0  0.43105  0.73363  0.20028  1.0000
  C   C322      1.0  0.43511  0.78694  0.15971  1.0000
  C   C323      1.0  0.48399  0.77211  0.20052  1.0000
  C   C324      1.0  0.43039  0.79765  0.22530  1.0000
  C   C325      1.0  0.39268  0.78872  0.23860  1.0000
  C   C326      1.0  0.44011  0.71394  0.23654  1.0000
  C   C327      1.0  0.50408  0.80896  0.19384  1.0000
  C   C328      1.0  0.39558  0.79038  0.14951  1.0000
  Fe  Fe35      1.0  0.34587  0.64685  0.08515  1.0000
  H   H563      1.0  0.65011  0.85357  0.31694  1.0000
  C   C329      1.0  0.66642  0.94140  0.22038  1.0000
  C   C330      1.0  0.54267  0.80689  0.20621  1.0000
  H   H564      1.0  0.44046  0.71701  0.17760  1.0000
  H   H565      1.0  0.40217  0.73165  0.19679  1.0000
  H   H566      1.0  0.44664  0.81483  0.15545  1.0000
  H   H567      1.0  0.44694  0.76934  0.13940  1.0000
  H   H568      1.0  0.49454  0.75194  0.18154  1.0000
  H   H569      1.0  0.49228  0.76245  0.22776  1.0000
  H   H570      1.0  0.44792  0.79771  0.24978  1.0000
  H   H571      1.0  0.43115  0.82656  0.21553  1.0000
  H   H572      1.0  0.39251  0.76353  0.25544  1.0000
  H   H573      1.0  0.45229  0.52762  0.17038  1.0000
  H   H574      1.0  0.44902  0.73331  0.25786  1.0000
  C   C331      1.0  0.34838  0.50647  0.26327  1.0000
  H   H575      1.0  0.49212  0.83178  0.20828  1.0000
  H   H576      1.0  0.50393  0.81557  0.16465  1.0000
  H   H577      1.0  0.38030  0.76481  0.15466  1.0000
  H   H578      1.0  0.67207  0.00331  0.28940  1.0000
  H   H579      1.0  0.45587  0.55965  0.20687  1.0000
  H   H580      1.0  0.40064  0.77698  0.09290  1.0000
  H   H581      1.0  0.40472  0.82542  0.10265  1.0000
  H   H582      1.0  0.38428  0.81307  0.16473  1.0000
  C   C332      1.0  0.37920  0.81966  0.26150  1.0000
  H   H583      1.0  0.66136  0.79138  0.30583  1.0000
  H   H584      1.0  0.65338  0.89247  0.37051  1.0000
  H   H585      1.0  0.41347  0.54012  0.19399  1.0000
  H   H586      1.0  0.37349  0.78413  0.21622  1.0000
  H   H587      1.0  0.54490  0.80264  0.23574  1.0000
  H   H588      1.0  0.55569  0.78420  0.19249  1.0000
  H   H589      1.0  0.55679  0.83288  0.19923  1.0000
  H   H590      1.0  0.63694  0.94966  0.17099  1.0000
  H   H591      1.0  0.36343  0.66582  0.45987  1.0000
  H   H592      1.0  0.35396  0.55498  0.22987  1.0000
  H   H593      1.0  0.39709  0.82462  0.28514  1.0000
  H   H594      1.0  0.49180  0.69565  0.22021  1.0000
  Fe  Fe36      1.0  0.34975  0.59165  0.14742  1.0000
  C   C333      1.0  0.34668  0.55282  0.01599  1.0000
  C   C334      1.0  0.66430  0.99175  0.26364  1.0000
  Fe  Fe37      1.0  0.67308  0.85651  0.16333  1.0000
  H   H595      1.0  0.35264  0.81204  0.27130  1.0000
  C   C335      1.0  0.34609  0.52634  0.23068  1.0000
  H   H596      1.0  0.64239  0.71609  0.24171  1.0000
  C   C336      1.0  0.63321  0.99614  0.20643  1.0000
  Fe  Fe38      1.0  0.34389  0.67294  0.16280  1.0000
  H   H597      1.0  0.37294  0.56076  0.02762  1.0000
  H   H598      1.0  0.66023  0.81527  0.26434  1.0000
  H   H599      1.0  0.67406  0.83186  0.35311  1.0000
  H   H600      1.0  0.34680  0.97718  0.49956  1.0000
  C   C337      1.0  0.39187  0.94658  0.62289  1.0000
  H   H601      1.0  0.34954  0.93076  0.51604  1.0000
  Fe  Fe39      1.0  0.61553  0.60550  0.65262  1.0000
  S   S76       1.0  0.36019  0.74729  0.61358  1.0000
  S   S77       1.0  0.56035  0.62263  0.66787  1.0000
  H   H602      1.0  0.49503  0.72836  0.77804  1.0000
  C   C338      1.0  0.42272  0.93261  0.64583  1.0000
  S   S78       1.0  0.62472  0.56308  0.61050  1.0000
  H   H603      1.0  0.42259  0.90224  0.64615  1.0000
  Fe  Fe40      1.0  0.41181  0.77120  0.63444  1.0000
  S   S79       1.0  0.39434  0.82901  0.62508  1.0000
  S   S80       1.0  0.46652  0.75674  0.61562  1.0000
  H   H604      1.0  0.67131  0.70499  0.58939  1.0000
  Fe  Fe41      1.0  0.37537  0.82804  0.68172  1.0000
  H   H605      1.0  0.35732  0.93151  0.66630  1.0000
  H   H606      1.0  0.56070  0.52563  0.73906  1.0000
  S   S81       1.0  0.39660  0.77175  0.69217  1.0000
  C   C339      1.0  0.48562  0.72180  0.75037  1.0000
  H   H607      1.0  0.65022  0.80039  0.99084  1.0000
  C   C340      1.0  0.37201  0.91190  0.73774  1.0000
  H   H608      1.0  0.59886  0.50827  0.71737  1.0000
  C   C341      1.0  0.53406  0.65870  0.65068  1.0000
  C   C342      1.0  0.49925  0.66117  0.66222  1.0000
  C   C343      1.0  0.47788  0.69031  0.65086  1.0000
  C   C344      1.0  0.49127  0.71772  0.62821  1.0000
  C   C345      1.0  0.52595  0.71507  0.61636  1.0000
  C   C346      1.0  0.54722  0.68568  0.62739  1.0000
  H   H609      1.0  0.48877  0.64043  0.68016  1.0000
  H   H610      1.0  0.45117  0.69176  0.65990  1.0000
  H   H611      1.0  0.53654  0.73604  0.59873  1.0000
  H   H612      1.0  0.57392  0.68417  0.61830  1.0000
  C   C347      1.0  0.44713  0.70898  0.75232  1.0000
  H   H613      1.0  0.39095  0.99217  0.78238  1.0000
  H   H614      1.0  0.43664  0.70102  0.72527  1.0000
  S   S82       1.0  0.39444  0.87471  0.71879  1.0000
  Fe  Fe42      1.0  0.34379  0.75111  0.67126  1.0000
  H   H615      1.0  0.39561  0.93717  0.59500  1.0000
  H   H616      1.0  0.35052  0.74485  0.83201  1.0000
  H   H617      1.0  0.50059  0.69826  0.74075  1.0000
  H   H618      1.0  0.61807  0.71401  0.83526  1.0000
  C   C348      1.0  0.61772  0.74408  0.83051  1.0000
  S   S83       1.0  0.66263  0.64031  0.63761  1.0000
  H   H619      1.0  0.65010  0.79719  0.92421  1.0000
  H   H620      1.0  0.39366  0.97682  0.62369  1.0000
  C   C349      1.0  0.37532  0.97062  0.76950  1.0000
  H   H621      1.0  0.43078  0.73098  0.76301  1.0000
  H   H622      1.0  0.36778  0.75876  0.96801  1.0000
  N   N20       1.0  0.52619  0.77223  0.72179  1.0000
  C   C350      1.0  0.52568  0.79792  0.68979  1.0000
  C   C351      1.0  0.55161  0.74172  0.71590  1.0000
  C   C352      1.0  0.48956  0.75550  0.72483  1.0000
  C   C353      1.0  0.53487  0.79211  0.75640  1.0000
  C   C354      1.0  0.57102  0.81239  0.75910  1.0000
  C   C355      1.0  0.49817  0.82861  0.69010  1.0000
  C   C356      1.0  0.58566  0.75130  0.69519  1.0000
  C   C357      1.0  0.61220  0.72061  0.69873  1.0000
  C   C358      1.0  0.57430  0.83540  0.79321  1.0000
  C   C359      1.0  0.50104  0.85311  0.65679  1.0000
  H   H623      1.0  0.52061  0.78189  0.66480  1.0000
  H   H624      1.0  0.55167  0.81151  0.68597  1.0000
  H   H625      1.0  0.55914  0.72860  0.74203  1.0000
  H   H626      1.0  0.53854  0.71961  0.69958  1.0000
  H   H627      1.0  0.47911  0.74695  0.69791  1.0000
  H   H628      1.0  0.35572  0.90161  0.62978  1.0000
  H   H629      1.0  0.51410  0.81200  0.76218  1.0000
  H   H630      1.0  0.53453  0.77261  0.77945  1.0000
  H   H631      1.0  0.57519  0.83118  0.73602  1.0000
  H   H632      1.0  0.59235  0.79223  0.76063  1.0000
  H   H633      1.0  0.47094  0.81695  0.68981  1.0000
  H   H634      1.0  0.50212  0.84624  0.71404  1.0000
  H   H635      1.0  0.47094  0.77620  0.73426  1.0000
  H   H636      1.0  0.57900  0.75490  0.66612  1.0000
  H   H637      1.0  0.59892  0.77688  0.70448  1.0000
  S   S84       1.0  0.64547  0.57472  0.69598  1.0000
  H   H638      1.0  0.60038  0.69432  0.68886  1.0000
  H   H639      1.0  0.63555  0.72741  0.68246  1.0000
  H   H640      1.0  0.39858  0.73246  0.94301  1.0000
  H   H641      1.0  0.55450  0.85729  0.79253  1.0000
  C   C360      1.0  0.64053  0.76418  0.85891  1.0000
  H   H642      1.0  0.52757  0.86640  0.65564  1.0000
  H   H643      1.0  0.49584  0.83683  0.63202  1.0000
  H   H644      1.0  0.48117  0.87480  0.65775  1.0000
  H   H645      1.0  0.62896  0.75788  0.88535  1.0000
  H   H646      1.0  0.42017  0.93858  0.75654  1.0000
  H   H647      1.0  0.34898  0.52647  0.00170  1.0000
  H   H648      1.0  0.57048  0.81805  0.81750  1.0000
  H   H649      1.0  0.44499  0.68473  0.77038  1.0000
  H   H650      1.0  0.56180  0.52342  0.69075  1.0000
  C   C361      1.0  0.66583  0.77958  0.97715  1.0000
  H   H651      1.0  0.62739  0.75022  0.80315  1.0000
  H   H652      1.0  0.44793  0.94272  0.63459  1.0000
  H   H653      1.0  0.35265  0.98912  0.68287  1.0000
  H   H654      1.0  0.63880  0.79388  0.85313  1.0000
  H   H655      1.0  0.65004  0.75363  0.97562  1.0000
  H   H656      1.0  0.62112  0.71707  0.72717  1.0000
  C   C362      1.0  0.39181  0.94016  0.75479  1.0000
  H   H657      1.0  0.60093  0.84857  0.79515  1.0000
  H   H658      1.0  0.42121  0.94252  0.67388  1.0000
  Fe  Fe43      1.0  0.67422  0.59586  0.59794  1.0000
  C   C363      1.0  0.37485  0.73079  0.95976  1.0000
  H   H659      1.0  0.59010  0.75301  0.83186  1.0000
  C   C364      1.0  0.34414  0.71209  0.93924  1.0000
  Fe  Fe44      1.0  0.65759  0.53452  0.65324  1.0000
  H   H660      1.0  0.35826  0.73182  0.88721  1.0000
  C   C365      1.0  0.56970  0.50930  0.71617  1.0000
  H   H661      1.0  0.35232  0.68395  0.93310  1.0000
  H   H662      1.0  0.67113  0.73813  0.62499  1.0000
  C   C366      1.0  0.35631  0.93118  0.63650  1.0000
  H   H663      1.0  0.38128  0.71464  0.98442  1.0000
  H   H664      1.0  0.36405  0.97668  0.56380  1.0000
  H   H665      1.0  0.34499  0.00485  0.61629  1.0000
  C   C367      1.0  0.73474  0.09203  0.48138  1.0000
  H   H666      1.0  0.81975  0.13354  0.37938  1.0000
  H   H667      1.0  0.71178  0.05764  0.25644  1.0000
  H   H668      1.0  0.80137  0.12615  0.33487  1.0000
  H   H669      1.0  0.91262  0.42699  0.27255  1.0000
  Fe  Fe45      1.0  0.83762  0.25360  0.16710  1.0000
  S   S85       1.0  0.89059  0.27306  0.18850  1.0000
  S   S86       1.0  0.80766  0.20366  0.18725  1.0000
  Fe  Fe46      1.0  0.83515  0.30895  0.10620  1.0000
  S   S87       1.0  0.88858  0.33327  0.12236  1.0000
  S   S88       1.0  0.79796  0.33256  0.06284  1.0000
  Fe  Fe47      1.0  0.90567  0.27476  0.13063  1.0000
  S   S89       1.0  0.95847  0.25603  0.10981  1.0000
  Fe  Fe48      1.0  0.87029  0.33033  0.17949  1.0000
  S   S90       1.0  0.88575  0.37262  0.22311  1.0000
  S   S91       1.0  0.85376  0.25124  0.10961  1.0000
  S   S92       1.0  0.81600  0.31002  0.16296  1.0000
  H   H670      1.0  0.74737  0.19711  0.48686  1.0000
  H   H671      1.0  0.70592  0.16970  0.44092  1.0000
  C   C368      1.0  0.86880  0.41561  0.23608  1.0000
  H   H672      1.0  0.74141  0.21956  0.41534  1.0000
  C   C369      1.0  0.73360  0.22789  0.38782  1.0000
  C   C370      1.0  0.83688  0.42885  0.22231  1.0000
  H   H673      1.0  0.71497  0.20662  0.37677  1.0000
  H   H674      1.0  0.86308  0.17999  0.44740  1.0000
  H   H675      1.0  0.82180  0.41289  0.20268  1.0000
  H   H676      1.0  0.76053  0.01021  0.17494  1.0000
  H   H677      1.0  0.70691  0.25622  0.04599  1.0000
  C   C371      1.0  0.98517  0.22029  0.12720  1.0000
  C   C372      1.0  0.77540  0.09645  0.37701  1.0000
  H   H678      1.0  0.85647  0.22859  0.45312  1.0000
  H   H679      1.0  0.95414  0.20828  0.17347  1.0000
  H   H680      1.0  0.83488  0.22014  0.26015  1.0000
  C   C373      1.0  0.71949  0.21999  0.26566  1.0000
  C   C374      1.0  0.73962  0.25030  0.25411  1.0000
  C   C375      1.0  0.76659  0.24578  0.22964  1.0000
  C   C376      1.0  0.77327  0.21095  0.21658  1.0000
  C   C377      1.0  0.75285  0.18084  0.22785  1.0000
  C   C378      1.0  0.72608  0.18525  0.25241  1.0000
  H   H681      1.0  0.73463  0.27723  0.26444  1.0000
  H   H682      1.0  0.78261  0.26907  0.22151  1.0000
  H   H683      1.0  0.75796  0.15406  0.21771  1.0000
  H   H684      1.0  0.71035  0.16186  0.26081  1.0000
  H   H685      1.0  0.73033  0.28526  0.40288  1.0000
  C   C379      1.0  0.71609  0.11428  0.45678  1.0000
  C   C380      1.0  0.72060  0.15231  0.45919  1.0000
  H   H686      1.0  0.72631  0.19290  0.13965  1.0000
  C   C381      1.0  0.74428  0.46451  0.35029  1.0000
  H   H687      1.0  0.83646  0.19573  0.48303  1.0000
  N   N21       1.0  0.73867  0.06318  0.18557  1.0000
  N   N22       1.0  0.75475  0.48964  0.38094  1.0000
  H   H688      1.0  0.84338  0.19006  0.38438  1.0000
  H   H689      1.0  0.68673  0.08371  0.13251  1.0000
  H   H690      1.0  0.75842  0.40990  0.30060  1.0000
  H   H691      1.0  0.81757  0.12681  0.13505  1.0000
  C   C382      1.0  0.82030  0.20679  0.39072  1.0000
  H   H692      1.0  0.83060  0.23552  0.39049  1.0000
  C   C383      1.0  0.84377  0.48415  0.25939  1.0000
  C   C384      1.0  0.75062  0.42314  0.35684  1.0000
  H   H693      1.0  0.75829  0.16315  0.39214  1.0000
  C   C385      1.0  0.74141  0.40100  0.32306  1.0000
  N   N23       1.0  0.69719  0.26674  0.12244  1.0000
  C   C386      1.0  0.73098  0.48159  0.41198  1.0000
  C   C387      1.0  0.80822  0.20209  0.32608  1.0000
  H   H694      1.0  0.82941  0.18164  0.32527  1.0000
  N   N24       1.0  0.79133  0.20151  0.36243  1.0000
  C   C388      1.0  0.76561  0.23251  0.36302  1.0000
  C   C389      1.0  0.81102  0.19831  0.43021  1.0000
  H   H695      1.0  0.79403  0.25649  0.03744  1.0000
  H   H696      1.0  0.78526  0.04275  0.28877  1.0000
  H   H697      1.0  0.70212  0.32193  0.18205  1.0000
  C   C390      1.0  0.77534  0.31054  0.02613  1.0000
  H   H698      1.0  0.68422  0.26627  0.48878  1.0000
  C   C391      1.0  0.74390  0.16773  0.48545  1.0000
  H   H699      1.0  0.85672  0.44794  0.38974  1.0000
  C   C392      1.0  0.85657  0.47659  0.37955  1.0000
  H   H700      1.0  0.79798  0.04477  0.14288  1.0000
  C   C393      1.0  0.77745  0.27292  0.02000  1.0000
  H   H701      1.0  0.75062  0.16278  0.34528  1.0000
  C   C394      1.0  0.79801  0.07321  0.15312  1.0000
  C   C395      1.0  0.70544  0.30746  0.12483  1.0000
  C   C396      1.0  0.73146  0.24788  0.11669  1.0000
  C   C397      1.0  0.72930  0.20574  0.11270  1.0000
  C   C398      1.0  0.68614  0.10002  0.15738  1.0000
  C   C399      1.0  0.72221  0.32118  0.16098  1.0000
  H   H702      1.0  0.79971  0.47260  0.22320  1.0000
  C   C400      1.0  0.70843  0.49856  0.47314  1.0000
  C   C401      1.0  0.76276  0.19118  0.09671  1.0000
  H   H703      1.0  0.87252  0.22013  0.29065  1.0000
  C   C402      1.0  0.73770  0.36002  0.15719  1.0000
  H   H704      1.0  0.78863  0.19364  0.30467  1.0000
  H   H705      1.0  0.79255  0.21863  0.44002  1.0000
  C   C403      1.0  0.73457  0.02361  0.17449  1.0000
  C   C404      1.0  0.97745  0.20158  0.15910  1.0000
  H   H706      1.0  0.68119  0.32354  0.12016  1.0000
  H   H707      1.0  0.69325  0.30243  0.05332  1.0000
  H   H708      1.0  0.74495  0.25984  0.09295  1.0000
  H   H709      1.0  0.75038  0.25332  0.13944  1.0000
  C   C405      1.0  0.70307  0.07997  0.19021  1.0000
  H   H710      1.0  0.68389  0.05867  0.19926  1.0000
  H   H711      1.0  0.77955  0.25886  0.36964  1.0000
  H   H712      1.0  0.77850  0.41790  0.36412  1.0000
  H   H713      1.0  0.74312  0.30296  0.17095  1.0000
  H   H714      1.0  0.73563  0.45364  0.42288  1.0000
  H   H715      1.0  0.74936  0.09290  0.36311  1.0000
  C   C406      1.0  0.84387  0.20089  0.45476  1.0000
  H   H716      1.0  0.75361  0.23683  0.33572  1.0000
  C   C407      1.0  0.88793  0.43689  0.26167  1.0000
  C   C408      1.0  0.77204  0.16514  0.36626  1.0000
  H   H717      1.0  0.76536  0.20096  0.06854  1.0000
  H   H718      1.0  0.78640  0.20039  0.11259  1.0000
  H   H719      1.0  0.76164  0.16079  0.09678  1.0000
  C   C409      1.0  0.82449  0.23959  0.31404  1.0000
  H   H720      1.0  0.72361  0.31625  0.10316  1.0000
  C   C410      1.0  0.68465  0.27320  0.05375  1.0000
  H   H721      1.0  0.79467  0.45736  0.40815  1.0000
  C   C411      1.0  0.82439  0.46274  0.23410  1.0000
  H   H722      1.0  0.79968  0.17028  0.43353  1.0000
  H   H723      1.0  0.80331  0.25848  0.30558  1.0000
  C   C412      1.0  0.84865  0.23524  0.28228  1.0000
  H   H724      1.0  0.84034  0.25298  0.33579  1.0000
  H   H725      1.0  0.85698  0.26264  0.27193  1.0000
  C   C413      1.0  0.79487  0.13072  0.36337  1.0000
  H   H726      1.0  0.76056  0.08413  0.29411  1.0000
  C   C414      1.0  0.87569  0.47099  0.27309  1.0000
  H   H727      1.0  0.70434  0.10090  0.21191  1.0000
  H   H728      1.0  0.72836  0.03211  0.11578  1.0000
  C   C415      1.0  0.75816  0.06411  0.22152  1.0000
  H   H729      1.0  0.71189  0.47020  0.48340  1.0000
  H   H730      1.0  0.75782  0.47311  0.32527  1.0000
  H   H731      1.0  0.81425  0.46629  0.34183  1.0000
  H   H732      1.0  0.80171  0.09690  0.09920  1.0000
  H   H733      1.0  0.79110  0.07185  0.37212  1.0000
  H   H734      1.0  0.77134  0.09839  0.40637  1.0000
  H   H735      1.0  0.74577  0.37148  0.32844  1.0000
  H   H736      1.0  0.71680  0.37944  0.14930  1.0000
  H   H737      1.0  0.73124  0.26229  0.49354  1.0000
  C   C416      1.0  0.71346  0.26341  0.39030  1.0000
  C   C417      1.0  0.75999  0.08567  0.15930  1.0000
  H   H738      1.0  0.76184  0.11471  0.16827  1.0000
  H   H739      1.0  0.70048  0.12644  0.15261  1.0000
  H   H740      1.0  0.83950  0.49883  0.14400  1.0000
  H   H741      1.0  0.70435  0.27259  0.36314  1.0000
  H   H742      1.0  0.84337  0.08880  0.12168  1.0000
  H   H743      1.0  0.99417  0.16060  0.19761  1.0000
  H   H744      1.0  0.70717  0.19660  0.09481  1.0000
  H   H745      1.0  0.73136  0.06257  0.47992  1.0000
  C   C418      1.0  0.00023  0.17453  0.17271  1.0000
  H   H746      1.0  0.81434  0.07482  0.17821  1.0000
  H   H747      1.0  0.70287  0.48105  0.40279  1.0000
  S   S93       1.0  0.68681  0.22595  0.29720  1.0000
  H   H748      1.0  0.74678  0.08661  0.13242  1.0000
  C   C419      1.0  0.81612  0.09800  0.12554  1.0000
  H   H749      1.0  0.76546  0.09287  0.22871  1.0000
  H   H750      1.0  0.68997  0.25870  0.40699  1.0000
  H   H751      1.0  0.70159  0.24903  0.17819  1.0000
  C   C420      1.0  0.71597  0.01622  0.13774  1.0000
  H   H752      1.0  0.68776  0.02308  0.13905  1.0000
  H   H753      1.0  0.78331  0.04933  0.22028  1.0000
  H   H754      1.0  0.74993  0.36889  0.18322  1.0000
  S   S94       1.0  0.68790  0.09316  0.42355  1.0000
  H   H755      1.0  0.73396  0.41239  0.37875  1.0000
  H   H756      1.0  0.89103  0.48709  0.29237  1.0000
  C   C421      1.0  0.73849  0.04668  0.25377  1.0000
  H   H757      1.0  0.71576  0.46683  0.34354  1.0000
  H   H758      1.0  0.75834  0.36102  0.13658  1.0000
  C   C422      1.0  0.76291  0.14543  0.50973  1.0000
  H   H759      1.0  0.95652  0.23716  0.50684  1.0000
  S   S95       1.0  0.68494  0.11964  0.32168  1.0000
  H   H760      1.0  0.71336  0.40438  0.31483  1.0000
  C   C423      1.0  0.79227  0.48389  0.39350  1.0000
  H   H761      1.0  0.71874  0.00790  0.19438  1.0000
  C   C424      1.0  0.82024  0.48577  0.36394  1.0000
  H   H762      1.0  0.99481  0.28312  0.18549  1.0000
  C   C425      1.0  0.68073  0.25415  0.15722  1.0000
  H   H763      1.0  0.73606  0.01653  0.25073  1.0000
  H   H764      1.0  0.99990  0.02588  0.37594  1.0000
  C   C426      1.0  0.75797  0.10744  0.50771  1.0000
  C   C427      1.0  0.75849  0.05419  0.28918  1.0000
  H   H765      1.0  0.74401  0.04114  0.31165  1.0000
  H   H766      1.0  0.87639  0.47953  0.35828  1.0000
  H   H767      1.0  0.86425  0.49550  0.40182  1.0000
  C   C428      1.0  0.70720  0.27035  0.50750  1.0000
  H   H768      1.0  0.80061  0.50502  0.41358  1.0000
  H   H769      1.0  0.68120  0.50144  0.46213  1.0000
  H   H770      1.0  0.70948  0.29985  0.51444  1.0000
  Fe  Fe49      1.0  0.84494  0.08215  0.64407  1.0000
  S   S96       1.0  0.88056  0.11998  0.67628  1.0000
  H   H771      1.0  0.69589  0.16604  0.82988  1.0000
  Fe  Fe50      1.0  0.82417  0.14218  0.58919  1.0000
  S   S97       1.0  0.85916  0.18417  0.61780  1.0000
  S   S98       1.0  0.79294  0.16655  0.54128  1.0000
  Fe  Fe51      1.0  0.89987  0.14101  0.62322  1.0000
  S   S99       1.0  0.95898  0.14614  0.61342  1.0000
  Fe  Fe52      1.0  0.83725  0.16025  0.66857  1.0000
  S   S100      1.0  0.82474  0.19944  0.71286  1.0000
  S   S101      1.0  0.86679  0.10039  0.59073  1.0000
  S   S102      1.0  0.79974  0.12111  0.64016  1.0000
  C   C429      1.0  0.75383  0.33149  0.00292  1.0000
  S   S103      1.0  0.70057  0.29409  0.83536  1.0000
  H   H772      1.0  0.70406  0.11444  0.64967  1.0000
  H   H773      1.0  0.82821  0.30204  0.65112  1.0000
  S   S104      1.0  0.70983  0.25478  0.93458  1.0000
  H   H774      1.0  0.76701  0.29519  0.62733  1.0000
  C   C430      1.0  0.75768  0.25648  0.99151  1.0000
  C   C431      1.0  0.73585  0.27742  0.96857  1.0000
  C   C432      1.0  0.73434  0.31513  0.97422  1.0000
  H   H775      1.0  0.94808  0.07611  0.69535  1.0000
  H   H776      1.0  0.79819  0.27727  0.59708  1.0000
  H   H777      1.0  0.71768  0.33162  0.95691  1.0000
  H   H778      1.0  0.73915  0.17113  0.65000  1.0000
  C   C433      1.0  0.78159  0.20206  0.72834  1.0000
  C   C434      1.0  0.77221  0.23319  0.74727  1.0000
  C   C435      1.0  0.73785  0.23655  0.75946  1.0000
  C   C436      1.0  0.71273  0.20862  0.75308  1.0000
  C   C437      1.0  0.72218  0.17728  0.73444  1.0000
  C   C438      1.0  0.75660  0.17393  0.72221  1.0000
  H   H779      1.0  0.79147  0.25503  0.75208  1.0000
  H   H780      1.0  0.73071  0.26105  0.77322  1.0000
  H   H781      1.0  0.70294  0.15546  0.72962  1.0000
  H   H782      1.0  0.76390  0.14950  0.70831  1.0000
  H   H783      1.0  0.97545  0.05766  0.63372  1.0000
  C   C439      1.0  0.97287  0.21765  0.63604  1.0000
  H   H784      1.0  0.94471  0.22027  0.63790  1.0000
  C   C440      1.0  0.70353  0.25619  0.62398  1.0000
  H   H785      1.0  0.75680  0.23656  0.55373  1.0000
  C   C441      1.0  0.93999  0.03650  0.59252  1.0000
  H   H786      1.0  0.83348  0.25323  0.64968  1.0000
  H   H787      1.0  0.80239  0.27257  0.67972  1.0000
  H   H788      1.0  0.69277  0.18103  0.65106  1.0000
  C   C442      1.0  0.70502  0.13130  0.62473  1.0000
  C   C443      1.0  0.94809  0.04644  0.63171  1.0000
  H   H789      1.0  0.75207  0.36062  0.00730  1.0000
  C   C444      1.0  0.85976  0.19656  0.95673  1.0000
  H   H790      1.0  0.73478  0.18042  0.58157  1.0000
  C   C445      1.0  0.99564  0.24768  0.64431  1.0000
  H   H791      1.0  0.94288  0.06141  0.57541  1.0000
  H   H792      1.0  0.99237  0.27301  0.55241  1.0000
  C   C446      1.0  0.94539  0.05945  0.75022  1.0000
  C   C447      1.0  0.81411  0.27513  0.65277  1.0000
  H   H793      1.0  0.93096  0.11687  0.74580  1.0000
  H   H794      1.0  0.72532  0.11994  0.60730  1.0000
  H   H795      1.0  0.78351  0.21502  0.61006  1.0000
  H   H796      1.0  0.69949  0.17806  0.87670  1.0000
  C   C448      1.0  0.92383  0.09196  0.76162  1.0000
  H   H797      1.0  0.84261  0.20564  0.97851  1.0000
  C   C449      1.0  0.84957  0.01578  0.72929  1.0000
  C   C450      1.0  0.71413  0.17114  0.63427  1.0000
  H   H798      1.0  0.93775  0.03595  0.76760  1.0000
  H   H799      1.0  0.73125  0.27490  0.67357  1.0000
  H   H800      1.0  0.71061  0.23084  0.67799  1.0000
  H   H801      1.0  0.00292  0.05193  0.69072  1.0000
  C   C451      1.0  0.70761  0.25815  0.66560  1.0000
  C   C452      1.0  0.70207  0.24702  0.54134  1.0000
  H   H802      1.0  0.84935  0.04536  0.72954  1.0000
  C   C453      1.0  0.71728  0.19486  0.59994  1.0000
  H   H803      1.0  0.92985  0.06837  0.63868  1.0000
  H   H804      1.0  0.77228  0.08986  0.52618  1.0000
  H   H805      1.0  0.67803  0.25614  0.55457  1.0000
  H   H806      1.0  0.74228  0.27957  0.56875  1.0000
  H   H807      1.0  0.69066  0.19370  0.58686  1.0000
  H   H808      1.0  0.69777  0.21824  0.53246  1.0000
  C   C454      1.0  0.78544  0.27262  0.62332  1.0000
  C   C455      1.0  0.98659  0.18444  0.62525  1.0000
  N   N25       1.0  0.80028  0.22632  0.87433  1.0000
  C   C456      1.0  0.82061  0.22710  0.90976  1.0000
  C   C457      1.0  0.78348  0.26298  0.86713  1.0000
  C   C458      1.0  0.77119  0.19756  0.87751  1.0000
  C   C459      1.0  0.82281  0.21588  0.84350  1.0000
  C   C460      1.0  0.85582  0.24038  0.83717  1.0000
  C   C461      1.0  0.83833  0.19106  0.92174  1.0000
  C   C462      1.0  0.74471  0.19449  0.84508  1.0000
  C   C463      1.0  0.80276  0.29781  0.88233  1.0000
  C   C464      1.0  0.78461  0.33267  0.86969  1.0000
  C   C465      1.0  0.87772  0.22505  0.80718  1.0000
  C   C466      1.0  0.73470  0.24999  0.56723  1.0000
  C   C467      1.0  0.71425  0.16802  0.85353  1.0000
  H   H809      1.0  0.80277  0.23498  0.93158  1.0000
  H   H810      1.0  0.84179  0.24851  0.90974  1.0000
  H   H811      1.0  0.77861  0.26719  0.83774  1.0000
  H   H812      1.0  0.75712  0.26345  0.87922  1.0000
  H   H813      1.0  0.75588  0.20249  0.90208  1.0000
  H   H814      1.0  0.78219  0.16981  0.88085  1.0000
  H   H815      1.0  0.83109  0.18698  0.84637  1.0000
  H   H816      1.0  0.80724  0.21661  0.81777  1.0000
  H   H817      1.0  0.87303  0.24234  0.86161  1.0000
  H   H818      1.0  0.84789  0.26815  0.82849  1.0000
  H   H819      1.0  0.81840  0.16912  0.92698  1.0000
  H   H820      1.0  0.85647  0.18159  0.90111  1.0000
  H   H821      1.0  0.75775  0.18389  0.82110  1.0000
  H   H822      1.0  0.73322  0.22120  0.83796  1.0000
  H   H823      1.0  0.80230  0.29753  0.91219  1.0000
  H   H824      1.0  0.83052  0.29978  0.87426  1.0000
  H   H825      1.0  0.78348  0.33447  0.83988  1.0000
  H   H826      1.0  0.75749  0.33327  0.88004  1.0000
  H   H827      1.0  0.79946  0.35703  0.88024  1.0000
  H   H828      1.0  0.90106  0.24326  0.80277  1.0000
  H   H829      1.0  0.88700  0.19728  0.81437  1.0000
  H   H830      1.0  0.86198  0.22355  0.78161  1.0000
  H   H831      1.0  0.75897  0.22726  0.98750  1.0000
  N   N26       1.0  0.73015  0.23405  0.60453  1.0000
  H   H832      1.0  0.76455  0.22476  0.65130  1.0000
  H   H833      1.0  0.88123  0.21733  0.95300  1.0000
  C   C468      1.0  0.76597  0.23469  0.62312  1.0000
  H   H834      1.0  0.72411  0.14027  0.85981  1.0000
  H   H835      1.0  0.91001  0.04891  0.70474  1.0000
  H   H836      1.0  0.98469  0.27324  0.65257  1.0000
  C   C469      1.0  0.93897  0.05100  0.70986  1.0000
  H   H837      1.0  0.97339  0.06725  0.75538  1.0000
  H   H838      1.0  0.92916  0.09775  0.79052  1.0000
  H   H839      1.0  0.70408  0.28520  0.61444  1.0000
  H   H840      1.0  0.89523  0.08581  0.75776  1.0000
  H   H841      1.0  0.87178  0.17035  0.96518  1.0000
  S   S105      1.0  0.83919  0.02070  0.65495  1.0000
  C   C470      1.0  0.97342  0.22352  0.52746  1.0000
  Fe  Fe53      1.0  0.67608  0.27761  0.88776  1.0000
  H   H842      1.0  0.98352  0.19777  0.51644  1.0000
  H   H843      1.0  0.67636  0.24585  0.61733  1.0000
  H   H844      1.0  0.95845  0.01572  0.58324  1.0000
  H   H845      1.0  0.68031  0.27803  0.71173  1.0000
  H   H846      1.0  0.95706  0.21623  0.55090  1.0000
  C   C471      1.0  0.67589  0.27580  0.68219  1.0000
  H   H847      1.0  0.91250  0.02569  0.58932  1.0000
  N   N27       1.0  0.95608  0.01750  0.69535  1.0000
  H   H848      1.0  0.67907  0.12921  0.61041  1.0000
  H   H849      1.0  0.86142  0.01058  0.78621  1.0000
  C   C472      1.0  0.99569  0.02257  0.69556  1.0000
  C   C473      1.0  0.00389  0.24895  0.53957  1.0000
  H   H850      1.0  0.00479  0.01874  0.75479  1.0000
  C   C474      1.0  0.94282  0.01281  0.65694  1.0000
  H   H851      1.0  0.00708  0.00780  0.67270  1.0000
  H   H852      1.0  0.70078  0.89260  0.37086  1.0000
  S   S106      1.0  0.71191  0.85233  0.03311  1.0000
  S   S107      1.0  0.71961  0.82805  0.14012  1.0000
  Fe  Fe54      1.0  0.84730  0.57270  0.31046  1.0000
  S   S108      1.0  0.87911  0.56856  0.36199  1.0000
  S   S109      1.0  0.70597  0.72024  0.17013  1.0000
  Fe  Fe55      1.0  0.83486  0.65435  0.32287  1.0000
  S   S110      1.0  0.86490  0.65522  0.37595  1.0000
  S   S111      1.0  0.81488  0.70841  0.30123  1.0000
  Fe  Fe56      1.0  0.90446  0.62290  0.34668  1.0000
  S   S112      1.0  0.96396  0.63208  0.35355  1.0000
  Fe  Fe57      1.0  0.83676  0.60144  0.38712  1.0000
  S   S113      1.0  0.81809  0.57909  0.44144  1.0000
  S   S114      1.0  0.87584  0.62451  0.29294  1.0000
  S   S115      1.0  0.80373  0.60332  0.33617  1.0000
  C   C475      1.0  0.98513  0.67602  0.35497  1.0000
  C   C476      1.0  0.70680  0.85126  0.30793  1.0000
  C   C477      1.0  0.86125  0.66533  0.19185  1.0000
  C   C478      1.0  0.96888  0.70735  0.34131  1.0000
  H   H853      1.0  0.73113  0.85975  0.32334  1.0000
  H   H854      1.0  0.86774  0.69240  0.24381  1.0000
  H   H855      1.0  0.94200  0.70545  0.33108  1.0000
  C   C479      1.0  0.78234  0.59027  0.46895  1.0000
  Fe  Fe58      1.0  0.69019  0.83090  0.08662  1.0000
  C   C480      1.0  0.82276  0.68834  0.49994  1.0000
  H   H856      1.0  0.70097  0.52477  0.33750  1.0000
  C   C481      1.0  0.72803  0.62175  0.48017  1.0000
  C   C482      1.0  0.75634  0.61457  0.45768  1.0000
  H   H857      1.0  0.73493  0.73711  0.39065  1.0000
  H   H858      1.0  0.70806  0.64057  0.47115  1.0000
  H   H859      1.0  0.75799  0.62776  0.43164  1.0000
  H   H860      1.0  0.71142  0.83606  0.23560  1.0000
  C   C483      1.0  0.87019  0.69894  0.21478  1.0000
  C   C484      1.0  0.67514  0.85436  0.33310  1.0000
  C   C485      1.0  0.73692  0.71678  0.20594  1.0000
  C   C486      1.0  0.76449  0.74240  0.21025  1.0000
  C   C487      1.0  0.78818  0.73960  0.23971  1.0000
  C   C488      1.0  0.78549  0.71012  0.26398  1.0000
  C   C489      1.0  0.75849  0.68382  0.25910  1.0000
  C   C490      1.0  0.73405  0.68743  0.23032  1.0000
  H   H861      1.0  0.76716  0.76467  0.19111  1.0000
  H   H862      1.0  0.80890  0.76015  0.24351  1.0000
  H   H863      1.0  0.75590  0.66133  0.27801  1.0000
  H   H864      1.0  0.71250  0.66777  0.22714  1.0000
  H   H865      1.0  0.70271  0.97072  0.10220  1.0000
  H   H866      1.0  0.71217  0.51767  0.49606  1.0000
  H   H867      1.0  0.85241  0.72161  0.20743  1.0000
  H   H868      1.0  0.85002  0.68556  0.51092  1.0000
  H   H869      1.0  0.73180  0.56181  0.25580  1.0000
  H   H870      1.0  0.76163  0.87145  0.27059  1.0000
  H   H871      1.0  0.87469  0.53281  0.14618  1.0000
  H   H872      1.0  0.76046  0.80561  0.31989  1.0000
  H   H873      1.0  0.99014  0.58119  0.29330  1.0000
  H   H874      1.0  0.75913  0.87041  0.20396  1.0000
  C   C491      1.0  0.67670  0.89063  0.35334  1.0000
  H   H875      1.0  0.77039  0.66162  0.07628  1.0000
  S   S116      1.0  0.82684  0.52702  0.27262  1.0000
  H   H876      1.0  0.86339  0.67384  0.16335  1.0000
  Fe  Fe59      1.0  0.68845  0.77561  0.14871  1.0000
  C   C492      1.0  0.76477  0.84492  0.25692  1.0000
  C   C493      1.0  0.73558  0.79061  0.31235  1.0000
  C   C494      1.0  0.82236  0.55396  0.15449  1.0000
  H   H877      1.0  0.81918  0.56066  0.12549  1.0000
  H   H878      1.0  0.74703  0.72292  0.34652  1.0000
  H   H879      1.0  0.67652  0.91412  0.33416  1.0000
  C   C495      1.0  0.72965  0.82223  0.25476  1.0000
  H   H880      1.0  0.77328  0.70916  0.08865  1.0000
  N   N28       1.0  0.81003  0.62012  0.17463  1.0000
  C   C496      1.0  0.80783  0.63455  0.13650  1.0000
  C   C497      1.0  0.74528  0.74687  0.36456  1.0000
  C   C498      1.0  0.77342  0.60867  0.18562  1.0000
  C   C499      1.0  0.82414  0.64920  0.20009  1.0000
  H   H881      1.0  0.76408  0.54808  0.38766  1.0000
  C   C500      1.0  0.78945  0.67182  0.13120  1.0000
  C   C501      1.0  0.73526  0.50795  0.44444  1.0000
  H   H882      1.0  0.69493  0.73988  0.27551  1.0000
  C   C502      1.0  0.72081  0.77538  0.34790  1.0000
  H   H883      1.0  0.86067  0.59669  0.16574  1.0000
  C   C503      1.0  0.78644  0.68241  0.09146  1.0000
  C   C504      1.0  0.73257  0.57769  0.23024  1.0000
  H   H884      1.0  0.79318  0.61459  0.11892  1.0000
  H   H885      1.0  0.83442  0.63710  0.12483  1.0000
  H   H886      1.0  0.73578  0.79636  0.24151  1.0000
  C   C505      1.0  0.83454  0.58829  0.17621  1.0000
  H   H887      1.0  0.76010  0.59152  0.16448  1.0000
  H   H888      1.0  0.75673  0.63301  0.18773  1.0000
  H   H889      1.0  0.80547  0.67199  0.20150  1.0000
  H   H890      1.0  0.82608  0.63830  0.22800  1.0000
  H   H891      1.0  0.74504  0.96741  0.12473  1.0000
  H   H892      1.0  0.78541  0.82936  0.27159  1.0000
  H   H893      1.0  0.76246  0.67062  0.14172  1.0000
  H   H894      1.0  0.80448  0.69424  0.14507  1.0000
  H   H895      1.0  0.78196  0.60382  0.24456  1.0000
  H   H896      1.0  0.83994  0.57975  0.20464  1.0000
  H   H897      1.0  0.78283  0.82803  0.20455  1.0000
  H   H898      1.0  0.71900  0.79782  0.36758  1.0000
  H   H899      1.0  0.82325  0.70857  0.47750  1.0000
  H   H900      1.0  0.79698  0.54249  0.16400  1.0000
  N   N29       1.0  0.71182  0.81477  0.28993  1.0000
  H   H901      1.0  0.89768  0.70839  0.21012  1.0000
  S   S117      1.0  0.68324  0.89790  0.20928  1.0000
  H   H902      1.0  0.73133  0.53684  0.43632  1.0000
  C   C506      1.0  0.71740  0.97569  0.12797  1.0000
  C   C507      1.0  0.67756  0.75948  0.26127  1.0000
  H   H903      1.0  0.81292  0.68515  0.07969  1.0000
  H   H904      1.0  0.88154  0.64468  0.19801  1.0000
  H   H905      1.0  0.70258  0.87317  0.28725  1.0000
  C   C508      1.0  0.77965  0.57342  0.50298  1.0000
  H   H906      1.0  0.85436  0.51666  0.18687  1.0000
  H   H907      1.0  0.74416  0.76705  0.29626  1.0000
  H   H908      1.0  0.71714  0.60279  0.23336  1.0000
  H   H909      1.0  0.78481  0.56148  0.22070  1.0000
  C   C509      1.0  0.77831  0.85360  0.21945  1.0000
  H   H910      1.0  0.70519  0.95821  0.14903  1.0000
  H   H911      1.0  0.77215  0.75880  0.36936  1.0000
  H   H912      1.0  0.81334  0.66154  0.48902  1.0000
  C   C510      1.0  0.99822  0.58417  0.26492  1.0000
  H   H913      1.0  0.72770  0.58487  0.32143  1.0000
  H   H914      1.0  0.97503  0.76509  0.32917  1.0000
  C   C511      1.0  0.77076  0.58753  0.22182  1.0000
  H   H915      1.0  0.80361  0.86935  0.22174  1.0000
  H   H916      1.0  0.75698  0.78779  0.03514  1.0000
  C   C512      1.0  0.98770  0.74114  0.34020  1.0000
  H   H917      1.0  0.69687  0.53929  0.38323  1.0000
  C   C513      1.0  0.71354  0.54142  0.35930  1.0000
  H   H918      1.0  0.99641  0.64264  0.26430  1.0000
  H   H919      1.0  0.72029  0.56061  0.20854  1.0000
  H   H920      1.0  0.69467  0.76179  0.34388  1.0000
  C   C514      1.0  0.71342  0.58140  0.34691  1.0000
  H   H921      1.0  0.69324  0.94218  0.27216  1.0000
  H   H922      1.0  0.68699  0.76389  0.23366  1.0000
  H   H923      1.0  0.76654  0.53287  0.34290  1.0000
  H   H924      1.0  0.97425  0.58160  0.24731  1.0000
  C   C515      1.0  0.84944  0.52382  0.15815  1.0000
  H   H925      1.0  0.72589  0.59941  0.36780  1.0000
  H   H926      1.0  0.82181  0.51373  0.35225  1.0000
  C   C516      1.0  0.75154  0.52868  0.36793  1.0000
  H   H927      1.0  0.68590  0.59008  0.34210  1.0000
  C   C517      1.0  0.67623  0.95701  0.25378  1.0000
  C   C518      1.0  0.67658  0.79648  0.28126  1.0000
  H   H928      1.0  0.76186  0.50594  0.45718  1.0000
  C   C519      1.0  0.72524  0.60476  0.51412  1.0000
  H   H929      1.0  0.79955  0.55452  0.51197  1.0000
  Fe  Fe60      1.0  0.85901  0.87223  0.81119  1.0000
  S   S118      1.0  0.89162  0.83971  0.85155  1.0000
  S   S119      1.0  0.86793  0.93376  0.80201  1.0000
  Fe  Fe61      1.0  0.81341  0.80586  0.79057  1.0000
  S   S120      1.0  0.84228  0.76825  0.82805  1.0000
  S   S121      1.0  0.76523  0.79018  0.75649  1.0000
  Fe  Fe62      1.0  0.83975  0.81389  0.86836  1.0000
  S   S122      1.0  0.82614  0.79398  0.92506  1.0000
  Fe  Fe63      1.0  0.89188  0.79618  0.80905  1.0000
  S   S123      1.0  0.93910  0.76539  0.78828  1.0000
  S   S124      1.0  0.80755  0.84980  0.83176  1.0000
  S   S125      1.0  0.86271  0.83050  0.76771  1.0000
  S   S126      1.0  0.70762  0.56375  0.63688  1.0000
  C   C520      1.0  0.80597  0.60603  0.65893  1.0000
  S   S127      1.0  0.73697  0.62407  0.71574  1.0000
  H   H930      1.0  0.74964  0.56734  0.55148  1.0000
  C   C521      1.0  0.75754  0.74397  0.74527  1.0000
  C   C522      1.0  0.78135  0.71716  0.75582  1.0000
  C   C523      1.0  0.77472  0.68050  0.74629  1.0000
  C   C524      1.0  0.74418  0.67041  0.72649  1.0000
  C   C525      1.0  0.72027  0.69716  0.71598  1.0000
  C   C526      1.0  0.72703  0.73393  0.72528  1.0000
  H   H931      1.0  0.80492  0.72471  0.77109  1.0000
  H   H932      1.0  0.79328  0.65983  0.75415  1.0000
  H   H933      1.0  0.69654  0.68947  0.70094  1.0000
  H   H934      1.0  0.70857  0.75464  0.71705  1.0000
  C   C527      1.0  0.67499  0.79329  0.93954  1.0000
  C   C528      1.0  0.75084  0.85488  0.97169  1.0000
  C   C529      1.0  0.77569  0.84256  0.94729  1.0000
  C   C530      1.0  0.79412  0.81057  0.95461  1.0000
  H   H935      1.0  0.92184  0.91467  0.73822  1.0000
  H   H936      1.0  0.82197  0.75420  0.69521  1.0000
  H   H937      1.0  0.73704  0.87988  0.96590  1.0000
  H   H938      1.0  0.78100  0.85818  0.92314  1.0000
  H   H939      1.0  0.99133  0.55768  0.83877  1.0000
  H   H940      1.0  0.80114  0.76617  0.99244  1.0000
  C   C531      1.0  0.97049  0.73513  0.84981  1.0000
  C   C532      1.0  0.96849  0.73636  0.81227  1.0000
  H   H941      1.0  0.92786  0.56921  0.83487  1.0000
  H   H942      1.0  0.80585  0.62377  0.68300  1.0000
  H   H943      1.0  0.95412  0.75271  0.86516  1.0000
  C   C533      1.0  0.72265  0.71648  0.61534  1.0000
  C   C534      1.0  0.84333  0.95871  0.69717  1.0000
  C   C535      1.0  0.84928  0.93889  0.72936  1.0000
  C   C536      1.0  0.85633  0.95742  0.76161  1.0000
  H   H944      1.0  0.83867  0.94406  0.67228  1.0000
  H   H945      1.0  0.84920  0.90929  0.72906  1.0000
  N   N30       1.0  0.89857  0.64083  0.81620  1.0000
  C   C537      1.0  0.89204  0.67124  0.78923  1.0000
  C   C538      1.0  0.90549  0.65635  0.85344  1.0000
  C   C539      1.0  0.93139  0.62170  0.80519  1.0000
  C   C540      1.0  0.86864  0.61299  0.81626  1.0000
  C   C541      1.0  0.83211  0.62757  0.82544  1.0000
  C   C542      1.0  0.88402  0.65950  0.74985  1.0000
  H   H946      1.0  0.68821  0.82061  0.94253  1.0000
  C   C543      1.0  0.88576  0.69134  0.86344  1.0000
  C   C544      1.0  0.89074  0.70026  0.90330  1.0000
  C   C545      1.0  0.80282  0.59938  0.81666  1.0000
  C   C546      1.0  0.87925  0.69301  0.72549  1.0000
  H   H947      1.0  0.99461  0.84944  0.76092  1.0000
  H   H948      1.0  0.91525  0.69026  0.78908  1.0000
  H   H949      1.0  0.86989  0.68848  0.79681  1.0000
  H   H950      1.0  0.90015  0.63505  0.87432  1.0000
  H   H951      1.0  0.93385  0.66421  0.85722  1.0000
  H   H952      1.0  0.95286  0.64230  0.80022  1.0000
  H   H953      1.0  0.92676  0.60692  0.77945  1.0000
  H   H954      1.0  0.86644  0.59870  0.78997  1.0000
  H   H955      1.0  0.87406  0.59092  0.83624  1.0000
  H   H956      1.0  0.82578  0.65288  0.81037  1.0000
  H   H957      1.0  0.83140  0.63317  0.85468  1.0000
  H   H958      1.0  0.90581  0.64380  0.73892  1.0000
  H   H959      1.0  0.85936  0.64263  0.74790  1.0000
  C   C547      1.0  0.95310  0.94666  0.70027  1.0000
  H   H960      1.0  0.80141  0.59376  0.78733  1.0000
  H   H961      1.0  0.89643  0.71507  0.84802  1.0000
  H   H962      1.0  0.85724  0.68881  0.85738  1.0000
  H   H963      1.0  0.87909  0.67811  0.92015  1.0000
  H   H964      1.0  0.91914  0.70392  0.91054  1.0000
  H   H965      1.0  0.87738  0.72619  0.90916  1.0000
  H   H966      1.0  0.80725  0.57338  0.83162  1.0000
  H   H967      1.0  0.77708  0.61023  0.82439  1.0000
  C   C548      1.0  0.69992  0.76672  0.92090  1.0000
  H   H968      1.0  0.85678  0.70928  0.73421  1.0000
  H   H969      1.0  0.90345  0.71074  0.72615  1.0000
  H   H970      1.0  0.87394  0.68407  0.69740  1.0000
  H   H971      1.0  0.98037  0.94684  0.69044  1.0000
  H   H972      1.0  0.72740  0.82703  0.88828  1.0000
  H   H973      1.0  0.80887  0.72787  0.53930  1.0000
  C   C549      1.0  0.78703  0.79091  0.98643  1.0000
  C   C550      1.0  0.99364  0.71098  0.86762  1.0000
  H   H974      1.0  0.78190  0.58818  0.65825  1.0000
  C   C551      1.0  0.76202  0.80314  0.01076  1.0000
  H   H975      1.0  0.73635  0.74133  0.62622  1.0000
  H   H976      1.0  0.75381  0.63306  0.60616  1.0000
  H   H977      1.0  0.78717  0.70657  0.84520  1.0000
  H   H978      1.0  0.72536  0.76993  0.93637  1.0000
  H   H979      1.0  0.95174  0.60466  0.85921  1.0000
  H   H980      1.0  0.67752  0.72192  0.86763  1.0000
  H   H981      1.0  0.79720  0.74179  0.59918  1.0000
  C   C552      1.0  0.82241  0.75269  0.66543  1.0000
  C   C553      1.0  0.74361  0.70054  0.58435  1.0000
  C   C554      1.0  0.94898  0.91569  0.72785  1.0000
  H   H982      1.0  0.77608  0.71832  0.66321  1.0000
  H   H983      1.0  0.96794  0.91963  0.75078  1.0000
  N   N31       1.0  0.70579  0.77233  0.88110  1.0000
  H   H984      1.0  0.81611  0.69423  0.66566  1.0000
  H   H985      1.0  0.93484  0.94027  0.67720  1.0000
  H   H986      1.0  0.68861  0.75087  0.58199  1.0000
  S   S128      1.0  0.68900  0.61519  0.54128  1.0000
  H   H987      1.0  0.83186  0.64732  0.62725  1.0000
  H   H988      1.0  0.73053  0.87865  0.84289  1.0000
  H   H989      1.0  0.73852  0.81411  0.82372  1.0000
  H   H990      1.0  0.98849  0.71379  0.76376  1.0000
  H   H991      1.0  0.80937  0.77735  0.65430  1.0000
  C   C555      1.0  0.84387  0.99724  0.69681  1.0000
  C   C556      1.0  0.85621  0.99597  0.76140  1.0000
  H   H992      1.0  0.76354  0.65949  0.64442  1.0000
  H   H993      1.0  0.80570  0.72376  0.88742  1.0000
  C   C557      1.0  0.79511  0.67245  0.55977  1.0000
  H   H994      1.0  0.71628  0.87034  0.79710  1.0000
  H   H995      1.0  0.95397  0.88902  0.71508  1.0000
  H   H996      1.0  0.81128  0.61072  0.60184  1.0000
  C   C558      1.0  0.74162  0.75780  0.87292  1.0000
  H   H997      1.0  0.85026  0.75281  0.65717  1.0000
  C   C559      1.0  0.74857  0.71789  0.88566  1.0000
  C   C560      1.0  0.78491  0.70577  0.87490  1.0000
  C   C561      1.0  0.71227  0.82263  0.83192  1.0000
  C   C562      1.0  0.99008  0.71334  0.79282  1.0000
  H   H998      1.0  0.76272  0.77574  0.88521  1.0000
  H   H999      1.0  0.74616  0.75848  0.84349  1.0000
  H   H1000     1.0  0.99500  0.80844  0.73461  1.0000
  H   H1001     1.0  0.91415  0.00552  0.65621  1.0000
  H   H1002     1.0  0.72913  0.69827  0.87347  1.0000
  H   H1003     1.0  0.99482  0.71010  0.89670  1.0000
  C   C563      1.0  0.94641  0.59293  0.83216  1.0000
  H   H1004     1.0  0.72681  0.67907  0.57074  1.0000
  C   C564      1.0  0.71058  0.86395  0.82563  1.0000
  H   H1005     1.0  0.77220  0.70545  0.51587  1.0000
  H   H1006     1.0  0.74751  0.71538  0.91534  1.0000
  N   N32       1.0  0.77920  0.68534  0.59415  1.0000
  C   C565      1.0  0.77427  0.65211  0.61810  1.0000
  H   H1007     1.0  0.71905  0.69621  0.63725  1.0000
  H   H1008     1.0  0.95592  0.98955  0.64415  1.0000
  C   C566      1.0  0.80321  0.71447  0.61103  1.0000
  C   C567      1.0  0.80294  0.71785  0.65271  1.0000
  C   C568      1.0  0.80793  0.62943  0.62486  1.0000
  H   H1009     1.0  0.82204  0.66217  0.56522  1.0000
  H   H1010     1.0  0.83115  0.70996  0.60434  1.0000
  H   H1011     1.0  0.82925  0.58834  0.66119  1.0000
  H   H1012     1.0  0.78912  0.67730  0.88441  1.0000
  C   C569      1.0  0.70638  0.81268  0.87190  1.0000
  H   H1013     1.0  0.74613  0.72346  0.56475  1.0000
  C   C570      1.0  0.98126  0.57842  0.81934  1.0000
  C   C571      1.0  0.67886  0.75100  0.85866  1.0000
  H   H1014     1.0  0.91492  0.98407  0.71854  1.0000
  H   H1015     1.0  0.68716  0.74992  0.83019  1.0000
  H   H1016     1.0  0.97772  0.56534  0.79261  1.0000
  H   H1017     1.0  0.77953  0.64873  0.54862  1.0000
  C   C572      1.0  0.94396  0.98419  0.71635  1.0000
  C   C573      1.0  0.75134  0.58060  0.52546  1.0000
  H   H1018     1.0  0.00132  0.60099  0.81765  1.0000
  C   C574      1.0  0.68623  0.72828  0.60201  1.0000
  H   H1019     1.0  0.95399  0.98490  0.74456  1.0000
  Fe  Fe64      1.0  0.69311  0.60598  0.67718  1.0000
  C   C575      1.0  0.74385  0.83536  0.00363  1.0000
  H   H1020     1.0  0.69007  0.77501  0.99372  1.0000
  C   C576      1.0  0.79838  0.70123  0.52905  1.0000
  H   H1021     1.0  0.68164  0.82577  0.87924  1.0000
  H   H1022     1.0  0.69043  0.73815  0.92628  1.0000
  H   H1023     1.0  0.69208  0.80932  0.81401  1.0000
  H   H1024     1.0  0.68401  0.87394  0.83150  1.0000
