data_image0
_chemical_formula_structural       FeSH3CHFeHSC3HSCSFeS2HCHFeS2FeH2FeS2FeHFeHS2FeSFeS2FeSFeS3H3C2FeHCSC3FeS2FeHFeS2HCHC7H4C6H5C2SCHCSHC6H2C6H5C2H6C2H2CH2C6H4CFeH2CHC8H7FeCSCHNC4H10CH8C2H2NHCH6NHNC6HC4H26CHSHCH10C2HCHSCH2NH3SH3CH2CH6C2S2H4C2H3CHCH2CHCNH4C2H4C2HSH3CH2FeHSFeH2CHCHSH3CH4CHCH6CHCH2FeH4SH4CH4CSCH2NC3HC4SHC2H6C2H6CH2CH2CHCHCH3NC3HC2HCH2CH8C2H3CH3CH2CH8NC6HC3HCH9CSH2CHSC2H7CHCH2CH2CHCNH3SH6CH3C2H2CH4Fe3HFeS3HSHFeS3FeSHSHS2FeSFeSFeS2FeS2H2FeSHSFeS2Fe2S3C2S2HSCH2FeSHSCSH2CSH4CHC2HC3H6CHSH5C7H4C2H2C2HCH2C6H5C4H2C6H4C4NH4C7H4CHFeH4CH8SH3SCHC3SC2HFeC3H3C2HCH24NH3CHC2HCSH3FeCH2SH4C2H2C2HFeCHFeHSHCHCHC2HCSC2HCH6NC5NC4HCH22CFeH3NC10HCHCH7FeHCH4CH5C2HCH3NH8CFeC2H3C4H5CH5C2H2CH3CH2C4NCH2C2H2C2H6SCH5SH4CNC9FeC2H20CH7CHC2H2CH2CH2CSHC2H2SHCHCH3CH3N2CH2C2H3SCSHSHFeSCHSHFeHFeSHSFeHSFeS4HFeSHFeSFeSFeCHFeS2FeS2FeHFeS3CS2C2H3C6H3C7H4CH2SHC3HCH3CHC6H5CHCH6C6H4C3H2CH2FeC3H2FeHCHC2SFeCSHC2HFeC3H2CHC2H8FeSHCH3SH3C2NC12H27CNC11H23CNC12H22CH7CH3CH2Fe2CH3CHNH3SCFeHCSHSCSFeH2CHCHNC6H13CH3S2CHC2HCH2C2FeHCSHC2SH3SH3CH3CH5C3H4SC2H4C5H3CNH3C2H4CH2CH2NHSCSH4CH3C2H5CSC2HFeH2CH4CH3SH2CH4CH5CH3NH5CH2C2H4CSCH2CH4CHCH2FeS2FeSHCNHSFeS2FeHSFeS2HSFeSFeS3FeS2FeS2FeSFeS2HSH2SHCFeSHSH3CH3CH4C6H4CHC2H2C6H4C7H4C3H2CHFeHSH2C7H6SHCNC4SC6H35CH6CH4FeH12CH2CHCHSC2HC2HCHCH4CH3CH3SH3C3H3CHSCH3CH2CHCH3CH3CNC2H2FeHC3H2C3H2C2HCFeHFeH8CH2FeH4C3HCHFeCHCH5C2H3CNHC3SCH4C2H2CSHCHC7H7CH4NC10H23CH5CH3CH2CHCH2CHC2HC2HCSHC2HCHSH2CH3CHCFeHC2HCHSHFeCH3NCH4NH8CH3SFeHSNCHC4HCSC2H2CHCH3CS2CH2CH6C2H2CH3CHC2HFeH3CH2SFeS2FeS2FeHFeS3HFeS2H2FeSFeS3FeS2FeS2FeSFeS3HFeS2FeS2FeSFeS3HCH2CH2SCHCH3C4H2CH2FeHC6H4C6H4C6H2C6H4C4H3C4H2C4H2C2H3CHCH3CH3NH3C6H4C5H2C6H2FeCH4NC9H19NC12H30CH2CHNH3C2H2CHCH12C2H8C2NC7H12CH4C4SCHCH4C2H3NH3CH3SH2CH4CH4CH5C2H4CH6C2HC3H5CH7CH2FeHCHC2HCH6SC3H4SC2HFeHC3H3CHC6H3CH10CHCNC2SC2HC2HCHCH11CH5CSHCH2CHCH2C2HC3H5CS2C3H7CHCHFeS2H3CH2CHFeH2CSH2C2NCH3CH5SH2C3HCH3CH2NC4FeNH4CH7CH3CH2NCHCH2C5SCH3CH2CH6C2H3CH2SCFeH7CH2CH3SH4CH8CHC3H2CHSH7CH5C3FeHCH2C2H3SHCFeS2FeSFeSFeS3HFeSHSH2FeSH2CFeH5C2H2FeSFeS2FeSFeS2FeS2FeS2FeHFeS3HSH2C3H2C7H3C4H6C4H4C6H12C6H4CH3C3H3C2HC2H2C6H3CH3CHC9HCH4SH2NH4SCH6CFeH6C2H3C2H6CH4CH3FeH8CHSC2H2C2H3CHNHFeH2C2H6CHSHC4H5CH3CHCHCH2CH2CNC6HC3H10CHCH8C3H5CHNC12H28NC7HC4H9CH4C2H2NCHCH6C3HC2H2CHCHSH3C3HCHC3H2C2H18SHC2H4C3SHCHC3NSH2C2H4SHCSHC2HSNH4NC4HC2H2CH8C2HCH4CH5SH2FeH2CH2SH5CHC4H3CHCH2SH2SHS2H2CHCH3C2H2CHCH2CH2C2H2C2HCH3CSC2H3FeCH2C2HCH3CHNHCHC2H2C2HSCH5N2H2CH2CHCHC2NH2C2HNHCHCH4C2H6SH6CHCH3C2H7C2HCHCHC3H4CH5C2H4CHC2H4CH6CHC2H4C2FeSCFeS2FeS2H2FeS4FeS2FeS2FeSFeS5HS2FeS2FeS2FeSFeS3C5H2C2H3C6H4C6H4C6H3C3H2CHCHC6H7C6H9CHC6H2C6H4FeNC10H2C2H11FeH2CH4CHCH3CHC2H4CH3CH2CHCHSH2CH2C2H3CHCH4NHC4HC4HC2H7CH2CH4CH4CH5NC9H19NC6HCHC2H14CH11SH2S2HC2HCNCH3C2HCHFeCH3NCFeCH11C2H8CHCHC2H2C3H5CH3C3H5CHNHCH6CH4CNCH2CH3CNCH4C3H4CH2CH4CHSH2CH4CHCHC2NC12H28CHCSC3NC4HC3H9C3H5CH3CH2Fe2HSH2CH7CH5CH7C2H2C2SH2CH2C2HCH3C2HC2H2CFeH3C2HCFeHFeSH2C2H2CH3CHSH3SHCH6FeSHFeS2FeSFeS3FeS2FeS2FeSFeS3H5SHSC2FeSHC2FeSHFeS2FeSFeS3C2H2CH5CH2CH5CHCHC2HCH4CHC7H4C6H4C6H4C6H4C3H2C3H2CH4C6H5C8H6C2H3C5HNH2CH3CSH4C3H2CHC2H4CHC2H3C3HCH10CH11CHCH3SCH2CHC3H2CHCH2NH5SH2SH4C3SHSH4SH6C2H4C2H4CH6CHSHCHCHCH3CNH2C3H3CSH6CH3CFeH5CNC11H28CH2CNCH3SHCH3C2H2S2C2H4CNSCH2FeCHCHNC3HC8H2CH3CH7CSH3SC2H4C2H3CH2NHSCHNC5HC3HC2H8C2H13SH4NC10H10SHCHFeC2FeCSH5CH2C2H2C2HCH2CH5CHCH2CH2CH2Fe2HC2H9CHC2H2C2NH3CHC6HC4SH13SH2CHNH2CHCHCH4CNH7CHC2H3CH2NHNCH3C2H4CHCH2CH2CHSCH4FeCH2CH2C2H2CHCHCH2CH5FeSHCSHCHCH2SHSH2FeSHFeS2FeSFeS3CH5C2HCSHC2FeCH2FeSHFeS2FeSFeS3C2H3CHCHCHCHCSC4H4C6H8SC4H2C6H4C4HCH4SHFeC3H3SCH3CHNH2C6H5C2H2CHC4H5CH8CH2SHC2H8NSC4HC4H2CH8CH9CH2C2HCHC2H2CHCHC2H4NC12H28NC12H20CHNH2CH2CSH3CH3C2HC2H2CHCFeH4CH3CNH3CHFeHCHCH2CSCS2HFeS2FeS2FeSFeS4HSFeS2FeSCFeSCHSH2CH2CHCHFeH3NCH2FeH4CHC2H2CHC6H4C6H4CNH6C2H3CH5CH2C6H6CH2SH2CH6CH2CHC2H2C3H3NC12H29CH4FeHC2H2C3H4NCH3FeCH5CHSC2HC2H2C2HCH2CHCHC2NH3CHCSHFeH3C3H5CSH5CHCH2CH3CHCH2CH4CSCH2NH2CH3C2HFeCHC3H2CH4CH4FeSH2CFeS2FeS2FeSFeS3H2SH2FeHSC3H3CFeS2FeS2FeSFeCS2HC2H3CH3C8H5CHC2H3C6H10CHNHC6H4C4SH4CHC9NHCHCH2CH4C2H2NHCH3CH6CHCHC2HCH3CNC10HSH10SH13CHCHC3H9CNHCH2NSH2CH4C3H3CH2C3H9CH3CH2CHCH9CH3CHCHC2H9CHCH2CH5CSCHCHC2HNSH6CHCHSHCH3CHCHCH2C2SHCHCH4CFeS2FeS2FeSFeS3H5CH2SHC4FeSHFeSCFeSCFeSHS2HC6H5NH7CH4CHCSH3CHSH2C6H2CH5C2HCH4CH3C2H6CHC4HCH2C7H5FeHC2H3CH4CH3C2HCHCH3CH3NHCHCHCH4C2H2C3NHCHCNCH2CHSH5CH2CH2CH2CH2CH2CHCNC9HC2H7CH7CHCH11CHCH2C2FeCH7CHCH2CH3CH7CH2CHCH10CHCH6CH8FeSHCH3SH2SFeSHSFeSH2FeS2FeS2FeSFeS3H3CFeS2FeSFe3S4CH2FeSH3NC2HS2FeS2FeCHFeSFeSCHCHS2H2FeS2FeS2C6H5C4H4C6HCH2FeC6H4C5H3C6H4CH3C2HSH2C6H6C6HCH4CNCH2CHC2H5C2H2CHCH10CH7CHNSCH3SHNC3H2C4H2CH10FeH4SCH4CHCH3C3FeHSHC3H7SHCH2C2HFeH5C3HCHCH7CH5CSH2CH9CH7CHCHCHC2H2NCS2H3C3H3C3HCSH3CHC2NC9H3CH5CH2CH6CH2C5H12NC9H18CH3CH4FeC2NH7SCH2CH6SH2SH3CH2SC4H2FeHFeH3CH3C2HCHCH5CH2C2H11C3H8SCNC4HC2NCHNCHCH12CHSHC2SCH5CH2FeCFeNC9HCH18CH3CH2S2HCH3CHCHC2H2C3HC2H2FeH3CSCHCH5C2H2C2HSHC3H3FeHCFeHCHSHSH2CHCHCHSHCH14SH4C2HCHSHSC2H4C2FeS2FeS2FeSFeS3FeS2FeSHFeSFeHS3FeSFeSFeSFeS2FeSFeS5HFeS2H3FeS2H2SHCH10CH3NH3CHC6H4CH2C6H2SHC4H3C6H4C6H3C6H4CSH2FeHC6H4C6H4SFeSC6SHNH2C5H2CH3C2H5CH4CH3SH3CH2CSCSNC12H26C4H7C3H3FeCHC2HC2H3C2HC2HCHCH2CSH4CH3CNC2HC3HC4H6CH16CH3C2H3CHCH3NH9CHCHS2CH3CNC12H30SH2CHSHSH3CSHFeH2CSCHNC9H10CH8CH2NC9HCH19CHCH4C2HCH2SCH4CFeSH2CFeH5NC11H23NC4HC4H8CH10FeH3Fe2CSCHCH3CHCHCSH10CH3SHC7HCH3NH5C2H3C2SC2H3CH3CH2CH2C4HCHC2HSCFeCH3C2H2CH8CH2CH4SH6C2HNH2CH2C2H6CHSH3CH2C2H4CH5C2FeS2FeS2FeSHSFeS2FeS2FeHFeS3H3FeS3FeSFe2SFeS3FeS4H2CSH3SHFeS2FeH2CHFeNHFeS3C6H4FeH3SC3HCHC6H4CHCSC6H5SCHNHC6H4SH2C6H4C6H3C6H4C3HSC2H2C6H4SHC2H5NC12H28CH5SNCSC2H8CHFeH2C2H4CH2C4H2C2HC2HC2H4CH2CH3C2H2SHCSHFe3CH2CH2CH2CH2CH2SCHCH2C3H2FeSHCHCH5CH3NC2H5CH6CH6FeHCH2CHC3HC3H21NC10HCH10CH11CFeCH5CHCHCHSH2CH6C3H12C2SCSHCSNC5HC2H8CH9CHC3H2SH6C5H4C2H6FeH4SH2CH4CHCH4CH4CHNFeC3H2C3H4NHCHSHCHSH2CFe2H7SH6CHCSNC4HC4SHCH19NH3CH5C2HCHC4H2CH2CH4SC2NCH2CFeH2CH5CH2CH2CH4C3H2CHCH2S2H4CH3C2FeSFeS2FeSFeS3CH6FeS2FeS2FeSFeS4HFeSFeS2FeS4CSCHC2FeSH2SH3SHFe2SFeS2HFeCS2C5H3CHSH2C3H5C6H3C2H2C4H2C4H2C6H4CH6C6H4C6H4C6H4C2H2C2H6C5HSH4CH4CH3C3FeCSHCH3CH3CH4FeSH3NC2FeHCH2CHC2HC2HCH2CH8CHCH8CH8CH3CH3NH2CH2C5H4CH6CH3NH4CH2SNHCHFeH5C3HCSCH10NC9H5CH13NC8H2C2H14CHCFeC2HCH2CH2CSC2HCNH3CH3C3NCSHCH5C2SH3CH6NC10SH10CH5CNH5CH8FeH2C2HC2H6SH4CHSC3HSCH3C3HSHC2H4NH5C2H3C3H2CH2CHCH2CH6CNC2H4CHCH4SHC3H3C2FeCH6C3H2FeSHCH4CSFeSH4CHC4H3CSH3C5H2C2H2SCH3CHC3HC3S2CHC3H3C5H2CH6FeH4CH2CHCHCH2CNCHC3HCH3NH10CH4C2H3FeH2CFeCH7C4HNH3CH8CH2CHCH2SCH2FeH6SCHC2FeSH3CH3S2H5CFeS2FeS2FeSFeS3H4CH3FeS2FeS2FeSFeS3H4C2H3CHCH3C6H4CHC4H4CHC5H5C6H4C3HC2H6CH2C4H4C2HC4H3NH2NC12H27NC8H17CNCH4CHCHNH15CNHCHC2HCHCH3CH2CNC5HC6H24CH2CH8CH2FeC5HCHCH4C2H7CH2C3H2CHCHCH5CNC3SHC3H2CHC2H3CH15SC3H5CH2CSC3SCHFeH2CH2CSHCH2CH10SHC2HCHCH3FeS2FeS2FeSFeS4C2H3CH3SFeNHC2HFeS2FeS2FeSFeS2H4FeSH3C6H5C3H2C6H13CH4C6H4C6H6CH3C2HCH3C9H5CH2SHNC7HNC3H2CH12CFeCHCH8C3NC12H28C2HCHNH4CH8CH11CH2C2H3C2HC2H3CH6CHSNH2CH3SC2SHCHCNC12H21C2FeHC2SH6C3HCH6CH5CH5C2H4SFeHCH3CHCHC3H4CH2FeSC2H4CH2CSHCH3CSCFeS2FeS2FeSFeS3HCHCHSC2H6CHFeS2FeS2FeSFeS3H2SH2C7H4C7H4C3H2CH2C6H4C6H3C3H2CNCH2C7H5C4H8C2H3CHCH3C2H3CH3CHCH9CHC2HCH4C2HSC2H4C3H2C2HCHCNH3CH2NHCH3CH3SH5CNCHCH7CH4CH12C2HCHCFeH4CHC2H3NC12H15NCH6C4HCHC2H7NCH5CHC3H6CH7NC3H2CH2C3H9CH4CH2C4H6CHCH2CHCH2CH2FeCHCH3C2H4CH12CHCSHCH3FeS2FeS2FeSFeS3CFeS2FeS2FeSFeS3HC6H4C3HC2H5C4HCH2C6H4C6H3C6H5C5HNHC2HC2H8CHC2H6CH2C2H2C2NC4HCHCSCH7CH6CH3NHC3HC2H3C2H8CHSH3FeH3FeCH8CH2CH2CH3CH3SCH2CHSCH5CH2CH7CH3SH2CHCH3CHC4H2NH2C2H2CH5CHCH5CH2CNC6HC4SH5SH19CH3CH2CNHCH5CHCH6CH2CHCH6NCH2C2H11CHCHCH6CH
_chemical_formula_sum              "Fe384 S768 H6144 C3456 N192"
_cell_length_a       74.6142
_cell_length_b       73.8353
_cell_length_c       74.5717
_cell_angle_alpha    74.2944
_cell_angle_beta     74.704
_cell_angle_gamma    74.7471

_space_group_name_H-M_alt    "P 1"
_space_group_IT_number       1

loop_
  _space_group_symop_operation_xyz
  'x, y, z'

loop_
  _atom_site_type_symbol
  _atom_site_label
  _atom_site_symmetry_multiplicity
  _atom_site_fract_x
  _atom_site_fract_y
  _atom_site_fract_z
  _atom_site_occupancy
  Fe  Fe1       1.0  0.15379  0.43418  0.20946  1.0000
  S   S1        1.0  0.13541  0.41222  0.22362  1.0000
  H   H1        1.0  0.10660  0.33348  0.07060  1.0000
  H   H2        1.0  0.14136  0.31210  0.44104  1.0000
  H   H3        1.0  0.16452  0.46300  0.30952  1.0000
  C   C1        1.0  0.11760  0.35966  0.99785  1.0000
  H   H4        1.0  0.10509  0.47668  0.14725  1.0000
  Fe  Fe2       1.0  0.16133  0.36963  0.09079  1.0000
  H   H5        1.0  0.00010  0.36411  0.17977  1.0000
  S   S2        1.0  0.13206  0.38763  0.09675  1.0000
  C   C2        1.0  0.08455  0.28811  0.19249  1.0000
  C   C3        1.0  0.13854  0.28422  0.45995  1.0000
  C   C4        1.0  0.01296  0.16978  0.34533  1.0000
  H   H6        1.0  0.14614  0.45284  0.34198  1.0000
  S   S3        1.0  0.16860  0.34475  0.07667  1.0000
  C   C5        1.0  0.16726  0.28229  0.16039  1.0000
  S   S4        1.0  0.15887  0.31703  0.99200  1.0000
  Fe  Fe3       1.0  0.05654  0.38400  0.19690  1.0000
  S   S5        1.0  0.08071  0.35917  0.19231  1.0000
  S   S6        1.0  0.06344  0.41311  0.19271  1.0000
  H   H7        1.0  0.12534  0.42987  0.16559  1.0000
  C   C6        1.0  0.05025  0.32727  0.26788  1.0000
  H   H8        1.0  0.06488  0.18121  0.43783  1.0000
  Fe  Fe4       1.0  0.06228  0.35085  0.17793  1.0000
  S   S7        1.0  0.07618  0.33679  0.15314  1.0000
  S   S8        1.0  0.18471  0.38368  0.07152  1.0000
  Fe  Fe5       1.0  0.17359  0.24155  0.40973  1.0000
  H   H9        1.0  0.14560  0.45972  0.12838  1.0000
  H   H10       1.0  0.15071  0.29493  0.07726  1.0000
  Fe  Fe6       1.0  0.13372  0.23399  0.41826  1.0000
  S   S9        1.0  0.14248  0.20308  0.43249  1.0000
  S   S10       1.0  0.10305  0.24703  0.41684  1.0000
  Fe  Fe7       1.0  0.15962  0.21418  0.44629  1.0000
  H   H11       1.0  0.05614  0.25388  0.26067  1.0000
  Fe  Fe8       1.0  0.16756  0.20284  0.40797  1.0000
  H   H12       1.0  0.12243  0.99517  0.21533  1.0000
  S   S11       1.0  0.14877  0.24521  0.43394  1.0000
  S   S12       1.0  0.15765  0.23313  0.39265  1.0000
  Fe  Fe9       1.0  0.15098  0.13118  0.30505  1.0000
  S   S13       1.0  0.15738  0.11335  0.33315  1.0000
  Fe  Fe10      1.0  0.11014  0.12664  0.31504  1.0000
  S   S14       1.0  0.11259  0.10845  0.34409  1.0000
  S   S15       1.0  0.08441  0.13317  0.30217  1.0000
  Fe  Fe11      1.0  0.12891  0.12940  0.34591  1.0000
  S   S16       1.0  0.12172  0.14127  0.37266  1.0000
  Fe  Fe12      1.0  0.14065  0.09388  0.32914  1.0000
  S   S17       1.0  0.15035  0.06174  0.33552  1.0000
  S   S18       1.0  0.12385  0.14890  0.31797  1.0000
  S   S19       1.0  0.13698  0.11026  0.29994  1.0000
  H   H13       1.0  0.03668  0.15444  0.42357  1.0000
  H   H14       1.0  0.18280  0.41243  0.15621  1.0000
  H   H15       1.0  0.15275  0.00171  0.21848  1.0000
  C   C7        1.0  0.06176  0.14004  0.43532  1.0000
  C   C8        1.0  0.01919  0.21695  0.40410  1.0000
  Fe  Fe13      1.0  0.02668  0.35916  0.20806  1.0000
  H   H16       1.0  0.13138  0.43571  0.34618  1.0000
  C   C9        1.0  0.00829  0.16139  0.29046  1.0000
  S   S20       1.0  0.10525  0.01068  0.31573  1.0000
  C   C10       1.0  0.02437  0.29189  0.21230  1.0000
  C   C11       1.0  0.15977  0.18437  0.31483  1.0000
  C   C12       1.0  0.99756  0.13741  0.33183  1.0000
  Fe  Fe14      1.0  0.05476  0.22800  0.34564  1.0000
  S   S21       1.0  0.05968  0.24560  0.31588  1.0000
  S   S22       1.0  0.08061  0.21367  0.35804  1.0000
  Fe  Fe15      1.0  0.03370  0.26598  0.32719  1.0000
  H   H17       1.0  0.10052  0.41400  0.15921  1.0000
  Fe  Fe16      1.0  0.03934  0.23103  0.31079  1.0000
  S   S23       1.0  0.04249  0.21999  0.28467  1.0000
  S   S24       1.0  0.03693  0.21117  0.33952  1.0000
  H   H18       1.0  0.06674  0.20210  0.41860  1.0000
  C   C13       1.0  0.12559  0.19000  0.33356  1.0000
  H   H19       1.0  0.17520  0.01455  0.32043  1.0000
  C   C14       1.0  0.09185  0.28998  0.38017  1.0000
  C   C15       1.0  0.13546  0.04856  0.33211  1.0000
  C   C16       1.0  0.13820  0.02882  0.33995  1.0000
  C   C17       1.0  0.12815  0.01740  0.33581  1.0000
  C   C18       1.0  0.11552  0.02548  0.32351  1.0000
  C   C19       1.0  0.11194  0.04549  0.31646  1.0000
  C   C20       1.0  0.12190  0.05704  0.32074  1.0000
  H   H20       1.0  0.14829  0.02225  0.34913  1.0000
  H   H21       1.0  0.13008  0.00237  0.34238  1.0000
  H   H22       1.0  0.10191  0.05197  0.30721  1.0000
  H   H23       1.0  0.11953  0.07235  0.31481  1.0000
  C   C21       1.0  0.07467  0.15780  0.29576  1.0000
  C   C22       1.0  0.06396  0.16445  0.28155  1.0000
  C   C23       1.0  0.05488  0.18387  0.27738  1.0000
  C   C24       1.0  0.05601  0.19649  0.28786  1.0000
  C   C25       1.0  0.06719  0.18999  0.30162  1.0000
  C   C26       1.0  0.07663  0.17071  0.30541  1.0000
  H   H24       1.0  0.06260  0.15455  0.27385  1.0000
  H   H25       1.0  0.04656  0.18895  0.26646  1.0000
  H   H26       1.0  0.06865  0.19980  0.30934  1.0000
  H   H27       1.0  0.08511  0.16580  0.31606  1.0000
  H   H28       1.0  0.16427  0.43007  0.11940  1.0000
  C   C27       1.0  0.14247  0.40611  0.15294  1.0000
  C   C28       1.0  0.17181  0.42983  0.28242  1.0000
  S   S25       1.0  0.14760  0.46132  0.18760  1.0000
  C   C29       1.0  0.13009  0.46008  0.13115  1.0000
  H   H29       1.0  0.10451  0.38511  0.07460  1.0000
  C   C30       1.0  0.07358  0.18698  0.42399  1.0000
  S   S26       1.0  0.18265  0.42342  0.19289  1.0000
  H   H30       1.0  0.00196  0.29989  0.30119  1.0000
  C   C31       1.0  0.16366  0.16807  0.38715  1.0000
  C   C32       1.0  0.14412  0.17538  0.39144  1.0000
  C   C33       1.0  0.13146  0.16695  0.38699  1.0000
  C   C34       1.0  0.13817  0.15120  0.37821  1.0000
  C   C35       1.0  0.15770  0.14365  0.37419  1.0000
  C   C36       1.0  0.17041  0.15212  0.37860  1.0000
  H   H31       1.0  0.13879  0.18758  0.39808  1.0000
  H   H32       1.0  0.11645  0.17293  0.38995  1.0000
  C   C37       1.0  0.09646  0.23801  0.40052  1.0000
  C   C38       1.0  0.07771  0.24316  0.39784  1.0000
  C   C39       1.0  0.07264  0.23601  0.38459  1.0000
  C   C40       1.0  0.08628  0.22354  0.37423  1.0000
  C   C41       1.0  0.10489  0.21830  0.37710  1.0000
  C   C42       1.0  0.11001  0.22568  0.39002  1.0000
  H   H33       1.0  0.06714  0.25266  0.40599  1.0000
  H   H34       1.0  0.05821  0.23999  0.38254  1.0000
  H   H35       1.0  0.11546  0.20848  0.36929  1.0000
  H   H36       1.0  0.12440  0.22145  0.39212  1.0000
  H   H37       1.0  0.09049  0.19709  0.43746  1.0000
  C   C43       1.0  0.07490  0.29934  0.27506  1.0000
  C   C44       1.0  0.06361  0.29384  0.29300  1.0000
  H   H38       1.0  0.14808  0.43320  0.15245  1.0000
  H   H39       1.0  0.08873  0.29055  0.27089  1.0000
  H   H40       1.0  0.06886  0.28100  0.30265  1.0000
  H   H41       1.0  0.13298  0.35963  0.99249  1.0000
  H   H42       1.0  0.08517  0.27973  0.24137  1.0000
  H   H43       1.0  0.11583  0.18409  0.34664  1.0000
  C   C45       1.0  0.16995  0.32926  0.00191  1.0000
  C   C46       1.0  0.17397  0.32121  0.02012  1.0000
  H   H44       1.0  0.99991  0.12433  0.34322  1.0000
  H   H45       1.0  0.06351  0.38091  0.07922  1.0000
  C   C47       1.0  0.09265  0.18720  0.42785  1.0000
  H   H46       1.0  0.17018  0.30764  0.02795  1.0000
  H   H47       1.0  0.14514  0.01551  0.19683  1.0000
  C   C48       1.0  0.11619  0.37342  0.11157  1.0000
  C   C49       1.0  0.09853  0.38219  0.12093  1.0000
  C   C50       1.0  0.08623  0.37093  0.13384  1.0000
  C   C51       1.0  0.09117  0.35091  0.13657  1.0000
  C   C52       1.0  0.10840  0.34214  0.12642  1.0000
  C   C53       1.0  0.12110  0.35338  0.11423  1.0000
  H   H48       1.0  0.09443  0.39767  0.11837  1.0000
  H   H49       1.0  0.07283  0.37774  0.14154  1.0000
  H   H50       1.0  0.11218  0.32665  0.12843  1.0000
  H   H51       1.0  0.13472  0.34652  0.10705  1.0000
  C   C54       1.0  0.02007  0.29296  0.26506  1.0000
  Fe  Fe17      1.0  0.16145  0.47436  0.20312  1.0000
  H   H52       1.0  0.14595  0.26918  0.46003  1.0000
  H   H53       1.0  0.04323  0.16755  0.43649  1.0000
  C   C55       1.0  0.11975  0.33940  0.06672  1.0000
  H   H54       1.0  0.09503  0.36672  0.02106  1.0000
  C   C56       1.0  0.11540  0.41288  0.21484  1.0000
  C   C57       1.0  0.10700  0.42947  0.20314  1.0000
  C   C58       1.0  0.09096  0.42948  0.19654  1.0000
  C   C59       1.0  0.08342  0.41285  0.20134  1.0000
  C   C60       1.0  0.09187  0.39628  0.21298  1.0000
  C   C61       1.0  0.10768  0.39636  0.21983  1.0000
  C   C62       1.0  0.04579  0.30514  0.29854  1.0000
  C   C63       1.0  0.18807  0.34807  0.01811  1.0000
  H   H55       1.0  0.08604  0.38346  0.21697  1.0000
  H   H56       1.0  0.11401  0.38352  0.22896  1.0000
  H   H57       1.0  0.14557  0.16308  0.33636  1.0000
  H   H58       1.0  0.01936  0.31209  0.23019  1.0000
  H   H59       1.0  0.01913  0.18875  0.42170  1.0000
  H   H60       1.0  0.13364  0.36944  0.06394  1.0000
  H   H61       1.0  0.08635  0.31437  0.39349  1.0000
  Fe  Fe18      1.0  0.17737  0.45133  0.17207  1.0000
  C   C64       1.0  0.04501  0.18734  0.39933  1.0000
  S   S27       1.0  0.03896  0.37711  0.18004  1.0000
  C   C65       1.0  0.07761  0.42581  0.14423  1.0000
  H   H62       1.0  0.16297  0.13126  0.36777  1.0000
  N   N1        1.0  0.05881  0.16967  0.40711  1.0000
  C   C66       1.0  0.06494  0.15664  0.39312  1.0000
  C   C67       1.0  0.07632  0.17507  0.40892  1.0000
  C   C68       1.0  0.07319  0.16581  0.37224  1.0000
  C   C69       1.0  0.07793  0.15134  0.35956  1.0000
  H   H63       1.0  0.05287  0.19812  0.38911  1.0000
  H   H64       1.0  0.07627  0.14417  0.39744  1.0000
  H   H65       1.0  0.08767  0.16201  0.41153  1.0000
  H   H66       1.0  0.08261  0.18384  0.39519  1.0000
  H   H67       1.0  0.02443  0.30710  0.26115  1.0000
  H   H68       1.0  0.08651  0.17031  0.37132  1.0000
  H   H69       1.0  0.06314  0.17856  0.36619  1.0000
  H   H70       1.0  0.08753  0.15657  0.34616  1.0000
  H   H71       1.0  0.08548  0.13710  0.36639  1.0000
  H   H72       1.0  0.06490  0.14962  0.35625  1.0000
  C   C70       1.0  0.14900  0.39634  0.03787  1.0000
  H   H73       1.0  0.08465  0.98729  0.25988  1.0000
  H   H74       1.0  0.99920  0.21872  0.32686  1.0000
  H   H75       1.0  0.12794  0.24803  0.47260  1.0000
  H   H76       1.0  0.14176  0.27125  0.17273  1.0000
  H   H77       1.0  0.10572  0.02267  0.25015  1.0000
  H   H78       1.0  0.17256  0.28039  0.17349  1.0000
  H   H79       1.0  0.14799  0.35788  0.04565  1.0000
  H   H80       1.0  0.02569  0.27633  0.21343  1.0000
  C   C71       1.0  0.15068  0.43857  0.31860  1.0000
  C   C72       1.0  0.14816  0.29667  0.44191  1.0000
  H   H81       1.0  0.16165  0.42667  0.32426  1.0000
  H   H82       1.0  0.17059  0.41810  0.29530  1.0000
  N   N2        1.0  0.11820  0.35725  0.05090  1.0000
  H   H83       1.0  0.17206  0.29479  0.14987  1.0000
  C   C73       1.0  0.18753  0.42063  0.26724  1.0000
  H   H84       1.0  0.19003  0.43214  0.32170  1.0000
  H   H85       1.0  0.11521  0.34504  0.99928  1.0000
  H   H86       1.0  0.02297  0.25711  0.26819  1.0000
  H   H87       1.0  0.06650  0.12914  0.42640  1.0000
  H   H88       1.0  0.15454  0.38050  0.17201  1.0000
  H   H89       1.0  0.03243  0.16748  0.36346  1.0000
  N   N3        1.0  0.17493  0.44756  0.28665  1.0000
  H   H90       1.0  0.11053  0.30218  0.46127  1.0000
  N   N4        1.0  0.08473  0.29304  0.34712  1.0000
  C   C74       1.0  0.08229  0.30768  0.32892  1.0000
  C   C75       1.0  0.06604  0.28695  0.35638  1.0000
  C   C76       1.0  0.09082  0.30213  0.35978  1.0000
  C   C77       1.0  0.09970  0.27545  0.34343  1.0000
  C   C78       1.0  0.09690  0.26526  0.32902  1.0000
  C   C79       1.0  0.10071  0.31339  0.31561  1.0000
  H   H91       1.0  0.05282  0.15057  0.39292  1.0000
  C   C80       1.0  0.04943  0.30266  0.36366  1.0000
  C   C81       1.0  0.03166  0.29446  0.37362  1.0000
  C   C82       1.0  0.11364  0.24866  0.32531  1.0000
  C   C83       1.0  0.09624  0.32857  0.29795  1.0000
  H   H92       1.0  0.09946  0.17257  0.43467  1.0000
  H   H93       1.0  0.07263  0.32124  0.33214  1.0000
  H   H94       1.0  0.07497  0.30272  0.32054  1.0000
  H   H95       1.0  0.06102  0.28178  0.34622  1.0000
  H   H96       1.0  0.06782  0.27441  0.36841  1.0000
  H   H97       1.0  0.08145  0.31642  0.36093  1.0000
  H   H98       1.0  0.10524  0.30518  0.35330  1.0000
  H   H99       1.0  0.11409  0.27894  0.33865  1.0000
  H   H100      1.0  0.10027  0.26432  0.35686  1.0000
  H   H101      1.0  0.09577  0.27522  0.31512  1.0000
  H   H102      1.0  0.08390  0.25917  0.33469  1.0000
  H   H103      1.0  0.10803  0.31953  0.32297  1.0000
  H   H104      1.0  0.11071  0.30083  0.31064  1.0000
  H   H105      1.0  0.09480  0.36406  0.08725  1.0000
  H   H106      1.0  0.15573  0.40336  0.14215  1.0000
  H   H107      1.0  0.05302  0.30864  0.37408  1.0000
  H   H108      1.0  0.04572  0.31458  0.35162  1.0000
  H   H109      1.0  0.02671  0.28928  0.36348  1.0000
  H   H110      1.0  0.03456  0.28238  0.38583  1.0000
  H   H111      1.0  0.02009  0.30586  0.37900  1.0000
  H   H112      1.0  0.12688  0.25411  0.31835  1.0000
  H   H113      1.0  0.11568  0.23827  0.33885  1.0000
  H   H114      1.0  0.11076  0.24097  0.31580  1.0000
  H   H115      1.0  0.08678  0.34185  0.30201  1.0000
  H   H116      1.0  0.10959  0.33235  0.28854  1.0000
  H   H117      1.0  0.08922  0.32305  0.28974  1.0000
  C   C84       1.0  0.03928  0.32212  0.28615  1.0000
  H   H118      1.0  0.08918  0.25675  0.25762  1.0000
  S   S28       1.0  0.08168  0.32141  0.23937  1.0000
  H   H119      1.0  0.01288  0.21496  0.39300  1.0000
  C   C85       1.0  0.15053  0.00078  0.20463  1.0000
  H   H120      1.0  0.15506  0.40264  0.17744  1.0000
  H   H121      1.0  0.11417  0.33821  0.03530  1.0000
  H   H122      1.0  0.18926  0.17304  0.28727  1.0000
  H   H123      1.0  0.08546  0.29158  0.44653  1.0000
  H   H124      1.0  0.10011  0.22455  0.46420  1.0000
  H   H125      1.0  0.13925  0.28331  0.23356  1.0000
  H   H126      1.0  0.08432  0.44241  0.18778  1.0000
  H   H127      1.0  0.11514  0.00625  0.26988  1.0000
  H   H128      1.0  0.09914  0.45121  0.12801  1.0000
  H   H129      1.0  0.15687  0.17807  0.30412  1.0000
  C   C86       1.0  0.17372  0.46340  0.26895  1.0000
  C   C87       1.0  0.07442  0.38903  0.07835  1.0000
  H   H130      1.0  0.13193  0.39980  0.15008  1.0000
  C   C88       1.0  0.13549  0.42799  0.15200  1.0000
  H   H131      1.0  0.17672  0.15333  0.33845  1.0000
  S   S29       1.0  0.04210  0.36855  0.22509  1.0000
  C   C89       1.0  0.13391  0.36718  0.04970  1.0000
  H   H132      1.0  0.14084  0.28832  0.15079  1.0000
  H   H133      1.0  0.12079  0.18910  0.32100  1.0000
  N   N5        1.0  0.02619  0.28377  0.24800  1.0000
  H   H134      1.0  0.16337  0.38691  0.03620  1.0000
  H   H135      1.0  0.10287  0.27661  0.37959  1.0000
  H   H136      1.0  0.18647  0.02923  0.25493  1.0000
  S   S30       1.0  0.04881  0.33253  0.20447  1.0000
  H   H137      1.0  0.08764  0.36176  0.05670  1.0000
  H   H138      1.0  0.13572  0.34660  0.02617  1.0000
  H   H139      1.0  0.15664  0.42293  0.08357  1.0000
  C   C90       1.0  0.18458  0.15675  0.32355  1.0000
  H   H140      1.0  0.09867  0.44756  0.15269  1.0000
  H   H141      1.0  0.09798  0.29187  0.40637  1.0000
  C   C91       1.0  0.08083  0.26564  0.24680  1.0000
  H   H142      1.0  0.17747  0.06463  0.25629  1.0000
  H   H143      1.0  0.14426  0.30732  0.22605  1.0000
  H   H144      1.0  0.06896  0.43574  0.15360  1.0000
  H   H145      1.0  0.02557  0.33105  0.29045  1.0000
  H   H146      1.0  0.00151  0.29888  0.23570  1.0000
  H   H147      1.0  0.05129  0.29628  0.23775  1.0000
  C   C92       1.0  0.11204  0.02155  0.26242  1.0000
  C   C93       1.0  0.01119  0.30334  0.19869  1.0000
  S   S31       1.0  0.17993  0.17885  0.39191  1.0000
  S   S32       1.0  0.03152  0.29786  0.32077  1.0000
  H   H148      1.0  0.12184  0.30333  0.24110  1.0000
  H   H149      1.0  0.11131  0.30470  0.38516  1.0000
  H   H150      1.0  0.11387  0.34074  0.16822  1.0000
  H   H151      1.0  0.12093  0.34299  0.07987  1.0000
  C   C94       1.0  0.12051  0.47150  0.14710  1.0000
  C   C95       1.0  0.04748  0.28186  0.24157  1.0000
  H   H152      1.0  0.13702  0.35679  0.14197  1.0000
  H   H153      1.0  0.15285  0.30095  0.19371  1.0000
  H   H154      1.0  0.02900  0.22703  0.39745  1.0000
  C   C96       1.0  0.13500  0.43228  0.11733  1.0000
  H   H155      1.0  0.17962  0.42253  0.08748  1.0000
  C   C97       1.0  0.05965  0.26833  0.25587  1.0000
  H   H156      1.0  0.03858  0.29538  0.20565  1.0000
  H   H157      1.0  0.07537  0.43211  0.12948  1.0000
  C   C98       1.0  0.02981  0.19774  0.41397  1.0000
  H   H158      1.0  0.07808  0.28604  0.38794  1.0000
  C   C99       1.0  0.06803  0.31581  0.26230  1.0000
  N   N6        1.0  0.12668  0.43991  0.13530  1.0000
  H   H159      1.0  0.10239  0.19226  0.41443  1.0000
  H   H160      1.0  0.03231  0.25432  0.24447  1.0000
  H   H161      1.0  0.12546  0.30101  0.08643  1.0000
  H   H162      1.0  0.03608  0.20059  0.42455  1.0000
  C   C100      1.0  0.09877  0.36966  0.05595  1.0000
  C   C101      1.0  0.15589  0.43376  0.10828  1.0000
  H   H163      1.0  0.14498  0.39978  0.05221  1.0000
  H   H164      1.0  0.15728  0.00332  0.30232  1.0000
  H   H165      1.0  0.14184  0.43239  0.31288  1.0000
  H   H166      1.0  0.13993  0.32122  0.14845  1.0000
  C   C102      1.0  0.17472  0.34691  0.99203  1.0000
  C   C103      1.0  0.09864  0.42212  0.14469  1.0000
  H   H167      1.0  0.09637  0.38285  0.04473  1.0000
  S   S33       1.0  0.02993  0.24922  0.35738  1.0000
  H   H168      1.0  0.11315  0.38045  0.01454  1.0000
  H   H169      1.0  0.15029  0.32742  0.05733  1.0000
  H   H170      1.0  0.03671  0.18363  0.39088  1.0000
  C   C104      1.0  0.10548  0.44125  0.13997  1.0000
  H   H171      1.0  0.04495  0.34011  0.25820  1.0000
  H   H172      1.0  0.12657  0.44010  0.10620  1.0000
  Fe  Fe19      1.0  0.06510  0.34316  0.21917  1.0000
  H   H173      1.0  0.01043  0.18466  0.36755  1.0000
  S   S34       1.0  0.17741  0.35407  0.11391  1.0000
  Fe  Fe20      1.0  0.01238  0.23419  0.34820  1.0000
  H   H174      1.0  0.10643  0.41291  0.13450  1.0000
  H   H175      1.0  0.14961  0.40994  0.02698  1.0000
  C   C105      1.0  0.13449  0.38655  0.03520  1.0000
  H   H176      1.0  0.15552  0.31899  0.16368  1.0000
  C   C106      1.0  0.14654  0.39537  0.17255  1.0000
  H   H177      1.0  0.13406  0.41706  0.11963  1.0000
  S   S35       1.0  0.16520  0.44782  0.22642  1.0000
  H   H178      1.0  0.07725  0.29728  0.18094  1.0000
  H   H179      1.0  0.02732  0.28408  0.27675  1.0000
  H   H180      1.0  0.03804  0.12691  0.45271  1.0000
  C   C107      1.0  0.12038  0.35114  0.03251  1.0000
  H   H181      1.0  0.11809  0.31799  0.20815  1.0000
  H   H182      1.0  0.99746  0.17393  0.34643  1.0000
  H   H183      1.0  0.15124  0.35467  0.15890  1.0000
  H   H184      1.0  0.11594  0.28523  0.44657  1.0000
  C   C108      1.0  0.04919  0.15857  0.42573  1.0000
  H   H185      1.0  0.04625  0.14078  0.46445  1.0000
  C   C109      1.0  0.11063  0.36582  0.01687  1.0000
  H   H186      1.0  0.15985  0.20885  0.33716  1.0000
  H   H187      1.0  0.16613  0.40507  0.10264  1.0000
  H   H188      1.0  0.01059  0.15938  0.37601  1.0000
  H   H189      1.0  0.17187  0.26584  0.13869  1.0000
  H   H190      1.0  0.05999  0.11751  0.46098  1.0000
  H   H191      1.0  0.00944  0.23115  0.25565  1.0000
  C   C110      1.0  0.13626  0.98810  0.20773  1.0000
  H   H192      1.0  0.10150  0.02982  0.27246  1.0000
  C   C111      1.0  0.00201  0.26249  0.25097  1.0000
  H   H193      1.0  0.12726  0.36882  0.16143  1.0000
  H   H194      1.0  0.13906  0.38401  0.02051  1.0000
  Fe  Fe21      1.0  0.18731  0.33056  0.09762  1.0000
  H   H195      1.0  0.05268  0.27593  0.22852  1.0000
  H   H196      1.0  0.14382  0.27979  0.19954  1.0000
  H   H197      1.0  0.15021  0.18062  0.34609  1.0000
  H   H198      1.0  0.13298  0.39460  0.18310  1.0000
  S   S36       1.0  0.16961  0.14711  0.28037  1.0000
  H   H199      1.0  0.05245  0.29047  0.44852  1.0000
  H   H200      1.0  0.11290  0.29458  0.21575  1.0000
  H   H201      1.0  0.01945  0.13840  0.35324  1.0000
  H   H202      1.0  0.17120  0.35358  0.97828  1.0000
  C   C112      1.0  0.15940  0.45420  0.30267  1.0000
  H   H203      1.0  0.08124  0.26756  0.45637  1.0000
  H   H204      1.0  0.15667  0.44868  0.10018  1.0000
  H   H205      1.0  0.07264  0.41202  0.14937  1.0000
  H   H206      1.0  0.11281  0.27482  0.19704  1.0000
  C   C113      1.0  0.02164  0.26398  0.25320  1.0000
  S   S37       1.0  0.99680  0.35409  0.22100  1.0000
  C   C114      1.0  0.14582  0.17853  0.33383  1.0000
  H   H207      1.0  0.12221  0.46248  0.16133  1.0000
  H   H208      1.0  0.17321  0.25129  0.16236  1.0000
  N   N7        1.0  0.01526  0.14573  0.32427  1.0000
  C   C115      1.0  0.01252  0.16374  0.30890  1.0000
  C   C116      1.0  0.02174  0.14983  0.34010  1.0000
  C   C117      1.0  0.03080  0.13091  0.31549  1.0000
  H   H209      1.0  0.16338  0.29479  0.44215  1.0000
  C   C118      1.0  0.16507  0.42025  0.09462  1.0000
  C   C119      1.0  0.99863  0.29614  0.27434  1.0000
  C   C120      1.0  0.03920  0.11288  0.32959  1.0000
  C   C121      1.0  0.18212  0.40370  0.26332  1.0000
  S   S38       1.0  0.01367  0.25323  0.31904  1.0000
  H   H210      1.0  0.11268  0.44235  0.19945  1.0000
  C   C122      1.0  0.17188  0.04081  0.23181  1.0000
  C   C123      1.0  0.05180  0.09735  0.31912  1.0000
  H   H211      1.0  0.02547  0.17000  0.30461  1.0000
  H   H212      1.0  0.07949  0.27439  0.19760  1.0000
  H   H213      1.0  0.12058  0.39670  0.03673  1.0000
  H   H214      1.0  0.03736  0.14932  0.33614  1.0000
  H   H215      1.0  0.04299  0.13754  0.30676  1.0000
  H   H216      1.0  0.02571  0.12571  0.30542  1.0000
  C   C124      1.0  0.13672  0.32254  0.06264  1.0000
  C   C125      1.0  0.00237  0.18092  0.27755  1.0000
  H   H217      1.0  0.10494  0.31378  0.18508  1.0000
  H   H218      1.0  0.10927  0.27570  0.17391  1.0000
  H   H219      1.0  0.12926  0.33799  0.18443  1.0000
  H   H220      1.0  0.01931  0.18104  0.33413  1.0000
  H   H221      1.0  0.02800  0.10637  0.34039  1.0000
  H   H222      1.0  0.04814  0.11678  0.33717  1.0000
  C   C126      1.0  0.13782  0.44708  0.33527  1.0000
  H   H223      1.0  0.17019  0.24010  0.46560  1.0000
  H   H224      1.0  0.14743  0.29229  0.42903  1.0000
  C   C127      1.0  0.01714  0.29727  0.23210  1.0000
  H   H225      1.0  0.14701  0.46399  0.29697  1.0000
  H   H226      1.0  0.08077  0.29554  0.20452  1.0000
  C   C128      1.0  0.18278  0.33071  0.02829  1.0000
  H   H227      1.0  0.12472  0.20529  0.33325  1.0000
  C   C129      1.0  0.09719  0.30101  0.39194  1.0000
  H   H228      1.0  0.00152  0.17885  0.26362  1.0000
  C   C130      1.0  0.05075  0.13081  0.45454  1.0000
  H   H229      1.0  0.05845  0.08512  0.32935  1.0000
  H   H230      1.0  0.04328  0.09190  0.31236  1.0000
  H   H231      1.0  0.06333  0.10309  0.30799  1.0000
  N   N8        1.0  0.15656  0.03628  0.26820  1.0000
  C   C131      1.0  0.14905  0.05777  0.26396  1.0000
  C   C132      1.0  0.14020  0.02639  0.27213  1.0000
  C   C133      1.0  0.16405  0.03119  0.28629  1.0000
  H   H232      1.0  0.12160  0.21472  0.47336  1.0000
  C   C134      1.0  0.05706  0.29009  0.46165  1.0000
  C   C135      1.0  0.16295  0.07021  0.26375  1.0000
  H   H233      1.0  0.10979  0.36994  0.98720  1.0000
  C   C136      1.0  0.13022  0.02950  0.25547  1.0000
  H   H234      1.0  0.05741  0.27423  0.26859  1.0000
  H   H235      1.0  0.18032  0.39225  0.27643  1.0000
  C   C137      1.0  0.15666  0.09121  0.25408  1.0000
  H   H236      1.0  0.16016  0.46514  0.26438  1.0000
  H   H237      1.0  0.13604  0.06166  0.27485  1.0000
  H   H238      1.0  0.14427  0.06277  0.25025  1.0000
  H   H239      1.0  0.14481  0.01055  0.27655  1.0000
  H   H240      1.0  0.12926  0.03091  0.28431  1.0000
  H   H241      1.0  0.15331  0.03758  0.29761  1.0000
  H   H242      1.0  0.18644  0.07118  0.30787  1.0000
  H   H243      1.0  0.01277  0.19014  0.27505  1.0000
  C   C138      1.0  0.17664  0.26450  0.15199  1.0000
  C   C139      1.0  0.09431  0.37644  0.07490  1.0000
  H   H244      1.0  0.15777  0.04336  0.22837  1.0000
  H   H245      1.0  0.16344  0.06991  0.27862  1.0000
  H   H246      1.0  0.00754  0.22346  0.41469  1.0000
  C   C140      1.0  0.18407  0.35609  0.99994  1.0000
  H   H247      1.0  0.04919  0.28076  0.47380  1.0000
  H   H248      1.0  0.12612  0.04490  0.24880  1.0000
  H   H249      1.0  0.13971  0.02167  0.24456  1.0000
  C   C141      1.0  0.18236  0.00598  0.30941  1.0000
  H   H250      1.0  0.07317  0.40215  0.06678  1.0000
  H   H251      1.0  0.07444  0.14326  0.43793  1.0000
  C   C142      1.0  0.13862  0.30685  0.08065  1.0000
  H   H252      1.0  0.17513  0.20972  0.28389  1.0000
  H   H253      1.0  0.18570  0.32449  0.04236  1.0000
  H   H254      1.0  0.14195  0.09713  0.26107  1.0000
  H   H255      1.0  0.16619  0.09992  0.25530  1.0000
  H   H256      1.0  0.15723  0.09256  0.23875  1.0000
  H   H257      1.0  0.18800  0.36959  0.99201  1.0000
  H   H258      1.0  0.17922  0.14926  0.31555  1.0000
  H   H259      1.0  0.18803  0.26869  0.98599  1.0000
  N   N9        1.0  0.13455  0.30099  0.17540  1.0000
  C   C143      1.0  0.11363  0.30292  0.17673  1.0000
  C   C144      1.0  0.14050  0.31946  0.16366  1.0000
  C   C145      1.0  0.14526  0.28537  0.16467  1.0000
  C   C146      1.0  0.13983  0.29571  0.19472  1.0000
  C   C147      1.0  0.12458  0.30254  0.21158  1.0000
  C   C148      1.0  0.10605  0.28404  0.18516  1.0000
  H   H260      1.0  0.07167  0.39353  0.09206  1.0000
  C   C149      1.0  0.12877  0.33826  0.16969  1.0000
  C   C150      1.0  0.13666  0.35565  0.15717  1.0000
  C   C151      1.0  0.13310  0.29885  0.22910  1.0000
  H   H261      1.0  0.08415  0.25816  0.23488  1.0000
  C   C152      1.0  0.07844  0.28215  0.45924  1.0000
  H   H262      1.0  0.11021  0.30869  0.16232  1.0000
  H   H263      1.0  0.05344  0.30494  0.46408  1.0000
  H   H264      1.0  0.14148  0.31262  0.09170  1.0000
  H   H265      1.0  0.12620  0.45879  0.33037  1.0000
  H   H266      1.0  0.11146  0.25440  0.45766  1.0000
  H   H267      1.0  0.17278  0.01398  0.25303  1.0000
  H   H268      1.0  0.13481  0.31583  0.05180  1.0000
  H   H269      1.0  0.15564  0.20013  0.30974  1.0000
  H   H270      1.0  0.16874  0.40850  0.25787  1.0000
  C   C153      1.0  0.01691  0.17024  0.36428  1.0000
  S   S39       1.0  0.18903  0.29901  0.10959  1.0000
  H   H271      1.0  0.01679  0.29933  0.18463  1.0000
  H   H272      1.0  0.15801  0.43318  0.27783  1.0000
  C   C154      1.0  0.11264  0.25373  0.47241  1.0000
  H   H273      1.0  0.12529  0.46883  0.11789  1.0000
  S   S40       1.0  0.18452  0.45290  0.14034  1.0000
  C   C155      1.0  0.19015  0.20279  0.28428  1.0000
  C   C156      1.0  0.11703  0.28687  0.46064  1.0000
  H   H274      1.0  0.00106  0.17511  0.31424  1.0000
  H   H275      1.0  0.02121  0.15339  0.28229  1.0000
  H   H276      1.0  0.01043  0.31899  0.19656  1.0000
  H   H277      1.0  0.18488  0.99053  0.31659  1.0000
  H   H278      1.0  0.16439  0.99484  0.19605  1.0000
  H   H279      1.0  0.17545  0.05503  0.22965  1.0000
  H   H280      1.0  0.00176  0.26478  0.23570  1.0000
  C   C157      1.0  0.17234  0.02933  0.25255  1.0000
  H   H281      1.0  0.17453  0.21836  0.31535  1.0000
  C   C158      1.0  0.17006  0.00946  0.29485  1.0000
  H   H282      1.0  0.17666  0.03753  0.28393  1.0000
  H   H283      1.0  0.14084  0.28832  0.47231  1.0000
  C   C159      1.0  0.99395  0.30763  0.28980  1.0000
  H   H284      1.0  0.18748  0.25190  0.43674  1.0000
  H   H285      1.0  0.17824  0.00155  0.28361  1.0000
  C   C160      1.0  0.18352  0.21772  0.34062  1.0000
  H   H286      1.0  0.99751  0.32205  0.28367  1.0000
  C   C161      1.0  0.17480  0.20881  0.32957  1.0000
  N   N10       1.0  0.18054  0.17823  0.31572  1.0000
  H   H287      1.0  0.99666  0.30036  0.20431  1.0000
  H   H288      1.0  0.18512  0.45970  0.25682  1.0000
  H   H289      1.0  0.18301  0.01607  0.21842  1.0000
  S   S41       1.0  0.18564  0.21113  0.42307  1.0000
  H   H290      1.0  0.18346  0.20888  0.35530  1.0000
  H   H291      1.0  0.18393  0.17956  0.34340  1.0000
  H   H292      1.0  0.99431  0.13229  0.32056  1.0000
  H   H293      1.0  0.17507  0.23235  0.34170  1.0000
  H   H294      1.0  0.18550  0.14628  0.37547  1.0000
  H   H295      1.0  0.99616  0.24025  0.27656  1.0000
  C   C162      1.0  0.99777  0.24258  0.26090  1.0000
  H   H296      1.0  0.99661  0.15359  0.29366  1.0000
  H   H297      1.0  0.18998  0.43099  0.25352  1.0000
  H   H298      1.0  0.99463  0.28206  0.28133  1.0000
  C   C163      1.0  0.18589  0.18800  0.32840  1.0000
  C   C164      1.0  0.18634  0.03019  0.21735  1.0000
  H   H299      1.0  0.18590  0.03884  0.20268  1.0000
  H   H300      1.0  0.14435  0.48469  0.14431  1.0000
  C   C165      1.0  0.17527  0.48352  0.27045  1.0000
  H   H301      1.0  0.13463  0.98767  0.19349  1.0000
  H   H302      1.0  0.18965  0.48323  0.27222  1.0000
  H   H303      1.0  0.99033  0.27328  0.25693  1.0000
  H   H304      1.0  0.08158  0.29628  0.47998  1.0000
  Fe  Fe22      1.0  0.14976  0.43981  0.79161  1.0000
  Fe  Fe23      1.0  0.01592  0.24477  0.71256  1.0000
  Fe  Fe24      1.0  0.15299  0.44912  0.82739  1.0000
  H   H305      1.0  0.16252  0.11155  0.64565  1.0000
  Fe  Fe25      1.0  0.11476  0.44775  0.82153  1.0000
  S   S42       1.0  0.08764  0.43784  0.83686  1.0000
  S   S43       1.0  0.14196  0.42591  0.82242  1.0000
  S   S44       1.0  0.16419  0.13033  0.72319  1.0000
  H   H306      1.0  0.00115  0.20073  0.71238  1.0000
  S   S45       1.0  0.15714  0.31107  0.94106  1.0000
  H   H307      1.0  0.11350  0.28806  0.49483  1.0000
  Fe  Fe26      1.0  0.14943  0.36650  0.93148  1.0000
  S   S46       1.0  0.12933  0.34986  0.95305  1.0000
  S   S47       1.0  0.14312  0.39829  0.92937  1.0000
  S   S48       1.0  0.17518  0.23195  0.56941  1.0000
  Fe  Fe27      1.0  0.13312  0.33367  0.93032  1.0000
  S   S49       1.0  0.10588  0.33114  0.92404  1.0000
  H   H308      1.0  0.00138  0.35412  0.80749  1.0000
  S   S50       1.0  0.15195  0.35160  0.90821  1.0000
  H   H309      1.0  0.04577  0.37263  0.75221  1.0000
  S   S51       1.0  0.08519  0.34653  0.79856  1.0000
  S   S52       1.0  0.05322  0.39706  0.79325  1.0000
  Fe  Fe28      1.0  0.07790  0.33038  0.82876  1.0000
  S   S53       1.0  0.10374  0.32280  0.84210  1.0000
  Fe  Fe29      1.0  0.07069  0.32760  0.79091  1.0000
  S   S54       1.0  0.08156  0.31801  0.76292  1.0000
  Fe  Fe30      1.0  0.14976  0.23063  0.59348  1.0000
  S   S55       1.0  0.15706  0.24980  0.60797  1.0000
  S   S56       1.0  0.14066  0.20329  0.61070  1.0000
  Fe  Fe31      1.0  0.15588  0.25707  0.55476  1.0000
  S   S57       1.0  0.16343  0.27865  0.56610  1.0000
  S   S58       1.0  0.15774  0.26492  0.52300  1.0000
  H   H310      1.0  0.99547  0.23638  0.68353  1.0000
  H   H311      1.0  0.17843  0.39120  0.83338  1.0000
  Fe  Fe32      1.0  0.13901  0.27341  0.59061  1.0000
  S   S59       1.0  0.12114  0.29908  0.60230  1.0000
  H   H312      1.0  0.18890  0.36893  0.89473  1.0000
  S   S60       1.0  0.12973  0.25411  0.57778  1.0000
  Fe  Fe33      1.0  0.05652  0.22605  0.69819  1.0000
  S   S61       1.0  0.03411  0.24638  0.68326  1.0000
  S   S62       1.0  0.07494  0.20219  0.68449  1.0000
  Fe  Fe34      1.0  0.04755  0.24734  0.72985  1.0000
  Fe  Fe35      1.0  0.04493  0.26905  0.68956  1.0000
  S   S63       1.0  0.04789  0.29709  0.66898  1.0000
  S   S64       1.0  0.03744  0.22246  0.72697  1.0000
  S   S65       1.0  0.06889  0.24893  0.70221  1.0000
  C   C166      1.0  0.11413  0.14362  0.77440  1.0000
  C   C167      1.0  0.00534  0.18896  0.75061  1.0000
  S   S66       1.0  0.15447  0.11619  0.68869  1.0000
  S   S67       1.0  0.04966  0.35032  0.83574  1.0000
  H   H313      1.0  0.07166  0.38951  0.96226  1.0000
  S   S68       1.0  0.16087  0.08510  0.72896  1.0000
  C   C168      1.0  0.16059  0.21961  0.49042  1.0000
  H   H314      1.0  0.09324  0.23528  0.76041  1.0000
  H   H315      1.0  0.11184  0.17819  0.73241  1.0000
  Fe  Fe36      1.0  0.14346  0.11472  0.72008  1.0000
  S   S69       1.0  0.11269  0.12442  0.73350  1.0000
  H   H316      1.0  0.18122  0.30030  0.50033  1.0000
  S   S70       1.0  0.12500  0.46981  0.82973  1.0000
  C   C169      1.0  0.10613  0.22054  0.47722  1.0000
  S   S71       1.0  0.01021  0.32043  0.83722  1.0000
  H   H317      1.0  0.03702  0.00859  0.67313  1.0000
  H   H318      1.0  0.17966  0.29524  0.90768  1.0000
  C   C170      1.0  0.03250  0.35219  0.74702  1.0000
  S   S72       1.0  0.13851  0.99796  0.69742  1.0000
  H   H319      1.0  0.04130  0.31937  0.73768  1.0000
  H   H320      1.0  0.18372  0.28914  0.96694  1.0000
  H   H321      1.0  0.08774  0.13605  0.77454  1.0000
  H   H322      1.0  0.02697  0.38357  0.73929  1.0000
  C   C171      1.0  0.11140  0.27357  0.49510  1.0000
  H   H323      1.0  0.11142  0.42210  0.89550  1.0000
  C   C172      1.0  0.15102  0.01661  0.69242  1.0000
  C   C173      1.0  0.16883  0.01588  0.68014  1.0000
  H   H324      1.0  0.10344  0.11746  0.78755  1.0000
  C   C174      1.0  0.99984  0.16473  0.70441  1.0000
  C   C175      1.0  0.15296  0.04720  0.69779  1.0000
  C   C176      1.0  0.14303  0.03242  0.70108  1.0000
  H   H325      1.0  0.18766  0.01067  0.71298  1.0000
  H   H326      1.0  0.18628  0.37366  0.50003  1.0000
  H   H327      1.0  0.14676  0.05927  0.70460  1.0000
  H   H328      1.0  0.12922  0.03313  0.71053  1.0000
  H   H329      1.0  0.10924  0.45681  0.88123  1.0000
  H   H330      1.0  0.10083  0.16955  0.78381  1.0000
  C   C177      1.0  0.13818  0.17278  0.78534  1.0000
  H   H331      1.0  0.16936  0.35692  0.53042  1.0000
  S   S73       1.0  0.04244  0.34771  0.79467  1.0000
  H   H332      1.0  0.10541  0.20516  0.74499  1.0000
  H   H333      1.0  0.17526  0.32593  0.87023  1.0000
  H   H334      1.0  0.15144  0.20189  0.51784  1.0000
  H   H335      1.0  0.05351  0.01991  0.65376  1.0000
  H   H336      1.0  0.06695  0.28748  0.79226  1.0000
  C   C178      1.0  0.13974  0.17124  0.76466  1.0000
  C   C179      1.0  0.08509  0.18097  0.69875  1.0000
  C   C180      1.0  0.07711  0.17517  0.71806  1.0000
  C   C181      1.0  0.08536  0.15754  0.72869  1.0000
  C   C182      1.0  0.10187  0.14608  0.72014  1.0000
  C   C183      1.0  0.10978  0.15211  0.70093  1.0000
  C   C184      1.0  0.10129  0.16934  0.69021  1.0000
  H   H337      1.0  0.06445  0.18404  0.72466  1.0000
  H   H338      1.0  0.07908  0.15288  0.74353  1.0000
  H   H339      1.0  0.12228  0.14338  0.69417  1.0000
  H   H340      1.0  0.10739  0.17374  0.67525  1.0000
  C   C185      1.0  0.15262  0.19204  0.62939  1.0000
  C   C186      1.0  0.17036  0.19549  0.62868  1.0000
  H   H341      1.0  0.00281  0.15605  0.69348  1.0000
  H   H342      1.0  0.17847  0.00746  0.77729  1.0000
  C   C187      1.0  0.15525  0.16779  0.65855  1.0000
  C   C188      1.0  0.14495  0.17841  0.64451  1.0000
  H   H343      1.0  0.05057  0.38326  0.86609  1.0000
  C   C189      1.0  0.17596  0.14844  0.60947  1.0000
  H   H344      1.0  0.14930  0.15720  0.67007  1.0000
  H   H345      1.0  0.13116  0.17582  0.64513  1.0000
  C   C190      1.0  0.10063  0.29757  0.62054  1.0000
  C   C191      1.0  0.09055  0.31433  0.62687  1.0000
  C   C192      1.0  0.07440  0.31395  0.64160  1.0000
  C   C193      1.0  0.06820  0.29675  0.65036  1.0000
  C   C194      1.0  0.07811  0.27990  0.64400  1.0000
  C   C195      1.0  0.09432  0.28032  0.62902  1.0000
  H   H346      1.0  0.09529  0.32772  0.62035  1.0000
  H   H347      1.0  0.06677  0.32704  0.64631  1.0000
  H   H348      1.0  0.07311  0.26665  0.65044  1.0000
  H   H349      1.0  0.10189  0.26739  0.62400  1.0000
  H   H350      1.0  0.15041  0.22604  0.53603  1.0000
  C   C196      1.0  0.07442  0.29751  0.76189  1.0000
  C   C197      1.0  0.07514  0.29402  0.74410  1.0000
  C   C198      1.0  0.06809  0.27860  0.74293  1.0000
  C   C199      1.0  0.06095  0.26620  0.75957  1.0000
  H   H351      1.0  0.08076  0.30355  0.73124  1.0000
  H   H352      1.0  0.06829  0.27626  0.72918  1.0000
  C   C200      1.0  0.10541  0.33029  0.90072  1.0000
  C   C201      1.0  0.12219  0.32591  0.88749  1.0000
  C   C202      1.0  0.12139  0.32404  0.86945  1.0000
  C   C203      1.0  0.10386  0.32684  0.86438  1.0000
  C   C204      1.0  0.08706  0.33197  0.87734  1.0000
  C   C205      1.0  0.08786  0.33353  0.89552  1.0000
  H   H353      1.0  0.13577  0.32330  0.89139  1.0000
  H   H354      1.0  0.13442  0.32002  0.85951  1.0000
  H   H355      1.0  0.07350  0.33410  0.87357  1.0000
  H   H356      1.0  0.07483  0.33687  0.90572  1.0000
  C   C206      1.0  0.16290  0.43293  0.87004  1.0000
  C   C207      1.0  0.15660  0.41609  0.87212  1.0000
  C   C208      1.0  0.15110  0.40505  0.89037  1.0000
  C   C209      1.0  0.15064  0.41151  0.90649  1.0000
  N   N11       1.0  0.17073  0.99063  0.75081  1.0000
  H   H357      1.0  0.03776  0.39321  0.88656  1.0000
  H   H358      1.0  0.15668  0.41119  0.85969  1.0000
  H   H359      1.0  0.14697  0.39173  0.89197  1.0000
  H   H360      1.0  0.08568  0.36538  0.96598  1.0000
  C   C210      1.0  0.12534  0.17420  0.73769  1.0000
  C   C211      1.0  0.07934  0.42631  0.82383  1.0000
  C   C212      1.0  0.07044  0.43710  0.80884  1.0000
  C   C213      1.0  0.06227  0.42806  0.79963  1.0000
  C   C214      1.0  0.06304  0.40821  0.80531  1.0000
  C   C215      1.0  0.07212  0.39738  0.82016  1.0000
  C   C216      1.0  0.08029  0.40643  0.82935  1.0000
  H   H361      1.0  0.06950  0.45248  0.80464  1.0000
  H   H362      1.0  0.05524  0.43648  0.78816  1.0000
  H   H363      1.0  0.07301  0.38201  0.82447  1.0000
  H   H364      1.0  0.08741  0.39792  0.84064  1.0000
  C   C217      1.0  0.15477  0.22913  0.52067  1.0000
  H   H365      1.0  0.11186  0.20908  0.64953  1.0000
  Fe  Fe37      1.0  0.03787  0.33104  0.82477  1.0000
  H   H366      1.0  0.05723  0.33031  0.68552  1.0000
  H   H367      1.0  0.17509  0.00382  0.67334  1.0000
  H   H368      1.0  0.12544  0.20663  0.75261  1.0000
  H   H369      1.0  0.08431  0.28101  0.51467  1.0000
  C   C218      1.0  0.99515  0.33518  0.73236  1.0000
  H   H370      1.0  0.99217  0.32398  0.77038  1.0000
  H   H371      1.0  0.15015  0.18010  0.75564  1.0000
  H   H372      1.0  0.99905  0.15406  0.71824  1.0000
  H   H373      1.0  0.08681  0.24297  0.48956  1.0000
  H   H374      1.0  0.05729  0.30800  0.70293  1.0000
  H   H375      1.0  0.09734  0.38552  0.95662  1.0000
  H   H376      1.0  0.03178  0.34732  0.70836  1.0000
  H   H377      1.0  0.10427  0.19702  0.78796  1.0000
  S   S74       1.0  0.16043  0.20286  0.47757  1.0000
  H   H378      1.0  0.07023  0.99803  0.67832  1.0000
  H   H379      1.0  0.99741  0.20396  0.74684  1.0000
  H   H380      1.0  0.15496  0.16397  0.80716  1.0000
  S   S75       1.0  0.16560  0.42102  0.77107  1.0000
  C   C219      1.0  0.06745  0.28498  0.77850  1.0000
  H   H381      1.0  0.11999  0.40678  0.87034  1.0000
  C   C220      1.0  0.15534  0.21551  0.51037  1.0000
  C   C221      1.0  0.01261  0.35023  0.74596  1.0000
  C   C222      1.0  0.06093  0.26923  0.77733  1.0000
  S   S76       1.0  0.06566  0.30958  0.82054  1.0000
  C   C223      1.0  0.16280  0.43921  0.88615  1.0000
  C   C224      1.0  0.01710  0.18815  0.68155  1.0000
  H   H382      1.0  0.12524  0.26357  0.49663  1.0000
  Fe  Fe38      1.0  0.13461  0.48029  0.79837  1.0000
  C   C225      1.0  0.03399  0.16072  0.70297  1.0000
  C   C226      1.0  0.04169  0.14804  0.68795  1.0000
  C   C227      1.0  0.03437  0.19798  0.67447  1.0000
  H   H383      1.0  0.99496  0.32200  0.72796  1.0000
  H   H384      1.0  0.14686  0.33638  0.58240  1.0000
  H   H385      1.0  0.15161  0.18966  0.69208  1.0000
  C   C228      1.0  0.06150  0.13606  0.68984  1.0000
  C   C229      1.0  0.03361  0.21194  0.65523  1.0000
  H   H386      1.0  0.01370  0.16280  0.74062  1.0000
  C   C230      1.0  0.17863  0.03076  0.67664  1.0000
  H   H387      1.0  0.01712  0.18029  0.67074  1.0000
  H   H388      1.0  0.99776  0.34609  0.71886  1.0000
  H   H389      1.0  0.08608  0.45867  0.87672  1.0000
  H   H390      1.0  0.18330  0.30140  0.62484  1.0000
  H   H391      1.0  0.02480  0.19231  0.71510  1.0000
  H   H392      1.0  0.04542  0.16804  0.70267  1.0000
  H   H393      1.0  0.03243  0.15060  0.71707  1.0000
  H   H394      1.0  0.04288  0.15676  0.67320  1.0000
  H   H395      1.0  0.03224  0.13797  0.68998  1.0000
  H   H396      1.0  0.03466  0.20622  0.68474  1.0000
  H   H397      1.0  0.04787  0.18722  0.67265  1.0000
  H   H398      1.0  0.12636  0.19053  0.69837  1.0000
  H   H399      1.0  0.00428  0.19988  0.68110  1.0000
  H   H400      1.0  0.04478  0.00053  0.65088  1.0000
  H   H401      1.0  0.16188  0.13517  0.64740  1.0000
  H   H402      1.0  0.16878  0.35378  0.58407  1.0000
  H   H403      1.0  0.18245  0.30155  0.52386  1.0000
  H   H404      1.0  0.12682  0.16591  0.79548  1.0000
  H   H405      1.0  0.07169  0.14558  0.68721  1.0000
  H   H406      1.0  0.06119  0.12665  0.70429  1.0000
  H   H407      1.0  0.06667  0.12684  0.67921  1.0000
  H   H408      1.0  0.04624  0.21867  0.65059  1.0000
  H   H409      1.0  0.03375  0.20423  0.64429  1.0000
  H   H410      1.0  0.02065  0.22353  0.65632  1.0000
  N   N12       1.0  0.01566  0.17519  0.70113  1.0000
  H   H411      1.0  0.16684  0.21673  0.87067  1.0000
  H   H412      1.0  0.17614  0.37326  0.60220  1.0000
  H   H413      1.0  0.18409  0.41701  0.80420  1.0000
  C   C231      1.0  0.18825  0.17499  0.58327  1.0000
  H   H414      1.0  0.13181  0.01425  0.75624  1.0000
  C   C232      1.0  0.08547  0.28145  0.47731  1.0000
  C   C233      1.0  0.12899  0.37835  0.86503  1.0000
  H   H415      1.0  0.12284  0.36596  0.86570  1.0000
  C   C234      1.0  0.00371  0.28176  0.64836  1.0000
  S   S77       1.0  0.12173  0.46016  0.79017  1.0000
  H   H416      1.0  0.08541  0.20261  0.77539  1.0000
  H   H417      1.0  0.16766  0.45225  0.88454  1.0000
  H   H418      1.0  0.13650  0.20056  0.72250  1.0000
  Fe  Fe39      1.0  0.18260  0.10107  0.72918  1.0000
  C   C235      1.0  0.99153  0.34495  0.80957  1.0000
  H   H419      1.0  0.99309  0.25753  0.75221  1.0000
  H   H420      1.0  0.00621  0.28259  0.63283  1.0000
  S   S78       1.0  0.16339  0.46110  0.79657  1.0000
  H   H421      1.0  0.17426  0.31364  0.57325  1.0000
  H   H422      1.0  0.05550  0.25962  0.79024  1.0000
  H   H423      1.0  0.14426  0.33514  0.54213  1.0000
  H   H424      1.0  0.02142  0.37364  0.76462  1.0000
  C   C236      1.0  0.18910  0.35998  0.86068  1.0000
  C   C237      1.0  0.01575  0.29452  0.79107  1.0000
  H   H425      1.0  0.18127  0.38733  0.51816  1.0000
  H   H426      1.0  0.02784  0.30653  0.73166  1.0000
  C   C238      1.0  0.10239  0.23795  0.48606  1.0000
  C   C239      1.0  0.15620  0.42876  0.90437  1.0000
  H   H427      1.0  0.11150  0.22935  0.77409  1.0000
  Fe  Fe40      1.0  0.17637  0.12984  0.69246  1.0000
  C   C240      1.0  0.17194  0.23669  0.65167  1.0000
  H   H428      1.0  0.13843  0.14902  0.62671  1.0000
  Fe  Fe41      1.0  0.17363  0.08796  0.69776  1.0000
  H   H429      1.0  0.16825  0.17076  0.78341  1.0000
  S   S79       1.0  0.05234  0.24661  0.75852  1.0000
  H   H430      1.0  0.08097  0.38097  0.87405  1.0000
  C   C241      1.0  0.17883  0.43484  0.75193  1.0000
  H   H431      1.0  0.09446  0.16914  0.76282  1.0000
  C   C242      1.0  0.01995  0.31184  0.77515  1.0000
  H   H432      1.0  0.13544  0.38393  0.84997  1.0000
  C   C243      1.0  0.09673  0.26879  0.51388  1.0000
  C   C244      1.0  0.10527  0.26562  0.53128  1.0000
  H   H433      1.0  0.01918  0.28141  0.78519  1.0000
  C   C245      1.0  0.18725  0.34783  0.84745  1.0000
  S   S80       1.0  0.17181  0.44570  0.84742  1.0000
  C   C246      1.0  0.16523  0.25070  0.49110  1.0000
  C   C247      1.0  0.99278  0.32765  0.82318  1.0000
  H   H434      1.0  0.16920  0.22713  0.64399  1.0000
  C   C248      1.0  0.17081  0.04638  0.68555  1.0000
  H   H435      1.0  0.07791  0.99020  0.65617  1.0000
  H   H436      1.0  0.09147  0.25578  0.51502  1.0000
  H   H437      1.0  0.11088  0.27830  0.53084  1.0000
  H   H438      1.0  0.09425  0.26330  0.54451  1.0000
  H   H439      1.0  0.11700  0.25273  0.53186  1.0000
  H   H440      1.0  0.17399  0.18022  0.57961  1.0000
  N   N13       1.0  0.13684  0.24464  0.66931  1.0000
  C   C249      1.0  0.15740  0.23718  0.67080  1.0000
  C   C250      1.0  0.12417  0.24430  0.68891  1.0000
  C   C251      1.0  0.13158  0.23123  0.66027  1.0000
  C   C252      1.0  0.13357  0.26456  0.65673  1.0000
  C   C253      1.0  0.14008  0.28038  0.66192  1.0000
  N   N14       1.0  0.17862  0.12796  0.62088  1.0000
  C   C254      1.0  0.10998  0.23325  0.66185  1.0000
  C   C255      1.0  0.13190  0.24884  0.70424  1.0000
  C   C256      1.0  0.11602  0.25249  0.72143  1.0000
  C   C257      1.0  0.13896  0.29868  0.64622  1.0000
  H   H441      1.0  0.10794  0.23292  0.49940  1.0000
  C   C258      1.0  0.10615  0.22482  0.64699  1.0000
  H   H442      1.0  0.15922  0.22233  0.67980  1.0000
  H   H443      1.0  0.16204  0.24576  0.67818  1.0000
  H   H444      1.0  0.11018  0.25422  0.68777  1.0000
  H   H445      1.0  0.12090  0.22973  0.69535  1.0000
  H   H446      1.0  0.13716  0.21589  0.66657  1.0000
  H   H447      1.0  0.13839  0.23316  0.64492  1.0000
  H   H448      1.0  0.14038  0.26413  0.64165  1.0000
  H   H449      1.0  0.11826  0.27009  0.65651  1.0000
  H   H450      1.0  0.15495  0.27587  0.66384  1.0000
  H   H451      1.0  0.13053  0.28429  0.67507  1.0000
  H   H452      1.0  0.00528  0.24122  0.77012  1.0000
  H   H453      1.0  0.17135  0.25132  0.64243  1.0000
  H   H454      1.0  0.10239  0.24837  0.66007  1.0000
  H   H455      1.0  0.10361  0.22554  0.67613  1.0000
  H   H456      1.0  0.14285  0.23636  0.70928  1.0000
  H   H457      1.0  0.13852  0.26154  0.69884  1.0000
  H   H458      1.0  0.10555  0.26585  0.71732  1.0000
  H   H459      1.0  0.10858  0.24028  0.72711  1.0000
  H   H460      1.0  0.12200  0.25428  0.73285  1.0000
  H   H461      1.0  0.14811  0.29574  0.63248  1.0000
  H   H462      1.0  0.12411  0.30451  0.64431  1.0000
  H   H463      1.0  0.14390  0.30977  0.65011  1.0000
  C   C259      1.0  0.99415  0.25438  0.76734  1.0000
  Fe  Fe42      1.0  0.15528  0.32944  0.96147  1.0000
  H   H464      1.0  0.02468  0.32880  0.70200  1.0000
  H   H465      1.0  0.11265  0.23171  0.63238  1.0000
  H   H466      1.0  0.09061  0.22738  0.64799  1.0000
  N   N15       1.0  0.08594  0.39944  0.90192  1.0000
  C   C260      1.0  0.08335  0.42039  0.89191  1.0000
  C   C261      1.0  0.06988  0.39130  0.90054  1.0000
  C   C262      1.0  0.08439  0.39874  0.92272  1.0000
  C   C263      1.0  0.10491  0.38761  0.89421  1.0000
  C   C264      1.0  0.11357  0.39417  0.87267  1.0000
  C   C265      1.0  0.05448  0.32388  0.70103  1.0000
  C   C266      1.0  0.08505  0.37871  0.93635  1.0000
  C   C267      1.0  0.06844  0.39099  0.88031  1.0000
  C   C268      1.0  0.00483  0.17729  0.73674  1.0000
  C   C269      1.0  0.05097  0.38360  0.88079  1.0000
  H   H467      1.0  0.15442  0.17877  0.72523  1.0000
  C   C270      1.0  0.08492  0.37994  0.95653  1.0000
  H   H468      1.0  0.06865  0.42818  0.89695  1.0000
  C   C271      1.0  0.10686  0.16579  0.76974  1.0000
  H   H469      1.0  0.07126  0.37600  0.90826  1.0000
  H   H470      1.0  0.05602  0.39922  0.90748  1.0000
  H   H471      1.0  0.07102  0.40841  0.92826  1.0000
  H   H472      1.0  0.09625  0.40419  0.92453  1.0000
  H   H473      1.0  0.11580  0.38737  0.90205  1.0000
  H   H474      1.0  0.10398  0.37222  0.89707  1.0000
  H   H475      1.0  0.10293  0.39851  0.86368  1.0000
  Fe  Fe43      1.0  0.05650  0.36515  0.80494  1.0000
  H   H476      1.0  0.09155  0.43657  0.90810  1.0000
  C   C272      1.0  0.17352  0.17032  0.65715  1.0000
  H   H477      1.0  0.09814  0.36856  0.93141  1.0000
  H   H478      1.0  0.07254  0.37277  0.93737  1.0000
  H   H479      1.0  0.06440  0.32772  0.70751  1.0000
  H   H480      1.0  0.06729  0.40553  0.87091  1.0000
  C   C273      1.0  0.17182  0.33612  0.85699  1.0000
  H   H481      1.0  0.16661  0.41118  0.72453  1.0000
  H   H482      1.0  0.02460  0.29207  0.80172  1.0000
  H   H483      1.0  0.11216  0.13336  0.64550  1.0000
  H   H484      1.0  0.17287  0.01996  0.74798  1.0000
  H   H485      1.0  0.14030  0.37351  0.87335  1.0000
  C   C274      1.0  0.03153  0.37172  0.75103  1.0000
  C   C275      1.0  0.18086  0.18454  0.64249  1.0000
  H   H486      1.0  0.17003  0.12089  0.59852  1.0000
  C   C276      1.0  0.16580  0.23709  0.48089  1.0000
  H   H487      1.0  0.16686  0.26422  0.96809  1.0000
  H   H488      1.0  0.12410  0.13958  0.78422  1.0000
  H   H489      1.0  0.08439  0.42223  0.87649  1.0000
  N   N16       1.0  0.12138  0.17750  0.75766  1.0000
  H   H490      1.0  0.17634  0.32364  0.54874  1.0000
  H   H491      1.0  0.15591  0.43377  0.91682  1.0000
  H   H492      1.0  0.18616  0.26030  0.90865  1.0000
  H   H493      1.0  0.12600  0.13624  0.66061  1.0000
  H   H494      1.0  0.16227  0.39067  0.71852  1.0000
  H   H495      1.0  0.00060  0.29696  0.79835  1.0000
  H   H496      1.0  0.07665  0.27312  0.48944  1.0000
  H   H497      1.0  0.17590  0.37126  0.86239  1.0000
  C   C277      1.0  0.09995  0.44886  0.87833  1.0000
  Fe  Fe44      1.0  0.18068  0.25346  0.58254  1.0000
  C   C278      1.0  0.01179  0.18727  0.71571  1.0000
  C   C279      1.0  0.15943  0.24689  0.51098  1.0000
  H   H498      1.0  0.14106  0.12601  0.62112  1.0000
  H   H499      1.0  0.17201  0.23497  0.87952  1.0000
  H   H500      1.0  0.18880  0.10634  0.65808  1.0000
  C   C280      1.0  0.16169  0.12665  0.63730  1.0000
  C   C281      1.0  0.13987  0.18502  0.72252  1.0000
  C   C282      1.0  0.09775  0.13321  0.78414  1.0000
  C   C283      1.0  0.11356  0.19884  0.75660  1.0000
  H   H501      1.0  0.12172  0.13789  0.76160  1.0000
  H   H502      1.0  0.12479  0.34034  0.56158  1.0000
  H   H503      1.0  0.09943  0.20904  0.48758  1.0000
  H   H504      1.0  0.99875  0.18236  0.76530  1.0000
  H   H505      1.0  0.17420  0.15842  0.61891  1.0000
  C   C284      1.0  0.18824  0.36110  0.60492  1.0000
  H   H506      1.0  0.15134  0.35456  0.56122  1.0000
  H   H507      1.0  0.04275  0.35126  0.73334  1.0000
  H   H508      1.0  0.18328  0.35006  0.61741  1.0000
  H   H509      1.0  0.15638  0.46012  0.75053  1.0000
  H   H510      1.0  0.18924  0.18303  0.59346  1.0000
  C   C285      1.0  0.17087  0.45394  0.74457  1.0000
  C   C286      1.0  0.09724  0.43143  0.89459  1.0000
  H   H511      1.0  0.00256  0.35353  0.75923  1.0000
  H   H512      1.0  0.14299  0.16777  0.70186  1.0000
  C   C287      1.0  0.03391  0.33154  0.71008  1.0000
  H   H513      1.0  0.01876  0.32396  0.78185  1.0000
  H   H514      1.0  0.17531  0.47965  0.72335  1.0000
  H   H515      1.0  0.15728  0.41440  0.70370  1.0000
  C   C288      1.0  0.14016  0.18313  0.70252  1.0000
  H   H516      1.0  0.17354  0.10133  0.61795  1.0000
  H   H517      1.0  0.17142  0.23896  0.85472  1.0000
  C   C289      1.0  0.16250  0.01194  0.74722  1.0000
  C   C290      1.0  0.14319  0.01869  0.76001  1.0000
  C   C291      1.0  0.09974  0.20507  0.77453  1.0000
  C   C292      1.0  0.14180  0.13321  0.63211  1.0000
  N   N17       1.0  0.01095  0.33131  0.74295  1.0000
  C   C293      1.0  0.13813  0.04062  0.75681  1.0000
  H   H518      1.0  0.13978  0.31681  0.56349  1.0000
  H   H519      1.0  0.10694  0.44408  0.86481  1.0000
  C   C294      1.0  0.18471  0.35626  0.52876  1.0000
  C   C295      1.0  0.15702  0.40620  0.71861  1.0000
  H   H520      1.0  0.99861  0.26655  0.76985  1.0000
  H   H521      1.0  0.13523  0.18813  0.78606  1.0000
  C   C296      1.0  0.02886  0.32142  0.73136  1.0000
  C   C297      1.0  0.00580  0.31765  0.76173  1.0000
  H   H522      1.0  0.00948  0.26680  0.65530  1.0000
  H   H523      1.0  0.16018  0.01729  0.73242  1.0000
  H   H524      1.0  0.14326  0.01290  0.77534  1.0000
  H   H525      1.0  0.08695  0.23068  0.78598  1.0000
  H   H526      1.0  0.13080  0.15877  0.73742  1.0000
  H   H527      1.0  0.03474  0.30788  0.76761  1.0000
  S   S81       1.0  0.18787  0.15511  0.67276  1.0000
  C   C298      1.0  0.15674  0.16320  0.79210  1.0000
  H   H528      1.0  0.12847  0.11285  0.65574  1.0000
  H   H529      1.0  0.17928  0.36874  0.55299  1.0000
  H   H530      1.0  0.14872  0.04602  0.76089  1.0000
  H   H531      1.0  0.13760  0.04724  0.74163  1.0000
  H   H532      1.0  0.12396  0.04520  0.76567  1.0000
  S   S82       1.0  0.02454  0.26954  0.71769  1.0000
  H   H533      1.0  0.00354  0.30430  0.75914  1.0000
  H   H534      1.0  0.14668  0.15624  0.76311  1.0000
  H   H535      1.0  0.18891  0.37791  0.64933  1.0000
  H   H536      1.0  0.03839  0.34080  0.75827  1.0000
  C   C299      1.0  0.17944  0.11403  0.60895  1.0000
  N   N18       1.0  0.11636  0.39921  0.76435  1.0000
  C   C300      1.0  0.10290  0.41817  0.75944  1.0000
  C   C301      1.0  0.10724  0.38324  0.76432  1.0000
  C   C302      1.0  0.11875  0.39682  0.78445  1.0000
  C   C303      1.0  0.13574  0.39803  0.75120  1.0000
  C   C304      1.0  0.13678  0.40980  0.73037  1.0000
  C   C305      1.0  0.10790  0.43576  0.76311  1.0000
  C   C306      1.0  0.12953  0.37686  0.79362  1.0000
  C   C307      1.0  0.10242  0.38335  0.74533  1.0000
  C   C308      1.0  0.09128  0.36780  0.74804  1.0000
  Fe  Fe45      1.0  0.17564  0.33050  0.92055  1.0000
  C   C309      1.0  0.09670  0.45466  0.75335  1.0000
  C   C310      1.0  0.13439  0.37743  0.81211  1.0000
  H   H537      1.0  0.08827  0.41732  0.76783  1.0000
  H   H538      1.0  0.10148  0.42149  0.74441  1.0000
  H   H539      1.0  0.11656  0.36894  0.76820  1.0000
  H   H540      1.0  0.09387  0.38339  0.77544  1.0000
  H   H541      1.0  0.10466  0.39978  0.79406  1.0000
  H   H542      1.0  0.12648  0.40760  0.78505  1.0000
  H   H543      1.0  0.14549  0.40302  0.75691  1.0000
  H   H544      1.0  0.14255  0.38276  0.75074  1.0000
  H   H545      1.0  0.13258  0.42545  0.73000  1.0000
  H   H546      1.0  0.12733  0.40627  0.72321  1.0000
  H   H547      1.0  0.10411  0.43531  0.77864  1.0000
  H   H548      1.0  0.12330  0.43573  0.75815  1.0000
  H   H549      1.0  0.14294  0.37200  0.78382  1.0000
  H   H550      1.0  0.12051  0.36602  0.79735  1.0000
  H   H551      1.0  0.09358  0.39725  0.73960  1.0000
  H   H552      1.0  0.11568  0.38012  0.73469  1.0000
  H   H553      1.0  0.09968  0.35333  0.75319  1.0000
  H   H554      1.0  0.07766  0.37035  0.75848  1.0000
  H   H555      1.0  0.08801  0.36799  0.73429  1.0000
  H   H556      1.0  0.05157  0.36877  0.88963  1.0000
  C   C311      1.0  0.18234  0.26236  0.96195  1.0000
  H   H557      1.0  0.17638  0.20600  0.61703  1.0000
  H   H558      1.0  0.10017  0.46691  0.75678  1.0000
  H   H559      1.0  0.10044  0.45620  0.73765  1.0000
  H   H560      1.0  0.08120  0.45526  0.75846  1.0000
  H   H561      1.0  0.12127  0.38236  0.82227  1.0000
  H   H562      1.0  0.14127  0.36279  0.81885  1.0000
  H   H563      1.0  0.14431  0.38726  0.80920  1.0000
  C   C312      1.0  0.09781  0.22639  0.77362  1.0000
  H   H564      1.0  0.16927  0.26424  0.48358  1.0000
  C   C313      1.0  0.12621  0.12857  0.64960  1.0000
  C   C314      1.0  0.04924  0.00600  0.66117  1.0000
  H   H565      1.0  0.01151  0.29165  0.65056  1.0000
  H   H566      1.0  0.16787  0.98653  0.80852  1.0000
  C   C315      1.0  0.17340  0.32766  0.56267  1.0000
  H   H567      1.0  0.16090  0.14780  0.79125  1.0000
  H   H568      1.0  0.09001  0.13788  0.79758  1.0000
  C   C316      1.0  0.15248  0.33885  0.56674  1.0000
  H   H569      1.0  0.16277  0.15251  0.60378  1.0000
  H   H570      1.0  0.00811  0.36237  0.73434  1.0000
  C   C317      1.0  0.13963  0.33235  0.55788  1.0000
  S   S83       1.0  0.17518  0.34740  0.94144  1.0000
  H   H571      1.0  0.18877  0.35045  0.87509  1.0000
  C   C318      1.0  0.06598  0.99168  0.66858  1.0000
  C   C319      1.0  0.18159  0.46500  0.72927  1.0000
  H   H572      1.0  0.18595  0.12984  0.75158  1.0000
  H   H573      1.0  0.17077  0.32767  0.84717  1.0000
  S   S84       1.0  0.18379  0.06453  0.68103  1.0000
  H   H574      1.0  0.18432  0.26750  0.94627  1.0000
  C   C320      1.0  0.18258  0.34331  0.58272  1.0000
  H   H575      1.0  0.18108  0.27798  0.60743  1.0000
  C   C321      1.0  0.18413  0.99177  0.77926  1.0000
  H   H576      1.0  0.15782  0.34566  0.86054  1.0000
  H   H577      1.0  0.18893  0.24681  0.96531  1.0000
  H   H578      1.0  0.02025  0.18909  0.75037  1.0000
  C   C322      1.0  0.17540  0.22792  0.86726  1.0000
  H   H579      1.0  0.18352  0.35733  0.83405  1.0000
  H   H580      1.0  0.18467  0.04150  0.75818  1.0000
  H   H581      1.0  0.18034  0.33043  0.59435  1.0000
  N   N19       1.0  0.18806  0.33796  0.56351  1.0000
  N   N20       1.0  0.10642  0.27356  0.47669  1.0000
  C   C323      1.0  0.19009  0.30308  0.50875  1.0000
  H   H582      1.0  0.18200  0.98876  0.71175  1.0000
  H   H583      1.0  0.15302  0.98906  0.73261  1.0000
  C   C324      1.0  0.18961  0.37387  0.51363  1.0000
  C   C325      1.0  0.18921  0.35604  0.54805  1.0000
  H   H584      1.0  0.19005  0.08271  0.59163  1.0000
  H   H585      1.0  0.18993  0.10440  0.57302  1.0000
  H   H586      1.0  0.11556  0.83170  0.35718  1.0000
  S   S85       1.0  0.03059  0.85481  0.29219  1.0000
  C   C326      1.0  0.08562  0.70229  0.15350  1.0000
  S   S86       1.0  0.03801  0.84908  0.33518  1.0000
  H   H587      1.0  0.16473  0.48853  0.28260  1.0000
  S   S87       1.0  0.14780  0.50219  0.21316  1.0000
  H   H588      1.0  0.16092  0.84384  0.46572  1.0000
  Fe  Fe46      1.0  0.17242  0.60193  0.19672  1.0000
  S   S88       1.0  0.15217  0.60240  0.22486  1.0000
  C   C327      1.0  0.11370  0.97092  0.25380  1.0000
  H   H589      1.0  0.17623  0.80181  0.06175  1.0000
  S   S89       1.0  0.15218  0.64843  0.21639  1.0000
  H   H590      1.0  0.05693  0.78538  0.42486  1.0000
  Fe  Fe47      1.0  0.17004  0.62075  0.22888  1.0000
  H   H591      1.0  0.04470  0.76343  0.37075  1.0000
  Fe  Fe48      1.0  0.13635  0.63018  0.20955  1.0000
  S   S90       1.0  0.10503  0.63776  0.20921  1.0000
  H   H592      1.0  0.17995  0.71311  0.39969  1.0000
  S   S91       1.0  0.15529  0.62839  0.18094  1.0000
  Fe  Fe49      1.0  0.03869  0.73570  0.21585  1.0000
  H   H593      1.0  0.12498  0.85326  0.37654  1.0000
  S   S92       1.0  0.05631  0.71402  0.23571  1.0000
  Fe  Fe50      1.0  0.03700  0.75535  0.17515  1.0000
  S   S93       1.0  0.04835  0.75311  0.14439  1.0000
  S   S94       1.0  0.05259  0.75911  0.19548  1.0000
  S   S95       1.0  0.17868  0.61704  0.25668  1.0000
  S   S96       1.0  0.15792  0.77705  0.05070  1.0000
  H   H594      1.0  0.04985  0.91088  0.42389  1.0000
  Fe  Fe51      1.0  0.17354  0.72341  0.07202  1.0000
  S   S97       1.0  0.14325  0.73650  0.06928  1.0000
  H   H595      1.0  0.17867  0.87512  0.29031  1.0000
  Fe  Fe52      1.0  0.15636  0.75181  0.04023  1.0000
  S   S98       1.0  0.14394  0.75957  0.01382  1.0000
  Fe  Fe53      1.0  0.14726  0.76057  0.07990  1.0000
  S   S99       1.0  0.12734  0.77649  0.10188  1.0000
  Fe  Fe54      1.0  0.12104  0.97962  0.31815  1.0000
  C   C328      1.0  0.18847  0.72446  0.39560  1.0000
  H   H596      1.0  0.18518  0.69862  0.42949  1.0000
  Fe  Fe55      1.0  0.14057  0.79059  0.44906  1.0000
  S   S100      1.0  0.11249  0.80484  0.46449  1.0000
  S   S101      1.0  0.15475  0.75991  0.45871  1.0000
  Fe  Fe56      1.0  0.14689  0.82662  0.42019  1.0000
  S   S102      1.0  0.11982  0.84432  0.43325  1.0000
  S   S103      1.0  0.16552  0.83828  0.39292  1.0000
  Fe  Fe57      1.0  0.12755  0.82854  0.46121  1.0000
  H   H597      1.0  0.00790  0.76843  0.29040  1.0000
  Fe  Fe58      1.0  0.10694  0.81944  0.43522  1.0000
  S   S104      1.0  0.07840  0.82719  0.42665  1.0000
  S   S105      1.0  0.15603  0.81324  0.44792  1.0000
  S   S106      1.0  0.13368  0.80276  0.42011  1.0000
  C   C329      1.0  0.07710  0.91266  0.38802  1.0000
  S   S107      1.0  0.08432  0.80939  0.34658  1.0000
  S   S108      1.0  0.07438  0.84474  0.29971  1.0000
  C   C330      1.0  0.06719  0.90514  0.29913  1.0000
  C   C331      1.0  0.06826  0.92076  0.30584  1.0000
  H   H598      1.0  0.11481  0.88656  0.44047  1.0000
  H   H599      1.0  0.05573  0.92807  0.31431  1.0000
  H   H600      1.0  0.08642  0.93830  0.30777  1.0000
  C   C332      1.0  0.15755  0.86319  0.38738  1.0000
  C   C333      1.0  0.15091  0.87352  0.40184  1.0000
  C   C334      1.0  0.14260  0.89313  0.39758  1.0000
  C   C335      1.0  0.14060  0.90230  0.37894  1.0000
  C   C336      1.0  0.14755  0.89198  0.36446  1.0000
  C   C337      1.0  0.15634  0.87252  0.36862  1.0000
  H   H601      1.0  0.15198  0.86635  0.41635  1.0000
  H   H602      1.0  0.13732  0.90109  0.40879  1.0000
  H   H603      1.0  0.14556  0.89875  0.35022  1.0000
  C   C338      1.0  0.10679  0.71184  0.99830  1.0000
  C   C339      1.0  0.07954  0.82204  0.40462  1.0000
  C   C340      1.0  0.09231  0.80601  0.39899  1.0000
  C   C341      1.0  0.09326  0.80208  0.38135  1.0000
  C   C342      1.0  0.08178  0.81438  0.36901  1.0000
  C   C343      1.0  0.06899  0.83049  0.37458  1.0000
  C   C344      1.0  0.06766  0.83415  0.39250  1.0000
  H   H604      1.0  0.10128  0.79643  0.40838  1.0000
  H   H605      1.0  0.10310  0.78955  0.37715  1.0000
  H   H606      1.0  0.06043  0.84030  0.36496  1.0000
  H   H607      1.0  0.05777  0.84661  0.39676  1.0000
  C   C345      1.0  0.13831  0.93554  0.23684  1.0000
  H   H608      1.0  0.17881  0.64866  0.14649  1.0000
  H   H609      1.0  0.09470  0.69409  0.17981  1.0000
  S   S109      1.0  0.12815  0.92617  0.37434  1.0000
  H   H610      1.0  0.11730  0.96517  0.20014  1.0000
  C   C346      1.0  0.15101  0.74566  0.99634  1.0000
  C   C347      1.0  0.16029  0.72634  0.00002  1.0000
  C   C348      1.0  0.16584  0.71592  0.98548  1.0000
  H   H611      1.0  0.08249  0.88412  0.28242  1.0000
  C   C349      1.0  0.08334  0.89586  0.28801  1.0000
  H   H612      1.0  0.04055  0.80979  0.40100  1.0000
  H   H613      1.0  0.16314  0.71945  0.01405  1.0000
  H   H614      1.0  0.17533  0.89567  0.23096  1.0000
  C   C350      1.0  0.17598  0.55448  0.19334  1.0000
  H   H615      1.0  0.08624  0.71339  0.14007  1.0000
  C   C351      1.0  0.07069  0.75897  0.13316  1.0000
  C   C352      1.0  0.07853  0.76990  0.14055  1.0000
  C   C353      1.0  0.09590  0.77520  0.13080  1.0000
  C   C354      1.0  0.10576  0.76925  0.11386  1.0000
  C   C355      1.0  0.09817  0.75790  0.10674  1.0000
  C   C356      1.0  0.08058  0.75296  0.11626  1.0000
  H   H616      1.0  0.07095  0.77475  0.15347  1.0000
  H   H617      1.0  0.10169  0.78401  0.13637  1.0000
  H   H618      1.0  0.10560  0.75333  0.09364  1.0000
  H   H619      1.0  0.07457  0.74454  0.11045  1.0000
  H   H620      1.0  0.10235  0.94777  0.18490  1.0000
  C   C357      1.0  0.17022  0.82841  0.04180  1.0000
  H   H621      1.0  0.16040  0.89635  0.28535  1.0000
  C   C358      1.0  0.02921  0.78565  0.42007  1.0000
  H   H622      1.0  0.18540  0.69715  0.19888  1.0000
  H   H623      1.0  0.10303  0.84741  0.07727  1.0000
  H   H624      1.0  0.12142  0.72327  0.17468  1.0000
  H   H625      1.0  0.16245  0.78847  0.10262  1.0000
  H   H626      1.0  0.06995  0.94356  0.35819  1.0000
  H   H627      1.0  0.15573  0.82622  0.04314  1.0000
  C   C359      1.0  0.09171  0.65893  0.21675  1.0000
  C   C360      1.0  0.09719  0.66615  0.22954  1.0000
  C   C361      1.0  0.08613  0.68297  0.23544  1.0000
  C   C362      1.0  0.06986  0.69293  0.22816  1.0000
  C   C363      1.0  0.06444  0.68574  0.21534  1.0000
  C   C364      1.0  0.07516  0.66861  0.20992  1.0000
  H   H628      1.0  0.10976  0.65862  0.23512  1.0000
  H   H629      1.0  0.09032  0.68837  0.24549  1.0000
  H   H630      1.0  0.05173  0.69313  0.20996  1.0000
  H   H631      1.0  0.07070  0.66293  0.20027  1.0000
  C   C365      1.0  0.15957  0.52166  0.20577  1.0000
  C   C366      1.0  0.15360  0.53634  0.21601  1.0000
  C   C367      1.0  0.16184  0.55264  0.20988  1.0000
  H   H632      1.0  0.07962  0.72491  0.99057  1.0000
  H   H633      1.0  0.03707  0.79270  0.44323  1.0000
  C   C368      1.0  0.17411  0.52322  0.18953  1.0000
  H   H634      1.0  0.14255  0.53510  0.22874  1.0000
  H   H635      1.0  0.15720  0.56380  0.21791  1.0000
  Fe  Fe59      1.0  0.99998  0.75346  0.20463  1.0000
  C   C369      1.0  0.11125  0.96282  0.23764  1.0000
  C   C370      1.0  0.02766  0.88522  0.43967  1.0000
  C   C371      1.0  0.06551  0.80817  0.23301  1.0000
  H   H636      1.0  0.08079  0.80394  0.22900  1.0000
  H   H637      1.0  0.01961  0.77423  0.08551  1.0000
  Fe  Fe60      1.0  0.02322  0.83573  0.32107  1.0000
  H   H638      1.0  0.11039  0.84349  0.39844  1.0000
  C   C372      1.0  0.18113  0.95035  0.26494  1.0000
  H   H639      1.0  0.02601  0.89515  0.44910  1.0000
  C   C373      1.0  0.09711  0.70531  0.16658  1.0000
  C   C374      1.0  0.10174  0.91719  0.29114  1.0000
  S   S110      1.0  0.15182  0.92810  0.31918  1.0000
  Fe  Fe61      1.0  0.12768  0.94228  0.30422  1.0000
  C   C375      1.0  0.05458  0.89919  0.41580  1.0000
  S   S111      1.0  0.12372  0.92384  0.28638  1.0000
  H   H640      1.0  0.01805  0.89184  0.42946  1.0000
  C   C376      1.0  0.03424  0.81057  0.22755  1.0000
  C   C377      1.0  0.04827  0.88070  0.42905  1.0000
  H   H641      1.0  0.02343  0.87171  0.44862  1.0000
  Fe  Fe62      1.0  0.02560  0.77909  0.20579  1.0000
  C   C378      1.0  0.18163  0.66699  0.11834  1.0000
  C   C379      1.0  0.17101  0.84437  0.07564  1.0000
  C   C380      1.0  0.14838  0.82230  0.08426  1.0000
  H   H642      1.0  0.18149  0.73226  0.42366  1.0000
  H   H643      1.0  0.14637  0.80954  0.08031  1.0000
  C   C381      1.0  0.00125  0.76656  0.11302  1.0000
  H   H644      1.0  0.01729  0.70163  0.15042  1.0000
  C   C382      1.0  0.13324  0.83984  0.07718  1.0000
  C   C383      1.0  0.11376  0.83456  0.08196  1.0000
  H   H645      1.0  0.05084  0.79025  0.38055  1.0000
  H   H646      1.0  0.99926  0.76599  0.08450  1.0000
  H   H647      1.0  0.16490  0.84892  0.08947  1.0000
  H   H648      1.0  0.16265  0.85466  0.06550  1.0000
  H   H649      1.0  0.10070  0.85292  0.37733  1.0000
  H   H650      1.0  0.02040  0.81602  0.41853  1.0000
  H   H651      1.0  0.01002  0.75178  0.11528  1.0000
  H   H652      1.0  0.11212  0.73430  0.14459  1.0000
  Fe  Fe63      1.0  0.18698  0.76085  0.05495  1.0000
  S   S112      1.0  0.17658  0.74628  0.08500  1.0000
  H   H653      1.0  0.01490  0.84628  0.40315  1.0000
  C   C384      1.0  0.18535  0.77976  0.11722  1.0000
  H   H654      1.0  0.13193  0.85165  0.08434  1.0000
  H   H655      1.0  0.17697  0.83047  0.01123  1.0000
  H   H656      1.0  0.05901  0.71669  0.16890  1.0000
  S   S113      1.0  0.19002  0.96047  0.29347  1.0000
  H   H657      1.0  0.13685  0.84542  0.06163  1.0000
  H   H658      1.0  0.09694  0.98085  0.27928  1.0000
  H   H659      1.0  0.01148  0.80134  0.36987  1.0000
  C   C385      1.0  0.09273  0.71492  0.98511  1.0000
  C   C386      1.0  0.04095  0.79373  0.37074  1.0000
  N   N21       1.0  0.10792  0.58186  0.19183  1.0000
  C   C387      1.0  0.09723  0.56592  0.19592  1.0000
  C   C388      1.0  0.09647  0.60092  0.18310  1.0000
  C   C389      1.0  0.12595  0.57708  0.17738  1.0000
  C   C390      1.0  0.11339  0.58340  0.20936  1.0000
  C   C391      1.0  0.09698  0.58669  0.22659  1.0000
  C   C392      1.0  0.10749  0.54544  0.20460  1.0000
  C   C393      1.0  0.13855  0.59236  0.17009  1.0000
  C   C394      1.0  0.07449  0.60423  0.18932  1.0000
  C   C395      1.0  0.06527  0.62523  0.18242  1.0000
  C   C396      1.0  0.10456  0.58617  0.24390  1.0000
  C   C397      1.0  0.09479  0.53089  0.20911  1.0000
  C   C398      1.0  0.15406  0.58800  0.15287  1.0000
  H   H660      1.0  0.09369  0.56519  0.18255  1.0000
  H   H661      1.0  0.08339  0.56887  0.20585  1.0000
  H   H662      1.0  0.10101  0.61307  0.18567  1.0000
  H   H663      1.0  0.09936  0.60300  0.16729  1.0000
  H   H664      1.0  0.12251  0.57431  0.16481  1.0000
  H   H665      1.0  0.13539  0.56364  0.18334  1.0000
  H   H666      1.0  0.12393  0.57045  0.21417  1.0000
  H   H667      1.0  0.12080  0.59555  0.20600  1.0000
  H   H668      1.0  0.08836  0.57550  0.23083  1.0000
  H   H669      1.0  0.08780  0.60110  0.22319  1.0000
  H   H670      1.0  0.12053  0.54026  0.19455  1.0000
  H   H671      1.0  0.11132  0.54514  0.21808  1.0000
  H   H672      1.0  0.14561  0.59221  0.18149  1.0000
  H   H673      1.0  0.13034  0.60712  0.16579  1.0000
  H   H674      1.0  0.06907  0.59523  0.18302  1.0000
  H   H675      1.0  0.06963  0.60047  0.20495  1.0000
  H   H676      1.0  0.04957  0.62714  0.18666  1.0000
  H   H677      1.0  0.06977  0.63471  0.18895  1.0000
  H   H678      1.0  0.06928  0.62962  0.16667  1.0000
  H   H679      1.0  0.11202  0.59819  0.24091  1.0000
  H   H680      1.0  0.09255  0.58790  0.25623  1.0000
  H   H681      1.0  0.11446  0.57228  0.24780  1.0000
  H   H682      1.0  0.08173  0.53473  0.21981  1.0000
  H   H683      1.0  0.09084  0.53022  0.19599  1.0000
  H   H684      1.0  0.10263  0.51638  0.21507  1.0000
  H   H685      1.0  0.16270  0.57324  0.15629  1.0000
  H   H686      1.0  0.09891  0.88239  0.46324  1.0000
  C   C399      1.0  0.14711  0.75435  0.97820  1.0000
  N   N22       1.0  0.12927  0.85448  0.32032  1.0000
  C   C400      1.0  0.12098  0.84444  0.31026  1.0000
  C   C401      1.0  0.11390  0.86953  0.32915  1.0000
  C   C402      1.0  0.14357  0.86476  0.30550  1.0000
  C   C403      1.0  0.13954  0.84048  0.33512  1.0000
  C   C404      1.0  0.12909  0.82498  0.34900  1.0000
  C   C405      1.0  0.13526  0.82941  0.29958  1.0000
  C   C406      1.0  0.15304  0.87702  0.31276  1.0000
  C   C407      1.0  0.09334  0.86588  0.33553  1.0000
  C   C408      1.0  0.07983  0.88114  0.34578  1.0000
  C   C409      1.0  0.12490  0.81778  0.29310  1.0000
  C   C410      1.0  0.16753  0.88627  0.29662  1.0000
  H   H687      1.0  0.11339  0.85528  0.29963  1.0000
  H   H688      1.0  0.11004  0.83691  0.32041  1.0000
  H   H689      1.0  0.11778  0.87226  0.34147  1.0000
  H   H690      1.0  0.11259  0.88369  0.31888  1.0000
  H   H691      1.0  0.13682  0.87441  0.29368  1.0000
  H   H692      1.0  0.15543  0.85431  0.29892  1.0000
  H   H693      1.0  0.15352  0.83280  0.32819  1.0000
  H   H694      1.0  0.14306  0.84832  0.34412  1.0000
  H   H695      1.0  0.12618  0.81545  0.34135  1.0000
  H   H696      1.0  0.14419  0.83666  0.28662  1.0000
  H   H697      1.0  0.14468  0.81914  0.30876  1.0000
  H   H698      1.0  0.16080  0.86799  0.32395  1.0000
  H   H699      1.0  0.14233  0.88867  0.31869  1.0000
  H   H700      1.0  0.08773  0.86652  0.32293  1.0000
  H   H701      1.0  0.09272  0.85167  0.34512  1.0000
  H   H702      1.0  0.08362  0.88013  0.35941  1.0000
  H   H703      1.0  0.08040  0.89575  0.33690  1.0000
  H   H704      1.0  0.06505  0.87899  0.34871  1.0000
  H   H705      1.0  0.11590  0.82738  0.28312  1.0000
  H   H706      1.0  0.13539  0.80706  0.28562  1.0000
  H   H707      1.0  0.11580  0.80997  0.30553  1.0000
  H   H708      1.0  0.17452  0.89446  0.30223  1.0000
  H   H709      1.0  0.10243  0.95175  0.24456  1.0000
  C   C411      1.0  0.09473  0.97579  0.26744  1.0000
  N   N23       1.0  0.06588  0.75265  0.26854  1.0000
  C   C412      1.0  0.04659  0.76548  0.27301  1.0000
  C   C413      1.0  0.08056  0.75962  0.27419  1.0000
  C   C414      1.0  0.07119  0.75429  0.24723  1.0000
  C   C415      1.0  0.06582  0.73176  0.27775  1.0000
  C   C416      1.0  0.05808  0.72683  0.29948  1.0000
  C   C417      1.0  0.03038  0.76148  0.26625  1.0000
  C   C418      1.0  0.09161  0.74399  0.23918  1.0000
  C   C419      1.0  0.07407  0.76851  0.29211  1.0000
  C   C420      1.0  0.09088  0.77249  0.29745  1.0000
  C   C421      1.0  0.05677  0.70564  0.30626  1.0000
  C   C422      1.0  0.01108  0.77280  0.27461  1.0000
  C   C423      1.0  0.09525  0.74715  0.21751  1.0000
  H   H710      1.0  0.04750  0.78073  0.26636  1.0000
  H   H711      1.0  0.04184  0.76505  0.28848  1.0000
  H   H712      1.0  0.09321  0.74783  0.27608  1.0000
  H   H713      1.0  0.08589  0.77128  0.26252  1.0000
  H   H714      1.0  0.06954  0.76963  0.23980  1.0000
  H   H715      1.0  0.06139  0.74847  0.24242  1.0000
  H   H716      1.0  0.05778  0.72588  0.27079  1.0000
  H   H717      1.0  0.08048  0.72296  0.27532  1.0000
  H   H718      1.0  0.04366  0.73539  0.30366  1.0000
  H   H719      1.0  0.06789  0.72915  0.30711  1.0000
  H   H720      1.0  0.03250  0.76620  0.25053  1.0000
  H   H721      1.0  0.02978  0.74602  0.27043  1.0000
  H   H722      1.0  0.09379  0.72825  0.24496  1.0000
  H   H723      1.0  0.10245  0.74956  0.24262  1.0000
  H   H724      1.0  0.06400  0.78250  0.28920  1.0000
  H   H725      1.0  0.06682  0.75920  0.30464  1.0000
  H   H726      1.0  0.09795  0.78270  0.28553  1.0000
  H   H727      1.0  0.08577  0.77910  0.31010  1.0000
  H   H728      1.0  0.10132  0.75893  0.30096  1.0000
  H   H729      1.0  0.05148  0.70229  0.32192  1.0000
  H   H730      1.0  0.04676  0.70244  0.29939  1.0000
  H   H731      1.0  0.07095  0.69621  0.30282  1.0000
  C   C424      1.0  0.02629  0.80655  0.40812  1.0000
  H   H732      1.0  0.99981  0.76993  0.26924  1.0000
  H   H733      1.0  0.12725  0.49885  0.12993  1.0000
  H   H734      1.0  0.11036  0.74124  0.21190  1.0000
  H   H735      1.0  0.08634  0.73962  0.21345  1.0000
  H   H736      1.0  0.09206  0.76273  0.21083  1.0000
  H   H737      1.0  0.03544  0.77503  0.41090  1.0000
  H   H738      1.0  0.10227  0.97452  0.22891  1.0000
  C   C425      1.0  0.18232  0.95066  0.24584  1.0000
  H   H739      1.0  0.10785  0.70366  0.02826  1.0000
  H   H740      1.0  0.04583  0.90339  0.40473  1.0000
  H   H741      1.0  0.13341  0.80126  0.37324  1.0000
  C   C426      1.0  0.12072  0.72033  0.14130  1.0000
  H   H742      1.0  0.18560  0.76414  0.12008  1.0000
  H   H743      1.0  0.07291  0.90819  0.37684  1.0000
  Fe  Fe64      1.0  0.04744  0.86625  0.30603  1.0000
  Fe  Fe65      1.0  0.05700  0.83163  0.28826  1.0000
  C   C427      1.0  0.13338  0.66002  0.13457  1.0000
  H   H744      1.0  0.14166  0.68735  0.12470  1.0000
  H   H745      1.0  0.14227  0.70559  0.16874  1.0000
  H   H746      1.0  0.11187  0.72517  0.99658  1.0000
  C   C428      1.0  0.02611  0.81938  0.24310  1.0000
  H   H747      1.0  0.15513  0.75272  0.39547  1.0000
  N   N24       1.0  0.11811  0.70425  0.15867  1.0000
  H   H748      1.0  0.13649  0.75187  0.13657  1.0000
  H   H749      1.0  0.15164  0.70888  0.13555  1.0000
  H   H750      1.0  0.03118  0.82866  0.26606  1.0000
  S   S114      1.0  0.01279  0.75602  0.22761  1.0000
  C   C429      1.0  0.05397  0.80497  0.22250  1.0000
  Fe  Fe66      1.0  0.16077  0.95629  0.30842  1.0000
  H   H751      1.0  0.12045  0.67337  0.16556  1.0000
  C   C430      1.0  0.01984  0.79678  0.38127  1.0000
  S   S115      1.0  0.10794  0.95340  0.32915  1.0000
  H   H752      1.0  0.06033  0.79849  0.21030  1.0000
  S   S116      1.0  0.02455  0.73065  0.19498  1.0000
  C   C431      1.0  0.05733  0.81661  0.24880  1.0000
  S   S117      1.0  0.04827  0.81166  0.31604  1.0000
  Fe  Fe67      1.0  0.06363  0.82663  0.32786  1.0000
  H   H753      1.0  0.10743  0.70025  0.20069  1.0000
  H   H754      1.0  0.00845  0.83376  0.36917  1.0000
  C   C432      1.0  0.00747  0.84794  0.39155  1.0000
  H   H755      1.0  0.99740  0.78367  0.14970  1.0000
  C   C433      1.0  0.09741  0.70590  0.01924  1.0000
  H   H756      1.0  0.08514  0.71732  0.02346  1.0000
  N   N25       1.0  0.07541  0.89760  0.40642  1.0000
  C   C434      1.0  0.08349  0.87810  0.40153  1.0000
  C   C435      1.0  0.08650  0.90150  0.41875  1.0000
  C   C436      1.0  0.08539  0.88890  0.43911  1.0000
  C   C437      1.0  0.10420  0.87483  0.38997  1.0000
  C   C438      1.0  0.10024  0.89135  0.44853  1.0000
  C   C439      1.0  0.11036  0.85493  0.38529  1.0000
  H   H757      1.0  0.07439  0.87528  0.39334  1.0000
  H   H758      1.0  0.08321  0.86646  0.41453  1.0000
  H   H759      1.0  0.09217  0.91410  0.38236  1.0000
  H   H760      1.0  0.10167  0.90060  0.41148  1.0000
  H   H761      1.0  0.08169  0.91652  0.42065  1.0000
  H   H762      1.0  0.08779  0.87348  0.43922  1.0000
  H   H763      1.0  0.07118  0.89323  0.44804  1.0000
  H   H764      1.0  0.10597  0.88548  0.37627  1.0000
  H   H765      1.0  0.11399  0.87571  0.39835  1.0000
  H   H766      1.0  0.04923  0.87015  0.42047  1.0000
  H   H767      1.0  0.05709  0.87349  0.43977  1.0000
  H   H768      1.0  0.00302  0.86939  0.36560  1.0000
  H   H769      1.0  0.15481  0.80470  0.35585  1.0000
  C   C440      1.0  0.14154  0.72258  0.13222  1.0000
  H   H770      1.0  0.09037  0.71943  0.17066  1.0000
  H   H771      1.0  0.12753  0.92666  0.24464  1.0000
  H   H772      1.0  0.11741  0.92261  0.22024  1.0000
  S   S118      1.0  0.07201  0.81929  0.26240  1.0000
  S   S119      1.0  0.04557  0.89751  0.30487  1.0000
  C   C441      1.0  0.08561  0.92654  0.30218  1.0000
  H   H773      1.0  0.15211  0.75605  0.41921  1.0000
  C   C442      1.0  0.03759  0.82218  0.25387  1.0000
  C   C443      1.0  0.10051  0.90210  0.28376  1.0000
  H   H774      1.0  0.14403  0.81953  0.10011  1.0000
  C   C444      1.0  0.14110  0.81225  0.36331  1.0000
  H   H775      1.0  0.14400  0.82094  0.37188  1.0000
  H   H776      1.0  0.06670  0.93822  0.40120  1.0000
  C   C445      1.0  0.06515  0.93325  0.38906  1.0000
  C   C446      1.0  0.01537  0.83078  0.38148  1.0000
  Fe  Fe68      1.0  0.13286  0.94091  0.34338  1.0000
  H   H777      1.0  0.09728  0.94235  0.22024  1.0000
  C   C447      1.0  0.99325  0.86357  0.19719  1.0000
  S   S120      1.0  0.01953  0.80765  0.21408  1.0000
  H   H778      1.0  0.01091  0.82378  0.24706  1.0000
  C   C448      1.0  0.18226  0.53960  0.18333  1.0000
  C   C449      1.0  0.07109  0.94786  0.37095  1.0000
  S   S121      1.0  0.01146  0.77767  0.18339  1.0000
  H   H779      1.0  0.11288  0.89504  0.27494  1.0000
  H   H780      1.0  0.16141  0.86446  0.35751  1.0000
  H   H781      1.0  0.00705  0.77523  0.11922  1.0000
  S   S122      1.0  0.18211  0.69154  0.08341  1.0000
  H   H782      1.0  0.04984  0.93368  0.39059  1.0000
  H   H783      1.0  0.11686  0.68854  0.12861  1.0000
  H   H784      1.0  0.09253  0.69225  0.02188  1.0000
  C   C450      1.0  0.12899  0.48913  0.14389  1.0000
  H   H785      1.0  0.14317  0.72643  0.11646  1.0000
  H   H786      1.0  0.16906  0.90868  0.24973  1.0000
  H   H787      1.0  0.17571  0.94115  0.24229  1.0000
  C   C451      1.0  0.11153  0.93689  0.21202  1.0000
  H   H788      1.0  0.15243  0.89617  0.24698  1.0000
  H   H789      1.0  0.18639  0.57694  0.24382  1.0000
  H   H790      1.0  0.11484  0.71871  0.12979  1.0000
  H   H791      1.0  0.15082  0.73321  0.41590  1.0000
  H   H792      1.0  0.17883  0.51201  0.18152  1.0000
  C   C452      1.0  0.17995  0.79134  0.98320  1.0000
  C   C453      1.0  0.99487  0.72724  0.14911  1.0000
  C   C454      1.0  0.01029  0.86688  0.37755  1.0000
  H   H793      1.0  0.10931  0.82920  0.09756  1.0000
  H   H794      1.0  0.18634  0.73037  0.46873  1.0000
  H   H795      1.0  0.15632  0.96134  0.20926  1.0000
  H   H796      1.0  0.12167  0.49714  0.15534  1.0000
  S   S123      1.0  0.14462  0.96771  0.33414  1.0000
  C   C455      1.0  0.17939  0.81141  0.09321  1.0000
  C   C456      1.0  0.18147  0.66242  0.13793  1.0000
  H   H797      1.0  0.16990  0.84395  0.03940  1.0000
  H   H798      1.0  0.12491  0.68003  0.19334  1.0000
  H   H799      1.0  0.08820  0.70112  0.98740  1.0000
  H   H800      1.0  0.15009  0.69174  0.20031  1.0000
  C   C457      1.0  0.17943  0.73881  0.40893  1.0000
  C   C458      1.0  0.12467  0.95134  0.20799  1.0000
  C   C459      1.0  0.12774  0.68443  0.15496  1.0000
  C   C460      1.0  0.15808  0.74555  0.40985  1.0000
  C   C461      1.0  0.14735  0.73834  0.13792  1.0000
  H   H801      1.0  0.05645  0.70378  0.15270  1.0000
  H   H802      1.0  0.08595  0.94908  0.36959  1.0000
  H   H803      1.0  0.13602  0.65822  0.11972  1.0000
  C   C462      1.0  0.15519  0.92275  0.22571  1.0000
  N   N26       1.0  0.12939  0.95434  0.22528  1.0000
  H   H804      1.0  0.17457  0.81759  0.10620  1.0000
  H   H805      1.0  0.16681  0.93052  0.21811  1.0000
  H   H806      1.0  0.17302  0.70099  0.98838  1.0000
  C   C463      1.0  0.14335  0.96749  0.21885  1.0000
  C   C464      1.0  0.17740  0.79005  0.09936  1.0000
  H   H807      1.0  0.12362  0.96045  0.26219  1.0000
  H   H808      1.0  0.02565  0.86670  0.37172  1.0000
  H   H809      1.0  0.06085  0.77606  0.35217  1.0000
  H   H810      1.0  0.18532  0.78398  0.46439  1.0000
  C   C465      1.0  0.16347  0.90472  0.23923  1.0000
  H   H811      1.0  0.16367  0.59832  0.14884  1.0000
  H   H812      1.0  0.13082  0.68937  0.22077  1.0000
  C   C466      1.0  0.17795  0.81675  0.05978  1.0000
  H   H813      1.0  0.02556  0.72379  0.14456  1.0000
  H   H814      1.0  0.12267  0.92787  0.18495  1.0000
  N   N27       1.0  0.16903  0.82399  0.07783  1.0000
  H   H815      1.0  0.13790  0.94684  0.19767  1.0000
  S   S124      1.0  0.18568  0.57537  0.18446  1.0000
  C   C467      1.0  0.12240  0.69545  0.19367  1.0000
  S   S125      1.0  0.18143  0.67200  0.17115  1.0000
  H   H816      1.0  0.18571  0.75180  0.40358  1.0000
  H   H817      1.0  0.04364  0.80691  0.35995  1.0000
  H   H818      1.0  0.18257  0.80640  0.02502  1.0000
  H   H819      1.0  0.15062  0.91793  0.21509  1.0000
  C   C468      1.0  0.17187  0.49856  0.25238  1.0000
  H   H820      1.0  0.99247  0.79583  0.41246  1.0000
  H   H821      1.0  0.01552  0.78236  0.42903  1.0000
  H   H822      1.0  0.09089  0.68778  0.15031  1.0000
  C   C469      1.0  0.12653  0.70797  0.17334  1.0000
  C   C470      1.0  0.10883  0.93394  0.19347  1.0000
  H   H823      1.0  0.13317  0.71283  0.20629  1.0000
  H   H824      1.0  0.08840  0.96285  0.27377  1.0000
  H   H825      1.0  0.06177  0.96223  0.37159  1.0000
  H   H826      1.0  0.16091  0.74132  0.12836  1.0000
  H   H827      1.0  0.06293  0.69079  0.17499  1.0000
  C   C471      1.0  0.18392  0.68503  0.22848  1.0000
  S   S126      1.0  0.99385  0.83151  0.33750  1.0000
  C   C472      1.0  0.13491  0.69753  0.20597  1.0000
  C   C473      1.0  0.06473  0.70347  0.16319  1.0000
  H   H828      1.0  0.12094  0.65377  0.14309  1.0000
  Fe  Fe69      1.0  0.17224  0.64479  0.18879  1.0000
  H   H829      1.0  0.01659  0.78260  0.38948  1.0000
  H   H830      1.0  0.18606  0.87361  0.08038  1.0000
  C   C474      1.0  0.12961  0.68138  0.13464  1.0000
  H   H831      1.0  0.00571  0.85895  0.20409  1.0000
  H   H832      1.0  0.11934  0.70029  0.99514  1.0000
  H   H833      1.0  0.11946  0.98420  0.24792  1.0000
  H   H834      1.0  0.14365  0.93826  0.24825  1.0000
  C   C475      1.0  0.99361  0.81071  0.40446  1.0000
  H   H835      1.0  0.14606  0.65202  0.14059  1.0000
  H   H836      1.0  0.11418  0.82320  0.07456  1.0000
  H   H837      1.0  0.14248  0.68024  0.15751  1.0000
  S   S127      1.0  0.18636  0.73688  0.04209  1.0000
  H   H838      1.0  0.14970  0.73396  0.15267  1.0000
  H   H839      1.0  0.14843  0.96860  0.23121  1.0000
  C   C476      1.0  0.04279  0.78276  0.43327  1.0000
  H   H840      1.0  0.01405  0.71448  0.16875  1.0000
  H   H841      1.0  0.04469  0.76775  0.44177  1.0000
  H   H842      1.0  0.03050  0.83115  0.37504  1.0000
  H   H843      1.0  0.00153  0.81361  0.30519  1.0000
  C   C477      1.0  0.18446  0.68507  0.10729  1.0000
  H   H844      1.0  0.00321  0.75356  0.14842  1.0000
  H   H845      1.0  0.99452  0.85353  0.18798  1.0000
  H   H846      1.0  0.17334  0.94075  0.27606  1.0000
  H   H847      1.0  0.09824  0.90660  0.44924  1.0000
  H   H848      1.0  0.17667  0.79903  0.99495  1.0000
  C   C478      1.0  0.17906  0.75662  0.44848  1.0000
  H   H849      1.0  0.15714  0.50040  0.25059  1.0000
  H   H850      1.0  0.18533  0.78241  0.08783  1.0000
  H   H851      1.0  0.03645  0.77993  0.35031  1.0000
  N   N28       1.0  0.01377  0.81118  0.39385  1.0000
  H   H852      1.0  0.17628  0.78548  0.12970  1.0000
  H   H853      1.0  0.18606  0.73258  0.38125  1.0000
  H   H854      1.0  0.18903  0.76441  0.00141  1.0000
  H   H855      1.0  0.01084  0.78847  0.27032  1.0000
  H   H856      1.0  0.18129  0.69918  0.23227  1.0000
  C   C479      1.0  0.01415  0.71617  0.15349  1.0000
  H   H857      1.0  0.99650  0.78986  0.08844  1.0000
  H   H858      1.0  0.99204  0.84929  0.39764  1.0000
  C   C480      1.0  0.18843  0.69800  0.11562  1.0000
  C   C481      1.0  0.00424  0.77467  0.09155  1.0000
  H   H859      1.0  0.14774  0.58937  0.14053  1.0000
  H   H860      1.0  0.17632  0.78225  0.42626  1.0000
  H   H861      1.0  0.17389  0.51263  0.25332  1.0000
  H   H862      1.0  0.09924  0.92371  0.19674  1.0000
  C   C482      1.0  0.04596  0.77725  0.36038  1.0000
  S   S128      1.0  0.13812  0.96982  0.29154  1.0000
  C   C483      1.0  0.18260  0.82168  0.02396  1.0000
  H   H863      1.0  0.99343  0.87821  0.18812  1.0000
  H   H864      1.0  0.16660  0.78801  0.98223  1.0000
  C   C484      1.0  0.18831  0.69342  0.13515  1.0000
  H   H865      1.0  0.18283  0.87862  0.05609  1.0000
  H   H866      1.0  0.17893  0.65678  0.11187  1.0000
  H   H867      1.0  0.17003  0.68108  0.23046  1.0000
  H   H868      1.0  0.00420  0.87900  0.38495  1.0000
  C   C485      1.0  0.18602  0.77006  0.43266  1.0000
  H   H869      1.0  0.99505  0.72746  0.13414  1.0000
  C   C486      1.0  0.18423  0.67591  0.14641  1.0000
  H   H870      1.0  0.18199  0.49425  0.23961  1.0000
  H   H871      1.0  0.18768  0.85037  0.47544  1.0000
  Fe  Fe70      1.0  0.13773  0.74909  0.89382  1.0000
  S   S129      1.0  0.14774  0.71739  0.90411  1.0000
  S   S130      1.0  0.10722  0.76338  0.89200  1.0000
  Fe  Fe71      1.0  0.16561  0.72634  0.91902  1.0000
  S   S131      1.0  0.15385  0.75796  0.91055  1.0000
  H   H872      1.0  0.12469  0.85317  0.51881  1.0000
  C   C487      1.0  0.17402  0.92103  0.62371  1.0000
  N   N29       1.0  0.09569  0.79326  0.82818  1.0000
  H   H873      1.0  0.05950  0.78678  0.60289  1.0000
  S   S132      1.0  0.13180  0.51188  0.78505  1.0000
  Fe  Fe72      1.0  0.12035  0.61411  0.82679  1.0000
  S   S133      1.0  0.13665  0.59296  0.84758  1.0000
  S   S134      1.0  0.08879  0.61730  0.83164  1.0000
  Fe  Fe73      1.0  0.15789  0.58543  0.82176  1.0000
  H   H874      1.0  0.18561  0.50821  0.72815  1.0000
  S   S135      1.0  0.14021  0.60466  0.80117  1.0000
  Fe  Fe74      1.0  0.03624  0.72541  0.86449  1.0000
  S   S136      1.0  0.05338  0.73495  0.83540  1.0000
  S   S137      1.0  0.05244  0.71244  0.88812  1.0000
  H   H875      1.0  0.13370  0.98369  0.76858  1.0000
  S   S138      1.0  0.01335  0.74681  0.82027  1.0000
  Fe  Fe75      1.0  0.03590  0.72031  0.82583  1.0000
  S   S139      1.0  0.04876  0.70341  0.80294  1.0000
  Fe  Fe76      1.0  0.02922  0.76033  0.83294  1.0000
  S   S140      1.0  0.03321  0.79071  0.82133  1.0000
  S   S141      1.0  0.02028  0.70874  0.85516  1.0000
  S   S142      1.0  0.01335  0.75210  0.86284  1.0000
  Fe  Fe77      1.0  0.07249  0.81984  0.71770  1.0000
  S   S143      1.0  0.05286  0.84804  0.72123  1.0000
  S   S144      1.0  0.08656  0.79810  0.73997  1.0000
  Fe  Fe78      1.0  0.06946  0.82508  0.67698  1.0000
  S   S145      1.0  0.04955  0.85377  0.67653  1.0000
  S   S146      1.0  0.08169  0.81074  0.65221  1.0000
  Fe  Fe79      1.0  0.06879  0.85958  0.69203  1.0000
  S   S147      1.0  0.07821  0.88791  0.68216  1.0000
  Fe  Fe80      1.0  0.03530  0.83979  0.70554  1.0000
  S   S148      1.0  0.09002  0.83205  0.68987  1.0000
  S   S149      1.0  0.05356  0.81049  0.70469  1.0000
  H   H876      1.0  0.10402  0.81557  0.52489  1.0000
  S   S150      1.0  0.16662  0.83329  0.56054  1.0000
  H   H877      1.0  0.16595  0.87069  0.67529  1.0000
  H   H878      1.0  0.06600  0.74876  0.95671  1.0000
  S   S151      1.0  0.17496  0.84266  0.59786  1.0000
  H   H879      1.0  0.10114  0.85015  0.57374  1.0000
  C   C488      1.0  0.16232  0.72481  0.96718  1.0000
  Fe  Fe81      1.0  0.15504  0.85584  0.57788  1.0000
  S   S152      1.0  0.12438  0.86836  0.58723  1.0000
  H   H880      1.0  0.10616  0.75585  0.75955  1.0000
  S   S153      1.0  0.17238  0.87680  0.55872  1.0000
  H   H881      1.0  0.06787  0.86689  0.57040  1.0000
  H   H882      1.0  0.14708  0.79551  0.58382  1.0000
  H   H883      1.0  0.08507  0.80605  0.54212  1.0000
  C   C489      1.0  0.08024  0.86929  0.55861  1.0000
  H   H884      1.0  0.07132  0.80363  0.86181  1.0000
  H   H885      1.0  0.09461  0.78306  0.94808  1.0000
  H   H886      1.0  0.14921  0.80082  0.55838  1.0000
  C   C490      1.0  0.15372  0.85523  0.51533  1.0000
  H   H887      1.0  0.08082  0.81170  0.50913  1.0000
  H   H888      1.0  0.12473  0.75958  0.82685  1.0000
  H   H889      1.0  0.15142  0.85890  0.52894  1.0000
  H   H890      1.0  0.08112  0.76933  0.83825  1.0000
  C   C491      1.0  0.09344  0.82655  0.63383  1.0000
  C   C492      1.0  0.08449  0.84582  0.62886  1.0000
  C   C493      1.0  0.09399  0.85857  0.61430  1.0000
  C   C494      1.0  0.11268  0.85220  0.60520  1.0000
  C   C495      1.0  0.12177  0.83301  0.61039  1.0000
  C   C496      1.0  0.11198  0.82007  0.62443  1.0000
  H   H891      1.0  0.07015  0.85085  0.63610  1.0000
  H   H892      1.0  0.08698  0.87345  0.61039  1.0000
  H   H893      1.0  0.13625  0.82808  0.60340  1.0000
  H   H894      1.0  0.11887  0.80515  0.62831  1.0000
  C   C497      1.0  0.09568  0.89001  0.69284  1.0000
  H   H895      1.0  0.08102  0.96145  0.64620  1.0000
  C   C498      1.0  0.12205  0.90464  0.69067  1.0000
  C   C499      1.0  0.10932  0.90076  0.68202  1.0000
  H   H896      1.0  0.09267  0.75673  0.93435  1.0000
  H   H897      1.0  0.10988  0.90630  0.66695  1.0000
  C   C500      1.0  0.04783  0.79278  0.79864  1.0000
  C   C501      1.0  0.05178  0.81071  0.78844  1.0000
  C   C502      1.0  0.06324  0.81252  0.77010  1.0000
  C   C503      1.0  0.07116  0.79628  0.76224  1.0000
  C   C504      1.0  0.06727  0.77837  0.77251  1.0000
  C   C505      1.0  0.05548  0.77664  0.79064  1.0000
  H   H898      1.0  0.04592  0.82318  0.79470  1.0000
  H   H899      1.0  0.06633  0.82636  0.76219  1.0000
  H   H900      1.0  0.07302  0.76587  0.76629  1.0000
  H   H901      1.0  0.05227  0.76282  0.79835  1.0000
  C   C506      1.0  0.09474  0.77274  0.83854  1.0000
  C   C507      1.0  0.07741  0.64116  0.82387  1.0000
  C   C508      1.0  0.06888  0.65305  0.83689  1.0000
  C   C509      1.0  0.05964  0.67210  0.83066  1.0000
  C   C510      1.0  0.05874  0.67920  0.81145  1.0000
  C   C511      1.0  0.06672  0.66707  0.79859  1.0000
  C   C512      1.0  0.07621  0.64814  0.80473  1.0000
  H   H902      1.0  0.06960  0.64763  0.85175  1.0000
  H   H903      1.0  0.05344  0.68131  0.84070  1.0000
  H   H904      1.0  0.06577  0.67245  0.78379  1.0000
  H   H905      1.0  0.08250  0.63891  0.79469  1.0000
  C   C513      1.0  0.14386  0.52343  0.79445  1.0000
  C   C514      1.0  0.14312  0.54321  0.78777  1.0000
  C   C515      1.0  0.15894  0.84681  0.47961  1.0000
  H   H906      1.0  0.06493  0.83681  0.57694  1.0000
  H   H907      1.0  0.12436  0.89550  0.61162  1.0000
  C   C516      1.0  0.15405  0.51318  0.80862  1.0000
  H   H908      1.0  0.13532  0.55118  0.77675  1.0000
  Fe  Fe82      1.0  0.16661  0.94332  0.66078  1.0000
  H   H909      1.0  0.17108  0.70047  0.79900  1.0000
  S   S154      1.0  0.17227  0.55462  0.82088  1.0000
  H   H910      1.0  0.17919  0.91558  0.54318  1.0000
  H   H911      1.0  0.04600  0.91138  0.70863  1.0000
  C   C517      1.0  0.17032  0.69483  0.78690  1.0000
  C   C518      1.0  0.09173  0.74882  0.89228  1.0000
  C   C519      1.0  0.09713  0.72875  0.89595  1.0000
  C   C520      1.0  0.08487  0.71765  0.89498  1.0000
  C   C521      1.0  0.06738  0.72657  0.88975  1.0000
  C   C522      1.0  0.06188  0.74662  0.88625  1.0000
  C   C523      1.0  0.07381  0.75764  0.88805  1.0000
  H   H912      1.0  0.11080  0.72172  0.89932  1.0000
  H   H913      1.0  0.08916  0.70214  0.89776  1.0000
  H   H914      1.0  0.04826  0.75359  0.88253  1.0000
  H   H915      1.0  0.06929  0.77308  0.88581  1.0000
  H   H916      1.0  0.12076  0.72567  0.83855  1.0000
  H   H917      1.0  0.15016  0.75105  0.94971  1.0000
  S   S155      1.0  0.16054  0.75159  0.86736  1.0000
  H   H918      1.0  0.01788  0.82979  0.68053  1.0000
  C   C524      1.0  0.18284  0.98377  0.80063  1.0000
  N   N30       1.0  0.11479  0.70074  0.79584  1.0000
  C   C525      1.0  0.11069  0.71917  0.78134  1.0000
  C   C526      1.0  0.11024  0.68475  0.78984  1.0000
  C   C527      1.0  0.10133  0.70301  0.81461  1.0000
  C   C528      1.0  0.13501  0.69564  0.79884  1.0000
  S   S156      1.0  0.16987  0.71159  0.94904  1.0000
  C   C529      1.0  0.11112  0.73772  0.78704  1.0000
  C   C530      1.0  0.10295  0.68502  0.83122  1.0000
  C   C531      1.0  0.11904  0.68228  0.76917  1.0000
  C   C532      1.0  0.11417  0.66490  0.76555  1.0000
  C   C533      1.0  0.11552  0.75372  0.76962  1.0000
  C   C534      1.0  0.09062  0.68942  0.85008  1.0000
  H   H919      1.0  0.09631  0.72119  0.77831  1.0000
  H   H920      1.0  0.12068  0.71842  0.76745  1.0000
  H   H921      1.0  0.11455  0.67065  0.79933  1.0000
  H   H922      1.0  0.09461  0.68700  0.79141  1.0000
  H   H923      1.0  0.08629  0.70717  0.81280  1.0000
  H   H924      1.0  0.10358  0.71488  0.81973  1.0000
  H   H925      1.0  0.13589  0.70167  0.81071  1.0000
  H   H926      1.0  0.13953  0.67978  0.80364  1.0000
  H   H927      1.0  0.08806  0.79516  0.58001  1.0000
  H   H928      1.0  0.09697  0.74295  0.79564  1.0000
  H   H929      1.0  0.12193  0.73497  0.79573  1.0000
  H   H930      1.0  0.11778  0.67963  0.83328  1.0000
  H   H931      1.0  0.09822  0.67326  0.82835  1.0000
  H   H932      1.0  0.11362  0.69506  0.75869  1.0000
  H   H933      1.0  0.13461  0.67984  0.76638  1.0000
  H   H934      1.0  0.09870  0.66732  0.76632  1.0000
  H   H935      1.0  0.12177  0.66268  0.75112  1.0000
  H   H936      1.0  0.11855  0.65168  0.77616  1.0000
  H   H937      1.0  0.13051  0.75014  0.76204  1.0000
  H   H938      1.0  0.12177  0.82359  0.54414  1.0000
  H   H939      1.0  0.11325  0.76744  0.77414  1.0000
  H   H940      1.0  0.09571  0.70002  0.85454  1.0000
  H   H941      1.0  0.07557  0.69512  0.84890  1.0000
  H   H942      1.0  0.09133  0.67603  0.86136  1.0000
  H   H943      1.0  0.00144  0.82027  0.66070  1.0000
  H   H944      1.0  0.14428  0.92136  0.55467  1.0000
  H   H945      1.0  0.10983  0.96589  0.71871  1.0000
  H   H946      1.0  0.18723  0.81249  0.47791  1.0000
  H   H947      1.0  0.99565  0.84834  0.75475  1.0000
  H   H948      1.0  0.13001  0.71266  0.96406  1.0000
  H   H949      1.0  0.14898  0.67908  0.96511  1.0000
  H   H950      1.0  0.07565  0.87245  0.54490  1.0000
  H   H951      1.0  0.16601  0.76905  0.49378  1.0000
  H   H952      1.0  0.01817  0.86757  0.75387  1.0000
  H   H953      1.0  0.18176  0.67689  0.74755  1.0000
  C   C535      1.0  0.08264  0.50503  0.82182  1.0000
  H   H954      1.0  0.05255  0.94439  0.72246  1.0000
  H   H955      1.0  0.10990  0.78302  0.92490  1.0000
  H   H956      1.0  0.18039  0.68078  0.82995  1.0000
  H   H957      1.0  0.17769  0.58242  0.69115  1.0000
  H   H958      1.0  0.06902  0.51246  0.81731  1.0000
  H   H959      1.0  0.03437  0.91859  0.73083  1.0000
  C   C536      1.0  0.10498  0.75488  0.94084  1.0000
  H   H960      1.0  0.15195  0.52455  0.72961  1.0000
  H   H961      1.0  0.14122  0.66294  0.95589  1.0000
  H   H962      1.0  0.18133  0.69951  0.77441  1.0000
  H   H963      1.0  0.16815  0.96692  0.74021  1.0000
  Fe  Fe83      1.0  0.15438  0.96959  0.68938  1.0000
  H   H964      1.0  0.11415  0.68238  0.97430  1.0000
  H   H965      1.0  0.18442  0.60620  0.70544  1.0000
  H   H966      1.0  0.10895  0.94415  0.73682  1.0000
  H   H967      1.0  0.12430  0.71651  0.94177  1.0000
  H   H968      1.0  0.99783  0.72993  0.79298  1.0000
  H   H969      1.0  0.09222  0.72523  0.93746  1.0000
  H   H970      1.0  0.10440  0.94143  0.67729  1.0000
  H   H971      1.0  0.16420  0.78991  0.64769  1.0000
  H   H972      1.0  0.11269  0.68688  0.94970  1.0000
  H   H973      1.0  0.17050  0.49929  0.75015  1.0000
  H   H974      1.0  0.08847  0.96372  0.73700  1.0000
  H   H975      1.0  0.05370  0.71844  0.94380  1.0000
  C   C537      1.0  0.14248  0.97263  0.76067  1.0000
  H   H976      1.0  0.01972  0.83472  0.75114  1.0000
  H   H977      1.0  0.05956  0.90888  0.72632  1.0000
  C   C538      1.0  0.00197  0.82559  0.77954  1.0000
  H   H978      1.0  0.18151  0.82620  0.85438  1.0000
  C   C539      1.0  0.05121  0.93836  0.71090  1.0000
  H   H979      1.0  0.05854  0.72755  0.97212  1.0000
  S   S157      1.0  0.13931  0.95154  0.68107  1.0000
  C   C540      1.0  0.09372  0.95373  0.67167  1.0000
  C   C541      1.0  0.99345  0.82481  0.67368  1.0000
  H   H980      1.0  0.13279  0.94007  0.56767  1.0000
  C   C542      1.0  0.14493  0.83862  0.64805  1.0000
  C   C543      1.0  0.17197  0.78139  0.49367  1.0000
  H   H981      1.0  0.16007  0.94947  0.54304  1.0000
  C   C544      1.0  0.05433  0.73339  0.94354  1.0000
  H   H982      1.0  0.08482  0.93669  0.72483  1.0000
  C   C545      1.0  0.10047  0.95591  0.72770  1.0000
  H   H983      1.0  0.08456  0.70632  0.95574  1.0000
  H   H984      1.0  0.18351  0.91365  0.56582  1.0000
  H   H985      1.0  0.17975  0.78147  0.54119  1.0000
  H   H986      1.0  0.16115  0.81393  0.66592  1.0000
  C   C546      1.0  0.16176  0.64657  0.86536  1.0000
  H   H987      1.0  0.18622  0.95468  0.52209  1.0000
  H   H988      1.0  0.17959  0.51647  0.76794  1.0000
  H   H989      1.0  0.13865  0.81690  0.83410  1.0000
  C   C547      1.0  0.06596  0.73356  0.95756  1.0000
  H   H990      1.0  0.11721  0.96190  0.76357  1.0000
  H   H991      1.0  0.18542  0.75763  0.97156  1.0000
  H   H992      1.0  0.16672  0.54118  0.72735  1.0000
  S   S158      1.0  0.00354  0.84368  0.71564  1.0000
  H   H993      1.0  0.13950  0.80128  0.65366  1.0000
  H   H994      1.0  0.18959  0.79998  0.93293  1.0000
  H   H995      1.0  0.08880  0.97499  0.69598  1.0000
  C   C548      1.0  0.18167  0.92407  0.55221  1.0000
  C   C549      1.0  0.17696  0.51178  0.74176  1.0000
  C   C550      1.0  0.17164  0.85417  0.50323  1.0000
  H   H996      1.0  0.14972  0.87518  0.62839  1.0000
  H   H997      1.0  0.16391  0.84318  0.86666  1.0000
  H   H998      1.0  0.16998  0.58068  0.86527  1.0000
  C   C551      1.0  0.17440  0.67366  0.84414  1.0000
  H   H999      1.0  0.06563  0.93346  0.68320  1.0000
  S   S159      1.0  0.18143  0.70269  0.85580  1.0000
  C   C552      1.0  0.10182  0.74306  0.96163  1.0000
  H   H1000     1.0  0.16094  0.79473  0.49123  1.0000
  H   H1001     1.0  0.18879  0.96805  0.80356  1.0000
  H   H1002     1.0  0.10663  0.81692  0.83032  1.0000
  C   C553      1.0  0.06914  0.93811  0.69463  1.0000
  H   H1003     1.0  0.15178  0.53317  0.75002  1.0000
  H   H1004     1.0  0.10565  0.93940  0.70668  1.0000
  C   C554      1.0  0.13935  0.79758  0.57231  1.0000
  H   H1005     1.0  0.12088  0.85583  0.67596  1.0000
  C   C555      1.0  0.11176  0.81847  0.55750  1.0000
  H   H1006     1.0  0.00680  0.78984  0.80073  1.0000
  H   H1007     1.0  0.11612  0.73798  0.85752  1.0000
  H   H1008     1.0  0.06184  0.82673  0.52247  1.0000
  C   C556      1.0  0.09700  0.85159  0.56010  1.0000
  H   H1009     1.0  0.14793  0.68445  0.94020  1.0000
  H   H1010     1.0  0.13280  0.80229  0.85784  1.0000
  H   H1011     1.0  0.15048  0.91877  0.61338  1.0000
  C   C557      1.0  0.15294  0.74405  0.96365  1.0000
  N   N31       1.0  0.14753  0.85480  0.65543  1.0000
  C   C558      1.0  0.14089  0.67830  0.95488  1.0000
  C   C559      1.0  0.01398  0.79952  0.76226  1.0000
  H   H1012     1.0  0.11778  0.74771  0.93192  1.0000
  H   H1013     1.0  0.10077  0.96624  0.66752  1.0000
  Fe  Fe84      1.0  0.17156  0.72028  0.87851  1.0000
  H   H1014     1.0  0.18543  0.80095  0.96967  1.0000
  C   C560      1.0  0.08515  0.83634  0.54141  1.0000
  C   C561      1.0  0.01732  0.77756  0.76373  1.0000
  C   C562      1.0  0.03229  0.77144  0.74685  1.0000
  H   H1015     1.0  0.19012  0.59630  0.77125  1.0000
  H   H1016     1.0  0.01327  0.80697  0.74723  1.0000
  C   C563      1.0  0.00277  0.83021  0.68489  1.0000
  C   C564      1.0  0.13855  0.85203  0.50962  1.0000
  C   C565      1.0  0.17265  0.68175  0.85967  1.0000
  H   H1017     1.0  0.02750  0.80165  0.76435  1.0000
  H   H1018     1.0  0.09872  0.89012  0.54866  1.0000
  C   C566      1.0  0.16531  0.91316  0.61393  1.0000
  C   C567      1.0  0.12929  0.96619  0.75221  1.0000
  H   H1019     1.0  0.14039  0.88604  0.64852  1.0000
  C   C568      1.0  0.16505  0.67242  0.87803  1.0000
  Fe  Fe85      1.0  0.18868  0.82219  0.57839  1.0000
  H   H1020     1.0  0.06688  0.80592  0.57030  1.0000
  Fe  Fe86      1.0  0.99897  0.73655  0.85043  1.0000
  H   H1021     1.0  0.15483  0.49788  0.81379  1.0000
  H   H1022     1.0  0.18455  0.72305  0.50737  1.0000
  H   H1023     1.0  0.05495  0.96683  0.66934  1.0000
  H   H1024     1.0  0.03851  0.94714  0.70527  1.0000
  H   H1025     1.0  0.03516  0.75556  0.74876  1.0000
  H   H1026     1.0  0.02723  0.77817  0.73335  1.0000
  H   H1027     1.0  0.04580  0.77573  0.74578  1.0000
  H   H1028     1.0  0.17812  0.57304  0.72588  1.0000
  C   C569      1.0  0.06051  0.97205  0.67907  1.0000
  H   H1029     1.0  0.04812  0.97511  0.69077  1.0000
  H   H1030     1.0  0.17773  0.79037  0.90946  1.0000
  Fe  Fe87      1.0  0.15211  0.61645  0.84380  1.0000
  H   H1031     1.0  0.17925  0.62076  0.74887  1.0000
  H   H1032     1.0  0.08887  0.88568  0.57400  1.0000
  H   H1033     1.0  0.17019  0.65006  0.83489  1.0000
  H   H1034     1.0  0.14788  0.91879  0.57835  1.0000
  C   C570      1.0  0.09317  0.94731  0.71525  1.0000
  C   C571      1.0  0.08632  0.72138  0.95306  1.0000
  C   C572      1.0  0.16064  0.60396  0.74609  1.0000
  H   H1035     1.0  0.17803  0.82290  0.87988  1.0000
  C   C573      1.0  0.04760  0.91805  0.71967  1.0000
  H   H1036     1.0  0.12075  0.93531  0.64489  1.0000
  Fe  Fe88      1.0  0.17777  0.75706  0.88514  1.0000
  C   C574      1.0  0.14235  0.61839  0.75149  1.0000
  H   H1037     1.0  0.08089  0.83680  0.50534  1.0000
  C   C575      1.0  0.07487  0.80640  0.58070  1.0000
  H   H1038     1.0  0.00313  0.86357  0.77729  1.0000
  H   H1039     1.0  0.09147  0.84748  0.52988  1.0000
  H   H1040     1.0  0.01359  0.82069  0.78764  1.0000
  H   H1041     1.0  0.00033  0.71819  0.77394  1.0000
  H   H1042     1.0  0.14578  0.84295  0.63238  1.0000
  C   C576      1.0  0.15991  0.65468  0.88088  1.0000
  C   C577      1.0  0.17267  0.98222  0.77124  1.0000
  H   H1043     1.0  0.16346  0.94709  0.56664  1.0000
  H   H1044     1.0  0.16291  0.59269  0.75905  1.0000
  H   H1045     1.0  0.15825  0.59747  0.73542  1.0000
  C   C578      1.0  0.18804  0.64900  0.76589  1.0000
  N   N32       1.0  0.07601  0.95675  0.68693  1.0000
  H   H1046     1.0  0.17540  0.77935  0.50777  1.0000
  C   C579      1.0  0.10752  0.77500  0.93997  1.0000
  C   C580      1.0  0.17825  0.83376  0.86625  1.0000
  C   C581      1.0  0.08092  0.96309  0.70238  1.0000
  S   S160      1.0  0.12178  0.84261  0.48608  1.0000
  C   C582      1.0  0.11012  0.94751  0.63886  1.0000
  H   H1047     1.0  0.13698  0.95358  0.74592  1.0000
  H   H1048     1.0  0.13051  0.61072  0.75854  1.0000
  H   H1049     1.0  0.14405  0.62625  0.76147  1.0000
  H   H1050     1.0  0.13855  0.62898  0.73862  1.0000
  C   C583      1.0  0.07731  0.82396  0.51628  1.0000
  C   C584      1.0  0.08591  0.88732  0.55975  1.0000
  H   H1051     1.0  0.11581  0.96085  0.63495  1.0000
  H   H1052     1.0  0.07008  0.80100  0.61173  1.0000
  C   C585      1.0  0.16090  0.52877  0.73692  1.0000
  S   S161      1.0  0.17502  0.60705  0.81979  1.0000
  H   H1053     1.0  0.14838  0.96003  0.77110  1.0000
  C   C586      1.0  0.00790  0.84105  0.76166  1.0000
  H   H1054     1.0  0.17080  0.51483  0.82748  1.0000
  C   C587      1.0  0.14117  0.84739  0.49200  1.0000
  C   C588      1.0  0.10307  0.79432  0.80707  1.0000
  C   C589      1.0  0.07579  0.80540  0.83076  1.0000
  C   C590      1.0  0.10308  0.81475  0.79426  1.0000
  C   C591      1.0  0.06359  0.80281  0.85135  1.0000
  C   C592      1.0  0.11257  0.81375  0.77360  1.0000
  C   C593      1.0  0.04536  0.81828  0.85265  1.0000
  H   H1055     1.0  0.09438  0.78752  0.80172  1.0000
  H   H1056     1.0  0.06759  0.80232  0.82185  1.0000
  H   H1057     1.0  0.07619  0.82095  0.82566  1.0000
  H   H1058     1.0  0.08833  0.82309  0.79429  1.0000
  H   H1059     1.0  0.11094  0.82273  0.79909  1.0000
  H   H1060     1.0  0.05929  0.78869  0.85573  1.0000
  H   H1061     1.0  0.12778  0.80654  0.77247  1.0000
  C   C594      1.0  0.15952  0.81924  0.65096  1.0000
  H   H1062     1.0  0.11169  0.82851  0.76456  1.0000
  H   H1063     1.0  0.04872  0.83276  0.84947  1.0000
  H   H1064     1.0  0.03693  0.81798  0.84252  1.0000
  H   H1065     1.0  0.03658  0.81557  0.86728  1.0000
  N   N33       1.0  0.09309  0.54952  0.83374  1.0000
  C   C595      1.0  0.09931  0.56674  0.81944  1.0000
  C   C596      1.0  0.10868  0.53831  0.84440  1.0000
  C   C597      1.0  0.08984  0.53656  0.82275  1.0000
  C   C598      1.0  0.07465  0.55529  0.84718  1.0000
  C   C599      1.0  0.07474  0.56856  0.85999  1.0000
  C   C600      1.0  0.08479  0.57986  0.80741  1.0000
  C   C601      1.0  0.08736  0.51601  0.83410  1.0000
  C   C602      1.0  0.12067  0.54992  0.84930  1.0000
  C   C603      1.0  0.13380  0.53692  0.86239  1.0000
  C   C604      1.0  0.09407  0.59438  0.79118  1.0000
  H   H1066     1.0  0.11261  0.56182  0.80954  1.0000
  H   H1067     1.0  0.10306  0.57640  0.82633  1.0000
  H   H1068     1.0  0.10273  0.52880  0.85782  1.0000
  H   H1069     1.0  0.11940  0.52858  0.83577  1.0000
  H   H1070     1.0  0.10188  0.53473  0.81036  1.0000
  H   H1071     1.0  0.07692  0.54313  0.81669  1.0000
  H   H1072     1.0  0.06311  0.56222  0.83911  1.0000
  H   H1073     1.0  0.06996  0.54243  0.85713  1.0000
  H   H1074     1.0  0.08158  0.58073  0.85188  1.0000
  H   H1075     1.0  0.08235  0.56015  0.87155  1.0000
  H   H1076     1.0  0.07890  0.57165  0.80077  1.0000
  H   H1077     1.0  0.07288  0.58802  0.81652  1.0000
  H   H1078     1.0  0.07572  0.51643  0.84685  1.0000
  H   H1079     1.0  0.10059  0.50750  0.83881  1.0000
  H   H1080     1.0  0.12976  0.55653  0.83609  1.0000
  H   H1081     1.0  0.11188  0.56164  0.85631  1.0000
  H   H1082     1.0  0.14290  0.54542  0.86478  1.0000
  H   H1083     1.0  0.12539  0.53083  0.87638  1.0000
  H   H1084     1.0  0.14320  0.52501  0.85582  1.0000
  H   H1085     1.0  0.08321  0.60424  0.78339  1.0000
  H   H1086     1.0  0.10043  0.60314  0.79679  1.0000
  H   H1087     1.0  0.10534  0.58685  0.78104  1.0000
  H   H1088     1.0  0.11262  0.80999  0.58808  1.0000
  C   C605      1.0  0.14599  0.92915  0.56474  1.0000
  H   H1089     1.0  0.13484  0.78400  0.57368  1.0000
  H   H1090     1.0  0.08456  0.87445  0.72074  1.0000
  H   H1091     1.0  0.15115  0.69772  0.76895  1.0000
  H   H1092     1.0  0.13660  0.86753  0.68013  1.0000
  H   H1093     1.0  0.10703  0.75475  0.81776  1.0000
  C   C606      1.0  0.13089  0.83941  0.71074  1.0000
  H   H1094     1.0  0.13479  0.85138  0.71424  1.0000
  H   H1095     1.0  0.11531  0.84258  0.71166  1.0000
  H   H1096     1.0  0.13457  0.82607  0.72147  1.0000
  C   C607      1.0  0.12210  0.81411  0.57412  1.0000
  H   H1097     1.0  0.09477  0.77090  0.85383  1.0000
  H   H1098     1.0  0.05520  0.58607  0.87892  1.0000
  C   C608      1.0  0.13914  0.80196  0.84263  1.0000
  H   H1099     1.0  0.08330  0.82786  0.58975  1.0000
  C   C609      1.0  0.05458  0.57705  0.86943  1.0000
  H   H1100     1.0  0.17620  0.85385  0.63908  1.0000
  H   H1101     1.0  0.10655  0.88206  0.73627  1.0000
  C   C610      1.0  0.12075  0.89834  0.71032  1.0000
  H   H1102     1.0  0.18741  0.55721  0.69863  1.0000
  C   C611      1.0  0.11031  0.75652  0.83074  1.0000
  C   C612      1.0  0.17583  0.89837  0.60451  1.0000
  H   H1103     1.0  0.17367  0.82100  0.64192  1.0000
  C   C613      1.0  0.17408  0.85046  0.48514  1.0000
  C   C614      1.0  0.15197  0.55285  0.79568  1.0000
  H   H1104     1.0  0.12724  0.82693  0.57397  1.0000
  C   C615      1.0  0.10750  0.88707  0.72107  1.0000
  S   S162      1.0  0.17843  0.91755  0.68151  1.0000
  H   H1105     1.0  0.04887  0.81183  0.60214  1.0000
  C   C616      1.0  0.16176  0.54271  0.81019  1.0000
  C   C617      1.0  0.14165  0.83663  0.69084  1.0000
  H   H1106     1.0  0.04699  0.56545  0.87809  1.0000
  C   C618      1.0  0.09510  0.88272  0.71230  1.0000
  H   H1107     1.0  0.11777  0.78592  0.80406  1.0000
  S   S163      1.0  0.13405  0.63822  0.82505  1.0000
  H   H1108     1.0  0.04655  0.58634  0.85848  1.0000
  H   H1109     1.0  0.06957  0.84230  0.54442  1.0000
  C   C619      1.0  0.16835  0.85371  0.65409  1.0000
  H   H1110     1.0  0.08065  0.92636  0.69964  1.0000
  H   H1111     1.0  0.16908  0.89251  0.59682  1.0000
  H   H1112     1.0  0.10534  0.80574  0.76803  1.0000
  C   C620      1.0  0.11086  0.73734  0.84514  1.0000
  H   H1113     1.0  0.09650  0.73387  0.85016  1.0000
  C   C621      1.0  0.10745  0.80132  0.83658  1.0000
  Fe  Fe89      1.0  0.18560  0.85329  0.54261  1.0000
  H   H1114     1.0  0.10155  0.80048  0.85205  1.0000
  C   C622      1.0  0.13616  0.85465  0.67544  1.0000
  C   C623      1.0  0.06258  0.80126  0.60057  1.0000
  H   H1115     1.0  0.10928  0.87750  0.65340  1.0000
  C   C624      1.0  0.09122  0.94963  0.65321  1.0000
  H   H1116     1.0  0.15118  0.56812  0.79058  1.0000
  S   S164      1.0  0.13465  0.90556  0.72176  1.0000
  H   H1117     1.0  0.10937  0.85539  0.54882  1.0000
  Fe  Fe90      1.0  0.15560  0.62694  0.80124  1.0000
  C   C625      1.0  0.15072  0.70248  0.78188  1.0000
  H   H1118     1.0  0.11394  0.74336  0.96753  1.0000
  H   H1119     1.0  0.12976  0.77655  0.84431  1.0000
  H   H1120     1.0  0.08614  0.93606  0.65625  1.0000
  N   N34       1.0  0.09311  0.83283  0.55906  1.0000
  C   C626      1.0  0.07893  0.82673  0.57696  1.0000
  H   H1121     1.0  0.11002  0.80448  0.55613  1.0000
  H   H1122     1.0  0.14848  0.71838  0.77823  1.0000
  H   H1123     1.0  0.13250  0.91299  0.68221  1.0000
  H   H1124     1.0  0.15861  0.98280  0.78106  1.0000
  N   N35       1.0  0.99713  0.80845  0.77589  1.0000
  H   H1125     1.0  0.17351  0.62637  0.72629  1.0000
  H   H1126     1.0  0.17346  0.67885  0.79078  1.0000
  H   H1127     1.0  0.06787  0.96932  0.71189  1.0000
  H   H1128     1.0  0.15462  0.64718  0.89516  1.0000
  H   H1129     1.0  0.17938  0.96662  0.77298  1.0000
  H   H1130     1.0  0.02260  0.76958  0.77691  1.0000
  H   H1131     1.0  0.11548  0.90800  0.63101  1.0000
  H   H1132     1.0  0.10810  0.94468  0.62571  1.0000
  C   C627      1.0  0.15900  0.98001  0.74511  1.0000
  H   H1133     1.0  0.13037  0.83566  0.65420  1.0000
  H   H1134     1.0  0.02740  0.85008  0.77306  1.0000
  H   H1135     1.0  0.13771  0.82409  0.68848  1.0000
  S   S165      1.0  0.15708  0.62350  0.86939  1.0000
  Fe  Fe91      1.0  0.15186  0.92687  0.70213  1.0000
  H   H1136     1.0  0.07411  0.89994  0.55755  1.0000
  S   S166      1.0  0.16394  0.64836  0.77453  1.0000
  N   N36       1.0  0.09998  0.72256  0.96423  1.0000
  C   C628      1.0  0.17325  0.86991  0.66041  1.0000
  H   H1137     1.0  0.15700  0.83334  0.69085  1.0000
  C   C629      1.0  0.16308  0.52280  0.81638  1.0000
  C   C630      1.0  0.08876  0.81910  0.53182  1.0000
  C   C631      1.0  0.16867  0.65627  0.84692  1.0000
  C   C632      1.0  0.11970  0.87680  0.63988  1.0000
  H   H1138     1.0  0.12355  0.97806  0.74109  1.0000
  C   C633      1.0  0.01452  0.85649  0.76690  1.0000
  S   S167      1.0  0.18081  0.96368  0.66713  1.0000
  C   C634      1.0  0.14023  0.87366  0.64279  1.0000
  C   C635      1.0  0.11461  0.89565  0.62572  1.0000
  H   H1139     1.0  0.11787  0.86507  0.63441  1.0000
  H   H1140     1.0  0.00423  0.77296  0.76419  1.0000
  C   C636      1.0  0.17773  0.61401  0.73783  1.0000
  H   H1141     1.0  0.13596  0.79059  0.82035  1.0000
  C   C637      1.0  0.12860  0.79127  0.83521  1.0000
  H   H1142     1.0  0.16929  0.88410  0.65097  1.0000
  H   H1143     1.0  0.09988  0.89753  0.62393  1.0000
  H   H1144     1.0  0.16380  0.67848  0.89008  1.0000
  C   C638      1.0  0.12035  0.68912  0.95956  1.0000
  S   S168      1.0  0.16134  0.94136  0.63294  1.0000
  S   S169      1.0  0.16439  0.94558  0.71253  1.0000
  C   C639      1.0  0.15369  0.80364  0.64517  1.0000
  H   H1145     1.0  0.15333  0.80773  0.62978  1.0000
  H   H1146     1.0  0.15426  0.79441  0.84159  1.0000
  C   C640      1.0  0.16293  0.93902  0.55628  1.0000
  H   H1147     1.0  0.17486  0.83996  0.66263  1.0000
  H   H1148     1.0  0.03961  0.74161  0.94736  1.0000
  H   H1149     1.0  0.06070  0.74023  0.92885  1.0000
  H   H1150     1.0  0.08124  0.49031  0.83012  1.0000
  H   H1151     1.0  0.17528  0.55986  0.88369  1.0000
  H   H1152     1.0  0.08914  0.75126  0.96995  1.0000
  C   C641      1.0  0.99249  0.83627  0.70157  1.0000
  C   C642      1.0  0.18163  0.56940  0.87060  1.0000
  H   H1153     1.0  0.18786  0.96686  0.58221  1.0000
  H   H1154     1.0  0.18895  0.85297  0.87568  1.0000
  C   C643      1.0  0.99368  0.79451  0.79483  1.0000
  H   H1155     1.0  0.11998  0.77419  0.94585  1.0000
  H   H1156     1.0  0.09411  0.50370  0.80898  1.0000
  H   H1157     1.0  0.18849  0.93321  0.58206  1.0000
  C   C644      1.0  0.11923  0.71093  0.95718  1.0000
  H   H1158     1.0  0.18996  0.95970  0.55071  1.0000
  C   C645      1.0  0.18969  0.78250  0.47779  1.0000
  C   C646      1.0  0.18885  0.51642  0.75355  1.0000
  H   H1159     1.0  0.99096  0.78103  0.79327  1.0000
  Fe  Fe92      1.0  0.19010  0.93846  0.69009  1.0000
  H   H1160     1.0  0.18739  0.58684  0.88623  1.0000
  H   H1161     1.0  0.18893  0.56071  0.85969  1.0000
  H   H1162     1.0  0.13989  0.76927  0.97528  1.0000
  C   C647      1.0  0.18982  0.57193  0.69654  1.0000
  H   H1163     1.0  0.19942  0.10509  0.25181  1.0000
  H   H1164     1.0  0.34439  0.32127  0.39234  1.0000
  S   S170      1.0  0.33819  0.28388  0.34953  1.0000
  Fe  Fe93      1.0  0.24449  0.30695  0.44589  1.0000
  S   S171      1.0  0.22671  0.33563  0.45015  1.0000
  S   S172      1.0  0.23090  0.28126  0.45295  1.0000
  Fe  Fe94      1.0  0.28119  0.32140  0.43498  1.0000
  S   S173      1.0  0.26627  0.35114  0.43881  1.0000
  S   S174      1.0  0.31284  0.31701  0.42419  1.0000
  Fe  Fe95      1.0  0.24882  0.33625  0.46541  1.0000
  H   H1165     1.0  0.19948  0.21886  0.25567  1.0000
  Fe  Fe96      1.0  0.24587  0.34774  0.42322  1.0000
  S   S175      1.0  0.23544  0.36940  0.39824  1.0000
  S   S176      1.0  0.26548  0.30664  0.46293  1.0000
  S   S177      1.0  0.26188  0.31881  0.41777  1.0000
  H   H1166     1.0  0.33607  0.36322  0.38774  1.0000
  Fe  Fe97      1.0  0.30977  0.44046  0.27710  1.0000
  S   S178      1.0  0.28482  0.42764  0.29468  1.0000
  S   S179      1.0  0.33716  0.42520  0.26129  1.0000
  H   H1167     1.0  0.29830  0.29141  0.41137  1.0000
  H   H1168     1.0  0.35651  0.16455  0.18059  1.0000
  Fe  Fe98      1.0  0.28756  0.44089  0.31737  1.0000
  S   S180      1.0  0.29100  0.42403  0.34687  1.0000
  Fe  Fe99      1.0  0.26743  0.45688  0.28434  1.0000
  S   S181      1.0  0.23955  0.46423  0.27468  1.0000
  S   S182      1.0  0.31375  0.45173  0.30043  1.0000
  S   S183      1.0  0.29226  0.46850  0.26475  1.0000
  Fe  Fe100     1.0  0.33034  0.22125  0.07357  1.0000
  S   S184      1.0  0.30827  0.21527  0.09997  1.0000
  S   S185      1.0  0.36190  0.21546  0.07211  1.0000
  Fe  Fe101     1.0  0.30126  0.23352  0.04762  1.0000
  S   S186      1.0  0.27676  0.22845  0.07206  1.0000
  S   S187      1.0  0.29824  0.24527  0.01703  1.0000
  Fe  Fe102     1.0  0.29032  0.24255  0.08670  1.0000
  S   S188      1.0  0.27683  0.26613  0.10265  1.0000
  Fe  Fe103     1.0  0.29709  0.20163  0.08283  1.0000
  S   S189      1.0  0.29267  0.17129  0.09278  1.0000
  S   S190      1.0  0.31335  0.24976  0.06140  1.0000
  S   S191      1.0  0.32051  0.20565  0.05718  1.0000
  H   H1169     1.0  0.32069  0.30000  0.17525  1.0000
  Fe  Fe104     1.0  0.30413  0.12831  0.20673  1.0000
  S   S192      1.0  0.27505  0.14457  0.21734  1.0000
  S   S193      1.0  0.33083  0.13985  0.20011  1.0000
  Fe  Fe105     1.0  0.28940  0.09354  0.20580  1.0000
  S   S194      1.0  0.25922  0.10732  0.21596  1.0000
  S   S195      1.0  0.29794  0.06309  0.20140  1.0000
  Fe  Fe106     1.0  0.26666  0.13409  0.19579  1.0000
  S   S196      1.0  0.24708  0.15444  0.17754  1.0000
  Fe  Fe107     1.0  0.27062  0.11624  0.23648  1.0000
  S   S197      1.0  0.25722  0.11121  0.26765  1.0000
  S   S198      1.0  0.29616  0.11965  0.18371  1.0000
  S   S199      1.0  0.30049  0.10065  0.22771  1.0000
  H   H1170     1.0  0.29607  0.28212  0.99086  1.0000
  C   C648      1.0  0.28427  0.31136  0.06921  1.0000
  H   H1171     1.0  0.27323  0.40585  0.14439  1.0000
  H   H1172     1.0  0.34443  0.29842  0.16089  1.0000
  C   C649      1.0  0.22371  0.25582  0.00037  1.0000
  H   H1173     1.0  0.22131  0.36086  0.19558  1.0000
  H   H1174     1.0  0.20131  0.18821  0.32406  1.0000
  S   S200      1.0  0.24294  0.02871  0.17407  1.0000
  C   C650      1.0  0.26662  0.29308  0.00371  1.0000
  H   H1175     1.0  0.27892  0.28178  0.02875  1.0000
  C   C651      1.0  0.26181  0.30381  0.05321  1.0000
  H   H1176     1.0  0.31560  0.26323  0.16415  1.0000
  H   H1177     1.0  0.34192  0.21875  0.00250  1.0000
  H   H1178     1.0  0.30863  0.27844  0.38209  1.0000
  C   C652      1.0  0.24598  0.32515  0.02712  1.0000
  C   C653      1.0  0.23299  0.12153  0.27138  1.0000
  C   C654      1.0  0.22077  0.11411  0.28793  1.0000
  C   C655      1.0  0.19426  0.44434  0.29107  1.0000
  H   H1179     1.0  0.22354  0.10715  0.24221  1.0000
  H   H1180     1.0  0.25466  0.30445  0.99911  1.0000
  C   C656      1.0  0.22567  0.13666  0.25762  1.0000
  H   H1181     1.0  0.22645  0.10237  0.29856  1.0000
  H   H1182     1.0  0.30650  0.15388  0.01107  1.0000
  Fe  Fe108     1.0  0.36196  0.31914  0.28468  1.0000
  H   H1183     1.0  0.23506  0.14241  0.24478  1.0000
  C   C657      1.0  0.28202  0.05334  0.19490  1.0000
  C   C658      1.0  0.26416  0.06417  0.19208  1.0000
  C   C659      1.0  0.25210  0.05621  0.18618  1.0000
  C   C660      1.0  0.25786  0.03748  0.18295  1.0000
  C   C661      1.0  0.27550  0.02648  0.18620  1.0000
  C   C662      1.0  0.28756  0.03443  0.19214  1.0000
  H   H1184     1.0  0.25978  0.07875  0.19413  1.0000
  H   H1185     1.0  0.23834  0.06463  0.18393  1.0000
  H   H1186     1.0  0.28003  0.01201  0.18378  1.0000
  H   H1187     1.0  0.30135  0.02597  0.19434  1.0000
  C   C663      1.0  0.25215  0.27406  0.10590  1.0000
  C   C664      1.0  0.24410  0.29194  0.11067  1.0000
  C   C665      1.0  0.22458  0.29929  0.11239  1.0000
  C   C666      1.0  0.21295  0.28858  0.10979  1.0000
  C   C667      1.0  0.22081  0.27026  0.10589  1.0000
  C   C668      1.0  0.24051  0.26310  0.10366  1.0000
  H   H1188     1.0  0.25298  0.30038  0.11262  1.0000
  H   H1189     1.0  0.21853  0.31334  0.11565  1.0000
  H   H1190     1.0  0.20319  0.28852  0.04496  1.0000
  H   H1191     1.0  0.24664  0.24913  0.10026  1.0000
  C   C669      1.0  0.28564  0.23354  0.00845  1.0000
  C   C670      1.0  0.28474  0.23882  0.98914  1.0000
  C   C671      1.0  0.35325  0.29952  0.23440  1.0000
  C   C672      1.0  0.26832  0.21315  0.99334  1.0000
  C   C673      1.0  0.26832  0.20854  0.01286  1.0000
  C   C674      1.0  0.27721  0.21852  0.02037  1.0000
  H   H1192     1.0  0.26199  0.19677  0.02208  1.0000
  H   H1193     1.0  0.27780  0.21437  0.03531  1.0000
  C   C675      1.0  0.25899  0.15909  0.15368  1.0000
  C   C676      1.0  0.27230  0.14438  0.14609  1.0000
  C   C677      1.0  0.28212  0.14815  0.12714  1.0000
  C   C678      1.0  0.27897  0.16673  0.11585  1.0000
  C   C679      1.0  0.26553  0.18145  0.12331  1.0000
  C   C680      1.0  0.25530  0.17753  0.14217  1.0000
  H   H1194     1.0  0.27479  0.13006  0.15480  1.0000
  H   H1195     1.0  0.29264  0.13687  0.12135  1.0000
  H   H1196     1.0  0.26307  0.19583  0.11459  1.0000
  H   H1197     1.0  0.24496  0.18891  0.14800  1.0000
  C   C681      1.0  0.37355  0.21359  0.12345  1.0000
  C   C682      1.0  0.36340  0.21483  0.10943  1.0000
  C   C683      1.0  0.19105  0.41378  0.14184  1.0000
  C   C684      1.0  0.22262  0.29803  0.05612  1.0000
  H   H1198     1.0  0.36596  0.21579  0.13746  1.0000
  H   H1199     1.0  0.34805  0.21800  0.11267  1.0000
  H   H1200     1.0  0.33646  0.34441  0.42024  1.0000
  C   C685      1.0  0.34357  0.17326  0.18687  1.0000
  C   C686      1.0  0.32826  0.16478  0.19743  1.0000
  C   C687      1.0  0.31153  0.17629  0.20551  1.0000
  C   C688      1.0  0.31059  0.19600  0.20370  1.0000
  H   H1201     1.0  0.29963  0.16992  0.21375  1.0000
  H   H1202     1.0  0.29800  0.20468  0.21068  1.0000
  C   C689      1.0  0.23735  0.45421  0.25664  1.0000
  C   C690      1.0  0.24653  0.43537  0.25516  1.0000
  C   C691      1.0  0.24175  0.42655  0.24303  1.0000
  C   C692      1.0  0.22786  0.43654  0.23232  1.0000
  H   H1203     1.0  0.25668  0.42736  0.26396  1.0000
  H   H1204     1.0  0.24841  0.41177  0.24239  1.0000
  C   C693      1.0  0.21755  0.27919  0.43767  1.0000
  C   C694      1.0  0.21995  0.28918  0.41866  1.0000
  H   H1205     1.0  0.21333  0.19728  0.46553  1.0000
  H   H1206     1.0  0.24105  0.07051  0.14498  1.0000
  H   H1207     1.0  0.22296  0.43747  0.31112  1.0000
  C   C695      1.0  0.20550  0.26602  0.44428  1.0000
  H   H1208     1.0  0.22916  0.29943  0.41357  1.0000
  C   C696      1.0  0.34016  0.35831  0.45492  1.0000
  H   H1209     1.0  0.23537  0.29218  0.02846  1.0000
  H   H1210     1.0  0.29816  0.38891  0.20090  1.0000
  H   H1211     1.0  0.26225  0.27902  0.00725  1.0000
  C   C697      1.0  0.32471  0.36773  0.39964  1.0000
  H   H1212     1.0  0.20096  0.02787  0.21962  1.0000
  H   H1213     1.0  0.20461  0.22088  0.45256  1.0000
  H   H1214     1.0  0.27329  0.27321  0.16189  1.0000
  N   N37       1.0  0.35287  0.38775  0.32783  1.0000
  H   H1215     1.0  0.33308  0.41443  0.33150  1.0000
  H   H1216     1.0  0.29819  0.28392  0.16801  1.0000
  H   H1217     1.0  0.37508  0.15731  0.07966  1.0000
  C   C698      1.0  0.25053  0.38507  0.38418  1.0000
  C   C699      1.0  0.24638  0.39698  0.36695  1.0000
  C   C700      1.0  0.25875  0.40894  0.35517  1.0000
  C   C701      1.0  0.27511  0.40925  0.36081  1.0000
  C   C702      1.0  0.27913  0.39747  0.37805  1.0000
  C   C703      1.0  0.26703  0.38526  0.38958  1.0000
  H   H1218     1.0  0.23365  0.39688  0.36266  1.0000
  H   H1219     1.0  0.25554  0.41806  0.34189  1.0000
  H   H1220     1.0  0.29173  0.39772  0.38247  1.0000
  H   H1221     1.0  0.27047  0.37608  0.40266  1.0000
  C   C704      1.0  0.34185  0.36195  0.26292  1.0000
  C   C705      1.0  0.32554  0.37543  0.25871  1.0000
  C   C706      1.0  0.32379  0.39491  0.25852  1.0000
  C   C707      1.0  0.33864  0.40096  0.26186  1.0000
  C   C708      1.0  0.35517  0.38755  0.26545  1.0000
  H   H1222     1.0  0.32101  0.19912  0.39551  1.0000
  H   H1223     1.0  0.31107  0.40528  0.25558  1.0000
  C   C709      1.0  0.33195  0.29301  0.37026  1.0000
  C   C710      1.0  0.34213  0.30504  0.37317  1.0000
  C   C711      1.0  0.33651  0.31205  0.39001  1.0000
  C   C712      1.0  0.32041  0.30748  0.40362  1.0000
  C   C713      1.0  0.31035  0.29542  0.40068  1.0000
  C   C714      1.0  0.31624  0.28804  0.38415  1.0000
  H   H1224     1.0  0.35436  0.30878  0.36253  1.0000
  H   H1225     1.0  0.31476  0.20396  0.99432  1.0000
  Fe  Fe109     1.0  0.19363  0.43948  0.20787  1.0000
  C   C715      1.0  0.37178  0.17147  0.22844  1.0000
  H   H1226     1.0  0.30897  0.06881  0.14896  1.0000
  H   H1227     1.0  0.22262  0.01587  0.24154  1.0000
  H   H1228     1.0  0.30017  0.17727  0.01668  1.0000
  H   H1229     1.0  0.21500  0.24773  0.99683  1.0000
  N   N38       1.0  0.25442  0.22359  0.40937  1.0000
  C   C716      1.0  0.25659  0.24345  0.39802  1.0000
  C   C717      1.0  0.24918  0.21334  0.39712  1.0000
  C   C718      1.0  0.23921  0.22560  0.42705  1.0000
  C   C719      1.0  0.27261  0.21200  0.41538  1.0000
  C   C720      1.0  0.29071  0.21095  0.39926  1.0000
  C   C721      1.0  0.26435  0.25531  0.40744  1.0000
  C   C722      1.0  0.23021  0.22281  0.39037  1.0000
  C   C723      1.0  0.22478  0.20982  0.38070  1.0000
  C   C724      1.0  0.26724  0.27443  0.39393  1.0000
  H   H1230     1.0  0.24258  0.25228  0.39524  1.0000
  H   H1231     1.0  0.26570  0.24279  0.38365  1.0000
  H   H1232     1.0  0.26025  0.21252  0.38389  1.0000
  H   H1233     1.0  0.24887  0.19811  0.40446  1.0000
  H   H1234     1.0  0.22646  0.23618  0.42333  1.0000
  H   H1235     1.0  0.27123  0.19688  0.42206  1.0000
  H   H1236     1.0  0.29335  0.22543  0.39163  1.0000
  H   H1237     1.0  0.28947  0.20345  0.38874  1.0000
  H   H1238     1.0  0.25424  0.25852  0.42060  1.0000
  H   H1239     1.0  0.27822  0.24768  0.41120  1.0000
  H   H1240     1.0  0.22645  0.20062  0.43099  1.0000
  H   H1241     1.0  0.21838  0.22586  0.40236  1.0000
  H   H1242     1.0  0.23143  0.23660  0.37992  1.0000
  H   H1243     1.0  0.24802  0.02973  0.12067  1.0000
  H   H1244     1.0  0.28214  0.38547  0.17706  1.0000
  H   H1245     1.0  0.21125  0.21710  0.37591  1.0000
  H   H1246     1.0  0.27826  0.27184  0.38111  1.0000
  H   H1247     1.0  0.25383  0.28277  0.38948  1.0000
  H   H1248     1.0  0.27198  0.28307  0.40118  1.0000
  N   N39       1.0  0.26278  0.33928  0.34877  1.0000
  C   C725      1.0  0.26655  0.35078  0.32854  1.0000
  C   C726      1.0  0.26857  0.31795  0.34906  1.0000
  C   C727      1.0  0.24161  0.34416  0.35662  1.0000
  C   C728      1.0  0.27264  0.34462  0.36124  1.0000
  C   C729      1.0  0.29453  0.33937  0.35691  1.0000
  C   C730      1.0  0.26054  0.37302  0.32567  1.0000
  C   C731      1.0  0.23370  0.33091  0.37559  1.0000
  C   C732      1.0  0.28616  0.31117  0.33393  1.0000
  C   C733      1.0  0.29209  0.28927  0.33782  1.0000
  C   C734      1.0  0.30257  0.34845  0.36838  1.0000
  C   C735      1.0  0.26308  0.38267  0.30449  1.0000
  C   C736      1.0  0.21232  0.33792  0.38204  1.0000
  H   H1249     1.0  0.25922  0.34624  0.31976  1.0000
  H   H1250     1.0  0.28184  0.34771  0.32183  1.0000
  H   H1251     1.0  0.27097  0.30973  0.36345  1.0000
  H   H1252     1.0  0.25686  0.31286  0.34649  1.0000
  H   H1253     1.0  0.23358  0.34413  0.34596  1.0000
  H   H1254     1.0  0.23738  0.35894  0.35942  1.0000
  H   H1255     1.0  0.26813  0.36020  0.36103  1.0000
  H   H1256     1.0  0.26821  0.33756  0.37637  1.0000
  H   H1257     1.0  0.30059  0.34434  0.34169  1.0000
  H   H1258     1.0  0.29938  0.32355  0.36102  1.0000
  H   H1259     1.0  0.24541  0.37776  0.33217  1.0000
  H   H1260     1.0  0.26936  0.37858  0.33198  1.0000
  H   H1261     1.0  0.24045  0.33077  0.38718  1.0000
  H   H1262     1.0  0.23600  0.31590  0.37408  1.0000
  H   H1263     1.0  0.28269  0.31604  0.31954  1.0000
  H   H1264     1.0  0.29867  0.31683  0.33337  1.0000
  H   H1265     1.0  0.29711  0.28375  0.35141  1.0000
  H   H1266     1.0  0.28012  0.28268  0.33841  1.0000
  H   H1267     1.0  0.30407  0.28493  0.32627  1.0000
  H   H1268     1.0  0.29889  0.36435  0.36411  1.0000
  H   H1269     1.0  0.29691  0.34385  0.38389  1.0000
  H   H1270     1.0  0.31826  0.34391  0.36562  1.0000
  H   H1271     1.0  0.27791  0.37835  0.29679  1.0000
  H   H1272     1.0  0.25330  0.37884  0.29784  1.0000
  H   H1273     1.0  0.25978  0.39852  0.30283  1.0000
  H   H1274     1.0  0.20460  0.33727  0.37145  1.0000
  H   H1275     1.0  0.20705  0.32870  0.39591  1.0000
  H   H1276     1.0  0.20915  0.35291  0.38402  1.0000
  H   H1277     1.0  0.30184  0.23579  0.15535  1.0000
  H   H1278     1.0  0.35068  0.34630  0.44923  1.0000
  C   C737      1.0  0.23032  0.45967  0.13845  1.0000
  H   H1279     1.0  0.29206  0.29618  0.07220  1.0000
  H   H1280     1.0  0.25481  0.10930  0.06032  1.0000
  C   C738      1.0  0.23270  0.20691  0.43923  1.0000
  H   H1281     1.0  0.36416  0.12264  0.15425  1.0000
  N   N40       1.0  0.22526  0.06686  0.25552  1.0000
  H   H1282     1.0  0.21370  0.27062  0.06341  1.0000
  H   H1283     1.0  0.19948  0.05109  0.32234  1.0000
  H   H1284     1.0  0.30825  0.38306  0.46550  1.0000
  C   C739      1.0  0.24516  0.06956  0.25334  1.0000
  C   C740      1.0  0.25686  0.05606  0.26790  1.0000
  H   H1285     1.0  0.21267  0.15519  0.32921  1.0000
  H   H1286     1.0  0.37307  0.34156  0.47019  1.0000
  C   C741      1.0  0.21187  0.05524  0.29202  1.0000
  H   H1287     1.0  0.23595  0.20676  0.36809  1.0000
  C   C742      1.0  0.27765  0.05793  0.26172  1.0000
  H   H1288     1.0  0.28523  0.29298  0.11942  1.0000
  H   H1289     1.0  0.30432  0.33548  0.45739  1.0000
  H   H1290     1.0  0.23080  0.03590  0.26628  1.0000
  H   H1291     1.0  0.20116  0.37013  0.18426  1.0000
  H   H1292     1.0  0.33900  0.30393  0.23077  1.0000
  H   H1293     1.0  0.35989  0.28494  0.23157  1.0000
  H   H1294     1.0  0.25361  0.06853  0.23880  1.0000
  H   H1295     1.0  0.24482  0.08432  0.25446  1.0000
  H   H1296     1.0  0.25675  0.04075  0.26950  1.0000
  H   H1297     1.0  0.25128  0.06016  0.28191  1.0000
  H   H1298     1.0  0.32778  0.29625  0.47117  1.0000
  H   H1299     1.0  0.25081  0.04263  0.23185  1.0000
  C   C743      1.0  0.35882  0.36773  0.33950  1.0000
  C   C744      1.0  0.23600  0.04047  0.23570  1.0000
  H   H1300     1.0  0.22612  0.04738  0.29448  1.0000
  H   H1301     1.0  0.24977  0.30913  0.06421  1.0000
  H   H1302     1.0  0.23275  0.05220  0.11240  1.0000
  H   H1303     1.0  0.27882  0.07293  0.26046  1.0000
  H   H1304     1.0  0.28574  0.04834  0.27248  1.0000
  H   H1305     1.0  0.28420  0.05379  0.24779  1.0000
  H   H1306     1.0  0.28285  0.30473  0.01655  1.0000
  H   H1307     1.0  0.24414  0.01524  0.22346  1.0000
  C   C745      1.0  0.30495  0.16954  0.00483  1.0000
  C   C746      1.0  0.24690  0.07437  0.12941  1.0000
  N   N41       1.0  0.34030  0.15398  0.13311  1.0000
  C   C747      1.0  0.34689  0.15042  0.11318  1.0000
  C   C748      1.0  0.33634  0.13554  0.14678  1.0000
  C   C749      1.0  0.32176  0.16856  0.13371  1.0000
  C   C750      1.0  0.31073  0.17186  0.15370  1.0000
  C   C751      1.0  0.35363  0.11866  0.14874  1.0000
  C   C752      1.0  0.34776  0.10098  0.16310  1.0000
  C   C753      1.0  0.29630  0.19088  0.15254  1.0000
  H   H1308     1.0  0.33698  0.14308  0.11029  1.0000
  H   H1309     1.0  0.33040  0.13796  0.16146  1.0000
  H   H1310     1.0  0.32526  0.13055  0.14291  1.0000
  H   H1311     1.0  0.31199  0.16451  0.12722  1.0000
  H   H1312     1.0  0.32434  0.18275  0.12493  1.0000
  H   H1313     1.0  0.33368  0.17604  0.09456  1.0000
  H   H1314     1.0  0.32050  0.17212  0.16242  1.0000
  H   H1315     1.0  0.30285  0.16016  0.16114  1.0000
  H   H1316     1.0  0.36044  0.11444  0.13494  1.0000
  H   H1317     1.0  0.36039  0.08908  0.16422  1.0000
  H   H1318     1.0  0.34159  0.10430  0.17743  1.0000
  H   H1319     1.0  0.33718  0.09604  0.15858  1.0000
  C   C754      1.0  0.37325  0.21244  0.09109  1.0000
  H   H1320     1.0  0.28702  0.19216  0.14267  1.0000
  H   H1321     1.0  0.28729  0.19152  0.16690  1.0000
  H   H1322     1.0  0.30369  0.20314  0.14756  1.0000
  H   H1323     1.0  0.24726  0.27696  0.04664  1.0000
  C   C755      1.0  0.33210  0.29123  0.16631  1.0000
  C   C756      1.0  0.34814  0.16868  0.09702  1.0000
  C   C757      1.0  0.27543  0.07936  0.13617  1.0000
  C   C758      1.0  0.24806  0.10676  0.13097  1.0000
  S   S201      1.0  0.35988  0.32662  0.31241  1.0000
  C   C759      1.0  0.28994  0.09198  0.13354  1.0000
  H   H1324     1.0  0.25872  0.36728  0.99665  1.0000
  C   C760      1.0  0.30204  0.08415  0.14864  1.0000
  H   H1325     1.0  0.24477  0.19605  0.44424  1.0000
  H   H1326     1.0  0.27623  0.10511  0.10122  1.0000
  H   H1327     1.0  0.25565  0.11888  0.12454  1.0000
  H   H1328     1.0  0.23730  0.47199  0.13094  1.0000
  C   C761      1.0  0.20570  0.14694  0.32366  1.0000
  C   C762      1.0  0.26868  0.09309  0.10428  1.0000
  H   H1329     1.0  0.29960  0.09235  0.11933  1.0000
  H   H1330     1.0  0.28284  0.10689  0.13458  1.0000
  H   H1331     1.0  0.24327  0.11145  0.09402  1.0000
  N   N42       1.0  0.25514  0.30477  0.03543  1.0000
  H   H1332     1.0  0.20727  0.44740  0.10414  1.0000
  H   H1333     1.0  0.33643  0.40049  0.30569  1.0000
  H   H1334     1.0  0.31317  0.09264  0.14544  1.0000
  C   C763      1.0  0.24359  0.44406  0.14972  1.0000
  H   H1335     1.0  0.20428  0.07678  0.23772  1.0000
  H   H1336     1.0  0.27128  0.11785  0.06820  1.0000
  H   H1337     1.0  0.26751  0.28853  0.05972  1.0000
  S   S202      1.0  0.20043  0.35960  0.02733  1.0000
  H   H1338     1.0  0.19502  0.19577  0.25653  1.0000
  H   H1339     1.0  0.29336  0.24535  0.17654  1.0000
  C   C764      1.0  0.27169  0.29610  0.02151  1.0000
  H   H1340     1.0  0.36915  0.35763  0.26984  1.0000
  H   H1341     1.0  0.20551  0.44170  0.27838  1.0000
  H   H1342     1.0  0.32510  0.36358  0.30076  1.0000
  H   H1343     1.0  0.20853  0.07287  0.31240  1.0000
  C   C765      1.0  0.25916  0.33769  0.01205  1.0000
  H   H1344     1.0  0.27608  0.26462  0.14105  1.0000
  H   H1345     1.0  0.32762  0.36285  0.33295  1.0000
  H   H1346     1.0  0.32065  0.38367  0.39651  1.0000
  H   H1347     1.0  0.27242  0.31392  0.08147  1.0000
  C   C766      1.0  0.33185  0.36021  0.41826  1.0000
  H   H1348     1.0  0.30290  0.36305  0.43403  1.0000
  H   H1349     1.0  0.31224  0.36172  0.40052  1.0000
  H   H1350     1.0  0.26516  0.32717  0.11719  1.0000
  H   H1351     1.0  0.28243  0.33561  0.12421  1.0000
  H   H1352     1.0  0.19354  0.39760  0.25228  1.0000
  C   C767      1.0  0.27679  0.31578  0.05095  1.0000
  C   C768      1.0  0.22797  0.12449  0.15670  1.0000
  H   H1353     1.0  0.32840  0.16507  0.98166  1.0000
  H   H1354     1.0  0.30195  0.36943  0.31525  1.0000
  H   H1355     1.0  0.27649  0.09320  0.06552  1.0000
  H   H1356     1.0  0.31193  0.38831  0.29823  1.0000
  C   C769      1.0  0.34214  0.19305  0.18404  1.0000
  H   H1357     1.0  0.21698  0.46495  0.14810  1.0000
  H   H1358     1.0  0.25844  0.33742  0.13791  1.0000
  H   H1359     1.0  0.38781  0.15790  0.30524  1.0000
  H   H1360     1.0  0.23490  0.11144  0.12513  1.0000
  H   H1361     1.0  0.27695  0.22021  0.17923  1.0000
  H   H1362     1.0  0.33675  0.27689  0.17529  1.0000
  C   C770      1.0  0.28901  0.40165  0.19351  1.0000
  C   C771      1.0  0.20480  0.43348  0.11250  1.0000
  H   H1363     1.0  0.30675  0.18489  0.41467  1.0000
  C   C772      1.0  0.31413  0.26390  0.12832  1.0000
  C   C773      1.0  0.32476  0.27505  0.10942  1.0000
  C   C774      1.0  0.21120  0.28514  0.40605  1.0000
  H   H1364     1.0  0.32498  0.25338  0.13584  1.0000
  H   H1365     1.0  0.30706  0.25484  0.12377  1.0000
  H   H1366     1.0  0.31471  0.28268  0.09981  1.0000
  H   H1367     1.0  0.33128  0.28577  0.11188  1.0000
  H   H1368     1.0  0.22342  0.31624  0.98274  1.0000
  C   C775      1.0  0.38548  0.30815  0.22701  1.0000
  H   H1369     1.0  0.20127  0.12694  0.35120  1.0000
  H   H1370     1.0  0.20893  0.46357  0.22463  1.0000
  H   H1371     1.0  0.33431  0.16880  0.00212  1.0000
  H   H1372     1.0  0.22239  0.41261  0.32198  1.0000
  H   H1373     1.0  0.22257  0.19606  0.39082  1.0000
  H   H1374     1.0  0.33101  0.43521  0.35309  1.0000
  H   H1375     1.0  0.26768  0.25282  0.46559  1.0000
  C   C776      1.0  0.33502  0.42190  0.36377  1.0000
  H   H1376     1.0  0.20459  0.25877  0.02765  1.0000
  H   H1377     1.0  0.22789  0.28453  0.99591  1.0000
  Fe  Fe110     1.0  0.20149  0.36652  0.09373  1.0000
  H   H1378     1.0  0.28734  0.30733  0.98176  1.0000
  C   C777      1.0  0.37991  0.15162  0.22290  1.0000
  H   H1379     1.0  0.33136  0.13327  0.24785  1.0000
  C   C778      1.0  0.35398  0.19124  0.25234  1.0000
  C   C779      1.0  0.21722  0.08066  0.23906  1.0000
  H   H1380     1.0  0.24312  0.36479  0.01981  1.0000
  C   C780      1.0  0.34727  0.20296  0.00476  1.0000
  H   H1381     1.0  0.35090  0.17779  0.13585  1.0000
  H   H1382     1.0  0.35670  0.14276  0.25686  1.0000
  H   H1383     1.0  0.20378  0.38167  0.20156  1.0000
  H   H1384     1.0  0.38331  0.17453  0.14408  1.0000
  H   H1385     1.0  0.26504  0.05681  0.10869  1.0000
  H   H1386     1.0  0.19834  0.21886  0.33331  1.0000
  S   S203      1.0  0.22720  0.98864  0.16278  1.0000
  C   C781      1.0  0.20114  0.12143  0.29047  1.0000
  C   C782      1.0  0.27639  0.22844  0.98152  1.0000
  C   C783      1.0  0.26466  0.23840  0.47320  1.0000
  H   H1387     1.0  0.30475  0.98770  0.09861  1.0000
  H   H1388     1.0  0.22619  0.29540  0.07020  1.0000
  H   H1389     1.0  0.37176  0.36718  0.46114  1.0000
  H   H1390     1.0  0.31372  0.38223  0.43284  1.0000
  S   S204      1.0  0.19080  0.46686  0.18560  1.0000
  C   C784      1.0  0.25614  0.05494  0.12325  1.0000
  C   C785      1.0  0.21168  0.10229  0.23997  1.0000
  H   H1391     1.0  0.22897  0.25972  0.02637  1.0000
  Fe  Fe111     1.0  0.24833  0.99698  0.17411  1.0000
  H   H1392     1.0  0.37786  0.37374  0.35463  1.0000
  C   C786      1.0  0.20093  0.06313  0.30968  1.0000
  C   C787      1.0  0.21223  0.41721  0.10448  1.0000
  C   C788      1.0  0.35416  0.16175  0.13907  1.0000
  H   H1393     1.0  0.36822  0.18202  0.01957  1.0000
  H   H1394     1.0  0.36082  0.14032  0.11150  1.0000
  H   H1395     1.0  0.32841  0.23034  0.97762  1.0000
  C   C789      1.0  0.24106  0.04423  0.12352  1.0000
  H   H1396     1.0  0.26940  0.07483  0.15157  1.0000
  C   C790      1.0  0.33212  0.16272  0.24740  1.0000
  C   C791      1.0  0.36544  0.31402  0.22238  1.0000
  C   C792      1.0  0.34395  0.20562  0.23678  1.0000
  C   C793      1.0  0.33278  0.22399  0.24348  1.0000
  C   C794      1.0  0.32186  0.14599  0.25303  1.0000
  C   C795      1.0  0.21164  0.37418  0.18983  1.0000
  H   H1397     1.0  0.36186  0.41247  0.34627  1.0000
  H   H1398     1.0  0.36135  0.17908  0.21930  1.0000
  H   H1399     1.0  0.27999  0.08085  0.10008  1.0000
  C   C796      1.0  0.38880  0.34253  0.18567  1.0000
  H   H1400     1.0  0.33654  0.16592  0.23173  1.0000
  H   H1401     1.0  0.32170  0.17533  0.25188  1.0000
  H   H1402     1.0  0.27538  0.21747  0.42672  1.0000
  H   H1403     1.0  0.34726  0.36423  0.35198  1.0000
  H   H1404     1.0  0.35475  0.20990  0.22396  1.0000
  H   H1405     1.0  0.33410  0.19955  0.23248  1.0000
  H   H1406     1.0  0.34235  0.23099  0.24727  1.0000
  H   H1407     1.0  0.37519  0.20474  0.00749  1.0000
  H   H1408     1.0  0.31697  0.14206  0.26872  1.0000
  H   H1409     1.0  0.30927  0.15017  0.24637  1.0000
  C   C797      1.0  0.21751  0.21090  0.45682  1.0000
  H   H1410     1.0  0.32800  0.39438  0.34963  1.0000
  C   C798      1.0  0.27016  0.32835  0.12953  1.0000
  N   N43       1.0  0.24799  0.40824  0.16702  1.0000
  C   C799      1.0  0.23422  0.42679  0.16137  1.0000
  C   C800      1.0  0.23716  0.39382  0.18103  1.0000
  S   S205      1.0  0.26807  0.46924  0.30871  1.0000
  C   C801      1.0  0.26000  0.40004  0.15011  1.0000
  C   C802      1.0  0.25068  0.40374  0.13272  1.0000
  H   H1411     1.0  0.29101  0.25057  0.97995  1.0000
  C   C803      1.0  0.27441  0.39516  0.18693  1.0000
  C   C804      1.0  0.22284  0.38729  0.17378  1.0000
  H   H1412     1.0  0.23416  0.13726  0.14887  1.0000
  C   C805      1.0  0.26228  0.39107  0.11876  1.0000
  H   H1413     1.0  0.34159  0.42550  0.37374  1.0000
  C   C806      1.0  0.19867  0.42798  0.30829  1.0000
  H   H1414     1.0  0.36042  0.18064  0.98861  1.0000
  H   H1415     1.0  0.22455  0.42493  0.15329  1.0000
  H   H1416     1.0  0.24702  0.38030  0.18601  1.0000
  H   H1417     1.0  0.22939  0.39957  0.19393  1.0000
  H   H1418     1.0  0.35905  0.41567  0.29152  1.0000
  H   H1419     1.0  0.21808  0.11346  0.20924  1.0000
  H   H1420     1.0  0.21016  0.04523  0.25680  1.0000
  H   H1421     1.0  0.26505  0.38424  0.15469  1.0000
  H   H1422     1.0  0.20118  0.41513  0.27212  1.0000
  H   H1423     1.0  0.23612  0.40103  0.13688  1.0000
  H   H1424     1.0  0.19231  0.26310  0.14842  1.0000
  C   C807      1.0  0.21267  0.07166  0.27389  1.0000
  H   H1425     1.0  0.20430  0.04469  0.29076  1.0000
  H   H1426     1.0  0.26629  0.38693  0.19986  1.0000
  H   H1427     1.0  0.21248  0.39973  0.16802  1.0000
  H   H1428     1.0  0.23038  0.37892  0.16269  1.0000
  H   H1429     1.0  0.34725  0.26980  0.08498  1.0000
  C   C808      1.0  0.32394  0.17380  0.99268  1.0000
  S   S206      1.0  0.21292  0.34155  0.07907  1.0000
  H   H1430     1.0  0.25558  0.39459  0.10624  1.0000
  C   C809      1.0  0.28473  0.36947  0.46947  1.0000
  H   H1431     1.0  0.26258  0.37565  0.12559  1.0000
  H   H1432     1.0  0.24544  0.01031  0.24817  1.0000
  C   C810      1.0  0.20782  0.28616  0.05855  1.0000
  H   H1433     1.0  0.29310  0.08554  0.16287  1.0000
  C   C811      1.0  0.32223  0.19552  0.98322  1.0000
  H   H1434     1.0  0.25502  0.23479  0.46621  1.0000
  H   H1435     1.0  0.22754  0.07957  0.22533  1.0000
  C   C812      1.0  0.27568  0.30847  0.14208  1.0000
  C   C813      1.0  0.37562  0.15589  0.13027  1.0000
  H   H1436     1.0  0.22285  0.23714  0.02844  1.0000
  C   C814      1.0  0.34175  0.38613  0.31430  1.0000
  C   C815      1.0  0.33999  0.40098  0.34034  1.0000
  C   C816      1.0  0.26085  0.41265  0.17724  1.0000
  H   H1437     1.0  0.38770  0.32998  0.16286  1.0000
  H   H1438     1.0  0.21663  0.08378  0.27707  1.0000
  H   H1439     1.0  0.20774  0.17685  0.29587  1.0000
  H   H1440     1.0  0.38593  0.33726  0.24047  1.0000
  H   H1441     1.0  0.22488  0.12425  0.17216  1.0000
  C   C817      1.0  0.38467  0.42253  0.29260  1.0000
  S   S207      1.0  0.25868  0.19930  0.98398  1.0000
  S   S208      1.0  0.35968  0.28846  0.29726  1.0000
  C   C818      1.0  0.26504  0.10522  0.06990  1.0000
  C   C819      1.0  0.20877  0.39918  0.11491  1.0000
  C   C820      1.0  0.34054  0.26153  0.09880  1.0000
  H   H1442     1.0  0.28097  0.37707  0.45553  1.0000
  H   H1443     1.0  0.23888  0.24937  0.99573  1.0000
  H   H1444     1.0  0.38688  0.14948  0.15599  1.0000
  H   H1445     1.0  0.38342  0.35578  0.15732  1.0000
  H   H1446     1.0  0.33472  0.25051  0.09581  1.0000
  H   H1447     1.0  0.22894  0.42002  0.29641  1.0000
  H   H1448     1.0  0.21359  0.14575  0.30900  1.0000
  C   C821      1.0  0.25475  0.09913  0.09050  1.0000
  H   H1449     1.0  0.26960  0.23168  0.15690  1.0000
  C   C822      1.0  0.19234  0.18177  0.29575  1.0000
  H   H1450     1.0  0.23121  0.04241  0.13763  1.0000
  Fe  Fe112     1.0  0.38400  0.25984  0.17342  1.0000
  S   S209      1.0  0.36710  0.24807  0.20193  1.0000
  S   S210      1.0  0.21996  0.37866  0.10524  1.0000
  H   H1451     1.0  0.26261  0.30249  0.14762  1.0000
  H   H1452     1.0  0.24740  0.45065  0.15960  1.0000
  H   H1453     1.0  0.28044  0.31048  0.15416  1.0000
  C   C823      1.0  0.38050  0.34317  0.35980  1.0000
  H   H1454     1.0  0.36487  0.19853  0.25346  1.0000
  H   H1455     1.0  0.27016  0.33133  0.04810  1.0000
  C   C824      1.0  0.36311  0.19785  0.01589  1.0000
  H   H1456     1.0  0.23687  0.35953  0.00015  1.0000
  Fe  Fe113     1.0  0.19333  0.35740  0.05909  1.0000
  H   H1457     1.0  0.19360  0.11119  0.21909  1.0000
  H   H1458     1.0  0.38251  0.38052  0.21117  1.0000
  C   C825      1.0  0.24062  0.29221  0.04108  1.0000
  S   S211      1.0  0.22043  0.42453  0.21902  1.0000
  H   H1459     1.0  0.19587  0.41429  0.30738  1.0000
  H   H1460     1.0  0.20221  0.13030  0.22274  1.0000
  C   C826      1.0  0.22413  0.46444  0.24524  1.0000
  C   C827      1.0  0.22508  0.04676  0.25455  1.0000
  N   N44       1.0  0.29992  0.27577  0.14166  1.0000
  C   C828      1.0  0.32509  0.28920  0.14957  1.0000
  H   H1461     1.0  0.36734  0.20284  0.97810  1.0000
  H   H1462     1.0  0.36424  0.15432  0.28948  1.0000
  H   H1463     1.0  0.23419  0.08121  0.12299  1.0000
  C   C829      1.0  0.21952  0.42432  0.30949  1.0000
  H   H1464     1.0  0.20352  0.25829  0.45899  1.0000
  H   H1465     1.0  0.20037  0.11780  0.33139  1.0000
  H   H1466     1.0  0.36001  0.17699  0.06688  1.0000
  H   H1467     1.0  0.22870  0.04871  0.22388  1.0000
  H   H1468     1.0  0.24821  0.08702  0.09121  1.0000
  S   S212      1.0  0.34356  0.33749  0.26430  1.0000
  H   H1469     1.0  0.32027  0.30390  0.14147  1.0000
  H   H1470     1.0  0.20050  0.15630  0.24993  1.0000
  C   C830      1.0  0.30905  0.27769  0.15666  1.0000
  C   C831      1.0  0.35469  0.19642  0.98550  1.0000
  C   C832      1.0  0.34921  0.15790  0.25716  1.0000
  H   H1471     1.0  0.23449  0.32524  0.02007  1.0000
  C   C833      1.0  0.28959  0.24465  0.16337  1.0000
  H   H1472     1.0  0.22452  0.43130  0.17431  1.0000
  H   H1473     1.0  0.35118  0.37742  0.30401  1.0000
  H   H1474     1.0  0.28387  0.06580  0.13187  1.0000
  C   C834      1.0  0.32400  0.37716  0.32360  1.0000
  H   H1475     1.0  0.37362  0.34250  0.19196  1.0000
  H   H1476     1.0  0.28923  0.31282  0.03940  1.0000
  N   N45       1.0  0.32022  0.35701  0.45502  1.0000
  C   C835      1.0  0.35656  0.36799  0.26651  1.0000
  C   C836      1.0  0.31622  0.36626  0.43532  1.0000
  C   C837      1.0  0.31833  0.33633  0.45935  1.0000
  C   C838      1.0  0.21973  0.25279  0.02204  1.0000
  Fe  Fe114     1.0  0.35609  0.23312  0.18580  1.0000
  N   N46       1.0  0.25980  0.08836  0.12521  1.0000
  H   H1477     1.0  0.34297  0.15789  0.27244  1.0000
  H   H1478     1.0  0.36734  0.17878  0.28363  1.0000
  H   H1479     1.0  0.32897  0.32857  0.44900  1.0000
  H   H1480     1.0  0.22064  0.41861  0.09013  1.0000
  C   C839      1.0  0.23703  0.01917  0.23739  1.0000
  H   H1481     1.0  0.33740  0.28151  0.14049  1.0000
  H   H1482     1.0  0.31293  0.38669  0.33202  1.0000
  H   H1483     1.0  0.25424  0.10435  0.15895  1.0000
  H   H1484     1.0  0.35166  0.25441  0.10728  1.0000
  H   H1485     1.0  0.21625  0.19722  0.26301  1.0000
  H   H1486     1.0  0.27189  0.33763  0.01700  1.0000
  H   H1487     1.0  0.36675  0.39223  0.26784  1.0000
  C   C840      1.0  0.36616  0.41577  0.30277  1.0000
  H   H1488     1.0  0.35425  0.15351  0.07406  1.0000
  H   H1489     1.0  0.32192  0.41664  0.37196  1.0000
  H   H1490     1.0  0.30251  0.30350  0.12262  1.0000
  C   C841      1.0  0.19635  0.26241  0.43178  1.0000
  H   H1491     1.0  0.38926  0.14171  0.23227  1.0000
  H   H1492     1.0  0.21180  0.26195  0.10387  1.0000
  N   N47       1.0  0.36313  0.17110  0.24925  1.0000
  C   C842      1.0  0.36014  0.16370  0.07828  1.0000
  H   H1493     1.0  0.26997  0.42241  0.16723  1.0000
  C   C843      1.0  0.30829  0.19982  0.40730  1.0000
  H   H1494     1.0  0.29423  0.32082  0.06753  1.0000
  H   H1495     1.0  0.21368  0.29227  0.39117  1.0000
  C   C844      1.0  0.21924  0.27752  0.99085  1.0000
  C   C845      1.0  0.24181  0.10600  0.15268  1.0000
  C   C846      1.0  0.34905  0.40655  0.35392  1.0000
  C   C847      1.0  0.28389  0.26531  0.15160  1.0000
  C   C848      1.0  0.37407  0.16407  0.28133  1.0000
  S   S213      1.0  0.37970  0.20717  0.18797  1.0000
  C   C849      1.0  0.19434  0.43184  0.13125  1.0000
  H   H1496     1.0  0.21441  0.12591  0.15240  1.0000
  H   H1497     1.0  0.38550  0.37556  0.23545  1.0000
  H   H1498     1.0  0.24971  0.41894  0.12485  1.0000
  C   C850      1.0  0.34435  0.35902  0.47405  1.0000
  H   H1499     1.0  0.35420  0.17902  0.10074  1.0000
  H   H1500     1.0  0.28174  0.41123  0.20365  1.0000
  C   C851      1.0  0.24879  0.35858  0.00691  1.0000
  H   H1501     1.0  0.34373  0.37180  0.44504  1.0000
  H   H1502     1.0  0.20423  0.28372  0.99690  1.0000
  H   H1503     1.0  0.22686  0.45403  0.12767  1.0000
  H   H1504     1.0  0.35770  0.20313  0.02932  1.0000
  H   H1505     1.0  0.29820  0.40941  0.18117  1.0000
  H   H1506     1.0  0.36109  0.35675  0.33095  1.0000
  C   C852      1.0  0.29144  0.29512  0.13054  1.0000
  C   C853      1.0  0.20613  0.14444  0.26050  1.0000
  H   H1507     1.0  0.33560  0.19585  0.01388  1.0000
  H   H1508     1.0  0.21597  0.31345  0.05205  1.0000
  H   H1509     1.0  0.34354  0.19058  0.26616  1.0000
  C   C854      1.0  0.21944  0.45567  0.23307  1.0000
  H   H1510     1.0  0.38383  0.30513  0.24278  1.0000
  H   H1511     1.0  0.23461  0.09389  0.16018  1.0000
  S   S214      1.0  0.36982  0.24819  0.15705  1.0000
  C   C855      1.0  0.32613  0.20432  0.19326  1.0000
  Fe  Fe115     1.0  0.36001  0.29532  0.32472  1.0000
  H   H1512     1.0  0.35239  0.15755  0.15479  1.0000
  H   H1513     1.0  0.32629  0.23423  0.23184  1.0000
  H   H1514     1.0  0.23858  0.33301  0.03874  1.0000
  H   H1515     1.0  0.35142  0.29897  0.24981  1.0000
  H   H1516     1.0  0.31062  0.20713  0.41746  1.0000
  H   H1517     1.0  0.34458  0.36617  0.41641  1.0000
  H   H1518     1.0  0.26522  0.04556  0.13326  1.0000
  C   C856      1.0  0.27302  0.23427  0.16951  1.0000
  H   H1519     1.0  0.35788  0.32833  0.22527  1.0000
  H   H1520     1.0  0.26023  0.24283  0.17726  1.0000
  C   C857      1.0  0.31529  0.37448  0.30844  1.0000
  H   H1521     1.0  0.25678  0.43946  0.13954  1.0000
  H   H1522     1.0  0.24395  0.23175  0.43666  1.0000
  H   H1523     1.0  0.26410  0.33233  0.99869  1.0000
  S   S215      1.0  0.32614  0.22831  0.19283  1.0000
  H   H1524     1.0  0.35343  0.19958  0.17454  1.0000
  H   H1525     1.0  0.31411  0.37076  0.25602  1.0000
  H   H1526     1.0  0.32124  0.22075  0.25599  1.0000
  H   H1527     1.0  0.27701  0.39353  0.11371  1.0000
  C   C858      1.0  0.19968  0.27146  0.41255  1.0000
  H   H1528     1.0  0.25228  0.42065  0.18845  1.0000
  H   H1529     1.0  0.22284  0.11950  0.33479  1.0000
  H   H1530     1.0  0.38323  0.17988  0.22365  1.0000
  H   H1531     1.0  0.37944  0.39623  0.32492  1.0000
  H   H1532     1.0  0.19761  0.07685  0.27236  1.0000
  H   H1533     1.0  0.35717  0.42657  0.31101  1.0000
  H   H1534     1.0  0.36890  0.34235  0.37269  1.0000
  H   H1535     1.0  0.22289  0.21726  0.46574  1.0000
  C   C859      1.0  0.30597  0.36807  0.46886  1.0000
  H   H1536     1.0  0.19635  0.45750  0.29408  1.0000
  C   C860      1.0  0.20605  0.11499  0.22159  1.0000
  C   C861      1.0  0.20759  0.12657  0.33602  1.0000
  C   C862      1.0  0.37010  0.39550  0.31589  1.0000
  H   H1537     1.0  0.37896  0.38536  0.30668  1.0000
  H   H1538     1.0  0.38577  0.14826  0.25923  1.0000
  C   C863      1.0  0.20091  0.20366  0.26363  1.0000
  H   H1539     1.0  0.27824  0.22764  0.47202  1.0000
  S   S216      1.0  0.39008  0.28941  0.16599  1.0000
  H   H1540     1.0  0.38827  0.24874  0.22947  1.0000
  H   H1541     1.0  0.19169  0.11535  0.30301  1.0000
  H   H1542     1.0  0.19632  0.00988  0.30226  1.0000
  H   H1543     1.0  0.38144  0.43687  0.28305  1.0000
  H   H1544     1.0  0.21720  0.47909  0.24614  1.0000
  H   H1545     1.0  0.19519  0.29059  0.06947  1.0000
  H   H1546     1.0  0.19572  0.38354  0.14196  1.0000
  C   C864      1.0  0.36567  0.35608  0.47279  1.0000
  H   H1547     1.0  0.28133  0.35497  0.47344  1.0000
  H   H1548     1.0  0.36651  0.31411  0.20723  1.0000
  H   H1549     1.0  0.36810  0.14469  0.22368  1.0000
  H   H1550     1.0  0.38097  0.33202  0.35212  1.0000
  H   H1551     1.0  0.38007  0.14055  0.12955  1.0000
  C   C865      1.0  0.37924  0.16349  0.25986  1.0000
  C   C866      1.0  0.28353  0.29296  0.98681  1.0000
  C   C867      1.0  0.19818  0.39748  0.13367  1.0000
  Fe  Fe116     1.0  0.29417  0.47895  0.28969  1.0000
  H   H1552     1.0  0.19632  0.21122  0.29046  1.0000
  C   C868      1.0  0.19387  0.13678  0.27688  1.0000
  H   H1553     1.0  0.29400  0.17387  0.99602  1.0000
  H   H1554     1.0  0.37679  0.34808  0.21995  1.0000
  C   C869      1.0  0.38791  0.15959  0.14186  1.0000
  C   C870      1.0  0.37755  0.36316  0.34675  1.0000
  H   H1555     1.0  0.37894  0.16453  0.11555  1.0000
  H   H1556     1.0  0.38323  0.16387  0.19233  1.0000
  H   H1557     1.0  0.35275  0.39386  0.36526  1.0000
  S   S217      1.0  0.19084  0.26461  0.39629  1.0000
  H   H1558     1.0  0.38990  0.36320  0.33455  1.0000
  C   C871      1.0  0.39026  0.34048  0.22464  1.0000
  Fe  Fe117     1.0  0.25626  0.36408  0.60933  1.0000
  S   S218      1.0  0.25039  0.34161  0.63568  1.0000
  S   S219      1.0  0.24563  0.39512  0.61175  1.0000
  Fe  Fe118     1.0  0.27526  0.33431  0.58514  1.0000
  S   S220      1.0  0.27162  0.30939  0.61029  1.0000
  Fe  Fe119     1.0  0.24215  0.32667  0.61760  1.0000
  S   S221      1.0  0.21487  0.31547  0.62730  1.0000
  Fe  Fe120     1.0  0.28036  0.32648  0.62625  1.0000
  S   S222      1.0  0.29478  0.31523  0.65157  1.0000
  S   S223      1.0  0.24528  0.35066  0.59182  1.0000
  S   S224      1.0  0.28681  0.34991  0.60050  1.0000
  H   H1559     1.0  0.22500  0.04530  0.67021  1.0000
  Fe  Fe121     1.0  0.36796  0.33608  0.71545  1.0000
  S   S225      1.0  0.34402  0.33656  0.74093  1.0000
  H   H1560     1.0  0.23309  0.21152  0.85126  1.0000
  S   S226      1.0  0.25953  0.42798  0.70101  1.0000
  H   H1561     1.0  0.22879  0.43701  0.78262  1.0000
  H   H1562     1.0  0.24727  0.29869  0.93534  1.0000
  Fe  Fe122     1.0  0.27697  0.43309  0.71870  1.0000
  S   S227      1.0  0.28274  0.41333  0.74612  1.0000
  H   H1563     1.0  0.24245  0.31241  0.96263  1.0000
  H   H1564     1.0  0.27772  0.26136  0.93924  1.0000
  C   C872      1.0  0.35854  0.15134  0.90949  1.0000
  Fe  Fe123     1.0  0.28078  0.43984  0.67619  1.0000
  H   H1565     1.0  0.21231  0.99590  0.69008  1.0000
  H   H1566     1.0  0.21869  0.14237  0.85928  1.0000
  H   H1567     1.0  0.31890  0.29542  0.49630  1.0000
  H   H1568     1.0  0.35798  0.20242  0.76312  1.0000
  H   H1569     1.0  0.25564  0.33104  0.87088  1.0000
  C   C873      1.0  0.20555  0.37695  0.73674  1.0000
  C   C874      1.0  0.25481  0.98723  0.86940  1.0000
  H   H1570     1.0  0.20128  0.39521  0.66778  1.0000
  H   H1571     1.0  0.25244  0.28072  0.96958  1.0000
  Fe  Fe124     1.0  0.26528  0.20348  0.95200  1.0000
  S   S228      1.0  0.25929  0.23269  0.93328  1.0000
  Fe  Fe125     1.0  0.28022  0.18380  0.91840  1.0000
  S   S229      1.0  0.27575  0.21141  0.89670  1.0000
  S   S230      1.0  0.29367  0.15590  0.90905  1.0000
  Fe  Fe126     1.0  0.28747  0.22306  0.91493  1.0000
  S   S231      1.0  0.30818  0.24262  0.90335  1.0000
  Fe  Fe127     1.0  0.24809  0.21838  0.91689  1.0000
  S   S232      1.0  0.29459  0.19485  0.93502  1.0000
  S   S233      1.0  0.25146  0.18974  0.93723  1.0000
  Fe  Fe128     1.0  0.28418  0.13657  0.80739  1.0000
  S   S234      1.0  0.25433  0.14621  0.82258  1.0000
  S   S235      1.0  0.30050  0.16049  0.79562  1.0000
  Fe  Fe129     1.0  0.27835  0.09596  0.81172  1.0000
  S   S236      1.0  0.24808  0.10254  0.82742  1.0000
  S   S237      1.0  0.29290  0.06724  0.80394  1.0000
  Fe  Fe130     1.0  0.24602  0.13026  0.80546  1.0000
  H   H1572     1.0  0.35235  0.39512  0.69778  1.0000
  Fe  Fe131     1.0  0.25936  0.11787  0.84298  1.0000
  S   S238      1.0  0.24994  0.11530  0.87467  1.0000
  S   S239      1.0  0.27557  0.12263  0.78862  1.0000
  S   S240      1.0  0.28994  0.10914  0.82913  1.0000
  H   H1573     1.0  0.27078  0.98870  0.83301  1.0000
  S   S241      1.0  0.24370  0.01896  0.78569  1.0000
  H   H1574     1.0  0.33665  0.13610  0.91269  1.0000
  H   H1575     1.0  0.31080  0.46730  0.72737  1.0000
  C   C875      1.0  0.21520  0.12923  0.78015  1.0000
  C   C876      1.0  0.22050  0.09810  0.77255  1.0000
  C   C877      1.0  0.22474  0.11005  0.78192  1.0000
  H   H1576     1.0  0.22816  0.08335  0.77368  1.0000
  H   H1577     1.0  0.23561  0.10451  0.79027  1.0000
  C   C878      1.0  0.25774  0.03225  0.79032  1.0000
  C   C879      1.0  0.27743  0.02603  0.78817  1.0000
  C   C880      1.0  0.28816  0.03710  0.79200  1.0000
  C   C881      1.0  0.27924  0.05426  0.79818  1.0000
  C   C882      1.0  0.25958  0.06046  0.80019  1.0000
  C   C883      1.0  0.24890  0.04956  0.79613  1.0000
  C   C884      1.0  0.19757  0.42691  0.74427  1.0000
  H   H1578     1.0  0.30339  0.03228  0.79035  1.0000
  H   H1579     1.0  0.25257  0.07357  0.80503  1.0000
  H   H1580     1.0  0.23366  0.05437  0.79789  1.0000
  C   C885      1.0  0.27974  0.14664  0.89944  1.0000
  C   C886      1.0  0.26125  0.12768  0.88397  1.0000
  C   C887      1.0  0.27278  0.14015  0.87192  1.0000
  C   C888      1.0  0.28190  0.14970  0.87966  1.0000
  H   H1581     1.0  0.27477  0.14234  0.85664  1.0000
  H   H1582     1.0  0.29074  0.15932  0.87023  1.0000
  H   H1583     1.0  0.37793  0.17101  0.93224  1.0000
  H   H1584     1.0  0.21790  0.29288  0.51503  1.0000
  H   H1585     1.0  0.31960  0.07984  0.90234  1.0000
  H   H1586     1.0  0.27987  0.28932  0.97491  1.0000
  C   C889      1.0  0.34682  0.23492  0.89560  1.0000
  C   C890      1.0  0.33056  0.23009  0.89385  1.0000
  C   C891      1.0  0.33232  0.21546  0.88446  1.0000
  C   C892      1.0  0.35041  0.20586  0.87660  1.0000
  H   H1587     1.0  0.23474  0.15552  0.92829  1.0000
  H   H1588     1.0  0.34551  0.24627  0.90277  1.0000
  H   H1589     1.0  0.31976  0.21167  0.88308  1.0000
  H   H1590     1.0  0.35183  0.19466  0.86926  1.0000
  C   C893      1.0  0.36025  0.14932  0.80685  1.0000
  C   C894      1.0  0.35152  0.13386  0.80951  1.0000
  C   C895      1.0  0.33304  0.13716  0.80643  1.0000
  C   C896      1.0  0.32340  0.15592  0.80023  1.0000
  C   C897      1.0  0.33223  0.17137  0.79731  1.0000
  C   C898      1.0  0.35055  0.16811  0.80078  1.0000
  H   H1591     1.0  0.35906  0.11931  0.81399  1.0000
  H   H1592     1.0  0.32641  0.12516  0.80849  1.0000
  H   H1593     1.0  0.32484  0.18590  0.79246  1.0000
  H   H1594     1.0  0.35722  0.18008  0.79866  1.0000
  H   H1595     1.0  0.19252  0.34335  0.52313  1.0000
  H   H1596     1.0  0.33311  0.38284  0.67768  1.0000
  H   H1597     1.0  0.35013  0.36146  0.65488  1.0000
  H   H1598     1.0  0.24239  0.17140  0.89247  1.0000
  H   H1599     1.0  0.31427  0.29175  0.81628  1.0000
  H   H1600     1.0  0.24874  0.02421  0.87433  1.0000
  H   H1601     1.0  0.37838  0.21853  0.72245  1.0000
  H   H1602     1.0  0.36908  0.28093  0.76601  1.0000
  C   C899      1.0  0.32752  0.35831  0.74166  1.0000
  C   C900      1.0  0.31719  0.36187  0.75937  1.0000
  C   C901      1.0  0.30364  0.37892  0.76051  1.0000
  C   C902      1.0  0.30009  0.39235  0.74393  1.0000
  C   C903      1.0  0.31040  0.38885  0.72612  1.0000
  C   C904      1.0  0.32427  0.37186  0.72502  1.0000
  H   H1603     1.0  0.31969  0.35146  0.77226  1.0000
  H   H1604     1.0  0.29571  0.38161  0.77427  1.0000
  H   H1605     1.0  0.30757  0.39912  0.71325  1.0000
  H   H1606     1.0  0.33215  0.36900  0.71137  1.0000
  C   C905      1.0  0.21363  0.29828  0.61548  1.0000
  H   H1607     1.0  0.34296  0.31806  0.80320  1.0000
  H   H1608     1.0  0.19249  0.48387  0.77837  1.0000
  H   H1609     1.0  0.34082  0.41434  0.66831  1.0000
  C   C906      1.0  0.22885  0.27502  0.59563  1.0000
  C   C907      1.0  0.23001  0.28877  0.60487  1.0000
  C   C908      1.0  0.21554  0.31640  0.54424  1.0000
  H   H1610     1.0  0.19489  0.39336  0.79980  1.0000
  H   H1611     1.0  0.30801  0.36187  0.48367  1.0000
  H   H1612     1.0  0.24365  0.29181  0.60396  1.0000
  C   C909      1.0  0.31751  0.31884  0.65048  1.0000
  C   C910      1.0  0.33076  0.32128  0.63329  1.0000
  H   H1613     1.0  0.24598  0.25789  0.89933  1.0000
  C   C911      1.0  0.34102  0.32025  0.66722  1.0000
  C   C912      1.0  0.32271  0.31831  0.66743  1.0000
  H   H1614     1.0  0.34483  0.32001  0.68032  1.0000
  H   H1615     1.0  0.31250  0.31644  0.68077  1.0000
  C   C913      1.0  0.25872  0.40288  0.62365  1.0000
  C   C914      1.0  0.27398  0.39017  0.63078  1.0000
  C   C915      1.0  0.26820  0.13418  0.91143  1.0000
  C   C916      1.0  0.27959  0.41538  0.64278  1.0000
  C   C917      1.0  0.26405  0.42804  0.63598  1.0000
  C   C918      1.0  0.25372  0.42183  0.62629  1.0000
  H   H1616     1.0  0.27775  0.37545  0.62911  1.0000
  H   H1617     1.0  0.26031  0.44273  0.63774  1.0000
  H   H1618     1.0  0.24189  0.43172  0.62080  1.0000
  C   C919      1.0  0.28446  0.39644  0.64012  1.0000
  H   H1619     1.0  0.21884  0.32825  0.53199  1.0000
  H   H1620     1.0  0.36474  0.35640  0.75421  1.0000
  H   H1621     1.0  0.29601  0.38629  0.64574  1.0000
  C   C920      1.0  0.23153  0.26601  0.90117  1.0000
  H   H1622     1.0  0.34089  0.27513  0.68873  1.0000
  C   C921      1.0  0.19675  0.12431  0.76000  1.0000
  C   C922      1.0  0.35897  0.11867  0.85907  1.0000
  C   C923      1.0  0.23632  0.20388  0.86546  1.0000
  C   C924      1.0  0.26135  0.01946  0.86352  1.0000
  C   C925      1.0  0.26990  0.20711  0.84777  1.0000
  C   C926      1.0  0.35028  0.41101  0.69430  1.0000
  C   C927      1.0  0.35240  0.41778  0.67273  1.0000
  C   C928      1.0  0.31572  0.45197  0.73404  1.0000
  C   C929      1.0  0.30844  0.98786  0.82603  1.0000
  H   H1623     1.0  0.25709  0.23070  0.53131  1.0000
  C   C930      1.0  0.21023  0.22606  0.51212  1.0000
  H   H1624     1.0  0.35301  0.31227  0.78016  1.0000
  H   H1625     1.0  0.33886  0.34811  0.48621  1.0000
  H   H1626     1.0  0.31987  0.37337  0.58424  1.0000
  H   H1627     1.0  0.33444  0.25340  0.80459  1.0000
  S   S242      1.0  0.21395  0.47148  0.70331  1.0000
  H   H1628     1.0  0.23413  0.36207  0.52582  1.0000
  H   H1629     1.0  0.20284  0.16935  0.70020  1.0000
  N   N48       1.0  0.35397  0.25563  0.72320  1.0000
  H   H1630     1.0  0.20177  0.36379  0.57534  1.0000
  H   H1631     1.0  0.19919  0.26562  0.50467  1.0000
  H   H1632     1.0  0.22003  0.08549  0.65959  1.0000
  H   H1633     1.0  0.22955  0.44150  0.67885  1.0000
  S   S243      1.0  0.26057  0.46293  0.72011  1.0000
  C   C931      1.0  0.23693  0.25344  0.49619  1.0000
  H   H1634     1.0  0.31225  0.19888  0.97344  1.0000
  H   H1635     1.0  0.27408  0.01258  0.82616  1.0000
  H   H1636     1.0  0.33410  0.35017  0.59276  1.0000
  H   H1637     1.0  0.27964  0.28465  0.94111  1.0000
  H   H1638     1.0  0.26605  0.27573  0.86745  1.0000
  H   H1639     1.0  0.37549  0.43816  0.71849  1.0000
  C   C932      1.0  0.22115  0.33764  0.95703  1.0000
  Fe  Fe132     1.0  0.28182  0.47232  0.69411  1.0000
  H   H1640     1.0  0.32265  0.30694  0.73930  1.0000
  H   H1641     1.0  0.22897  0.34669  0.96052  1.0000
  H   H1642     1.0  0.24656  0.36865  0.84140  1.0000
  H   H1643     1.0  0.34079  0.36320  0.56867  1.0000
  H   H1644     1.0  0.35029  0.38947  0.76026  1.0000
  H   H1645     1.0  0.24414  0.30784  0.55019  1.0000
  C   C933      1.0  0.33662  0.22322  0.96567  1.0000
  C   C934      1.0  0.34275  0.42277  0.73187  1.0000
  H   H1646     1.0  0.33754  0.37334  0.47748  1.0000
  H   H1647     1.0  0.20547  0.45199  0.67620  1.0000
  H   H1648     1.0  0.38640  0.19161  0.91642  1.0000
  C   C935      1.0  0.20933  0.28912  0.50705  1.0000
  C   C936      1.0  0.29380  0.27221  0.84857  1.0000
  H   H1649     1.0  0.35633  0.27856  0.83853  1.0000
  H   H1650     1.0  0.35952  0.32432  0.61982  1.0000
  H   H1651     1.0  0.20262  0.21249  0.89082  1.0000
  H   H1652     1.0  0.19161  0.14613  0.58064  1.0000
  H   H1653     1.0  0.33478  0.44660  0.70816  1.0000
  H   H1654     1.0  0.22435  0.26467  0.53981  1.0000
  C   C937      1.0  0.20652  0.10517  0.76161  1.0000
  H   H1655     1.0  0.31278  0.11638  0.87124  1.0000
  H   H1656     1.0  0.27287  0.01243  0.87158  1.0000
  H   H1657     1.0  0.20639  0.31173  0.57489  1.0000
  H   H1658     1.0  0.35804  0.25190  0.81981  1.0000
  C   C938      1.0  0.22686  0.31673  0.96720  1.0000
  H   H1659     1.0  0.30548  0.44371  0.73351  1.0000
  H   H1660     1.0  0.31124  0.33057  0.49075  1.0000
  H   H1661     1.0  0.23452  0.16436  0.86681  1.0000
  Fe  Fe133     1.0  0.24524  0.45900  0.69985  1.0000
  H   H1662     1.0  0.19960  0.21242  0.85032  1.0000
  H   H1663     1.0  0.21617  0.39050  0.86196  1.0000
  H   H1664     1.0  0.25341  0.22353  0.50122  1.0000
  H   H1665     1.0  0.19876  0.38921  0.70174  1.0000
  H   H1666     1.0  0.37705  0.37635  0.60431  1.0000
  H   H1667     1.0  0.20434  0.23102  0.85873  1.0000
  H   H1668     1.0  0.24132  0.36601  0.86685  1.0000
  H   H1669     1.0  0.20957  0.44351  0.77020  1.0000
  C   C939      1.0  0.22290  0.17721  0.86429  1.0000
  H   H1670     1.0  0.36775  0.14108  0.87577  1.0000
  S   S244      1.0  0.19664  0.10180  0.69867  1.0000
  C   C940      1.0  0.35437  0.32235  0.65005  1.0000
  C   C941      1.0  0.24256  0.35876  0.85522  1.0000
  H   H1671     1.0  0.32779  0.36199  0.64960  1.0000
  H   H1672     1.0  0.19224  0.31808  0.50317  1.0000
  C   C942      1.0  0.23698  0.98903  0.88569  1.0000
  C   C943      1.0  0.23178  0.00142  0.83877  1.0000
  H   H1673     1.0  0.22084  0.22284  0.49922  1.0000
  H   H1674     1.0  0.20709  0.05782  0.73275  1.0000
  H   H1675     1.0  0.24504  0.27613  0.93226  1.0000
  C   C944      1.0  0.19601  0.29410  0.61662  1.0000
  H   H1676     1.0  0.21508  0.17437  0.93503  1.0000
  N   N49       1.0  0.34064  0.20166  0.97266  1.0000
  H   H1677     1.0  0.27467  0.37361  0.49864  1.0000
  Fe  Fe134     1.0  0.38815  0.21395  0.80103  1.0000
  H   H1678     1.0  0.21109  0.03294  0.73174  1.0000
  H   H1679     1.0  0.31082  0.38282  0.67250  1.0000
  C   C945      1.0  0.31545  0.22561  0.81140  1.0000
  C   C946      1.0  0.34860  0.27380  0.73069  1.0000
  H   H1680     1.0  0.31594  0.24792  0.85744  1.0000
  H   H1681     1.0  0.22304  0.43211  0.72391  1.0000
  H   H1682     1.0  0.22232  0.35335  0.66779  1.0000
  H   H1683     1.0  0.33143  0.22435  0.83198  1.0000
  H   H1684     1.0  0.30645  0.23426  0.83819  1.0000
  H   H1685     1.0  0.34709  0.28674  0.71890  1.0000
  C   C947      1.0  0.25886  0.34121  0.85699  1.0000
  H   H1686     1.0  0.34699  0.38883  0.58013  1.0000
  S   S245      1.0  0.37748  0.32481  0.64921  1.0000
  H   H1687     1.0  0.32477  0.36074  0.68347  1.0000
  C   C948      1.0  0.32970  0.27088  0.70120  1.0000
  C   C949      1.0  0.25751  0.19363  0.86164  1.0000
  C   C950      1.0  0.20119  0.13637  0.76918  1.0000
  C   C951      1.0  0.20756  0.15502  0.85509  1.0000
  H   H1688     1.0  0.31079  0.22817  0.95444  1.0000
  H   H1689     1.0  0.37602  0.08922  0.83933  1.0000
  H   H1690     1.0  0.24370  0.26834  0.52035  1.0000
  H   H1691     1.0  0.28860  0.26602  0.83941  1.0000
  H   H1692     1.0  0.34290  0.24092  0.70845  1.0000
  C   C952      1.0  0.19959  0.03901  0.75958  1.0000
  H   H1693     1.0  0.23138  0.28857  0.55626  1.0000
  H   H1694     1.0  0.24167  0.26754  0.58776  1.0000
  H   H1695     1.0  0.20799  0.00258  0.82660  1.0000
  C   C953      1.0  0.34162  0.31008  0.79310  1.0000
  H   H1696     1.0  0.27439  0.31979  0.49799  1.0000
  C   C954      1.0  0.21272  0.27168  0.96197  1.0000
  H   H1697     1.0  0.37913  0.40962  0.69499  1.0000
  C   C955      1.0  0.20225  0.36685  0.64972  1.0000
  H   H1698     1.0  0.36834  0.13874  0.91619  1.0000
  H   H1699     1.0  0.23510  0.21530  0.87318  1.0000
  C   C956      1.0  0.19660  0.21906  0.86278  1.0000
  H   H1700     1.0  0.23756  0.99904  0.89416  1.0000
  H   H1701     1.0  0.19917  0.36658  0.60835  1.0000
  C   C957      1.0  0.20848  0.43818  0.72942  1.0000
  N   N50       1.0  0.22544  0.38437  0.68177  1.0000
  C   C958      1.0  0.22965  0.40412  0.67809  1.0000
  C   C959      1.0  0.24372  0.36936  0.67933  1.0000
  C   C960      1.0  0.21499  0.38472  0.66676  1.0000
  C   C961      1.0  0.21291  0.37928  0.70107  1.0000
  C   C962      1.0  0.22076  0.37900  0.71841  1.0000
  C   C963      1.0  0.21229  0.42082  0.68149  1.0000
  H   H1702     1.0  0.20222  0.22890  0.64085  1.0000
  C   C964      1.0  0.26107  0.37213  0.68536  1.0000
  C   C965      1.0  0.27771  0.35501  0.68339  1.0000
  C   C966      1.0  0.21531  0.16694  0.90860  1.0000
  H   H1703     1.0  0.31796  0.27400  0.74221  1.0000
  H   H1704     1.0  0.21812  0.33126  0.56381  1.0000
  H   H1705     1.0  0.23777  0.40781  0.66326  1.0000
  H   H1706     1.0  0.23907  0.40453  0.68718  1.0000
  H   H1707     1.0  0.24108  0.35480  0.68702  1.0000
  H   H1708     1.0  0.24897  0.36849  0.66404  1.0000
  H   H1709     1.0  0.22348  0.38960  0.65227  1.0000
  H   H1710     1.0  0.29989  0.99822  0.74239  1.0000
  H   H1711     1.0  0.21343  0.14408  0.70365  1.0000
  H   H1712     1.0  0.32771  0.31606  0.78877  1.0000
  C   C967      1.0  0.38321  0.27349  0.76070  1.0000
  H   H1713     1.0  0.23255  0.36635  0.72042  1.0000
  C   C968      1.0  0.37382  0.18670  0.92646  1.0000
  H   H1714     1.0  0.31445  0.25883  0.93216  1.0000
  H   H1715     1.0  0.27743  0.28106  0.91887  1.0000
  H   H1716     1.0  0.24835  0.26017  0.96498  1.0000
  H   H1717     1.0  0.26609  0.38509  0.67608  1.0000
  H   H1718     1.0  0.25774  0.37395  0.70018  1.0000
  H   H1719     1.0  0.28242  0.35349  0.66833  1.0000
  H   H1720     1.0  0.28986  0.35723  0.68791  1.0000
  H   H1721     1.0  0.27366  0.34147  0.69246  1.0000
  C   C969      1.0  0.21163  0.98895  0.70538  1.0000
  C   C970      1.0  0.21941  0.16153  0.92862  1.0000
  C   C971      1.0  0.20047  0.45720  0.72184  1.0000
  H   H1722     1.0  0.33819  0.19305  0.94795  1.0000
  H   H1723     1.0  0.19171  0.19582  0.88720  1.0000
  H   H1724     1.0  0.21286  0.37066  0.63647  1.0000
  H   H1725     1.0  0.22674  0.34423  0.84546  1.0000
  H   H1726     1.0  0.30892  0.00070  0.81414  1.0000
  C   C972      1.0  0.19537  0.40416  0.80744  1.0000
  H   H1727     1.0  0.28499  0.19946  0.84586  1.0000
  N   N51       1.0  0.25650  0.14695  0.72947  1.0000
  C   C973      1.0  0.26312  0.12942  0.74403  1.0000
  C   C974      1.0  0.25079  0.16474  0.73779  1.0000
  C   C975      1.0  0.23912  0.14400  0.72474  1.0000
  C   C976      1.0  0.27128  0.14949  0.71127  1.0000
  C   C977      1.0  0.29074  0.15187  0.71293  1.0000
  C   C978      1.0  0.26701  0.10962  0.73867  1.0000
  C   C979      1.0  0.22823  0.16142  0.71199  1.0000
  C   C980      1.0  0.26203  0.16555  0.75228  1.0000
  C   C981      1.0  0.25780  0.18569  0.75616  1.0000
  C   C982      1.0  0.30489  0.15232  0.69387  1.0000
  C   C983      1.0  0.27556  0.09342  0.75367  1.0000
  C   C984      1.0  0.21010  0.15698  0.70985  1.0000
  H   H1728     1.0  0.25233  0.12884  0.75758  1.0000
  H   H1729     1.0  0.27618  0.13039  0.74779  1.0000
  H   H1730     1.0  0.25126  0.17790  0.72619  1.0000
  H   H1731     1.0  0.23574  0.16633  0.74586  1.0000
  H   H1732     1.0  0.22890  0.13962  0.73810  1.0000
  H   H1733     1.0  0.24291  0.13202  0.71720  1.0000
  H   H1734     1.0  0.27376  0.13737  0.70413  1.0000
  H   H1735     1.0  0.26603  0.16255  0.70093  1.0000
  H   H1736     1.0  0.29714  0.13991  0.72348  1.0000
  H   H1737     1.0  0.28913  0.16574  0.71690  1.0000
  H   H1738     1.0  0.25358  0.10626  0.73797  1.0000
  H   H1739     1.0  0.27707  0.10933  0.72480  1.0000
  H   H1740     1.0  0.23706  0.16484  0.69749  1.0000
  H   H1741     1.0  0.22397  0.17445  0.71806  1.0000
  H   H1742     1.0  0.25756  0.15584  0.76606  1.0000
  H   H1743     1.0  0.27757  0.16107  0.74766  1.0000
  H   H1744     1.0  0.24236  0.19040  0.76171  1.0000
  H   H1745     1.0  0.26557  0.18549  0.76708  1.0000
  H   H1746     1.0  0.26252  0.19612  0.74299  1.0000
  H   H1747     1.0  0.30754  0.13854  0.68932  1.0000
  H   H1748     1.0  0.29948  0.16438  0.68271  1.0000
  H   H1749     1.0  0.31860  0.15440  0.69535  1.0000
  H   H1750     1.0  0.28958  0.09532  0.75452  1.0000
  H   H1751     1.0  0.26598  0.09310  0.76790  1.0000
  H   H1752     1.0  0.27754  0.07932  0.74998  1.0000
  H   H1753     1.0  0.25686  0.38173  0.48434  1.0000
  H   H1754     1.0  0.22675  0.47144  0.78134  1.0000
  H   H1755     1.0  0.19791  0.23657  0.50748  1.0000
  N   N52       1.0  0.24740  0.04632  0.72417  1.0000
  C   C985      1.0  0.24254  0.06801  0.71937  1.0000
  C   C986      1.0  0.23334  0.03936  0.74173  1.0000
  C   C987      1.0  0.26675  0.04030  0.72933  1.0000
  C   C988      1.0  0.24788  0.03748  0.70793  1.0000
  C   C989      1.0  0.23394  0.04848  0.69443  1.0000
  C   C990      1.0  0.25738  0.07791  0.70368  1.0000
  C   C991      1.0  0.27433  0.01832  0.73560  1.0000
  H   H1756     1.0  0.31902  0.27048  0.85834  1.0000
  C   C992      1.0  0.37654  0.42304  0.72674  1.0000
  C   C993      1.0  0.23453  0.03684  0.68010  1.0000
  C   C994      1.0  0.24853  0.09839  0.69466  1.0000
  C   C995      1.0  0.29517  0.01392  0.73700  1.0000
  H   H1757     1.0  0.24075  0.07372  0.73229  1.0000
  H   H1758     1.0  0.22854  0.07339  0.71527  1.0000
  H   H1759     1.0  0.23736  0.02357  0.74693  1.0000
  H   H1760     1.0  0.23352  0.04600  0.75345  1.0000
  H   H1761     1.0  0.26677  0.04705  0.74105  1.0000
  H   H1762     1.0  0.27768  0.04551  0.71702  1.0000
  H   H1763     1.0  0.26232  0.03581  0.69859  1.0000
  H   H1764     1.0  0.24528  0.02259  0.71359  1.0000
  H   H1765     1.0  0.23785  0.06231  0.68613  1.0000
  C   C996      1.0  0.20891  0.37944  0.83409  1.0000
  H   H1766     1.0  0.26892  0.07872  0.71013  1.0000
  H   H1767     1.0  0.26391  0.06977  0.69224  1.0000
  H   H1768     1.0  0.27313  0.01032  0.72549  1.0000
  H   H1769     1.0  0.26641  0.01254  0.74991  1.0000
  C   C997      1.0  0.24407  0.27613  0.96192  1.0000
  C   C998      1.0  0.37285  0.36464  0.75839  1.0000
  H   H1770     1.0  0.28436  0.01271  0.78363  1.0000
  H   H1771     1.0  0.20557  0.44846  0.79362  1.0000
  N   N53       1.0  0.22487  0.25278  0.51595  1.0000
  C   C999      1.0  0.20713  0.32425  0.56259  1.0000
  H   H1772     1.0  0.37573  0.18901  0.74731  1.0000
  C   C1000     1.0  0.21303  0.01198  0.83272  1.0000
  H   H1773     1.0  0.25984  0.10606  0.68562  1.0000
  H   H1774     1.0  0.23904  0.09809  0.68555  1.0000
  H   H1775     1.0  0.24011  0.10640  0.70583  1.0000
  H   H1776     1.0  0.21531  0.19616  0.52771  1.0000
  H   H1777     1.0  0.31261  0.29619  0.76338  1.0000
  H   H1778     1.0  0.19494  0.18668  0.64145  1.0000
  C   C1001     1.0  0.23490  0.25760  0.52875  1.0000
  C   C1002     1.0  0.25751  0.34674  0.53950  1.0000
  C   C1003     1.0  0.20441  0.38250  0.86704  1.0000
  H   H1779     1.0  0.24990  0.11525  0.91309  1.0000
  C   C1004     1.0  0.22798  0.18066  0.89487  1.0000
  C   C1005     1.0  0.25876  0.12493  0.90373  1.0000
  H   H1780     1.0  0.26846  0.22001  0.85341  1.0000
  H   H1781     1.0  0.37297  0.38103  0.64529  1.0000
  C   C1006     1.0  0.21911  0.23360  0.52458  1.0000
  H   H1782     1.0  0.20019  0.15447  0.72386  1.0000
  C   C1007     1.0  0.27280  0.27711  0.93460  1.0000
  H   H1783     1.0  0.30286  0.30475  0.48008  1.0000
  S   S246      1.0  0.37856  0.30939  0.70376  1.0000
  H   H1784     1.0  0.33553  0.41698  0.70083  1.0000
  H   H1785     1.0  0.19780  0.47723  0.75628  1.0000
  H   H1786     1.0  0.24116  0.26759  0.49030  1.0000
  C   C1008     1.0  0.21585  0.44798  0.77985  1.0000
  C   C1009     1.0  0.20375  0.48303  0.76527  1.0000
  C   C1010     1.0  0.21787  0.44032  0.67289  1.0000
  H   H1787     1.0  0.37137  0.36044  0.77409  1.0000
  C   C1011     1.0  0.25118  0.28287  0.94018  1.0000
  H   H1788     1.0  0.21423  0.36091  0.89156  1.0000
  C   C1012     1.0  0.33237  0.14492  0.86596  1.0000
  C   C1013     1.0  0.34360  0.28863  0.80209  1.0000
  C   C1014     1.0  0.33375  0.11384  0.88841  1.0000
  H   H1789     1.0  0.37741  0.22822  0.89025  1.0000
  H   H1790     1.0  0.19973  0.99507  0.74199  1.0000
  C   C1015     1.0  0.34131  0.16223  0.85413  1.0000
  C   C1016     1.0  0.32606  0.17900  0.84706  1.0000
  H   H1791     1.0  0.34289  0.43739  0.57516  1.0000
  H   H1792     1.0  0.22953  0.02332  0.68757  1.0000
  H   H1793     1.0  0.19687  0.26690  0.52866  1.0000
  H   H1794     1.0  0.32560  0.14109  0.85625  1.0000
  H   H1795     1.0  0.32056  0.15013  0.87706  1.0000
  H   H1796     1.0  0.26881  0.23552  0.55709  1.0000
  H   H1797     1.0  0.32298  0.12126  0.89903  1.0000
  H   H1798     1.0  0.20064  0.33748  0.84375  1.0000
  H   H1799     1.0  0.34985  0.15938  0.92055  1.0000
  H   H1800     1.0  0.33585  0.15806  0.89485  1.0000
  H   H1801     1.0  0.34838  0.16734  0.86254  1.0000
  H   H1802     1.0  0.35199  0.15837  0.84164  1.0000
  H   H1803     1.0  0.31844  0.17461  0.83851  1.0000
  H   H1804     1.0  0.31574  0.18424  0.85927  1.0000
  H   H1805     1.0  0.33285  0.19088  0.83790  1.0000
  H   H1806     1.0  0.30235  0.08636  0.88744  1.0000
  H   H1807     1.0  0.22112  0.34211  0.87025  1.0000
  H   H1808     1.0  0.31580  0.45096  0.74915  1.0000
  S   S247      1.0  0.38937  0.19744  0.87068  1.0000
  H   H1809     1.0  0.36423  0.21325  0.93583  1.0000
  C   C1017     1.0  0.36525  0.38622  0.75242  1.0000
  C   C1018     1.0  0.27340  0.00017  0.83847  1.0000
  H   H1810     1.0  0.36546  0.11993  0.89347  1.0000
  H   H1811     1.0  0.35009  0.22862  0.96069  1.0000
  H   H1812     1.0  0.31032  0.26364  0.81204  1.0000
  H   H1813     1.0  0.26598  0.24173  0.50040  1.0000
  C   C1019     1.0  0.26664  0.03810  0.84967  1.0000
  C   C1020     1.0  0.37231  0.09921  0.86533  1.0000
  C   C1021     1.0  0.32327  0.25314  0.94312  1.0000
  S   S248      1.0  0.21018  0.25469  0.58355  1.0000
  H   H1814     1.0  0.32906  0.29333  0.83045  1.0000
  C   C1022     1.0  0.27080  0.05109  0.86025  1.0000
  H   H1815     1.0  0.34512  0.45324  0.72403  1.0000
  C   C1023     1.0  0.35739  0.26292  0.84424  1.0000
  C   C1024     1.0  0.19155  0.99475  0.71667  1.0000
  C   C1025     1.0  0.20989  0.36546  0.66729  1.0000
  N   N54       1.0  0.20652  0.36869  0.85461  1.0000
  S   S249      1.0  0.20480  0.32050  0.90402  1.0000
  H   H1816     1.0  0.22803  0.02101  0.85732  1.0000
  H   H1817     1.0  0.24227  0.02690  0.83446  1.0000
  C   C1026     1.0  0.32549  0.29523  0.75183  1.0000
  C   C1027     1.0  0.26010  0.24791  0.54881  1.0000
  H   H1818     1.0  0.24200  0.99707  0.82614  1.0000
  H   H1819     1.0  0.20596  0.14914  0.59539  1.0000
  H   H1820     1.0  0.25485  0.04655  0.84249  1.0000
  H   H1821     1.0  0.27949  0.03480  0.83859  1.0000
  S   S250      1.0  0.37069  0.35646  0.68692  1.0000
  H   H1822     1.0  0.23849  0.23233  0.55208  1.0000
  C   C1028     1.0  0.20446  0.16987  0.86704  1.0000
  S   S251      1.0  0.26527  0.47066  0.67355  1.0000
  H   H1823     1.0  0.22156  0.38610  0.83001  1.0000
  C   C1029     1.0  0.19782  0.26740  0.90628  1.0000
  C   C1030     1.0  0.21123  0.27117  0.59632  1.0000
  H   H1824     1.0  0.32058  0.25444  0.68616  1.0000
  S   S252      1.0  0.38292  0.14485  0.81196  1.0000
  N   N55       1.0  0.22225  0.19117  0.87617  1.0000
  H   H1825     1.0  0.22893  0.19125  0.90263  1.0000
  H   H1826     1.0  0.27468  0.06417  0.84993  1.0000
  H   H1827     1.0  0.25808  0.05569  0.87100  1.0000
  H   H1828     1.0  0.28288  0.04357  0.86738  1.0000
  N   N56       1.0  0.34851  0.38719  0.61860  1.0000
  C   C1031     1.0  0.33760  0.38936  0.63826  1.0000
  C   C1032     1.0  0.34939  0.40699  0.60625  1.0000
  C   C1033     1.0  0.33848  0.37658  0.61094  1.0000
  C   C1034     1.0  0.36850  0.37594  0.61904  1.0000
  H   H1829     1.0  0.33745  0.25680  0.93675  1.0000
  C   C1035     1.0  0.33596  0.37045  0.65341  1.0000
  C   C1036     1.0  0.34666  0.37463  0.59000  1.0000
  H   H1830     1.0  0.32384  0.41281  0.59402  1.0000
  H   H1831     1.0  0.36130  0.36579  0.58851  1.0000
  C   C1037     1.0  0.32552  0.37454  0.67292  1.0000
  H   H1832     1.0  0.32295  0.39712  0.63762  1.0000
  H   H1833     1.0  0.34344  0.39867  0.64375  1.0000
  H   H1834     1.0  0.35975  0.40606  0.59255  1.0000
  H   H1835     1.0  0.32304  0.38318  0.61261  1.0000
  H   H1836     1.0  0.33903  0.36166  0.61948  1.0000
  H   H1837     1.0  0.36851  0.36046  0.62524  1.0000
  H   H1838     1.0  0.32692  0.32143  0.62022  1.0000
  H   H1839     1.0  0.35326  0.17576  0.96190  1.0000
  C   C1038     1.0  0.22787  0.28580  0.90034  1.0000
  C   C1039     1.0  0.38486  0.09169  0.84797  1.0000
  H   H1840     1.0  0.35102  0.11673  0.84925  1.0000
  C   C1040     1.0  0.32817  0.28493  0.82049  1.0000
  H   H1841     1.0  0.35441  0.21479  0.72933  1.0000
  H   H1842     1.0  0.33736  0.29734  0.75689  1.0000
  H   H1843     1.0  0.34184  0.42162  0.74726  1.0000
  H   H1844     1.0  0.23952  0.29288  0.89803  1.0000
  C   C1041     1.0  0.33459  0.36473  0.58359  1.0000
  H   H1845     1.0  0.26978  0.25614  0.53749  1.0000
  H   H1846     1.0  0.19418  0.15132  0.76738  1.0000
  H   H1847     1.0  0.35492  0.41532  0.61322  1.0000
  H   H1848     1.0  0.22371  0.99431  0.88014  1.0000
  H   H1849     1.0  0.19380  0.21408  0.66353  1.0000
  S   S253      1.0  0.22155  0.14468  0.79052  1.0000
  H   H1850     1.0  0.25286  0.35454  0.55080  1.0000
  H   H1851     1.0  0.21494  0.02528  0.82169  1.0000
  Fe  Fe135     1.0  0.25383  0.98699  0.78814  1.0000
  H   H1852     1.0  0.34796  0.23878  0.84194  1.0000
  H   H1853     1.0  0.26682  0.13138  0.92670  1.0000
  C   C1042     1.0  0.27200  0.38084  0.48416  1.0000
  H   H1854     1.0  0.19740  0.20239  0.51362  1.0000
  H   H1855     1.0  0.19865  0.36186  0.67998  1.0000
  S   S254      1.0  0.29419  0.42325  0.65301  1.0000
  H   H1856     1.0  0.22214  0.99334  0.71058  1.0000
  H   H1857     1.0  0.30875  0.27933  0.68347  1.0000
  H   H1858     1.0  0.21921  0.25602  0.96430  1.0000
  H   H1859     1.0  0.31914  0.44795  0.58590  1.0000
  H   H1860     1.0  0.32614  0.24926  0.72759  1.0000
  C   C1043     1.0  0.20338  0.20755  0.52302  1.0000
  H   H1861     1.0  0.31986  0.42245  0.61474  1.0000
  C   C1044     1.0  0.20915  0.29624  0.90322  1.0000
  C   C1045     1.0  0.33025  0.41966  0.60161  1.0000
  C   C1046     1.0  0.33041  0.27563  0.74663  1.0000
  C   C1047     1.0  0.29341  0.99282  0.84335  1.0000
  H   H1862     1.0  0.25950  0.18096  0.85549  1.0000
  H   H1863     1.0  0.28189  0.25330  0.87447  1.0000
  H   H1864     1.0  0.36415  0.08813  0.87406  1.0000
  C   C1048     1.0  0.36667  0.21033  0.87886  1.0000
  H   H1865     1.0  0.24915  0.03336  0.67160  1.0000
  C   C1049     1.0  0.20685  0.26793  0.51450  1.0000
  H   H1866     1.0  0.34515  0.23741  0.75062  1.0000
  H   H1867     1.0  0.34264  0.10189  0.89698  1.0000
  S   S255      1.0  0.22090  0.23182  0.90677  1.0000
  H   H1868     1.0  0.20914  0.12362  0.61808  1.0000
  H   H1869     1.0  0.23133  0.22200  0.52804  1.0000
  S   S256      1.0  0.37291  0.24135  0.78491  1.0000
  H   H1870     1.0  0.36479  0.43285  0.69470  1.0000
  S   S257      1.0  0.28868  0.32791  0.55574  1.0000
  S   S258      1.0  0.20205  0.08970  0.74989  1.0000
  H   H1871     1.0  0.38636  0.25746  0.82771  1.0000
  H   H1872     1.0  0.19609  0.23837  0.66203  1.0000
  C   C1050     1.0  0.33304  0.43920  0.58891  1.0000
  H   H1873     1.0  0.26286  0.18891  0.87506  1.0000
  C   C1051     1.0  0.21648  0.25676  0.90440  1.0000
  H   H1874     1.0  0.33224  0.41457  0.73171  1.0000
  H   H1875     1.0  0.35534  0.38610  0.72803  1.0000
  H   H1876     1.0  0.21435  0.27664  0.94624  1.0000
  C   C1052     1.0  0.31495  0.26308  0.84929  1.0000
  C   C1053     1.0  0.31448  0.26645  0.69372  1.0000
  H   H1877     1.0  0.29764  0.00387  0.84799  1.0000
  H   H1878     1.0  0.22909  0.98820  0.84950  1.0000
  C   C1054     1.0  0.27444  0.33290  0.53866  1.0000
  H   H1879     1.0  0.26128  0.33368  0.84526  1.0000
  C   C1055     1.0  0.34922  0.32277  0.63312  1.0000
  H   H1880     1.0  0.29192  0.28798  0.84298  1.0000
  H   H1881     1.0  0.35812  0.28318  0.80500  1.0000
  C   C1056     1.0  0.24690  0.35100  0.52530  1.0000
  H   H1882     1.0  0.26588  0.21164  0.83365  1.0000
  H   H1883     1.0  0.20899  0.23428  0.53847  1.0000
  C   C1057     1.0  0.31913  0.23409  0.82637  1.0000
  C   C1058     1.0  0.37973  0.38271  0.62996  1.0000
  H   H1884     1.0  0.21177  0.37599  0.74904  1.0000
  H   H1885     1.0  0.33875  0.44708  0.59616  1.0000
  C   C1059     1.0  0.33802  0.25323  0.71570  1.0000
  C   C1060     1.0  0.33558  0.44434  0.72327  1.0000
  H   H1886     1.0  0.31639  0.26029  0.95526  1.0000
  C   C1061     1.0  0.34905  0.19151  0.95637  1.0000
  H   H1887     1.0  0.37993  0.38524  0.72296  1.0000
  H   H1888     1.0  0.22451  0.33902  0.94135  1.0000
  H   H1889     1.0  0.21624  0.30735  0.94720  1.0000
  C   C1062     1.0  0.32521  0.23133  0.94956  1.0000
  S   S259      1.0  0.29955  0.44258  0.69407  1.0000
  C   C1063     1.0  0.28053  0.32330  0.52353  1.0000
  C   C1064     1.0  0.25293  0.34134  0.51024  1.0000
  H   H1890     1.0  0.29356  0.31252  0.52284  1.0000
  H   H1891     1.0  0.31152  0.21144  0.81807  1.0000
  H   H1892     1.0  0.36837  0.12859  0.85009  1.0000
  Fe  Fe136     1.0  0.38360  0.32964  0.67546  1.0000
  C   C1065     1.0  0.21247  0.04290  0.73988  1.0000
  H   H1893     1.0  0.36018  0.27506  0.73673  1.0000
  H   H1894     1.0  0.30256  0.26265  0.70558  1.0000
  C   C1066     1.0  0.31049  0.09210  0.89437  1.0000
  C   C1067     1.0  0.19108  0.27390  0.97031  1.0000
  H   H1895     1.0  0.33234  0.09623  0.86926  1.0000
  C   C1068     1.0  0.26976  0.32741  0.50943  1.0000
  H   H1896     1.0  0.20025  0.04889  0.76819  1.0000
  H   H1897     1.0  0.20950  0.34110  0.59061  1.0000
  H   H1898     1.0  0.20927  0.40861  0.80207  1.0000
  C   C1069     1.0  0.34543  0.14489  0.90091  1.0000
  H   H1899     1.0  0.38183  0.10087  0.87370  1.0000
  N   N57       1.0  0.36255  0.41389  0.72268  1.0000
  H   H1900     1.0  0.23264  0.46585  0.75812  1.0000
  C   C1070     1.0  0.23419  0.30187  0.54576  1.0000
  H   H1901     1.0  0.32296  0.28343  0.70786  1.0000
  C   C1071     1.0  0.35815  0.23874  0.73931  1.0000
  C   C1072     1.0  0.23960  0.01459  0.84656  1.0000
  H   H1902     1.0  0.29707  0.02163  0.74705  1.0000
  H   H1903     1.0  0.21182  0.16140  0.83969  1.0000
  C   C1073     1.0  0.20268  0.37355  0.88866  1.0000
  C   C1074     1.0  0.22114  0.46757  0.77081  1.0000
  H   H1904     1.0  0.36856  0.27071  0.69649  1.0000
  S   S260      1.0  0.37195  0.19538  0.82545  1.0000
  C   C1075     1.0  0.24762  0.24068  0.54017  1.0000
  H   H1905     1.0  0.30017  0.10042  0.90448  1.0000
  H   H1906     1.0  0.20388  0.41230  0.75028  1.0000
  H   H1907     1.0  0.22949  0.09610  0.63526  1.0000
  H   H1908     1.0  0.30426  0.01819  0.72280  1.0000
  H   H1909     1.0  0.27210  0.34585  0.85619  1.0000
  N   N58       1.0  0.22303  0.28225  0.96938  1.0000
  N   N59       1.0  0.34556  0.12758  0.87483  1.0000
  H   H1910     1.0  0.22668  0.18373  0.84881  1.0000
  H   H1911     1.0  0.19364  0.38966  0.73606  1.0000
  C   C1076     1.0  0.22377  0.35267  0.85658  1.0000
  H   H1912     1.0  0.20051  0.42087  0.67509  1.0000
  H   H1913     1.0  0.32845  0.22349  0.80008  1.0000
  C   C1077     1.0  0.32304  0.25459  0.81753  1.0000
  H   H1914     1.0  0.22190  0.11039  0.65330  1.0000
  C   C1078     1.0  0.35702  0.13304  0.88573  1.0000
  H   H1915     1.0  0.36631  0.41051  0.66534  1.0000
  C   C1079     1.0  0.28103  0.26892  0.86837  1.0000
  C   C1080     1.0  0.25565  0.23826  0.49418  1.0000
  N   N60       1.0  0.25728  0.00536  0.85451  1.0000
  H   H1916     1.0  0.30359  0.23520  0.80487  1.0000
  H   H1917     1.0  0.22845  0.25238  0.48641  1.0000
  C   C1081     1.0  0.34815  0.25371  0.83352  1.0000
  C   C1082     1.0  0.36494  0.41738  0.70136  1.0000
  H   H1918     1.0  0.20500  0.37377  0.51098  1.0000
  N   N61       1.0  0.32856  0.26409  0.83026  1.0000
  H   H1919     1.0  0.24114  0.29822  0.53172  1.0000
  C   C1083     1.0  0.21612  0.30360  0.96275  1.0000
  H   H1920     1.0  0.25117  0.25723  0.55863  1.0000
  C   C1084     1.0  0.36484  0.22478  0.88847  1.0000
  H   H1921     1.0  0.21837  0.15346  0.90339  1.0000
  H   H1922     1.0  0.34227  0.28147  0.79136  1.0000
  H   H1923     1.0  0.33220  0.22514  0.93687  1.0000
  H   H1924     1.0  0.21190  0.36934  0.82445  1.0000
  C   C1085     1.0  0.21884  0.09886  0.64830  1.0000
  C   C1086     1.0  0.36701  0.19770  0.94249  1.0000
  H   H1925     1.0  0.28523  0.27536  0.87810  1.0000
  H   H1926     1.0  0.22250  0.44242  0.65717  1.0000
  H   H1927     1.0  0.21908  0.05177  0.70223  1.0000
  H   H1928     1.0  0.35039  0.26068  0.85954  1.0000
  H   H1929     1.0  0.20414  0.02401  0.76726  1.0000
  H   H1930     1.0  0.20355  0.35939  0.54503  1.0000
  S   S261      1.0  0.23893  0.34711  0.49287  1.0000
  H   H1931     1.0  0.20787  0.09527  0.60799  1.0000
  H   H1932     1.0  0.33258  0.26463  0.75980  1.0000
  H   H1933     1.0  0.21006  0.36468  0.70347  1.0000
  H   H1934     1.0  0.21206  0.08826  0.57667  1.0000
  H   H1935     1.0  0.19999  0.36373  0.73919  1.0000
  H   H1936     1.0  0.35119  0.43362  0.66839  1.0000
  C   C1087     1.0  0.32259  0.10503  0.87921  1.0000
  H   H1937     1.0  0.19203  0.21024  0.53564  1.0000
  C   C1088     1.0  0.36609  0.39249  0.73064  1.0000
  H   H1938     1.0  0.38453  0.25943  0.85177  1.0000
  H   H1939     1.0  0.36696  0.16103  0.89832  1.0000
  H   H1940     1.0  0.37883  0.19461  0.95002  1.0000
  C   C1089     1.0  0.19172  0.15336  0.59184  1.0000
  C   C1090     1.0  0.37060  0.20324  0.75124  1.0000
  H   H1941     1.0  0.20575  0.30909  0.54136  1.0000
  H   H1942     1.0  0.22586  0.39228  0.71678  1.0000
  H   H1943     1.0  0.21641  0.29167  0.49177  1.0000
  H   H1944     1.0  0.37352  0.24549  0.69897  1.0000
  H   H1945     1.0  0.21747  0.39220  0.89495  1.0000
  H   H1946     1.0  0.37301  0.42418  0.74191  1.0000
  H   H1947     1.0  0.20671  0.41981  0.69702  1.0000
  C   C1091     1.0  0.19222  0.22901  0.65484  1.0000
  C   C1092     1.0  0.20298  0.20417  0.88025  1.0000
  H   H1948     1.0  0.27633  0.23210  0.96650  1.0000
  C   C1093     1.0  0.19476  0.28079  0.60682  1.0000
  H   H1949     1.0  0.20201  0.01581  0.84515  1.0000
  C   C1094     1.0  0.37110  0.25688  0.70705  1.0000
  H   H1950     1.0  0.36845  0.24111  0.74644  1.0000
  C   C1095     1.0  0.36551  0.21878  0.73401  1.0000
  C   C1096     1.0  0.37853  0.25389  0.84269  1.0000
  C   C1097     1.0  0.19692  0.35235  0.58739  1.0000
  H   H1951     1.0  0.37373  0.39364  0.75711  1.0000
  H   H1952     1.0  0.38075  0.23802  0.84746  1.0000
  H   H1953     1.0  0.19929  0.35276  0.65009  1.0000
  H   H1954     1.0  0.36248  0.18935  0.91840  1.0000
  C   C1098     1.0  0.19878  0.10458  0.64441  1.0000
  H   H1955     1.0  0.20753  0.11673  0.58981  1.0000
  H   H1956     1.0  0.21128  0.15055  0.93781  1.0000
  H   H1957     1.0  0.19242  0.03004  0.66714  1.0000
  H   H1958     1.0  0.20087  0.38180  0.91499  1.0000
  H   H1959     1.0  0.38058  0.39802  0.62403  1.0000
  C   C1099     1.0  0.38910  0.25388  0.76795  1.0000
  C   C1100     1.0  0.31740  0.30390  0.48180  1.0000
  H   H1960     1.0  0.33595  0.32195  0.48048  1.0000
  H   H1961     1.0  0.36818  0.35726  0.48643  1.0000
  H   H1962     1.0  0.19547  0.13542  0.63637  1.0000
  H   H1963     1.0  0.19940  0.98903  0.77231  1.0000
  C   C1101     1.0  0.19601  0.12368  0.62929  1.0000
  H   H1964     1.0  0.19912  0.17812  0.57008  1.0000
  C   C1102     1.0  0.19766  0.09458  0.58398  1.0000
  C   C1103     1.0  0.19934  0.10556  0.59794  1.0000
  H   H1965     1.0  0.20575  0.34312  0.96174  1.0000
  H   H1966     1.0  0.38863  0.26722  0.72003  1.0000
  H   H1967     1.0  0.38203  0.20635  0.75624  1.0000
  H   H1968     1.0  0.19294  0.18183  0.86242  1.0000
  C   C1104     1.0  0.19213  0.39601  0.82892  1.0000
  H   H1969     1.0  0.19934  0.16313  0.88207  1.0000
  H   H1970     1.0  0.19113  0.99092  0.80596  1.0000
  H   H1971     1.0  0.19998  0.17333  0.91007  1.0000
  H   H1972     1.0  0.19594  0.09259  0.64000  1.0000
  H   H1973     1.0  0.27452  0.39570  0.48056  1.0000
  H   H1974     1.0  0.20093  0.30806  0.96954  1.0000
  C   C1105     1.0  0.32106  0.32399  0.47915  1.0000
  H   H1975     1.0  0.19419  0.14999  0.85736  1.0000
  C   C1106     1.0  0.19413  0.28713  0.90589  1.0000
  C   C1107     1.0  0.20337  0.38815  0.89945  1.0000
  H   H1976     1.0  0.19139  0.39383  0.86586  1.0000
  H   H1977     1.0  0.38811  0.36082  0.75167  1.0000
  H   H1978     1.0  0.19220  0.40129  0.89684  1.0000
  H   H1979     1.0  0.19085  0.40798  0.83581  1.0000
  C   C1108     1.0  0.39004  0.25568  0.71266  1.0000
  C   C1109     1.0  0.19043  0.98759  0.73844  1.0000
  Fe  Fe137     1.0  0.37662  0.72184  0.32235  1.0000
  S   S262      1.0  0.35583  0.74017  0.34152  1.0000
  C   C1110     1.0  0.38754  0.72825  0.40929  1.0000
  Fe  Fe138     1.0  0.30061  0.69783  0.43397  1.0000
  S   S263      1.0  0.29124  0.67021  0.44933  1.0000
  S   S264      1.0  0.33178  0.69765  0.42689  1.0000
  Fe  Fe139     1.0  0.26041  0.72020  0.43288  1.0000
  S   S265      1.0  0.24784  0.69438  0.44806  1.0000
  S   S266      1.0  0.24265  0.74937  0.42334  1.0000
  H   H1980     1.0  0.37444  0.62621  0.27071  1.0000
  H   H1981     1.0  0.23095  0.90378  0.31940  1.0000
  Fe  Fe140     1.0  0.27165  0.67873  0.42876  1.0000
  S   S267      1.0  0.26665  0.65629  0.41616  1.0000
  S   S268      1.0  0.27944  0.71564  0.45312  1.0000
  S   S269      1.0  0.28281  0.70508  0.41201  1.0000
  S   S270      1.0  0.30284  0.50781  0.28231  1.0000
  Fe  Fe141     1.0  0.30399  0.62910  0.28607  1.0000
  S   S271      1.0  0.29288  0.62047  0.31744  1.0000
  S   S272      1.0  0.33513  0.62724  0.27351  1.0000
  Fe  Fe142     1.0  0.26439  0.64071  0.27687  1.0000
  S   S273      1.0  0.25006  0.63385  0.30770  1.0000
  S   S274      1.0  0.25067  0.65019  0.25130  1.0000
  Fe  Fe143     1.0  0.27117  0.64787  0.31291  1.0000
  S   S275      1.0  0.26725  0.67167  0.32822  1.0000
  Fe  Fe144     1.0  0.27324  0.60706  0.30908  1.0000
  S   S276      1.0  0.26657  0.57763  0.32381  1.0000
  S   S277      1.0  0.28345  0.65710  0.28175  1.0000
  S   S278      1.0  0.28640  0.61347  0.27801  1.0000
  S   S279      1.0  0.35560  0.84859  0.17224  1.0000
  S   S280      1.0  0.36345  0.90149  0.15138  1.0000
  H   H1982     1.0  0.22908  0.80765  0.04120  1.0000
  S   S281      1.0  0.28683  0.93266  0.20485  1.0000
  S   S282      1.0  0.24631  0.94376  0.17912  1.0000
  Fe  Fe145     1.0  0.29072  0.84738  0.07787  1.0000
  S   S283      1.0  0.27003  0.87512  0.06995  1.0000
  S   S284      1.0  0.32158  0.84956  0.07240  1.0000
  Fe  Fe146     1.0  0.25969  0.82380  0.09072  1.0000
  S   S285      1.0  0.23690  0.84984  0.08491  1.0000
  S   S286      1.0  0.25153  0.79468  0.10056  1.0000
  Fe  Fe147     1.0  0.25754  0.85778  0.05757  1.0000
  S   S287      1.0  0.24593  0.86593  0.03062  1.0000
  Fe  Fe148     1.0  0.25155  0.86452  0.09796  1.0000
  S   S288      1.0  0.23542  0.88199  0.12039  1.0000
  S   S289      1.0  0.27982  0.83112  0.06296  1.0000
  S   S290      1.0  0.27267  0.83745  0.10645  1.0000
  C   C1111     1.0  0.23025  0.79781  0.05474  1.0000
  C   C1112     1.0  0.23909  0.80203  0.06712  1.0000
  C   C1113     1.0  0.24073  0.78948  0.08467  1.0000
  C   C1114     1.0  0.23348  0.77265  0.08970  1.0000
  C   C1115     1.0  0.22414  0.76868  0.07751  1.0000
  H   H1983     1.0  0.24468  0.81502  0.06303  1.0000
  H   H1984     1.0  0.23486  0.76283  0.10319  1.0000
  C   C1116     1.0  0.25966  0.85466  0.01187  1.0000
  C   C1117     1.0  0.27894  0.84658  0.01114  1.0000
  H   H1985     1.0  0.30482  0.83229  0.99529  1.0000
  H   H1986     1.0  0.28561  0.84723  0.02211  1.0000
  H   H1987     1.0  0.30180  0.75309  0.00857  1.0000
  C   C1118     1.0  0.25194  0.93698  0.12268  1.0000
  C   C1119     1.0  0.26068  0.92800  0.10728  1.0000
  C   C1120     1.0  0.25572  0.91118  0.10638  1.0000
  C   C1121     1.0  0.24184  0.90330  0.12079  1.0000
  C   C1122     1.0  0.23296  0.91241  0.13607  1.0000
  C   C1123     1.0  0.23804  0.92911  0.13708  1.0000
  H   H1988     1.0  0.27126  0.93411  0.09597  1.0000
  H   H1989     1.0  0.26237  0.90444  0.09442  1.0000
  H   H1990     1.0  0.22206  0.90655  0.14716  1.0000
  H   H1991     1.0  0.23099  0.93605  0.14885  1.0000
  C   C1124     1.0  0.34301  0.91046  0.16710  1.0000
  C   C1125     1.0  0.33622  0.89887  0.18454  1.0000
  C   C1126     1.0  0.31936  0.90610  0.19649  1.0000
  C   C1127     1.0  0.30901  0.92471  0.19080  1.0000
  C   C1128     1.0  0.31608  0.93644  0.17362  1.0000
  C   C1129     1.0  0.33313  0.92937  0.16185  1.0000
  H   H1992     1.0  0.34398  0.88438  0.18885  1.0000
  H   H1993     1.0  0.31413  0.89710  0.20993  1.0000
  H   H1994     1.0  0.30840  0.95093  0.16932  1.0000
  H   H1995     1.0  0.33847  0.93844  0.14848  1.0000
  C   C1130     1.0  0.35447  0.82274  0.12046  1.0000
  C   C1131     1.0  0.33912  0.81535  0.11999  1.0000
  C   C1132     1.0  0.32915  0.82321  0.10513  1.0000
  C   C1133     1.0  0.33456  0.83845  0.09055  1.0000
  C   C1134     1.0  0.35040  0.84531  0.09059  1.0000
  C   C1135     1.0  0.36034  0.83748  0.10550  1.0000
  H   H1996     1.0  0.31716  0.81762  0.10504  1.0000
  H   H1997     1.0  0.35484  0.85688  0.07919  1.0000
  H   H1998     1.0  0.37248  0.84288  0.10550  1.0000
  C   C1136     1.0  0.23098  0.64031  0.25319  1.0000
  C   C1137     1.0  0.22065  0.63239  0.27086  1.0000
  C   C1138     1.0  0.22539  0.64070  0.23656  1.0000
  H   H1999     1.0  0.22486  0.63193  0.28380  1.0000
  H   H2000     1.0  0.23373  0.64610  0.22291  1.0000
  C   C1139     1.0  0.21823  0.75181  0.43304  1.0000
  H   H2001     1.0  0.27735  0.93850  0.25531  1.0000
  C   C1140     1.0  0.20557  0.76760  0.42492  1.0000
  H   H2002     1.0  0.30693  0.68360  0.31721  1.0000
  C   C1141     1.0  0.29132  0.52692  0.29391  1.0000
  C   C1142     1.0  0.27926  0.52439  0.31189  1.0000
  C   C1143     1.0  0.27151  0.54005  0.32094  1.0000
  C   C1144     1.0  0.27560  0.55830  0.31197  1.0000
  C   C1145     1.0  0.28709  0.56080  0.29377  1.0000
  C   C1146     1.0  0.29501  0.54521  0.28485  1.0000
  H   H2003     1.0  0.27628  0.51031  0.31898  1.0000
  H   H2004     1.0  0.26250  0.53797  0.33501  1.0000
  H   H2005     1.0  0.29004  0.57472  0.28659  1.0000
  H   H2006     1.0  0.30404  0.54731  0.27080  1.0000
  H   H2007     1.0  0.34456  0.86824  0.11878  1.0000
  H   H2008     1.0  0.36039  0.72176  0.23246  1.0000
  H   H2009     1.0  0.21086  0.77799  0.41264  1.0000
  C   C1147     1.0  0.26794  0.66028  0.39149  1.0000
  C   C1148     1.0  0.26574  0.64571  0.38394  1.0000
  C   C1149     1.0  0.26634  0.64867  0.36436  1.0000
  C   C1150     1.0  0.26881  0.66638  0.35232  1.0000
  C   C1151     1.0  0.27138  0.68079  0.35982  1.0000
  C   C1152     1.0  0.27124  0.67764  0.37929  1.0000
  H   H2010     1.0  0.26335  0.63215  0.39331  1.0000
  H   H2011     1.0  0.26424  0.63752  0.35870  1.0000
  H   H2012     1.0  0.27330  0.69451  0.35053  1.0000
  H   H2013     1.0  0.27335  0.68875  0.38491  1.0000
  H   H2014     1.0  0.32522  0.70768  0.46662  1.0000
  H   H2015     1.0  0.31892  0.68253  0.21579  1.0000
  H   H2016     1.0  0.29400  0.70750  0.30865  1.0000
  H   H2017     1.0  0.19476  0.73324  0.99861  1.0000
  H   H2018     1.0  0.33404  0.75373  0.98780  1.0000
  C   C1153     1.0  0.36491  0.64865  0.30755  1.0000
  H   H2019     1.0  0.20350  0.71970  0.35788  1.0000
  C   C1154     1.0  0.36621  0.63316  0.28221  1.0000
  C   C1155     1.0  0.34641  0.63554  0.28669  1.0000
  C   C1156     1.0  0.33586  0.64441  0.30168  1.0000
  C   C1157     1.0  0.34511  0.65101  0.31204  1.0000
  C   C1158     1.0  0.21362  0.69908  0.01673  1.0000
  C   C1159     1.0  0.20602  0.68141  0.44545  1.0000
  H   H2020     1.0  0.32056  0.64635  0.30523  1.0000
  H   H2021     1.0  0.33691  0.65784  0.32361  1.0000
  C   C1160     1.0  0.34895  0.72808  0.36511  1.0000
  C   C1161     1.0  0.36036  0.71095  0.37280  1.0000
  C   C1162     1.0  0.35536  0.70206  0.39200  1.0000
  C   C1163     1.0  0.33831  0.70959  0.40326  1.0000
  C   C1164     1.0  0.32663  0.72652  0.39556  1.0000
  C   C1165     1.0  0.33218  0.73601  0.37659  1.0000
  H   H2022     1.0  0.37324  0.70480  0.36410  1.0000
  H   H2023     1.0  0.36445  0.68910  0.39804  1.0000
  H   H2024     1.0  0.31344  0.73244  0.40427  1.0000
  H   H2025     1.0  0.32330  0.74927  0.37069  1.0000
  Fe  Fe149     1.0  0.37461  0.83455  0.19308  1.0000
  N   N62       1.0  0.34588  0.56351  0.29044  1.0000
  C   C1166     1.0  0.35863  0.54603  0.28368  1.0000
  C   C1167     1.0  0.35807  0.57583  0.29266  1.0000
  C   C1168     1.0  0.33295  0.55680  0.30907  1.0000
  C   C1169     1.0  0.33385  0.57539  0.27630  1.0000
  C   C1170     1.0  0.34472  0.58188  0.25564  1.0000
  C   C1171     1.0  0.34861  0.53306  0.27798  1.0000
  C   C1172     1.0  0.31984  0.57282  0.31912  1.0000
  C   C1173     1.0  0.19870  0.62623  0.25515  1.0000
  C   C1174     1.0  0.34882  0.93319  0.07077  1.0000
  C   C1175     1.0  0.33093  0.59319  0.24261  1.0000
  H   H2026     1.0  0.25098  0.82977  0.47531  1.0000
  H   H2027     1.0  0.32539  0.75107  0.22098  1.0000
  C   C1176     1.0  0.31723  0.72158  0.47044  1.0000
  C   C1177     1.0  0.20451  0.62541  0.27183  1.0000
  H   H2028     1.0  0.34947  0.59025  0.29449  1.0000
  H   H2029     1.0  0.34128  0.54622  0.31919  1.0000
  H   H2030     1.0  0.32322  0.54881  0.30694  1.0000
  H   H2031     1.0  0.32325  0.56759  0.27576  1.0000
  H   H2032     1.0  0.32535  0.58872  0.28102  1.0000
  H   H2033     1.0  0.35338  0.56941  0.24957  1.0000
  H   H2034     1.0  0.35422  0.59139  0.25515  1.0000
  H   H2035     1.0  0.24747  0.81144  0.00622  1.0000
  H   H2036     1.0  0.34136  0.54105  0.26608  1.0000
  H   H2037     1.0  0.30864  0.58093  0.31100  1.0000
  H   H2038     1.0  0.32767  0.58309  0.32036  1.0000
  Fe  Fe150     1.0  0.25152  0.96603  0.15227  1.0000
  H   H2039     1.0  0.33479  0.80365  0.13129  1.0000
  H   H2040     1.0  0.19575  0.67187  0.20450  1.0000
  C   C1178     1.0  0.22943  0.78589  0.45726  1.0000
  H   H2041     1.0  0.25025  0.68445  0.21447  1.0000
  H   H2042     1.0  0.32102  0.58432  0.24251  1.0000
  H   H2043     1.0  0.32264  0.60652  0.24742  1.0000
  H   H2044     1.0  0.33898  0.59736  0.22785  1.0000
  C   C1179     1.0  0.31834  0.96003  0.09132  1.0000
  H   H2045     1.0  0.20497  0.69082  0.38760  1.0000
  C   C1180     1.0  0.32257  0.90548  0.07182  1.0000
  H   H2046     1.0  0.33891  0.59524  0.35748  1.0000
  H   H2047     1.0  0.24065  0.72636  0.02276  1.0000
  H   H2048     1.0  0.19646  0.61946  0.28554  1.0000
  C   C1181     1.0  0.19154  0.84814  0.06866  1.0000
  H   H2049     1.0  0.30199  0.55370  0.33889  1.0000
  C   C1182     1.0  0.33266  0.60881  0.34840  1.0000
  C   C1183     1.0  0.38325  0.64982  0.38269  1.0000
  H   H2050     1.0  0.21874  0.83288  0.39455  1.0000
  H   H2051     1.0  0.19216  0.67395  0.23832  1.0000
  H   H2052     1.0  0.32121  0.60605  0.34320  1.0000
  H   H2053     1.0  0.25474  0.66560  0.20195  1.0000
  C   C1184     1.0  0.28985  0.83826  0.99583  1.0000
  H   H2054     1.0  0.37293  0.64272  0.36196  1.0000
  H   H2055     1.0  0.26153  0.75682  0.45693  1.0000
  H   H2056     1.0  0.19993  0.80102  0.44003  1.0000
  C   C1185     1.0  0.32792  0.93957  0.10076  1.0000
  H   H2057     1.0  0.31318  0.61943  0.37175  1.0000
  H   H2058     1.0  0.35060  0.63403  0.35394  1.0000
  C   C1186     1.0  0.34018  0.74676  0.22329  1.0000
  H   H2059     1.0  0.37677  0.76282  0.27148  1.0000
  C   C1187     1.0  0.32439  0.62457  0.35980  1.0000
  H   H2060     1.0  0.33661  0.87318  0.14217  1.0000
  S   S291      1.0  0.25869  0.95791  0.12358  1.0000
  H   H2061     1.0  0.20777  0.57963  0.31900  1.0000
  H   H2062     1.0  0.37357  0.52072  0.25874  1.0000
  C   C1188     1.0  0.26640  0.96790  0.24375  1.0000
  H   H2063     1.0  0.31061  0.66560  0.23713  1.0000
  H   H2064     1.0  0.19633  0.67161  0.45393  1.0000
  C   C1189     1.0  0.37099  0.78932  0.25081  1.0000
  C   C1190     1.0  0.31093  0.69338  0.24190  1.0000
  H   H2065     1.0  0.36575  0.74993  0.42222  1.0000
  H   H2066     1.0  0.22086  0.69792  0.33534  1.0000
  H   H2067     1.0  0.35417  0.67720  0.27594  1.0000
  C   C1191     1.0  0.22044  0.73134  0.38654  1.0000
  H   H2068     1.0  0.23279  0.70512  0.98978  1.0000
  C   C1192     1.0  0.31158  0.97315  0.10557  1.0000
  H   H2069     1.0  0.31173  0.73101  0.45785  1.0000
  H   H2070     1.0  0.33722  0.69282  0.29899  1.0000
  H   H2071     1.0  0.30860  0.70856  0.23391  1.0000
  H   H2072     1.0  0.31754  0.63749  0.35042  1.0000
  N   N63       1.0  0.23600  0.56866  0.26548  1.0000
  H   H2073     1.0  0.20441  0.68718  0.35527  1.0000
  C   C1193     1.0  0.23281  0.57265  0.28504  1.0000
  C   C1194     1.0  0.24487  0.58443  0.25124  1.0000
  C   C1195     1.0  0.24943  0.54952  0.26410  1.0000
  C   C1196     1.0  0.24042  0.53159  0.26913  1.0000
  H   H2074     1.0  0.32830  0.96670  0.07895  1.0000
  C   C1197     1.0  0.26340  0.58742  0.25469  1.0000
  C   C1198     1.0  0.22344  0.55840  0.30199  1.0000
  C   C1199     1.0  0.21826  0.56577  0.32036  1.0000
  C   C1200     1.0  0.25552  0.51307  0.27103  1.0000
  H   H2075     1.0  0.35142  0.89544  0.09156  1.0000
  C   C1201     1.0  0.27346  0.60018  0.23724  1.0000
  C   C1202     1.0  0.22362  0.81897  0.46274  1.0000
  H   H2076     1.0  0.20676  0.90231  0.32122  1.0000
  H   H2077     1.0  0.24647  0.57246  0.28850  1.0000
  H   H2078     1.0  0.37078  0.59535  0.31258  1.0000
  H   H2079     1.0  0.23458  0.59845  0.25071  1.0000
  H   H2080     1.0  0.24829  0.58167  0.23664  1.0000
  H   H2081     1.0  0.25816  0.54989  0.24940  1.0000
  H   H2082     1.0  0.25995  0.54659  0.27325  1.0000
  C   C1203     1.0  0.24514  0.64866  0.15789  1.0000
  H   H2083     1.0  0.22976  0.53075  0.28265  1.0000
  H   H2084     1.0  0.24891  0.50057  0.27347  1.0000
  C   C1204     1.0  0.32691  0.76292  0.97614  1.0000
  H   H2085     1.0  0.27343  0.57352  0.25791  1.0000
  H   H2086     1.0  0.26006  0.59469  0.26677  1.0000
  H   H2087     1.0  0.30093  0.96740  0.11790  1.0000
  H   H2088     1.0  0.19909  0.56782  0.22285  1.0000
  C   C1205     1.0  0.20604  0.81182  0.44295  1.0000
  H   H2089     1.0  0.19773  0.84067  0.41141  1.0000
  H   H2090     1.0  0.27530  0.97369  0.24974  1.0000
  H   H2091     1.0  0.20507  0.69224  0.45370  1.0000
  H   H2092     1.0  0.31249  0.78540  0.99112  1.0000
  C   C1206     1.0  0.19286  0.96252  0.23140  1.0000
  H   H2093     1.0  0.36033  0.90661  0.05921  1.0000
  H   H2094     1.0  0.36618  0.53665  0.29499  1.0000
  H   H2095     1.0  0.26387  0.61426  0.23335  1.0000
  H   H2096     1.0  0.28613  0.60284  0.24044  1.0000
  H   H2097     1.0  0.27817  0.59307  0.22494  1.0000
  N   N64       1.0  0.33367  0.64381  0.37926  1.0000
  C   C1207     1.0  0.32695  0.66315  0.36709  1.0000
  C   C1208     1.0  0.34016  0.62914  0.36694  1.0000
  C   C1209     1.0  0.31753  0.63891  0.39554  1.0000
  C   C1210     1.0  0.35006  0.64401  0.38746  1.0000
  C   C1211     1.0  0.36709  0.65142  0.37295  1.0000
  C   C1212     1.0  0.32137  0.68043  0.37692  1.0000
  C   C1213     1.0  0.32122  0.61846  0.40839  1.0000
  C   C1214     1.0  0.31581  0.69933  0.36305  1.0000
  C   C1215     1.0  0.30348  0.61475  0.42350  1.0000
  H   H2098     1.0  0.31418  0.66305  0.36210  1.0000
  H   H2099     1.0  0.33785  0.66634  0.35387  1.0000
  H   H2100     1.0  0.34804  0.61539  0.37440  1.0000
  H   H2101     1.0  0.30446  0.64085  0.39017  1.0000
  H   H2102     1.0  0.31370  0.64909  0.40521  1.0000
  H   H2103     1.0  0.34517  0.65264  0.39868  1.0000
  H   H2104     1.0  0.35590  0.62924  0.39489  1.0000
  H   H2105     1.0  0.36290  0.66672  0.36584  1.0000
  H   H2106     1.0  0.30902  0.67884  0.38888  1.0000
  H   H2107     1.0  0.33320  0.68174  0.38251  1.0000
  H   H2108     1.0  0.33270  0.61683  0.41596  1.0000
  H   H2109     1.0  0.32528  0.60713  0.40005  1.0000
  H   H2110     1.0  0.28592  0.80022  0.00827  1.0000
  H   H2111     1.0  0.30363  0.69898  0.35734  1.0000
  H   H2112     1.0  0.31141  0.71136  0.37058  1.0000
  H   H2113     1.0  0.32802  0.70214  0.35113  1.0000
  H   H2114     1.0  0.29899  0.62547  0.43265  1.0000
  H   H2115     1.0  0.29162  0.61560  0.41668  1.0000
  H   H2116     1.0  0.30649  0.60017  0.43268  1.0000
  N   N65       1.0  0.24509  0.92146  0.25982  1.0000
  C   C1216     1.0  0.23043  0.91762  0.25149  1.0000
  C   C1217     1.0  0.23712  0.92272  0.28049  1.0000
  C   C1218     1.0  0.24948  0.94076  0.24886  1.0000
  C   C1219     1.0  0.26338  0.90663  0.25776  1.0000
  C   C1220     1.0  0.26180  0.88532  0.26525  1.0000
  C   C1221     1.0  0.23577  0.91798  0.22986  1.0000
  H   H2117     1.0  0.19726  0.55163  0.24587  1.0000
  C   C1222     1.0  0.22226  0.91033  0.29221  1.0000
  H   H2118     1.0  0.24243  0.63641  0.17004  1.0000
  C   C1223     1.0  0.28129  0.87204  0.26155  1.0000
  C   C1224     1.0  0.22154  0.91031  0.22397  1.0000
  H   H2119     1.0  0.21191  0.71642  0.42287  1.0000
  H   H2120     1.0  0.21711  0.92857  0.25384  1.0000
  H   H2121     1.0  0.22644  0.90364  0.25896  1.0000
  H   H2122     1.0  0.24882  0.91941  0.28830  1.0000
  H   H2123     1.0  0.22960  0.93773  0.28153  1.0000
  H   H2124     1.0  0.23612  0.95185  0.24865  1.0000
  H   H2125     1.0  0.25596  0.94043  0.23373  1.0000
  H   H2126     1.0  0.27107  0.90845  0.24260  1.0000
  H   H2127     1.0  0.27327  0.90890  0.26542  1.0000
  H   H2128     1.0  0.25252  0.88144  0.25809  1.0000
  H   H2129     1.0  0.25634  0.88235  0.28085  1.0000
  H   H2130     1.0  0.23542  0.93300  0.22163  1.0000
  H   H2131     1.0  0.25011  0.90920  0.22571  1.0000
  H   H2132     1.0  0.22838  0.66019  0.19218  1.0000
  C   C1225     1.0  0.38042  0.75757  0.24356  1.0000
  H   H2133     1.0  0.20865  0.91629  0.28724  1.0000
  H   H2134     1.0  0.22696  0.89519  0.29083  1.0000
  H   H2135     1.0  0.21676  0.73998  0.37276  1.0000
  H   H2136     1.0  0.34992  0.75079  0.20944  1.0000
  H   H2137     1.0  0.21017  0.55618  0.29969  1.0000
  H   H2138     1.0  0.29107  0.87467  0.26908  1.0000
  H   H2139     1.0  0.27987  0.85679  0.26678  1.0000
  H   H2140     1.0  0.28762  0.87440  0.24607  1.0000
  H   H2141     1.0  0.22468  0.91237  0.20824  1.0000
  H   H2142     1.0  0.22246  0.89475  0.23042  1.0000
  H   H2143     1.0  0.20684  0.91827  0.22842  1.0000
  S   S292      1.0  0.37650  0.65488  0.32195  1.0000
  H   H2144     1.0  0.33569  0.72662  0.26031  1.0000
  H   H2145     1.0  0.35971  0.70036  0.26773  1.0000
  S   S293      1.0  0.19582  0.96105  0.20773  1.0000
  S   S294      1.0  0.21100  0.77693  0.04417  1.0000
  H   H2146     1.0  0.34116  0.73460  0.46304  1.0000
  C   C1226     1.0  0.21036  0.73127  0.99299  1.0000
  C   C1227     1.0  0.28155  0.83767  0.98123  1.0000
  H   H2147     1.0  0.25845  0.64377  0.14795  1.0000
  C   C1228     1.0  0.34572  0.90698  0.09970  1.0000
  N   N66       1.0  0.22678  0.69104  0.18486  1.0000
  C   C1229     1.0  0.24556  0.69492  0.18520  1.0000
  H   H2148     1.0  0.21854  0.58500  0.23119  1.0000
  H   H2149     1.0  0.32372  0.97445  0.11081  1.0000
  H   H2150     1.0  0.30597  0.78427  0.05267  1.0000
  C   C1230     1.0  0.24708  0.66554  0.16493  1.0000
  C   C1231     1.0  0.25621  0.68054  0.20037  1.0000
  H   H2151     1.0  0.27331  0.79829  0.98305  1.0000
  C   C1232     1.0  0.22682  0.71124  0.15016  1.0000
  H   H2152     1.0  0.34078  0.94252  0.05977  1.0000
  Fe  Fe151     1.0  0.37689  0.83134  0.15247  1.0000
  C   C1233     1.0  0.27737  0.68076  0.19539  1.0000
  H   H2153     1.0  0.21657  0.74166  0.39607  1.0000
  H   H2154     1.0  0.24350  0.70955  0.18789  1.0000
  H   H2155     1.0  0.25534  0.69527  0.17112  1.0000
  N   N67       1.0  0.33488  0.69784  0.25932  1.0000
  C   C1234     1.0  0.20154  0.97475  0.23610  1.0000
  Fe  Fe152     1.0  0.22407  0.96714  0.19047  1.0000
  C   C1235     1.0  0.21307  0.70570  0.41440  1.0000
  H   H2156     1.0  0.35676  0.73130  0.41796  1.0000
  H   H2157     1.0  0.23349  0.75685  0.97990  1.0000
  H   H2158     1.0  0.25958  0.66065  0.17172  1.0000
  H   H2159     1.0  0.25024  0.67709  0.15233  1.0000
  H   H2160     1.0  0.20003  0.78170  0.11539  1.0000
  H   H2161     1.0  0.35613  0.94280  0.07423  1.0000
  H   H2162     1.0  0.37823  0.65769  0.39441  1.0000
  H   H2163     1.0  0.25901  0.72335  0.03550  1.0000
  H   H2164     1.0  0.24195  0.71178  0.14792  1.0000
  H   H2165     1.0  0.22571  0.69970  0.14380  1.0000
  H   H2166     1.0  0.31057  0.70405  0.32357  1.0000
  C   C1236     1.0  0.32396  0.70160  0.29459  1.0000
  C   C1237     1.0  0.37408  0.78605  0.21867  1.0000
  H   H2167     1.0  0.33235  0.90736  0.12951  1.0000
  H   H2168     1.0  0.21653  0.67271  0.17354  1.0000
  H   H2169     1.0  0.37599  0.91238  0.07032  1.0000
  H   H2170     1.0  0.27954  0.69528  0.19465  1.0000
  H   H2171     1.0  0.28435  0.67024  0.20656  1.0000
  H   H2172     1.0  0.28416  0.67654  0.18154  1.0000
  H   H2173     1.0  0.35523  0.50684  0.26761  1.0000
  H   H2174     1.0  0.37037  0.69087  0.23344  1.0000
  C   C1238     1.0  0.19156  0.86933  0.06644  1.0000
  H   H2175     1.0  0.36776  0.79833  0.26099  1.0000
  C   C1239     1.0  0.21128  0.73852  0.44898  1.0000
  H   H2176     1.0  0.29399  0.68561  0.22680  1.0000
  C   C1240     1.0  0.36895  0.56749  0.30914  1.0000
  C   C1241     1.0  0.21722  0.57047  0.24010  1.0000
  H   H2177     1.0  0.22094  0.72669  0.45576  1.0000
  H   H2178     1.0  0.22802  0.69746  0.41332  1.0000
  C   C1242     1.0  0.30858  0.68098  0.22961  1.0000
  C   C1243     1.0  0.21804  0.91052  0.31337  1.0000
  C   C1244     1.0  0.20030  0.69126  0.42637  1.0000
  H   H2179     1.0  0.22350  0.73181  0.12361  1.0000
  H   H2180     1.0  0.23109  0.56786  0.32375  1.0000
  H   H2181     1.0  0.28139  0.79547  0.05304  1.0000
  H   H2182     1.0  0.23326  0.65307  0.15020  1.0000
  H   H2183     1.0  0.37281  0.79237  0.20409  1.0000
  C   C1245     1.0  0.21967  0.81878  0.42402  1.0000
  H   H2184     1.0  0.26197  0.51131  0.28337  1.0000
  H   H2185     1.0  0.26676  0.79479  0.02699  1.0000
  H   H2186     1.0  0.34399  0.71780  0.22050  1.0000
  C   C1246     1.0  0.30784  0.69900  0.31203  1.0000
  C   C1247     1.0  0.21721  0.73039  0.13907  1.0000
  C   C1248     1.0  0.26323  0.94834  0.25608  1.0000
  H   H2187     1.0  0.21563  0.83364  0.45727  1.0000
  H   H2188     1.0  0.24978  0.78323  0.47465  1.0000
  H   H2189     1.0  0.22073  0.67272  0.44317  1.0000
  H   H2190     1.0  0.25261  0.97817  0.24323  1.0000
  H   H2191     1.0  0.32060  0.55711  0.34835  1.0000
  C   C1249     1.0  0.23456  0.80912  0.98457  1.0000
  H   H2192     1.0  0.24094  0.78934  0.44476  1.0000
  N   N68       1.0  0.33531  0.92497  0.08832  1.0000
  H   H2193     1.0  0.34122  0.68784  0.23295  1.0000
  C   C1250     1.0  0.33255  0.71912  0.25077  1.0000
  H   H2194     1.0  0.34376  0.61327  0.33591  1.0000
  H   H2195     1.0  0.23063  0.80653  0.41949  1.0000
  H   H2196     1.0  0.22686  0.82960  0.42532  1.0000
  H   H2197     1.0  0.20495  0.63456  0.22458  1.0000
  H   H2198     1.0  0.21246  0.70450  0.20880  1.0000
  H   H2199     1.0  0.32495  0.71695  0.29070  1.0000
  C   C1251     1.0  0.37529  0.92852  0.04181  1.0000
  H   H2200     1.0  0.31751  0.72564  0.24973  1.0000
  H   H2201     1.0  0.35199  0.75738  0.46722  1.0000
  H   H2202     1.0  0.20197  0.81744  0.40557  1.0000
  H   H2203     1.0  0.34165  0.75481  0.23328  1.0000
  C   C1252     1.0  0.32040  0.69523  0.27786  1.0000
  N   N69       1.0  0.21469  0.80374  0.46042  1.0000
  C   C1253     1.0  0.37618  0.76924  0.25673  1.0000
  H   H2204     1.0  0.23131  0.79796  0.97919  1.0000
  H   H2205     1.0  0.35908  0.87815  0.12784  1.0000
  C   C1254     1.0  0.21743  0.70913  0.99570  1.0000
  H   H2206     1.0  0.21454  0.72126  0.17647  1.0000
  H   H2207     1.0  0.30718  0.91840  0.09587  1.0000
  H   H2208     1.0  0.36893  0.57882  0.27938  1.0000
  C   C1255     1.0  0.34430  0.87825  0.12748  1.0000
  N   N70       1.0  0.20928  0.71560  0.39481  1.0000
  C   C1256     1.0  0.24229  0.72468  0.38359  1.0000
  H   H2209     1.0  0.31167  0.93470  0.07396  1.0000
  H   H2210     1.0  0.22311  0.77573  0.45346  1.0000
  H   H2211     1.0  0.23327  0.53188  0.25773  1.0000
  H   H2212     1.0  0.37015  0.50684  0.28307  1.0000
  C   C1257     1.0  0.25224  0.74142  0.37335  1.0000
  C   C1258     1.0  0.22888  0.67220  0.17940  1.0000
  C   C1259     1.0  0.31851  0.92145  0.08302  1.0000
  H   H2213     1.0  0.20763  0.77703  0.98820  1.0000
  H   H2214     1.0  0.22907  0.69128  0.38460  1.0000
  H   H2215     1.0  0.25747  0.95005  0.27098  1.0000
  H   H2216     1.0  0.22101  0.70416  0.02494  1.0000
  C   C1260     1.0  0.23961  0.77504  0.47383  1.0000
  H   H2217     1.0  0.36889  0.72605  0.43721  1.0000
  H   H2218     1.0  0.21840  0.75579  0.08160  1.0000
  C   C1261     1.0  0.21698  0.56999  0.26111  1.0000
  H   H2219     1.0  0.24760  0.71368  0.37490  1.0000
  H   H2220     1.0  0.24657  0.71861  0.39752  1.0000
  H   H2221     1.0  0.36533  0.93436  0.03189  1.0000
  H   H2222     1.0  0.29977  0.80463  0.03398  1.0000
  C   C1262     1.0  0.21696  0.70769  0.17151  1.0000
  H   H2223     1.0  0.38728  0.91791  0.03564  1.0000
  S   S295      1.0  0.36651  0.81264  0.13945  1.0000
  H   H2224     1.0  0.19746  0.82323  0.02199  1.0000
  H   H2225     1.0  0.30740  0.89181  0.05994  1.0000
  C   C1263     1.0  0.19476  0.77286  0.98726  1.0000
  H   H2226     1.0  0.29982  0.57593  0.34565  1.0000
  H   H2227     1.0  0.26783  0.73632  0.37216  1.0000
  H   H2228     1.0  0.24934  0.74728  0.35879  1.0000
  H   H2229     1.0  0.24740  0.75306  0.38143  1.0000
  C   C1264     1.0  0.21785  0.69252  0.35103  1.0000
  H   H2230     1.0  0.20694  0.58325  0.26466  1.0000
  C   C1265     1.0  0.19884  0.56644  0.23813  1.0000
  H   H2231     1.0  0.22934  0.55980  0.23427  1.0000
  C   C1266     1.0  0.30411  0.90228  0.06918  1.0000
  C   C1267     1.0  0.37028  0.68131  0.24770  1.0000
  N   N71       1.0  0.27560  0.87442  0.16949  1.0000
  C   C1268     1.0  0.28900  0.86401  0.15466  1.0000
  C   C1269     1.0  0.28122  0.86645  0.18866  1.0000
  C   C1270     1.0  0.25611  0.87073  0.17140  1.0000
  C   C1271     1.0  0.27441  0.89581  0.16359  1.0000
  C   C1272     1.0  0.29326  0.90254  0.15954  1.0000
  C   C1273     1.0  0.28558  0.87171  0.13406  1.0000
  C   C1274     1.0  0.24000  0.87961  0.18647  1.0000
  C   C1275     1.0  0.30279  0.85970  0.18874  1.0000
  C   C1276     1.0  0.30639  0.85504  0.20889  1.0000
  C   C1277     1.0  0.29185  0.92294  0.14750  1.0000
  C   C1278     1.0  0.30036  0.86051  0.12050  1.0000
  C   C1279     1.0  0.22167  0.87289  0.18874  1.0000
  H   H2232     1.0  0.28846  0.84844  0.15890  1.0000
  H   H2233     1.0  0.30401  0.86425  0.15368  1.0000
  H   H2234     1.0  0.27520  0.87720  0.19783  1.0000
  H   H2235     1.0  0.27500  0.85360  0.19645  1.0000
  H   H2236     1.0  0.25668  0.85494  0.17465  1.0000
  H   H2237     1.0  0.25116  0.87657  0.15777  1.0000
  H   H2238     1.0  0.26768  0.90195  0.15102  1.0000
  H   H2239     1.0  0.26484  0.90312  0.17486  1.0000
  H   H2240     1.0  0.30523  0.89337  0.15180  1.0000
  H   H2241     1.0  0.29664  0.90236  0.17320  1.0000
  H   H2242     1.0  0.27160  0.86999  0.13310  1.0000
  H   H2243     1.0  0.28654  0.88705  0.12872  1.0000
  H   H2244     1.0  0.23682  0.89553  0.18188  1.0000
  H   H2245     1.0  0.24383  0.87562  0.20063  1.0000
  H   H2246     1.0  0.30863  0.84637  0.18310  1.0000
  H   H2247     1.0  0.31099  0.87069  0.17998  1.0000
  H   H2248     1.0  0.32186  0.84984  0.20853  1.0000
  H   H2249     1.0  0.30156  0.86812  0.21490  1.0000
  H   H2250     1.0  0.29891  0.84362  0.21827  1.0000
  H   H2251     1.0  0.28049  0.93312  0.15475  1.0000
  H   H2252     1.0  0.30532  0.92760  0.14519  1.0000
  H   H2253     1.0  0.28905  0.92354  0.13343  1.0000
  H   H2254     1.0  0.29727  0.86569  0.10599  1.0000
  H   H2255     1.0  0.31479  0.86236  0.11981  1.0000
  H   H2256     1.0  0.29993  0.84501  0.12530  1.0000
  H   H2257     1.0  0.21714  0.87682  0.17488  1.0000
  H   H2258     1.0  0.22372  0.85706  0.19405  1.0000
  H   H2259     1.0  0.21020  0.87993  0.19910  1.0000
  C   C1280     1.0  0.25135  0.85422  0.99717  1.0000
  H   H2260     1.0  0.37331  0.76234  0.35744  1.0000
  C   C1281     1.0  0.28019  0.78795  0.01839  1.0000
  S   S296      1.0  0.36516  0.71082  0.30345  1.0000
  C   C1282     1.0  0.22239  0.78135  0.06004  1.0000
  C   C1283     1.0  0.26224  0.84566  0.98192  1.0000
  C   C1284     1.0  0.33094  0.68697  0.24677  1.0000
  N   N72       1.0  0.27613  0.77523  0.00782  1.0000
  C   C1285     1.0  0.29428  0.76396  0.99795  1.0000
  C   C1286     1.0  0.26499  0.76120  0.02204  1.0000
  C   C1287     1.0  0.26514  0.78768  0.99299  1.0000
  C   C1288     1.0  0.29536  0.79145  0.04360  1.0000
  H   H2261     1.0  0.38106  0.94038  0.04322  1.0000
  C   C1289     1.0  0.24559  0.79980  0.00051  1.0000
  C   C1290     1.0  0.25571  0.74979  0.01363  1.0000
  C   C1291     1.0  0.24757  0.73397  0.02908  1.0000
  H   H2262     1.0  0.20778  0.98334  0.25887  1.0000
  H   H2263     1.0  0.31999  0.89720  0.11807  1.0000
  H   H2264     1.0  0.22885  0.71517  0.35446  1.0000
  H   H2265     1.0  0.27426  0.75040  0.03112  1.0000
  H   H2266     1.0  0.25357  0.76859  0.03219  1.0000
  H   H2267     1.0  0.26315  0.77886  0.98400  1.0000
  H   H2268     1.0  0.37912  0.77217  0.44968  1.0000
  H   H2269     1.0  0.29566  0.89629  0.08315  1.0000
  H   H2270     1.0  0.22145  0.67949  0.21539  1.0000
  C   C1292     1.0  0.36286  0.51585  0.27146  1.0000
  C   C1293     1.0  0.19074  0.96176  0.26962  1.0000
  C   C1294     1.0  0.38182  0.75713  0.45800  1.0000
  H   H2271     1.0  0.28908  0.76528  0.04252  1.0000
  H   H2272     1.0  0.21007  0.55815  0.27029  1.0000
  H   H2273     1.0  0.23676  0.79095  0.01192  1.0000
  H   H2274     1.0  0.24387  0.75947  0.00716  1.0000
  H   H2275     1.0  0.26613  0.74280  0.00264  1.0000
  C   C1295     1.0  0.37008  0.79779  0.23172  1.0000
  H   H2276     1.0  0.37539  0.73537  0.38440  1.0000
  H   H2277     1.0  0.23679  0.74015  0.04048  1.0000
  H   H2278     1.0  0.31702  0.93463  0.11314  1.0000
  C   C1296     1.0  0.20923  0.63387  0.23750  1.0000
  H   H2279     1.0  0.21590  0.73632  0.00285  1.0000
  H   H2280     1.0  0.26683  0.51312  0.25790  1.0000
  Fe  Fe153     1.0  0.26668  0.95509  0.18834  1.0000
  Fe  Fe154     1.0  0.37484  0.86975  0.16070  1.0000
  H   H2281     1.0  0.29108  0.75551  0.98934  1.0000
  S   S297      1.0  0.36417  0.82300  0.22442  1.0000
  H   H2282     1.0  0.20269  0.70567  0.17164  1.0000
  H   H2283     1.0  0.20153  0.67983  0.41879  1.0000
  C   C1297     1.0  0.36524  0.91866  0.06124  1.0000
  H   H2284     1.0  0.33297  0.67133  0.25367  1.0000
  H   H2285     1.0  0.31919  0.67987  0.28300  1.0000
  H   H2286     1.0  0.29958  0.69188  0.25491  1.0000
  H   H2287     1.0  0.20174  0.73122  0.14118  1.0000
  H   H2288     1.0  0.22958  0.68032  0.35474  1.0000
  H   H2289     1.0  0.30602  0.70341  0.27575  1.0000
  H   H2290     1.0  0.38587  0.76426  0.32262  1.0000
  C   C1298     1.0  0.19449  0.68600  0.20778  1.0000
  H   H2291     1.0  0.37899  0.55379  0.30713  1.0000
  H   H2292     1.0  0.30563  0.95965  0.08647  1.0000
  H   H2293     1.0  0.19397  0.82416  0.44538  1.0000
  H   H2294     1.0  0.33960  0.94099  0.10674  1.0000
  H   H2295     1.0  0.20968  0.70324  0.98849  1.0000
  C   C1299     1.0  0.21620  0.70863  0.36099  1.0000
  H   H2296     1.0  0.20632  0.87169  0.06096  1.0000
  H   H2297     1.0  0.23825  0.81814  0.45381  1.0000
  H   H2298     1.0  0.21937  0.74263  0.14367  1.0000
  H   H2299     1.0  0.33792  0.52727  0.29015  1.0000
  H   H2300     1.0  0.30849  0.77280  0.02420  1.0000
  H   H2301     1.0  0.27386  0.96649  0.22901  1.0000
  H   H2302     1.0  0.23357  0.54438  0.30434  1.0000
  C   C1300     1.0  0.35457  0.68955  0.26351  1.0000
  C   C1301     1.0  0.37938  0.76602  0.22454  1.0000
  H   H2303     1.0  0.29554  0.91590  0.06238  1.0000
  H   H2304     1.0  0.36796  0.66727  0.24700  1.0000
  C   C1302     1.0  0.34536  0.72509  0.23110  1.0000
  C   C1303     1.0  0.31003  0.56429  0.33923  1.0000
  S   S298      1.0  0.27324  0.97645  0.16083  1.0000
  H   H2305     1.0  0.21884  0.68332  0.01820  1.0000
  H   H2306     1.0  0.32995  0.89149  0.07923  1.0000
  C   C1304     1.0  0.21443  0.69059  0.20462  1.0000
  H   H2307     1.0  0.22412  0.58742  0.28533  1.0000
  H   H2308     1.0  0.35908  0.56482  0.32313  1.0000
  C   C1305     1.0  0.21505  0.70075  0.38272  1.0000
  C   C1306     1.0  0.20882  0.82801  0.40797  1.0000
  H   H2309     1.0  0.23647  0.86060  0.99758  1.0000
  C   C1307     1.0  0.25098  0.75529  0.47063  1.0000
  H   H2310     1.0  0.24141  0.74618  0.47025  1.0000
  H   H2311     1.0  0.19813  0.70179  0.02293  1.0000
  H   H2312     1.0  0.21194  0.55512  0.33236  1.0000
  C   C1308     1.0  0.30860  0.77595  0.98410  1.0000
  C   C1309     1.0  0.29398  0.77780  0.03215  1.0000
  H   H2313     1.0  0.35843  0.90999  0.10267  1.0000
  C   C1310     1.0  0.33413  0.89833  0.11920  1.0000
  C   C1311     1.0  0.37546  0.63949  0.29278  1.0000
  H   H2314     1.0  0.33109  0.90984  0.05736  1.0000
  H   H2315     1.0  0.22097  0.81839  0.99005  1.0000
  C   C1312     1.0  0.20070  0.97420  0.25523  1.0000
  Fe  Fe155     1.0  0.26854  0.68864  0.46695  1.0000
  H   H2316     1.0  0.21292  0.92548  0.31554  1.0000
  H   H2317     1.0  0.37009  0.55024  0.27140  1.0000
  H   H2318     1.0  0.38487  0.74728  0.44817  1.0000
  C   C1313     1.0  0.38823  0.76396  0.35124  1.0000
  C   C1314     1.0  0.38037  0.58156  0.30999  1.0000
  H   H2319     1.0  0.25251  0.72496  0.98230  1.0000
  C   C1315     1.0  0.36857  0.73434  0.42242  1.0000
  Fe  Fe156     1.0  0.38572  0.68337  0.31138  1.0000
  H   H2320     1.0  0.38249  0.75705  0.21434  1.0000
  Fe  Fe157     1.0  0.38963  0.71976  0.28084  1.0000
  S   S299      1.0  0.38701  0.73242  0.25035  1.0000
  H   H2321     1.0  0.37935  0.78749  0.32855  1.0000
  H   H2322     1.0  0.19136  0.71162  0.10711  1.0000
  C   C1316     1.0  0.36447  0.75367  0.47383  1.0000
  C   C1317     1.0  0.39004  0.67789  0.25184  1.0000
  H   H2323     1.0  0.38289  0.75449  0.38818  1.0000
  H   H2324     1.0  0.20880  0.98471  0.22502  1.0000
  C   C1318     1.0  0.38727  0.73891  0.38833  1.0000
  H   H2325     1.0  0.19818  0.84450  0.05455  1.0000
  H   H2326     1.0  0.20068  0.83969  0.07888  1.0000
  H   H2327     1.0  0.19494  0.81093  0.08863  1.0000
  C   C1319     1.0  0.19170  0.74075  0.45649  1.0000
  H   H2328     1.0  0.19352  0.81567  0.05651  1.0000
  S   S300      1.0  0.24389  0.97644  0.20237  1.0000
  H   H2329     1.0  0.19051  0.70381  0.14167  1.0000
  H   H2330     1.0  0.38910  0.63450  0.38854  1.0000
  H   H2331     1.0  0.38814  0.57535  0.32180  1.0000
  S   S301      1.0  0.19144  0.61836  0.20174  1.0000
  H   H2332     1.0  0.19330  0.54087  0.17058  1.0000
  C   C1320     1.0  0.38954  0.77345  0.33012  1.0000
  H   H2333     1.0  0.38977  0.71248  0.41087  1.0000
  H   H2334     1.0  0.37306  0.72285  0.47547  1.0000
  H   H2335     1.0  0.19875  0.62134  0.78248  1.0000
  H   H2336     1.0  0.20979  0.64006  0.83772  1.0000
  H   H2337     1.0  0.28827  0.70414  0.70943  1.0000
  H   H2338     1.0  0.20887  0.59585  0.70208  1.0000
  Fe  Fe158     1.0  0.30795  0.60205  0.74155  1.0000
  S   S302      1.0  0.29871  0.62732  0.71930  1.0000
  H   H2339     1.0  0.22672  0.50959  0.69563  1.0000
  Fe  Fe159     1.0  0.27924  0.58028  0.73903  1.0000
  S   S303      1.0  0.26719  0.60453  0.71714  1.0000
  S   S304      1.0  0.26642  0.55381  0.74791  1.0000
  Fe  Fe160     1.0  0.29762  0.60554  0.70405  1.0000
  S   S305      1.0  0.30895  0.60711  0.67293  1.0000
  Fe  Fe161     1.0  0.26938  0.62377  0.73483  1.0000
  S   S306      1.0  0.24984  0.65178  0.73899  1.0000
  S   S307      1.0  0.30975  0.58024  0.72483  1.0000
  S   S308      1.0  0.27849  0.59952  0.75823  1.0000
  Fe  Fe162     1.0  0.32429  0.70375  0.59576  1.0000
  S   S309      1.0  0.29414  0.71876  0.60458  1.0000
  S   S310      1.0  0.34819  0.70290  0.60950  1.0000
  Fe  Fe163     1.0  0.31502  0.69043  0.56433  1.0000
  S   S311      1.0  0.28425  0.70413  0.57117  1.0000
  S   S312      1.0  0.32624  0.67701  0.53875  1.0000
  Fe  Fe164     1.0  0.29467  0.72893  0.57340  1.0000
  S   S313      1.0  0.28363  0.75876  0.55818  1.0000
  Fe  Fe165     1.0  0.28691  0.69232  0.60152  1.0000
  S   S314      1.0  0.26433  0.67974  0.62421  1.0000
  S   S315      1.0  0.32541  0.71618  0.56460  1.0000
  S   S316      1.0  0.31717  0.67649  0.59463  1.0000
  H   H2340     1.0  0.37160  0.76553  0.73430  1.0000
  H   H2341     1.0  0.21826  0.86839  0.84017  1.0000
  H   H2342     1.0  0.22352  0.65356  0.69003  1.0000
  H   H2343     1.0  0.32571  0.67927  0.49976  1.0000
  H   H2344     1.0  0.23456  0.95908  0.89138  1.0000
  S   S317      1.0  0.37077  0.81931  0.80876  1.0000
  H   H2345     1.0  0.19290  0.92509  0.73234  1.0000
  S   S318      1.0  0.26293  0.93139  0.79795  1.0000
  C   C1321     1.0  0.22201  0.52061  0.72122  1.0000
  C   C1322     1.0  0.36076  0.65094  0.74814  1.0000
  Fe  Fe166     1.0  0.25664  0.95038  0.81882  1.0000
  S   S319      1.0  0.25233  0.94090  0.85083  1.0000
  H   H2346     1.0  0.26854  0.90740  0.74987  1.0000
  C   C1323     1.0  0.22005  0.50131  0.73569  1.0000
  C   C1324     1.0  0.22084  0.51511  0.79706  1.0000
  Fe  Fe167     1.0  0.28517  0.82078  0.93959  1.0000
  S   S320      1.0  0.26041  0.83669  0.92576  1.0000
  H   H2347     1.0  0.25580  0.84561  0.97054  1.0000
  Fe  Fe168     1.0  0.29892  0.79182  0.91399  1.0000
  S   S321      1.0  0.27531  0.80468  0.89835  1.0000
  S   S322      1.0  0.32126  0.76607  0.90741  1.0000
  Fe  Fe169     1.0  0.28105  0.83286  0.89843  1.0000
  S   S323      1.0  0.28477  0.85175  0.86938  1.0000
  Fe  Fe170     1.0  0.25649  0.80713  0.92677  1.0000
  S   S324      1.0  0.22713  0.80042  0.93584  1.0000
  S   S325      1.0  0.30626  0.81977  0.91190  1.0000
  S   S326      1.0  0.27966  0.79147  0.94277  1.0000
  C   C1325     1.0  0.33946  0.71790  0.49232  1.0000
  C   C1326     1.0  0.20882  0.56923  0.77856  1.0000
  H   H2348     1.0  0.24591  0.72419  0.56884  1.0000
  H   H2349     1.0  0.32176  0.85019  0.73810  1.0000
  C   C1327     1.0  0.19529  0.59558  0.71282  1.0000
  H   H2350     1.0  0.23210  0.63282  0.86243  1.0000
  H   H2351     1.0  0.20270  0.86519  0.64484  1.0000
  H   H2352     1.0  0.21097  0.94664  0.48296  1.0000
  H   H2353     1.0  0.32814  0.71212  0.50388  1.0000
  H   H2354     1.0  0.21669  0.75613  0.55643  1.0000
  C   C1328     1.0  0.21896  0.93801  0.75626  1.0000
  H   H2355     1.0  0.30282  0.94524  0.84936  1.0000
  H   H2356     1.0  0.37532  0.75798  0.78871  1.0000
  C   C1329     1.0  0.32579  0.66934  0.67484  1.0000
  H   H2357     1.0  0.23552  0.83118  0.60199  1.0000
  H   H2358     1.0  0.31207  0.87448  0.92872  1.0000
  H   H2359     1.0  0.36816  0.62548  0.69220  1.0000
  H   H2360     1.0  0.25171  0.72392  0.95856  1.0000
  H   H2361     1.0  0.33047  0.82794  0.82782  1.0000
  C   C1330     1.0  0.21902  0.79359  0.91894  1.0000
  H   H2362     1.0  0.22744  0.52755  0.78899  1.0000
  C   C1331     1.0  0.23607  0.83365  0.48301  1.0000
  H   H2363     1.0  0.26951  0.87810  0.93082  1.0000
  C   C1332     1.0  0.22497  0.78186  0.88999  1.0000
  C   C1333     1.0  0.23173  0.78682  0.90353  1.0000
  H   H2364     1.0  0.34670  0.55231  0.65412  1.0000
  C   C1334     1.0  0.19870  0.79939  0.47720  1.0000
  H   H2365     1.0  0.23486  0.77696  0.87792  1.0000
  H   H2366     1.0  0.24678  0.78517  0.90211  1.0000
  H   H2367     1.0  0.30654  0.82880  0.80914  1.0000
  H   H2368     1.0  0.24537  0.87754  0.84533  1.0000
  C   C1335     1.0  0.33138  0.86787  0.76076  1.0000
  H   H2369     1.0  0.23428  0.60074  0.83009  1.0000
  C   C1336     1.0  0.35706  0.64210  0.61783  1.0000
  C   C1337     1.0  0.26080  0.91602  0.85676  1.0000
  C   C1338     1.0  0.27345  0.90693  0.84291  1.0000
  C   C1339     1.0  0.28036  0.88715  0.84702  1.0000
  C   C1340     1.0  0.27491  0.87628  0.86522  1.0000
  C   C1341     1.0  0.26217  0.88517  0.87933  1.0000
  C   C1342     1.0  0.25517  0.90518  0.87511  1.0000
  H   H2370     1.0  0.27838  0.91524  0.82911  1.0000
  H   H2371     1.0  0.29027  0.88033  0.83610  1.0000
  H   H2372     1.0  0.25790  0.87673  0.89344  1.0000
  H   H2373     1.0  0.24537  0.91220  0.88592  1.0000
  C   C1343     1.0  0.37508  0.77672  0.86281  1.0000
  C   C1344     1.0  0.35857  0.79121  0.86301  1.0000
  C   C1345     1.0  0.34194  0.78834  0.87688  1.0000
  C   C1346     1.0  0.34178  0.77082  0.89025  1.0000
  C   C1347     1.0  0.35825  0.75639  0.88981  1.0000
  C   C1348     1.0  0.37485  0.75942  0.87634  1.0000
  H   H2374     1.0  0.35857  0.80450  0.85243  1.0000
  H   H2375     1.0  0.32921  0.79951  0.87701  1.0000
  H   H2376     1.0  0.35825  0.74288  0.90012  1.0000
  H   H2377     1.0  0.23470  0.49359  0.73715  1.0000
  C   C1349     1.0  0.34226  0.88956  0.80454  1.0000
  C   C1350     1.0  0.32470  0.90057  0.81147  1.0000
  C   C1351     1.0  0.31553  0.91603  0.79921  1.0000
  C   C1352     1.0  0.32378  0.92055  0.77990  1.0000
  C   C1353     1.0  0.34166  0.90991  0.77296  1.0000
  C   C1354     1.0  0.35087  0.89431  0.78527  1.0000
  H   H2378     1.0  0.31806  0.89691  0.82634  1.0000
  H   H2379     1.0  0.30205  0.92454  0.80465  1.0000
  H   H2380     1.0  0.24818  0.50844  0.70308  1.0000
  H   H2381     1.0  0.36452  0.88597  0.77985  1.0000
  C   C1355     1.0  0.25930  0.76644  0.56640  1.0000
  C   C1356     1.0  0.24946  0.75583  0.58280  1.0000
  C   C1357     1.0  0.23025  0.76305  0.58997  1.0000
  C   C1358     1.0  0.22088  0.78071  0.58060  1.0000
  C   C1359     1.0  0.23048  0.79060  0.56358  1.0000
  C   C1360     1.0  0.24972  0.78363  0.55661  1.0000
  H   H2382     1.0  0.25675  0.74234  0.59023  1.0000
  H   H2383     1.0  0.21480  0.64873  0.80241  1.0000
  H   H2384     1.0  0.22311  0.80361  0.55570  1.0000
  H   H2385     1.0  0.25721  0.79167  0.54373  1.0000
  C   C1361     1.0  0.27514  0.67624  0.52984  1.0000
  C   C1362     1.0  0.28988  0.67514  0.53879  1.0000
  C   C1363     1.0  0.30805  0.67666  0.52795  1.0000
  H   H2386     1.0  0.26109  0.67517  0.53827  1.0000
  H   H2387     1.0  0.28721  0.67288  0.55410  1.0000
  C   C1364     1.0  0.22623  0.65039  0.74969  1.0000
  C   C1365     1.0  0.22155  0.63421  0.76336  1.0000
  C   C1366     1.0  0.20100  0.95561  0.58332  1.0000
  H   H2388     1.0  0.33402  0.78081  0.51248  1.0000
  H   H2389     1.0  0.19803  0.56032  0.78161  1.0000
  C   C1367     1.0  0.21187  0.66590  0.74435  1.0000
  H   H2390     1.0  0.23268  0.62222  0.76753  1.0000
  H   H2391     1.0  0.29154  0.60649  0.61502  1.0000
  H   H2392     1.0  0.33674  0.77190  0.96611  1.0000
  H   H2393     1.0  0.21547  0.67842  0.73379  1.0000
  C   C1368     1.0  0.29550  0.62646  0.65952  1.0000
  C   C1369     1.0  0.27911  0.63772  0.66838  1.0000
  C   C1370     1.0  0.26899  0.65373  0.65743  1.0000
  C   C1371     1.0  0.27531  0.65843  0.63768  1.0000
  C   C1372     1.0  0.29112  0.64658  0.62881  1.0000
  C   C1373     1.0  0.30135  0.63076  0.63972  1.0000
  H   H2394     1.0  0.27461  0.63459  0.68369  1.0000
  H   H2395     1.0  0.25674  0.66288  0.66432  1.0000
  H   H2396     1.0  0.29538  0.64955  0.61350  1.0000
  H   H2397     1.0  0.31393  0.62203  0.63279  1.0000
  H   H2398     1.0  0.31390  0.69847  0.70563  1.0000
  C   C1374     1.0  0.21324  0.83308  0.86214  1.0000
  C   C1375     1.0  0.23465  0.58492  0.86761  1.0000
  C   C1376     1.0  0.27571  0.53730  0.73279  1.0000
  C   C1377     1.0  0.26833  0.52070  0.73676  1.0000
  C   C1378     1.0  0.27457  0.50806  0.72418  1.0000
  C   C1379     1.0  0.28821  0.51198  0.70750  1.0000
  C   C1380     1.0  0.29611  0.52816  0.70396  1.0000
  C   C1381     1.0  0.28979  0.54088  0.71642  1.0000
  H   H2399     1.0  0.25776  0.51766  0.74957  1.0000
  H   H2400     1.0  0.35724  0.62437  0.64567  1.0000
  H   H2401     1.0  0.30702  0.53098  0.69137  1.0000
  H   H2402     1.0  0.29563  0.55358  0.71317  1.0000
  H   H2403     1.0  0.33485  0.78439  0.78365  1.0000
  H   H2404     1.0  0.35658  0.80547  0.78223  1.0000
  C   C1382     1.0  0.34604  0.65403  0.73851  1.0000
  C   C1383     1.0  0.33668  0.63898  0.74059  1.0000
  H   H2405     1.0  0.26167  0.58770  0.84743  1.0000
  H   H2406     1.0  0.34220  0.66782  0.72923  1.0000
  H   H2407     1.0  0.32553  0.64122  0.73301  1.0000
  C   C1384     1.0  0.35595  0.71367  0.63862  1.0000
  C   C1385     1.0  0.34178  0.71186  0.63044  1.0000
  C   C1386     1.0  0.32272  0.71685  0.63927  1.0000
  C   C1387     1.0  0.31782  0.72408  0.65586  1.0000
  C   C1388     1.0  0.35973  0.79689  0.77171  1.0000
  H   H2408     1.0  0.31178  0.71472  0.63363  1.0000
  N   N73       1.0  0.20761  0.50271  0.75506  1.0000
  H   H2409     1.0  0.22399  0.68332  0.80295  1.0000
  H   H2410     1.0  0.32293  0.70133  0.77747  1.0000
  C   C1389     1.0  0.29251  0.88642  0.75937  1.0000
  H   H2411     1.0  0.32898  0.64884  0.64865  1.0000
  H   H2412     1.0  0.29764  0.71318  0.75821  1.0000
  H   H2413     1.0  0.27668  0.51205  0.65502  1.0000
  C   C1390     1.0  0.22651  0.63969  0.70035  1.0000
  S   S327      1.0  0.35774  0.75399  0.70716  1.0000
  H   H2414     1.0  0.22282  0.97106  0.91074  1.0000
  H   H2415     1.0  0.24287  0.81813  0.97253  1.0000
  H   H2416     1.0  0.32124  0.74485  0.47981  1.0000
  H   H2417     1.0  0.23542  0.53116  0.69189  1.0000
  C   C1391     1.0  0.31622  0.83754  0.82937  1.0000
  C   C1392     1.0  0.27144  0.89602  0.76260  1.0000
  C   C1393     1.0  0.36142  0.72556  0.79573  1.0000
  H   H2418     1.0  0.32762  0.87345  0.74658  1.0000
  H   H2419     1.0  0.38464  0.71370  0.81002  1.0000
  C   C1394     1.0  0.35204  0.85601  0.75745  1.0000
  H   H2420     1.0  0.32752  0.85354  0.90119  1.0000
  C   C1395     1.0  0.35583  0.60111  0.69691  1.0000
  C   C1396     1.0  0.20401  0.93209  0.75290  1.0000
  H   H2421     1.0  0.20329  0.65345  0.87607  1.0000
  H   H2422     1.0  0.23668  0.64337  0.81066  1.0000
  H   H2423     1.0  0.21944  0.73922  0.90935  1.0000
  H   H2424     1.0  0.20105  0.97003  0.48881  1.0000
  C   C1397     1.0  0.19317  0.91370  0.62444  1.0000
  H   H2425     1.0  0.19549  0.52431  0.78582  1.0000
  C   C1398     1.0  0.20468  0.59202  0.85704  1.0000
  C   C1399     1.0  0.24700  0.82806  0.86198  1.0000
  H   H2426     1.0  0.23101  0.62605  0.80100  1.0000
  H   H2427     1.0  0.23285  0.83175  0.89967  1.0000
  H   H2428     1.0  0.21266  0.68350  0.78433  1.0000
  C   C1400     1.0  0.24799  0.86747  0.83581  1.0000
  C   C1401     1.0  0.25559  0.81721  0.84552  1.0000
  C   C1402     1.0  0.27107  0.59601  0.64055  1.0000
  H   H2429     1.0  0.29455  0.85230  0.81349  1.0000
  C   C1403     1.0  0.27308  0.80176  0.84967  1.0000
  H   H2430     1.0  0.24439  0.81694  0.87524  1.0000
  H   H2431     1.0  0.25823  0.83434  0.86378  1.0000
  H   H2432     1.0  0.20683  0.72310  0.92814  1.0000
  H   H2433     1.0  0.22948  0.84836  0.47613  1.0000
  H   H2434     1.0  0.35746  0.85729  0.88086  1.0000
  H   H2435     1.0  0.26171  0.85731  0.83709  1.0000
  H   H2436     1.0  0.34807  0.59500  0.68990  1.0000
  H   H2437     1.0  0.24519  0.80995  0.84358  1.0000
  H   H2438     1.0  0.26012  0.82718  0.83193  1.0000
  H   H2439     1.0  0.33241  0.75463  0.49870  1.0000
  C   C1404     1.0  0.22505  0.63715  0.80968  1.0000
  H   H2440     1.0  0.34538  0.91237  0.87323  1.0000
  H   H2441     1.0  0.22061  0.52442  0.75801  1.0000
  H   H2442     1.0  0.29183  0.53536  0.66033  1.0000
  H   H2443     1.0  0.26912  0.79076  0.86267  1.0000
  H   H2444     1.0  0.27929  0.79450  0.83752  1.0000
  H   H2445     1.0  0.28402  0.80825  0.85176  1.0000
  H   H2446     1.0  0.23286  0.61645  0.88532  1.0000
  H   H2447     1.0  0.21279  0.61837  0.73697  1.0000
  H   H2448     1.0  0.32993  0.81495  0.74351  1.0000
  H   H2449     1.0  0.25617  0.57210  0.70814  1.0000
  H   H2450     1.0  0.34839  0.70546  0.48628  1.0000
  C   C1405     1.0  0.31569  0.83968  0.76946  1.0000
  H   H2451     1.0  0.30657  0.83001  0.84135  1.0000
  C   C1406     1.0  0.21795  0.50990  0.76571  1.0000
  H   H2452     1.0  0.20247  0.77144  0.95767  1.0000
  H   H2453     1.0  0.30472  0.67128  0.65821  1.0000
  H   H2454     1.0  0.21017  0.82347  0.49166  1.0000
  S   S328      1.0  0.25948  0.68221  0.49890  1.0000
  C   C1407     1.0  0.22467  0.81914  0.48324  1.0000
  H   H2455     1.0  0.22301  0.56103  0.77282  1.0000
  H   H2456     1.0  0.34694  0.73465  0.79741  1.0000
  C   C1408     1.0  0.35147  0.75282  0.82217  1.0000
  H   H2457     1.0  0.22981  0.92102  0.53929  1.0000
  C   C1409     1.0  0.20550  0.78304  0.89211  1.0000
  C   C1410     1.0  0.21973  0.93350  0.71973  1.0000
  C   C1411     1.0  0.34865  0.76966  0.83212  1.0000
  H   H2458     1.0  0.25870  0.74790  0.48233  1.0000
  H   H2459     1.0  0.38985  0.70539  0.84155  1.0000
  C   C1412     1.0  0.28975  0.67947  0.68436  1.0000
  H   H2460     1.0  0.30032  0.71660  0.71872  1.0000
  C   C1413     1.0  0.32871  0.78222  0.83272  1.0000
  H   H2461     1.0  0.36290  0.83323  0.86178  1.0000
  H   H2462     1.0  0.35564  0.65545  0.69897  1.0000
  N   N74       1.0  0.35104  0.72637  0.50054  1.0000
  H   H2463     1.0  0.20421  0.60690  0.88668  1.0000
  H   H2464     1.0  0.34183  0.74323  0.83160  1.0000
  H   H2465     1.0  0.34577  0.75910  0.80897  1.0000
  H   H2466     1.0  0.19186  0.57448  0.74973  1.0000
  H   H2467     1.0  0.32674  0.90104  0.90454  1.0000
  S   S329      1.0  0.21674  0.94283  0.77867  1.0000
  H   H2468     1.0  0.36218  0.71453  0.82568  1.0000
  H   H2469     1.0  0.21398  0.92798  0.57673  1.0000
  S   S330      1.0  0.29531  0.49760  0.69034  1.0000
  H   H2470     1.0  0.35899  0.77905  0.82490  1.0000
  H   H2471     1.0  0.35032  0.76391  0.84708  1.0000
  H   H2472     1.0  0.23258  0.84942  0.82940  1.0000
  H   H2473     1.0  0.22277  0.75516  0.60298  1.0000
  C   C1414     1.0  0.36516  0.86745  0.74177  1.0000
  C   C1415     1.0  0.31483  0.82258  0.74455  1.0000
  C   C1416     1.0  0.33696  0.56421  0.64650  1.0000
  S   S331      1.0  0.29607  0.82719  0.96228  1.0000
  H   H2474     1.0  0.36936  0.59080  0.69885  1.0000
  S   S332      1.0  0.19105  0.85714  0.51070  1.0000
  H   H2475     1.0  0.22072  0.70455  0.78407  1.0000
  H   H2476     1.0  0.32662  0.78958  0.81810  1.0000
  H   H2477     1.0  0.31778  0.77342  0.83987  1.0000
  H   H2478     1.0  0.32682  0.79331  0.84094  1.0000
  S   S333      1.0  0.33737  0.75743  0.76085  1.0000
  H   H2479     1.0  0.35824  0.88870  0.87116  1.0000
  H   H2480     1.0  0.23709  0.89062  0.81363  1.0000
  H   H2481     1.0  0.23746  0.62941  0.69268  1.0000
  H   H2482     1.0  0.30904  0.72481  0.77994  1.0000
  H   H2483     1.0  0.33198  0.62811  0.67817  1.0000
  H   H2484     1.0  0.24544  0.68942  0.58030  1.0000
  C   C1417     1.0  0.27847  0.67908  0.51000  1.0000
  C   C1418     1.0  0.33194  0.72619  0.66386  1.0000
  H   H2485     1.0  0.30486  0.70415  0.79876  1.0000
  H   H2486     1.0  0.38188  0.66829  0.70093  1.0000
  H   H2487     1.0  0.20861  0.70930  0.50460  1.0000
  H   H2488     1.0  0.36203  0.72244  0.66142  1.0000
  C   C1419     1.0  0.37577  0.79801  0.75694  1.0000
  C   C1420     1.0  0.21166  0.64237  0.88577  1.0000
  H   H2489     1.0  0.19191  0.80021  0.52650  1.0000
  H   H2490     1.0  0.26798  0.55791  0.87243  1.0000
  H   H2491     1.0  0.20333  0.62963  0.69719  1.0000
  H   H2492     1.0  0.24869  0.88987  0.52961  1.0000
  C   C1421     1.0  0.31159  0.67855  0.50819  1.0000
  H   H2493     1.0  0.32264  0.98282  0.82982  1.0000
  H   H2494     1.0  0.26251  0.88536  0.76497  1.0000
  H   H2495     1.0  0.32022  0.76791  0.53351  1.0000
  H   H2496     1.0  0.35871  0.90954  0.90155  1.0000
  H   H2497     1.0  0.22640  0.86364  0.90854  1.0000
  H   H2498     1.0  0.30145  0.85826  0.92266  1.0000
  C   C1422     1.0  0.23515  0.93850  0.72333  1.0000
  H   H2499     1.0  0.36766  0.71609  0.52253  1.0000
  S   S334      1.0  0.21941  0.93285  0.69633  1.0000
  H   H2500     1.0  0.28259  0.57459  0.87043  1.0000
  C   C1423     1.0  0.36138  0.66579  0.68632  1.0000
  H   H2501     1.0  0.21893  0.96044  0.51497  1.0000
  C   C1424     1.0  0.22339  0.62615  0.87585  1.0000
  H   H2502     1.0  0.24060  0.61694  0.83976  1.0000
  C   C1425     1.0  0.21619  0.74382  0.93762  1.0000
  H   H2503     1.0  0.36894  0.73445  0.84833  1.0000
  H   H2504     1.0  0.35274  0.84259  0.75307  1.0000
  H   H2505     1.0  0.21238  0.84728  0.92506  1.0000
  C   C1426     1.0  0.19329  0.78655  0.53741  1.0000
  N   N75       1.0  0.37156  0.74138  0.81766  1.0000
  H   H2506     1.0  0.23589  0.57154  0.86272  1.0000
  H   H2507     1.0  0.28713  0.55958  0.62801  1.0000
  C   C1427     1.0  0.25533  0.58809  0.86263  1.0000
  C   C1428     1.0  0.33481  0.76969  0.52585  1.0000
  C   C1429     1.0  0.36038  0.66098  0.66763  1.0000
  H   H2508     1.0  0.36924  0.61797  0.67103  1.0000
  H   H2509     1.0  0.38759  0.67656  0.67535  1.0000
  H   H2510     1.0  0.19811  0.62502  0.86723  1.0000
  C   C1430     1.0  0.36804  0.77437  0.74464  1.0000
  S   S335      1.0  0.25990  0.97140  0.76440  1.0000
  H   H2511     1.0  0.20548  0.89394  0.53656  1.0000
  H   H2512     1.0  0.26721  0.98170  0.87641  1.0000
  H   H2513     1.0  0.22866  0.75067  0.93316  1.0000
  H   H2514     1.0  0.26916  0.75015  0.94450  1.0000
  H   H2515     1.0  0.36868  0.63170  0.61094  1.0000
  H   H2516     1.0  0.19193  0.85704  0.85023  1.0000
  C   C1431     1.0  0.22492  0.85438  0.87539  1.0000
  H   H2517     1.0  0.30306  0.72780  0.66270  1.0000
  H   H2518     1.0  0.24920  0.61812  0.61332  1.0000
  H   H2519     1.0  0.35845  0.65689  0.60977  1.0000
  C   C1432     1.0  0.20178  0.72936  0.52340  1.0000
  Fe  Fe171     1.0  0.37683  0.84738  0.80934  1.0000
  H   H2520     1.0  0.33776  0.83649  0.86350  1.0000
  H   H2521     1.0  0.21976  0.90706  0.51652  1.0000
  H   H2522     1.0  0.21517  0.49231  0.72894  1.0000
  H   H2523     1.0  0.26739  0.90284  0.77504  1.0000
  H   H2524     1.0  0.34133  0.66810  0.63916  1.0000
  C   C1433     1.0  0.20210  0.58416  0.74555  1.0000
  N   N76       1.0  0.26815  0.77711  0.62006  1.0000
  C   C1434     1.0  0.28524  0.76842  0.60666  1.0000
  C   C1435     1.0  0.25679  0.76183  0.63074  1.0000
  C   C1436     1.0  0.25588  0.79269  0.60801  1.0000
  C   C1437     1.0  0.27335  0.78586  0.63366  1.0000
  C   C1438     1.0  0.29244  0.77615  0.64017  1.0000
  C   C1439     1.0  0.29659  0.78284  0.59194  1.0000
  C   C1440     1.0  0.23609  0.80177  0.61871  1.0000
  C   C1441     1.0  0.26657  0.74426  0.64414  1.0000
  C   C1442     1.0  0.25519  0.72831  0.65096  1.0000
  C   C1443     1.0  0.29419  0.78391  0.65652  1.0000
  C   C1444     1.0  0.31627  0.77254  0.58313  1.0000
  H   H2525     1.0  0.21261  0.51810  0.81110  1.0000
  H   H2526     1.0  0.28077  0.76061  0.59830  1.0000
  H   H2527     1.0  0.29531  0.75732  0.61451  1.0000
  H   H2528     1.0  0.24357  0.76790  0.64010  1.0000
  H   H2529     1.0  0.25214  0.75648  0.62046  1.0000
  H   H2530     1.0  0.25341  0.78714  0.59656  1.0000
  H   H2531     1.0  0.26331  0.80474  0.60048  1.0000
  H   H2532     1.0  0.27425  0.80118  0.62729  1.0000
  H   H2533     1.0  0.26183  0.78631  0.64665  1.0000
  H   H2534     1.0  0.30464  0.77892  0.62828  1.0000
  H   H2535     1.0  0.29404  0.76043  0.64502  1.0000
  H   H2536     1.0  0.28892  0.79028  0.58017  1.0000
  H   H2537     1.0  0.29832  0.79392  0.59849  1.0000
  H   H2538     1.0  0.23717  0.80560  0.63173  1.0000
  H   H2539     1.0  0.22634  0.79158  0.62276  1.0000
  H   H2540     1.0  0.28096  0.73790  0.63713  1.0000
  H   H2541     1.0  0.26752  0.74859  0.65696  1.0000
  H   H2542     1.0  0.25438  0.72291  0.63870  1.0000
  H   H2543     1.0  0.26230  0.71608  0.66083  1.0000
  H   H2544     1.0  0.24058  0.73363  0.65859  1.0000
  H   H2545     1.0  0.28291  0.78052  0.66926  1.0000
  H   H2546     1.0  0.30818  0.77702  0.66046  1.0000
  H   H2547     1.0  0.29319  0.79972  0.65224  1.0000
  H   H2548     1.0  0.32488  0.76554  0.59420  1.0000
  H   H2549     1.0  0.31504  0.76144  0.57626  1.0000
  H   H2550     1.0  0.32376  0.78309  0.57214  1.0000
  H   H2551     1.0  0.34176  0.56470  0.63098  1.0000
  H   H2552     1.0  0.27778  0.59164  0.61116  1.0000
  C   C1445     1.0  0.19282  0.66504  0.75215  1.0000
  H   H2553     1.0  0.36173  0.67412  0.65613  1.0000
  H   H2554     1.0  0.19923  0.85306  0.66974  1.0000
  C   C1446     1.0  0.37041  0.72308  0.81301  1.0000
  N   N77       1.0  0.28185  0.57656  0.64921  1.0000
  C   C1447     1.0  0.24971  0.56650  0.69951  1.0000
  H   H2555     1.0  0.37074  0.70978  0.63190  1.0000
  H   H2556     1.0  0.30414  0.83296  0.77955  1.0000
  H   H2557     1.0  0.32889  0.82860  0.77091  1.0000
  S   S336      1.0  0.37474  0.71016  0.69961  1.0000
  H   H2558     1.0  0.35276  0.68041  0.68738  1.0000
  C   C1448     1.0  0.27752  0.56122  0.64197  1.0000
  H   H2559     1.0  0.34948  0.69975  0.80594  1.0000
  H   H2560     1.0  0.37254  0.64167  0.63836  1.0000
  H   H2561     1.0  0.34326  0.63955  0.61709  1.0000
  C   C1449     1.0  0.23469  0.94098  0.74153  1.0000
  C   C1450     1.0  0.33806  0.74245  0.50955  1.0000
  H   H2562     1.0  0.25472  0.97549  0.86268  1.0000
  H   H2563     1.0  0.30497  0.71894  0.48230  1.0000
  S   S337      1.0  0.31141  0.93901  0.76441  1.0000
  S   S338      1.0  0.20875  0.84067  0.55924  1.0000
  C   C1451     1.0  0.34198  0.62098  0.75245  1.0000
  C   C1452     1.0  0.28223  0.64653  0.78995  1.0000
  H   H2564     1.0  0.32765  0.68391  0.66651  1.0000
  H   H2565     1.0  0.21885  0.89442  0.61431  1.0000
  H   H2566     1.0  0.23223  0.50212  0.79952  1.0000
  H   H2567     1.0  0.20932  0.57233  0.79218  1.0000
  C   C1453     1.0  0.35839  0.63942  0.63854  1.0000
  N   N78       1.0  0.34271  0.65430  0.66840  1.0000
  S   S339      1.0  0.20936  0.87576  0.58996  1.0000
  C   C1454     1.0  0.34206  0.65344  0.64856  1.0000
  H   H2568     1.0  0.34660  0.70702  0.52815  1.0000
  H   H2569     1.0  0.33401  0.63746  0.69675  1.0000
  Fe  Fe172     1.0  0.24036  0.95278  0.78440  1.0000
  C   C1455     1.0  0.20239  0.63369  0.77177  1.0000
  H   H2570     1.0  0.27959  0.89521  0.93646  1.0000
  C   C1456     1.0  0.31200  0.84213  0.74938  1.0000
  H   H2571     1.0  0.29616  0.87973  0.78795  1.0000
  N   N79       1.0  0.32021  0.88395  0.88846  1.0000
  C   C1457     1.0  0.31733  0.89621  0.86919  1.0000
  C   C1458     1.0  0.32640  0.86312  0.88703  1.0000
  C   C1459     1.0  0.30114  0.88608  0.90207  1.0000
  H   H2572     1.0  0.28839  0.52472  0.63266  1.0000
  C   C1460     1.0  0.29747  0.87112  0.77725  1.0000
  C   C1461     1.0  0.30741  0.91758  0.86895  1.0000
  C   C1462     1.0  0.30041  0.87355  0.92257  1.0000
  C   C1463     1.0  0.35957  0.70619  0.79352  1.0000
  C   C1464     1.0  0.36542  0.89992  0.89138  1.0000
  C   C1465     1.0  0.30858  0.84240  0.81115  1.0000
  C   C1466     1.0  0.31018  0.93017  0.84886  1.0000
  C   C1467     1.0  0.28159  0.87995  0.93577  1.0000
  H   H2573     1.0  0.30860  0.89009  0.86326  1.0000
  H   H2574     1.0  0.33090  0.89588  0.85855  1.0000
  C   C1468     1.0  0.35076  0.89789  0.88148  1.0000
  H   H2575     1.0  0.31545  0.85894  0.88216  1.0000
  H   H2576     1.0  0.29044  0.88274  0.89621  1.0000
  H   H2577     1.0  0.29587  0.90122  0.90371  1.0000
  C   C1469     1.0  0.26356  0.62108  0.61110  1.0000
  H   H2578     1.0  0.29587  0.88027  0.74662  1.0000
  H   H2579     1.0  0.23234  0.71973  0.92458  1.0000
  H   H2580     1.0  0.31721  0.85085  0.83298  1.0000
  H   H2581     1.0  0.29187  0.91869  0.87441  1.0000
  H   H2582     1.0  0.31280  0.92361  0.87811  1.0000
  H   H2583     1.0  0.37991  0.73108  0.49232  1.0000
  H   H2584     1.0  0.25299  0.87009  0.80511  1.0000
  C   C1470     1.0  0.19553  0.57861  0.87517  1.0000
  S   S340      1.0  0.27778  0.96849  0.80177  1.0000
  H   H2585     1.0  0.22562  0.60427  0.72003  1.0000
  H   H2586     1.0  0.28204  0.73057  0.95963  1.0000
  H   H2587     1.0  0.20321  0.56394  0.72040  1.0000
  S   S341      1.0  0.33122  0.60132  0.75590  1.0000
  C   C1471     1.0  0.22027  0.84287  0.89619  1.0000
  C   C1472     1.0  0.35106  0.72074  0.65538  1.0000
  H   H2588     1.0  0.32549  0.92981  0.84260  1.0000
  H   H2589     1.0  0.30393  0.92524  0.83956  1.0000
  H   H2590     1.0  0.22122  0.64937  0.88955  1.0000
  H   H2591     1.0  0.37037  0.73210  0.78233  1.0000
  C   C1473     1.0  0.20439  0.92986  0.73471  1.0000
  C   C1474     1.0  0.19526  0.89194  0.60420  1.0000
  H   H2592     1.0  0.30787  0.57705  0.62764  1.0000
  H   H2593     1.0  0.23015  0.58118  0.88342  1.0000
  H   H2594     1.0  0.31154  0.68735  0.74067  1.0000
  C   C1475     1.0  0.21047  0.61470  0.87236  1.0000
  H   H2595     1.0  0.22524  0.81662  0.59303  1.0000
  H   H2596     1.0  0.30228  0.67296  0.73081  1.0000
  N   N80       1.0  0.19937  0.93203  0.54278  1.0000
  H   H2597     1.0  0.28597  0.86278  0.78313  1.0000
  S   S342      1.0  0.23233  0.97008  0.80680  1.0000
  C   C1476     1.0  0.20384  0.89941  0.61442  1.0000
  H   H2598     1.0  0.19090  0.53148  0.74794  1.0000
  N   N81       1.0  0.22697  0.73586  0.53794  1.0000
  C   C1477     1.0  0.27642  0.52631  0.64504  1.0000
  C   C1478     1.0  0.22675  0.71829  0.55400  1.0000
  C   C1479     1.0  0.24623  0.74118  0.53172  1.0000
  C   C1480     1.0  0.22250  0.73129  0.52124  1.0000
  C   C1481     1.0  0.21603  0.94906  0.50967  1.0000
  H   H2599     1.0  0.24632  0.94547  0.74405  1.0000
  C   C1482     1.0  0.26326  0.72480  0.52671  1.0000
  C   C1483     1.0  0.23218  0.71971  0.57217  1.0000
  C   C1484     1.0  0.23383  0.70039  0.58640  1.0000
  H   H2600     1.0  0.21613  0.57558  0.73973  1.0000
  C   C1485     1.0  0.35854  0.71081  0.51627  1.0000
  C   C1486     1.0  0.28193  0.73182  0.51982  1.0000
  H   H2601     1.0  0.20333  0.79571  0.49087  1.0000
  H   H2602     1.0  0.23217  0.64225  0.71160  1.0000
  H   H2603     1.0  0.21234  0.71494  0.55876  1.0000
  H   H2604     1.0  0.23607  0.70531  0.54905  1.0000
  H   H2605     1.0  0.24911  0.74706  0.54269  1.0000
  H   H2606     1.0  0.24659  0.75306  0.51883  1.0000
  H   H2607     1.0  0.22595  0.74220  0.50800  1.0000
  H   H2608     1.0  0.23177  0.71747  0.51817  1.0000
  C   C1487     1.0  0.30275  0.57706  0.64307  1.0000
  C   C1488     1.0  0.21487  0.62851  0.82955  1.0000
  H   H2609     1.0  0.31691  0.54675  0.65073  1.0000
  H   H2610     1.0  0.36909  0.67537  0.53992  1.0000
  H   H2611     1.0  0.26149  0.71896  0.51521  1.0000
  H   H2612     1.0  0.26474  0.71297  0.53937  1.0000
  H   H2613     1.0  0.37332  0.65021  0.66359  1.0000
  H   H2614     1.0  0.37195  0.88562  0.89916  1.0000
  H   H2615     1.0  0.23714  0.70203  0.59947  1.0000
  H   H2616     1.0  0.22027  0.69530  0.59045  1.0000
  H   H2617     1.0  0.31107  0.82463  0.73058  1.0000
  H   H2618     1.0  0.21257  0.82585  0.61391  1.0000
  H   H2619     1.0  0.33781  0.57792  0.64940  1.0000
  H   H2620     1.0  0.30497  0.59076  0.64473  1.0000
  H   H2621     1.0  0.22461  0.71903  0.95908  1.0000
  S   S343      1.0  0.37385  0.66851  0.74563  1.0000
  H   H2622     1.0  0.24714  0.94118  0.71184  1.0000
  H   H2623     1.0  0.28466  0.73752  0.53093  1.0000
  H   H2624     1.0  0.29375  0.71956  0.51690  1.0000
  H   H2625     1.0  0.28165  0.74315  0.50656  1.0000
  N   N82       1.0  0.27920  0.68070  0.76851  1.0000
  C   C1489     1.0  0.25954  0.68739  0.77965  1.0000
  C   C1490     1.0  0.29352  0.68509  0.77688  1.0000
  C   C1491     1.0  0.28011  0.69104  0.74797  1.0000
  C   C1492     1.0  0.28350  0.65935  0.76956  1.0000
  C   C1493     1.0  0.24314  0.68084  0.77554  1.0000
  C   C1494     1.0  0.29973  0.68721  0.73439  1.0000
  C   C1495     1.0  0.29385  0.70668  0.77360  1.0000
  C   C1496     1.0  0.30857  0.70932  0.78307  1.0000
  C   C1497     1.0  0.22401  0.68858  0.78750  1.0000
  C   C1498     1.0  0.30054  0.70250  0.71591  1.0000
  H   H2626     1.0  0.25583  0.70338  0.77682  1.0000
  H   H2627     1.0  0.25901  0.68290  0.79525  1.0000
  H   H2628     1.0  0.29091  0.67940  0.79257  1.0000
  H   H2629     1.0  0.30816  0.67735  0.77157  1.0000
  H   H2630     1.0  0.27506  0.70683  0.74684  1.0000
  H   H2631     1.0  0.27014  0.68685  0.74180  1.0000
  H   H2632     1.0  0.27427  0.65567  0.76211  1.0000
  H   H2633     1.0  0.29818  0.65465  0.76163  1.0000
  H   H2634     1.0  0.24210  0.68613  0.76037  1.0000
  H   H2635     1.0  0.24522  0.66495  0.77895  1.0000
  S   S344      1.0  0.33668  0.71843  0.73354  1.0000
  H   H2636     1.0  0.27980  0.71485  0.77963  1.0000
  C   C1499     1.0  0.34752  0.78490  0.77257  1.0000
  H   H2637     1.0  0.35791  0.85227  0.77049  1.0000
  Fe  Fe173     1.0  0.36567  0.69953  0.73105  1.0000
  C   C1500     1.0  0.35185  0.77338  0.75917  1.0000
  C   C1501     1.0  0.23128  0.85688  0.84094  1.0000
  Fe  Fe174     1.0  0.35017  0.74018  0.73812  1.0000
  C   C1502     1.0  0.27727  0.60290  0.61868  1.0000
  S   S345      1.0  0.37830  0.72002  0.73883  1.0000
  H   H2638     1.0  0.29613  0.62006  0.78010  1.0000
  H   H2639     1.0  0.23420  0.56891  0.70502  1.0000
  H   H2640     1.0  0.34717  0.60282  0.71120  1.0000
  H   H2641     1.0  0.34041  0.87733  0.90662  1.0000
  H   H2642     1.0  0.26255  0.63275  0.61833  1.0000
  C   C1503     1.0  0.37999  0.67870  0.52678  1.0000
  H   H2643     1.0  0.19998  0.91973  0.63192  1.0000
  H   H2644     1.0  0.34777  0.82640  0.88464  1.0000
  C   C1504     1.0  0.21334  0.95765  0.48923  1.0000
  C   C1505     1.0  0.23382  0.51719  0.70182  1.0000
  H   H2645     1.0  0.19997  0.72803  0.96237  1.0000
  H   H2646     1.0  0.26887  0.65139  0.79974  1.0000
  C   C1506     1.0  0.36583  0.63303  0.75996  1.0000
  C   C1507     1.0  0.35652  0.61820  0.76212  1.0000
  H   H2647     1.0  0.26223  0.88670  0.81224  1.0000
  C   C1508     1.0  0.34867  0.83710  0.87088  1.0000
  H   H2648     1.0  0.26298  0.56564  0.63887  1.0000
  H   H2649     1.0  0.21319  0.86713  0.87312  1.0000
  C   C1509     1.0  0.25014  0.87940  0.81542  1.0000
  H   H2650     1.0  0.23120  0.80491  0.49093  1.0000
  H   H2651     1.0  0.29434  0.64676  0.79587  1.0000
  H   H2652     1.0  0.20211  0.49879  0.79468  1.0000
  H   H2653     1.0  0.36151  0.75271  0.51429  1.0000
  H   H2654     1.0  0.22875  0.93722  0.50914  1.0000
  C   C1510     1.0  0.25137  0.73355  0.96777  1.0000
  H   H2655     1.0  0.28159  0.87107  0.95038  1.0000
  C   C1511     1.0  0.38007  0.73676  0.83509  1.0000
  H   H2656     1.0  0.25523  0.55076  0.70117  1.0000
  H   H2657     1.0  0.22113  0.73025  0.57942  1.0000
  C   C1512     1.0  0.37053  0.69177  0.51065  1.0000
  H   H2658     1.0  0.37986  0.85872  0.73994  1.0000
  H   H2659     1.0  0.34115  0.77471  0.53505  1.0000
  C   C1513     1.0  0.31668  0.56078  0.65353  1.0000
  H   H2660     1.0  0.34802  0.74042  0.53542  1.0000
  H   H2661     1.0  0.22274  0.77764  0.52531  1.0000
  Fe  Fe175     1.0  0.28219  0.95116  0.77980  1.0000
  Fe  Fe176     1.0  0.34652  0.73065  0.70238  1.0000
  H   H2662     1.0  0.33158  0.88090  0.76536  1.0000
  C   C1514     1.0  0.28304  0.62570  0.78987  1.0000
  C   C1515     1.0  0.25411  0.57663  0.67858  1.0000
  H   H2663     1.0  0.28314  0.61664  0.80441  1.0000
  H   H2664     1.0  0.24710  0.57086  0.67058  1.0000
  H   H2665     1.0  0.28952  0.67464  0.69986  1.0000
  H   H2666     1.0  0.27612  0.67813  0.68197  1.0000
  H   H2667     1.0  0.35408  0.70831  0.78047  1.0000
  H   H2668     1.0  0.24769  0.59220  0.67741  1.0000
  H   H2669     1.0  0.30469  0.65182  0.67898  1.0000
  H   H2670     1.0  0.34741  0.86711  0.85988  1.0000
  H   H2671     1.0  0.22903  0.52915  0.72637  1.0000
  C   C1516     1.0  0.22837  0.61120  0.83958  1.0000
  H   H2672     1.0  0.29952  0.68191  0.48388  1.0000
  C   C1517     1.0  0.21254  0.75247  0.54477  1.0000
  C   C1518     1.0  0.34697  0.75058  0.52155  1.0000
  H   H2673     1.0  0.27038  0.62469  0.78531  1.0000
  H   H2674     1.0  0.23419  0.87669  0.54978  1.0000
  C   C1519     1.0  0.20760  0.51179  0.78629  1.0000
  C   C1520     1.0  0.27585  0.57400  0.67054  1.0000
  N   N83       1.0  0.22909  0.84314  0.86010  1.0000
  H   H2675     1.0  0.26276  0.53081  0.64016  1.0000
  H   H2676     1.0  0.28277  0.55968  0.67774  1.0000
  H   H2677     1.0  0.26669  0.54101  0.66796  1.0000
  C   C1521     1.0  0.20373  0.58807  0.76441  1.0000
  H   H2678     1.0  0.28097  0.58438  0.67543  1.0000
  C   C1522     1.0  0.34122  0.63525  0.68218  1.0000
  C   C1523     1.0  0.35997  0.62045  0.68475  1.0000
  C   C1524     1.0  0.22687  0.81997  0.60608  1.0000
  C   C1525     1.0  0.37970  0.78695  0.74331  1.0000
  C   C1526     1.0  0.20977  0.77150  0.52963  1.0000
  C   C1527     1.0  0.29678  0.68000  0.49919  1.0000
  H   H2679     1.0  0.20799  0.52931  0.71873  1.0000
  C   C1528     1.0  0.30622  0.66694  0.67332  1.0000
  C   C1529     1.0  0.21150  0.61336  0.72472  1.0000
  C   C1530     1.0  0.33416  0.88976  0.89621  1.0000
  C   C1531     1.0  0.34588  0.85733  0.87405  1.0000
  S   S346      1.0  0.35246  0.86964  0.82040  1.0000
  H   H2680     1.0  0.25562  0.59617  0.64356  1.0000
  H   H2681     1.0  0.29093  0.69480  0.67942  1.0000
  H   H2682     1.0  0.21048  0.58361  0.84565  1.0000
  H   H2683     1.0  0.21518  0.59597  0.76200  1.0000
  H   H2684     1.0  0.32523  0.73747  0.51920  1.0000
  H   H2685     1.0  0.32537  0.86415  0.79751  1.0000
  H   H2686     1.0  0.33626  0.84081  0.79319  1.0000
  H   H2687     1.0  0.30076  0.89789  0.75613  1.0000
  H   H2688     1.0  0.36068  0.60440  0.77130  1.0000
  H   H2689     1.0  0.23739  0.86042  0.87452  1.0000
  H   H2690     1.0  0.27233  0.60733  0.64723  1.0000
  H   H2691     1.0  0.32472  0.66965  0.68994  1.0000
  H   H2692     1.0  0.22946  0.77287  0.48760  1.0000
  S   S347      1.0  0.32505  0.73606  0.68419  1.0000
  H   H2693     1.0  0.19270  0.60330  0.85238  1.0000
  H   H2694     1.0  0.34820  0.91351  0.75803  1.0000
  C   C1532     1.0  0.32267  0.85157  0.79387  1.0000
  H   H2695     1.0  0.26879  0.62616  0.59559  1.0000
  N   N84       1.0  0.31670  0.85758  0.77489  1.0000
  H   H2696     1.0  0.30570  0.81348  0.75553  1.0000
  H   H2697     1.0  0.29710  0.84963  0.74893  1.0000
  C   C1533     1.0  0.27841  0.54085  0.65522  1.0000
  H   H2698     1.0  0.31305  0.56012  0.66907  1.0000
  C   C1534     1.0  0.23566  0.96950  0.89918  1.0000
  H   H2699     1.0  0.19577  0.78958  0.55026  1.0000
  C   C1535     1.0  0.23541  0.88422  0.53457  1.0000
  H   H2700     1.0  0.19851  0.74838  0.55123  1.0000
  H   H2701     1.0  0.25606  0.60206  0.86489  1.0000
  H   H2702     1.0  0.19730  0.97208  0.74114  1.0000
  H   H2703     1.0  0.23234  0.50067  0.76610  1.0000
  C   C1536     1.0  0.21638  0.91560  0.54368  1.0000
  N   N85       1.0  0.21449  0.74332  0.97299  1.0000
  H   H2704     1.0  0.19742  0.64332  0.71528  1.0000
  H   H2705     1.0  0.37686  0.90619  0.88059  1.0000
  H   H2706     1.0  0.20313  0.57333  0.68570  1.0000
  H   H2707     1.0  0.32387  0.75368  0.96822  1.0000
  H   H2708     1.0  0.26251  0.57245  0.89001  1.0000
  H   H2709     1.0  0.20630  0.56677  0.88133  1.0000
  H   H2710     1.0  0.23623  0.87359  0.52615  1.0000
  C   C1537     1.0  0.20127  0.94649  0.55273  1.0000
  H   H2711     1.0  0.21535  0.97320  0.70658  1.0000
  C   C1538     1.0  0.19959  0.72368  0.50596  1.0000
  C   C1539     1.0  0.26780  0.57225  0.87465  1.0000
  H   H2712     1.0  0.19437  0.93229  0.51534  1.0000
  H   H2713     1.0  0.24834  0.96370  0.90573  1.0000
  H   H2714     1.0  0.23611  0.83377  0.49787  1.0000
  C   C1540     1.0  0.26910  0.74220  0.95949  1.0000
  H   H2715     1.0  0.36136  0.68360  0.50788  1.0000
  H   H2716     1.0  0.37710  0.63054  0.76752  1.0000
  N   N86       1.0  0.19632  0.60156  0.73045  1.0000
  H   H2717     1.0  0.20322  0.75502  0.93568  1.0000
  N   N87       1.0  0.21982  0.60098  0.85923  1.0000
  C   C1541     1.0  0.21887  0.73058  0.92415  1.0000
  H   H2718     1.0  0.19784  0.87867  0.66304  1.0000
  H   H2719     1.0  0.30539  0.97623  0.82121  1.0000
  H   H2720     1.0  0.36052  0.87101  0.72802  1.0000
  C   C1542     1.0  0.21382  0.73260  0.95863  1.0000
  C   C1543     1.0  0.19808  0.94187  0.52246  1.0000
  H   H2721     1.0  0.20185  0.63682  0.89900  1.0000
  H   H2722     1.0  0.21580  0.82620  0.84989  1.0000
  H   H2723     1.0  0.21295  0.82098  0.87482  1.0000
  H   H2724     1.0  0.20243  0.62422  0.82780  1.0000
  C   C1544     1.0  0.20829  0.63195  0.70899  1.0000
  H   H2725     1.0  0.20665  0.76916  0.51685  1.0000
  C   C1545     1.0  0.36770  0.73264  0.48564  1.0000
  H   H2726     1.0  0.20826  0.83569  0.89865  1.0000
  H   H2727     1.0  0.38759  0.74831  0.87644  1.0000
  C   C1546     1.0  0.21814  0.90051  0.53195  1.0000
  H   H2728     1.0  0.19764  0.71814  0.53603  1.0000
  H   H2729     1.0  0.22626  0.96284  0.48038  1.0000
  C   C1547     1.0  0.21484  0.85603  0.91028  1.0000
  H   H2730     1.0  0.20159  0.86678  0.90815  1.0000
  S   S348      1.0  0.19741  0.79049  0.59050  1.0000
  C   C1548     1.0  0.19297  0.84583  0.86347  1.0000
  H   H2731     1.0  0.21612  0.90753  0.55865  1.0000
  H   H2732     1.0  0.36529  0.88094  0.74561  1.0000
  H   H2733     1.0  0.23467  0.76069  0.95545  1.0000
  H   H2734     1.0  0.20374  0.73436  0.49280  1.0000
  Fe  Fe177     1.0  0.19335  0.86198  0.57749  1.0000
  C   C1549     1.0  0.19901  0.76128  0.97149  1.0000
  H   H2735     1.0  0.21488  0.95140  0.54625  1.0000
  H   H2736     1.0  0.21363  0.96211  0.57633  1.0000
  C   C1550     1.0  0.23316  0.74952  0.96886  1.0000
  H   H2737     1.0  0.29382  0.97964  0.85483  1.0000
  H   H2738     1.0  0.26883  0.49533  0.72741  1.0000
  C   C1551     1.0  0.20115  0.93926  0.57432  1.0000
  C   C1552     1.0  0.19953  0.79478  0.92105  1.0000
  H   H2739     1.0  0.38179  0.69455  0.49776  1.0000
  H   H2740     1.0  0.37356  0.69610  0.79220  1.0000
  C   C1553     1.0  0.19280  0.78930  0.90780  1.0000
  H   H2741     1.0  0.26968  0.75222  0.96793  1.0000
  C   C1554     1.0  0.38248  0.75366  0.80095  1.0000
  H   H2742     1.0  0.30260  0.78508  0.97177  1.0000
  C   C1555     1.0  0.38173  0.66540  0.68711  1.0000
  H   H2743     1.0  0.19161  0.74313  0.52478  1.0000
  H   H2744     1.0  0.38244  0.76743  0.80434  1.0000
  C   C1556     1.0  0.19458  0.86640  0.65943  1.0000
  H   H2745     1.0  0.20128  0.94995  0.59867  1.0000
  H   H2746     1.0  0.19193  0.92954  0.76431  1.0000
  H   H2747     1.0  0.36214  0.76407  0.48293  1.0000
  H   H2748     1.0  0.38797  0.66496  0.52265  1.0000
  H   H2749     1.0  0.19996  0.76863  0.48032  1.0000
  Fe  Fe178     1.0  0.38525  0.73226  0.70759  1.0000
  S   S349      1.0  0.19719  0.77828  0.87420  1.0000
  H   H2750     1.0  0.38550  0.74926  0.83557  1.0000
  C   C1557     1.0  0.19138  0.57524  0.71539  1.0000
  S   S350      1.0  0.19063  0.72589  0.89432  1.0000
  H   H2751     1.0  0.39007  0.68564  0.52981  1.0000
  C   C1558     1.0  0.33008  0.73132  0.47594  1.0000
  H   H2752     1.0  0.41686  0.32742  0.18936  1.0000
  C   C1559     1.0  0.56464  0.20909  0.18990  1.0000
  H   H2753     1.0  0.40449  0.15928  0.20148  1.0000
  H   H2754     1.0  0.58541  0.28068  0.00499  1.0000
  S   S351      1.0  0.41002  0.33712  0.30797  1.0000
  H   H2755     1.0  0.49587  0.23171  0.15148  1.0000
  S   S352      1.0  0.41138  0.25645  0.28261  1.0000
  H   H2756     1.0  0.41227  0.35527  0.20438  1.0000
  H   H2757     1.0  0.46967  0.21829  0.14852  1.0000
  Fe  Fe179     1.0  0.55549  0.31703  0.32761  1.0000
  S   S353      1.0  0.52691  0.33529  0.33679  1.0000
  H   H2758     1.0  0.55007  0.28321  0.00104  1.0000
  Fe  Fe180     1.0  0.54962  0.32216  0.28755  1.0000
  S   S354      1.0  0.52071  0.34120  0.29314  1.0000
  S   S355      1.0  0.56304  0.31376  0.25931  1.0000
  Fe  Fe181     1.0  0.53428  0.35494  0.30820  1.0000
  S   S356      1.0  0.52782  0.38729  0.30418  1.0000
  Fe  Fe182     1.0  0.51578  0.31999  0.32093  1.0000
  S   S357      1.0  0.49003  0.30602  0.33274  1.0000
  S   S358      1.0  0.56354  0.33775  0.30013  1.0000
  S   S359      1.0  0.54395  0.29989  0.31426  1.0000
  C   C1560     1.0  0.58264  0.25561  0.28112  1.0000
  H   H2759     1.0  0.42616  0.29122  0.20695  1.0000
  H   H2760     1.0  0.41800  0.19762  0.26174  1.0000
  H   H2761     1.0  0.56563  0.32413  0.19478  1.0000
  H   H2762     1.0  0.40299  0.15750  0.13419  1.0000
  H   H2763     1.0  0.41391  0.35020  0.22887  1.0000
  C   C1561     1.0  0.39353  0.20923  0.11932  1.0000
  C   C1562     1.0  0.41352  0.22359  0.27164  1.0000
  H   H2764     1.0  0.55879  0.20042  0.24739  1.0000
  C   C1563     1.0  0.58016  0.30194  0.47159  1.0000
  S   S360      1.0  0.40925  0.23557  0.17393  1.0000
  H   H2765     1.0  0.54770  0.28109  0.97828  1.0000
  C   C1564     1.0  0.39505  0.24161  0.24138  1.0000
  C   C1565     1.0  0.57352  0.19485  0.13898  1.0000
  Fe  Fe183     1.0  0.39376  0.22272  0.16000  1.0000
  C   C1566     1.0  0.39630  0.25233  0.25393  1.0000
  H   H2766     1.0  0.58646  0.37994  0.35174  1.0000
  H   H2767     1.0  0.54439  0.36131  0.46598  1.0000
  Fe  Fe184     1.0  0.53993  0.27069  0.17242  1.0000
  S   S361      1.0  0.52366  0.25474  0.16281  1.0000
  H   H2768     1.0  0.57221  0.26142  0.24548  1.0000
  Fe  Fe185     1.0  0.51151  0.27191  0.21014  1.0000
  S   S362      1.0  0.49322  0.25574  0.20366  1.0000
  S   S363      1.0  0.50363  0.28017  0.23846  1.0000
  Fe  Fe186     1.0  0.52092  0.23713  0.19264  1.0000
  S   S364      1.0  0.52774  0.20471  0.19968  1.0000
  Fe  Fe187     1.0  0.49773  0.27507  0.17462  1.0000
  S   S365      1.0  0.47632  0.29235  0.15670  1.0000
  S   S366      1.0  0.53864  0.25187  0.20160  1.0000
  S   S367      1.0  0.51429  0.29255  0.18191  1.0000
  C   C1567     1.0  0.44739  0.28740  0.22309  1.0000
  C   C1568     1.0  0.57975  0.31104  0.36355  1.0000
  H   H2769     1.0  0.47201  0.20543  0.21834  1.0000
  H   H2770     1.0  0.42323  0.18480  0.18217  1.0000
  H   H2771     1.0  0.54719  0.24465  0.24488  1.0000
  C   C1569     1.0  0.57629  0.33725  0.47114  1.0000
  H   H2772     1.0  0.55674  0.36555  0.35704  1.0000
  C   C1570     1.0  0.57686  0.27688  0.98096  1.0000
  H   H2773     1.0  0.45217  0.23531  0.15981  1.0000
  C   C1571     1.0  0.39311  0.20774  0.08728  1.0000
  H   H2774     1.0  0.45596  0.29660  0.21152  1.0000
  C   C1572     1.0  0.58948  0.14154  0.18046  1.0000
  H   H2775     1.0  0.55806  0.25350  0.13869  1.0000
  C   C1573     1.0  0.55219  0.19674  0.19963  1.0000
  S   S368      1.0  0.39369  0.31255  0.27748  1.0000
  C   C1574     1.0  0.55346  0.38439  0.40596  1.0000
  C   C1575     1.0  0.46071  0.22513  0.19388  1.0000
  C   C1576     1.0  0.58044  0.23986  0.22085  1.0000
  C   C1577     1.0  0.55919  0.17858  0.21023  1.0000
  H   H2776     1.0  0.55962  0.22282  0.18111  1.0000
  H   H2777     1.0  0.47886  0.24938  0.16309  1.0000
  H   H2778     1.0  0.49065  0.42624  0.21892  1.0000
  H   H2779     1.0  0.54964  0.16891  0.21773  1.0000
  C   C1578     1.0  0.41432  0.28903  0.16368  1.0000
  C   C1579     1.0  0.42274  0.30256  0.14917  1.0000
  C   C1580     1.0  0.44173  0.30324  0.14732  1.0000
  C   C1581     1.0  0.45251  0.29057  0.16011  1.0000
  C   C1582     1.0  0.44414  0.27709  0.17486  1.0000
  C   C1583     1.0  0.42506  0.27620  0.17655  1.0000
  H   H2780     1.0  0.41460  0.31247  0.13916  1.0000
  H   H2781     1.0  0.44811  0.31367  0.13588  1.0000
  H   H2782     1.0  0.45225  0.26770  0.18508  1.0000
  H   H2783     1.0  0.41849  0.26604  0.18816  1.0000
  H   H2784     1.0  0.57739  0.25343  0.29678  1.0000
  H   H2785     1.0  0.49669  0.19756  0.15098  1.0000
  H   H2786     1.0  0.41851  0.20235  0.09806  1.0000
  H   H2787     1.0  0.55470  0.37779  0.33346  1.0000
  S   S369      1.0  0.56845  0.27792  0.15724  1.0000
  C   C1584     1.0  0.49692  0.18913  0.16570  1.0000
  C   C1585     1.0  0.58260  0.24532  0.11768  1.0000
  C   C1586     1.0  0.55954  0.19955  0.12581  1.0000
  C   C1587     1.0  0.52960  0.21514  0.24984  1.0000
  H   H2788     1.0  0.48994  0.17683  0.16844  1.0000
  H   H2789     1.0  0.55841  0.18621  0.12238  1.0000
  C   C1588     1.0  0.54764  0.30291  0.25369  1.0000
  C   C1589     1.0  0.55164  0.29766  0.23609  1.0000
  C   C1590     1.0  0.53834  0.29039  0.23122  1.0000
  C   C1591     1.0  0.52096  0.28873  0.24387  1.0000
  C   C1592     1.0  0.51714  0.29409  0.26129  1.0000
  C   C1593     1.0  0.53053  0.30074  0.26638  1.0000
  H   H2790     1.0  0.56491  0.29938  0.22620  1.0000
  H   H2791     1.0  0.54136  0.28646  0.21760  1.0000
  H   H2792     1.0  0.50363  0.29357  0.27081  1.0000
  H   H2793     1.0  0.52723  0.30487  0.27991  1.0000
  C   C1594     1.0  0.54621  0.40028  0.29439  1.0000
  C   C1595     1.0  0.54126  0.42024  0.28801  1.0000
  C   C1596     1.0  0.55530  0.43131  0.28087  1.0000
  C   C1597     1.0  0.57444  0.42261  0.28041  1.0000
  H   H2794     1.0  0.40728  0.34209  0.15763  1.0000
  C   C1598     1.0  0.56541  0.39144  0.29366  1.0000
  H   H2795     1.0  0.52649  0.42719  0.28851  1.0000
  H   H2796     1.0  0.55132  0.44666  0.27560  1.0000
  H   H2797     1.0  0.40147  0.31204  0.19193  1.0000
  H   H2798     1.0  0.56942  0.37607  0.29856  1.0000
  S   S370      1.0  0.57865  0.30233  0.34419  1.0000
  H   H2799     1.0  0.48888  0.26288  0.12928  1.0000
  Fe  Fe188     1.0  0.39183  0.31750  0.30639  1.0000
  C   C1599     1.0  0.40379  0.35482  0.21909  1.0000
  C   C1600     1.0  0.56523  0.32902  0.38844  1.0000
  C   C1601     1.0  0.56390  0.32250  0.37288  1.0000
  H   H2800     1.0  0.44400  0.16539  0.18266  1.0000
  H   H2801     1.0  0.55283  0.33749  0.39589  1.0000
  H   H2802     1.0  0.55056  0.32603  0.36830  1.0000
  S   S371      1.0  0.58408  0.33355  0.41343  1.0000
  C   C1602     1.0  0.40303  0.22184  0.24408  1.0000
  H   H2803     1.0  0.58888  0.15233  0.15091  1.0000
  H   H2804     1.0  0.57533  0.15050  0.18505  1.0000
  H   H2805     1.0  0.49628  0.21126  0.18019  1.0000
  C   C1603     1.0  0.58985  0.21258  0.24716  1.0000
  H   H2806     1.0  0.44683  0.23499  0.19205  1.0000
  N   N88       1.0  0.46718  0.21284  0.17920  1.0000
  H   H2807     1.0  0.46409  0.26208  0.13466  1.0000
  H   H2808     1.0  0.55672  0.37145  0.26471  1.0000
  C   C1604     1.0  0.43233  0.32813  0.31469  1.0000
  C   C1605     1.0  0.44589  0.33980  0.30861  1.0000
  C   C1606     1.0  0.46378  0.33314  0.31370  1.0000
  C   C1607     1.0  0.46800  0.31496  0.32546  1.0000
  C   C1608     1.0  0.45427  0.30348  0.33189  1.0000
  C   C1609     1.0  0.43663  0.30988  0.32630  1.0000
  H   H2809     1.0  0.44259  0.35401  0.29980  1.0000
  H   H2810     1.0  0.47415  0.34218  0.30882  1.0000
  H   H2811     1.0  0.45730  0.28958  0.34131  1.0000
  H   H2812     1.0  0.42621  0.30088  0.33131  1.0000
  H   H2813     1.0  0.56413  0.20973  0.11238  1.0000
  C   C1610     1.0  0.58110  0.26574  0.13890  1.0000
  C   C1611     1.0  0.58562  0.39491  0.43843  1.0000
  H   H2814     1.0  0.45771  0.18630  0.19429  1.0000
  H   H2815     1.0  0.43443  0.17500  0.16136  1.0000
  C   C1612     1.0  0.57842  0.17318  0.21172  1.0000
  H   H2816     1.0  0.56295  0.34741  0.17852  1.0000
  C   C1613     1.0  0.57409  0.37933  0.44860  1.0000
  C   C1614     1.0  0.47869  0.25311  0.13375  1.0000
  C   C1615     1.0  0.57253  0.25465  0.13250  1.0000
  C   C1616     1.0  0.57949  0.40261  0.28681  1.0000
  H   H2817     1.0  0.54105  0.39538  0.41078  1.0000
  H   H2818     1.0  0.53295  0.44749  0.31490  1.0000
  H   H2819     1.0  0.53555  0.46381  0.32775  1.0000
  H   H2820     1.0  0.52566  0.20437  0.24449  1.0000
  H   H2821     1.0  0.55530  0.25976  0.99533  1.0000
  C   C1617     1.0  0.45826  0.21423  0.21506  1.0000
  H   H2822     1.0  0.52457  0.17171  0.15634  1.0000
  H   H2823     1.0  0.58464  0.38805  0.32704  1.0000
  H   H2824     1.0  0.46140  0.23735  0.22624  1.0000
  H   H2825     1.0  0.58369  0.15934  0.22023  1.0000
  H   H2826     1.0  0.57809  0.36854  0.43967  1.0000
  H   H2827     1.0  0.49272  0.38978  0.35232  1.0000
  H   H2828     1.0  0.46324  0.18719  0.15787  1.0000
  H   H2829     1.0  0.40190  0.16733  0.28263  1.0000
  C   C1618     1.0  0.55623  0.27510  0.98950  1.0000
  H   H2830     1.0  0.56412  0.36850  0.38381  1.0000
  H   H2831     1.0  0.57282  0.20820  0.14349  1.0000
  S   S372      1.0  0.40720  0.20704  0.13622  1.0000
  H   H2832     1.0  0.57576  0.23701  0.11267  1.0000
  C   C1619     1.0  0.55076  0.21508  0.24228  1.0000
  C   C1620     1.0  0.48695  0.20151  0.18066  1.0000
  H   H2833     1.0  0.55632  0.44915  0.31599  1.0000
  H   H2834     1.0  0.49469  0.36595  0.36718  1.0000
  H   H2835     1.0  0.52632  0.21137  0.26565  1.0000
  H   H2836     1.0  0.48156  0.24453  0.12277  1.0000
  H   H2837     1.0  0.41920  0.28216  0.23219  1.0000
  H   H2838     1.0  0.55318  0.21767  0.22666  1.0000
  H   H2839     1.0  0.45331  0.27222  0.22198  1.0000
  H   H2840     1.0  0.52555  0.19254  0.16397  1.0000
  N   N89       1.0  0.54745  0.39656  0.35311  1.0000
  S   S373      1.0  0.39173  0.28669  0.32123  1.0000
  C   C1621     1.0  0.52641  0.39695  0.35591  1.0000
  C   C1622     1.0  0.55197  0.41391  0.33791  1.0000
  C   C1623     1.0  0.55207  0.39809  0.37109  1.0000
  C   C1624     1.0  0.55188  0.38012  0.38754  1.0000
  H   H2841     1.0  0.51883  0.17182  0.18139  1.0000
  C   C1625     1.0  0.54082  0.43373  0.34226  1.0000
  C   C1626     1.0  0.52021  0.37742  0.36023  1.0000
  C   C1627     1.0  0.49860  0.38010  0.36460  1.0000
  C   C1628     1.0  0.41180  0.21284  0.25954  1.0000
  H   H2842     1.0  0.43722  0.23788  0.22556  1.0000
  H   H2843     1.0  0.39903  0.14263  0.28846  1.0000
  C   C1629     1.0  0.55923  0.37880  0.34619  1.0000
  H   H2844     1.0  0.51792  0.40469  0.36732  1.0000
  H   H2845     1.0  0.52103  0.40528  0.34279  1.0000
  H   H2846     1.0  0.54960  0.41283  0.32418  1.0000
  H   H2847     1.0  0.55386  0.37101  0.41726  1.0000
  H   H2848     1.0  0.56629  0.40170  0.36801  1.0000
  H   H2849     1.0  0.54204  0.41035  0.37669  1.0000
  H   H2850     1.0  0.57689  0.23035  0.21373  1.0000
  H   H2851     1.0  0.53852  0.37503  0.39063  1.0000
  C   C1630     1.0  0.43712  0.17872  0.17376  1.0000
  H   H2852     1.0  0.39424  0.34004  0.36432  1.0000
  H   H2853     1.0  0.54732  0.43758  0.35217  1.0000
  H   H2854     1.0  0.52567  0.43376  0.34897  1.0000
  H   H2855     1.0  0.52568  0.37088  0.34757  1.0000
  H   H2856     1.0  0.52552  0.36699  0.37238  1.0000
  H   H2857     1.0  0.56840  0.18421  0.15175  1.0000
  H   H2858     1.0  0.54243  0.39455  0.25610  1.0000
  H   H2859     1.0  0.49220  0.38616  0.37751  1.0000
  H   H2860     1.0  0.39081  0.17167  0.25293  1.0000
  C   C1631     1.0  0.40213  0.32524  0.19606  1.0000
  H   H2861     1.0  0.52091  0.22950  0.24480  1.0000
  H   H2862     1.0  0.47091  0.23440  0.19194  1.0000
  C   C1632     1.0  0.45337  0.19959  0.18367  1.0000
  C   C1633     1.0  0.51772  0.18080  0.16696  1.0000
  H   H2863     1.0  0.58150  0.40676  0.44620  1.0000
  C   C1634     1.0  0.40601  0.24338  0.26879  1.0000
  H   H2864     1.0  0.50689  0.41876  0.19836  1.0000
  C   C1635     1.0  0.44986  0.19346  0.16673  1.0000
  C   C1636     1.0  0.54149  0.44950  0.32410  1.0000
  H   H2865     1.0  0.56721  0.41455  0.33527  1.0000
  H   H2866     1.0  0.42783  0.32251  0.21623  1.0000
  C   C1637     1.0  0.46673  0.22630  0.15993  1.0000
  H   H2867     1.0  0.44873  0.22029  0.24326  1.0000
  C   C1638     1.0  0.45094  0.22838  0.22826  1.0000
  H   H2868     1.0  0.43898  0.20644  0.19070  1.0000
  C   C1639     1.0  0.58361  0.20391  0.19177  1.0000
  C   C1640     1.0  0.48100  0.23998  0.15309  1.0000
  H   H2869     1.0  0.44797  0.20470  0.21869  1.0000
  H   H2870     1.0  0.48689  0.19138  0.19474  1.0000
  H   H2871     1.0  0.44244  0.20610  0.15745  1.0000
  H   H2872     1.0  0.54529  0.20635  0.13298  1.0000
  N   N90       1.0  0.47041  0.26242  0.29413  1.0000
  C   C1641     1.0  0.46843  0.25192  0.28019  1.0000
  C   C1642     1.0  0.46565  0.28377  0.28602  1.0000
  C   C1643     1.0  0.49107  0.25739  0.29561  1.0000
  C   C1644     1.0  0.45857  0.25699  0.31383  1.0000
  C   C1645     1.0  0.43909  0.25244  0.31527  1.0000
  C   C1646     1.0  0.47632  0.22990  0.28431  1.0000
  C   C1647     1.0  0.49645  0.26753  0.30864  1.0000
  C   C1648     1.0  0.44558  0.29267  0.28174  1.0000
  C   C1649     1.0  0.44512  0.31301  0.26938  1.0000
  C   C1650     1.0  0.42828  0.24862  0.33596  1.0000
  C   C1651     1.0  0.46992  0.22022  0.27210  1.0000
  C   C1652     1.0  0.51728  0.26016  0.31010  1.0000
  H   H2873     1.0  0.47585  0.25788  0.26552  1.0000
  H   H2874     1.0  0.45340  0.25431  0.27918  1.0000
  H   H2875     1.0  0.46720  0.29211  0.29568  1.0000
  H   H2876     1.0  0.47590  0.28733  0.27243  1.0000
  H   H2877     1.0  0.50036  0.26029  0.28118  1.0000
  H   H2878     1.0  0.49543  0.24176  0.30152  1.0000
  H   H2879     1.0  0.46645  0.24400  0.32239  1.0000
  H   H2880     1.0  0.45599  0.26861  0.32164  1.0000
  H   H2881     1.0  0.44079  0.23942  0.30977  1.0000
  H   H2882     1.0  0.43020  0.26448  0.30709  1.0000
  H   H2883     1.0  0.49209  0.22685  0.28075  1.0000
  H   H2884     1.0  0.47164  0.22323  0.29953  1.0000
  H   H2885     1.0  0.48767  0.26496  0.32327  1.0000
  H   H2886     1.0  0.49454  0.28325  0.30305  1.0000
  H   H2887     1.0  0.44111  0.28437  0.27398  1.0000
  H   H2888     1.0  0.43503  0.29385  0.29521  1.0000
  H   H2889     1.0  0.43060  0.31987  0.26704  1.0000
  H   H2890     1.0  0.44944  0.32209  0.27649  1.0000
  H   H2891     1.0  0.45481  0.31257  0.25528  1.0000
  H   H2892     1.0  0.41446  0.24521  0.33657  1.0000
  H   H2893     1.0  0.43650  0.23621  0.34472  1.0000
  H   H2894     1.0  0.42545  0.26153  0.34204  1.0000
  H   H2895     1.0  0.47579  0.20450  0.27526  1.0000
  H   H2896     1.0  0.45418  0.22260  0.27516  1.0000
  H   H2897     1.0  0.47516  0.22608  0.25675  1.0000
  H   H2898     1.0  0.52669  0.26307  0.29583  1.0000
  H   H2899     1.0  0.52065  0.26773  0.31941  1.0000
  H   H2900     1.0  0.52012  0.24449  0.31640  1.0000
  N   N91       1.0  0.52655  0.36192  0.22810  1.0000
  C   C1653     1.0  0.53418  0.36548  0.24342  1.0000
  C   C1654     1.0  0.51227  0.34920  0.23739  1.0000
  C   C1655     1.0  0.54298  0.35088  0.21583  1.0000
  C   C1656     1.0  0.51796  0.38024  0.21561  1.0000
  C   C1657     1.0  0.50806  0.39763  0.22514  1.0000
  C   C1658     1.0  0.55158  0.37523  0.23631  1.0000
  C   C1659     1.0  0.53788  0.34300  0.20090  1.0000
  C   C1660     1.0  0.49417  0.35728  0.25102  1.0000
  C   C1661     1.0  0.48290  0.34163  0.26176  1.0000
  C   C1662     1.0  0.49717  0.41385  0.21194  1.0000
  C   C1663     1.0  0.55474  0.38312  0.25194  1.0000
  C   C1664     1.0  0.55565  0.33554  0.18699  1.0000
  H   H2901     1.0  0.53866  0.35161  0.25322  1.0000
  H   H2902     1.0  0.52303  0.37409  0.25267  1.0000
  H   H2903     1.0  0.50690  0.34557  0.22652  1.0000
  H   H2904     1.0  0.51933  0.33533  0.24535  1.0000
  H   H2905     1.0  0.55088  0.33840  0.22490  1.0000
  H   H2906     1.0  0.55348  0.36002  0.20784  1.0000
  H   H2907     1.0  0.52899  0.38552  0.20337  1.0000
  H   H2908     1.0  0.50755  0.37732  0.20899  1.0000
  H   H2909     1.0  0.51874  0.40354  0.22846  1.0000
  H   H2910     1.0  0.49796  0.39372  0.23863  1.0000
  H   H2911     1.0  0.56461  0.36449  0.23219  1.0000
  H   H2912     1.0  0.54991  0.38717  0.22372  1.0000
  H   H2913     1.0  0.52831  0.35428  0.19257  1.0000
  H   H2914     1.0  0.53079  0.33067  0.20805  1.0000
  H   H2915     1.0  0.49738  0.36297  0.26185  1.0000
  H   H2916     1.0  0.48479  0.36882  0.24268  1.0000
  H   H2917     1.0  0.49089  0.33052  0.27181  1.0000
  H   H2918     1.0  0.46919  0.34811  0.27010  1.0000
  H   H2919     1.0  0.47990  0.33465  0.25171  1.0000
  H   H2920     1.0  0.48565  0.40897  0.20884  1.0000
  C   C1665     1.0  0.55672  0.23044  0.24898  1.0000
  H   H2921     1.0  0.39627  0.13961  0.19850  1.0000
  N   N92       1.0  0.57732  0.23218  0.24215  1.0000
  H   H2922     1.0  0.44855  0.28892  0.23713  1.0000
  H   H2923     1.0  0.56665  0.38959  0.40391  1.0000
  C   C1666     1.0  0.42666  0.29271  0.22115  1.0000
  H   H2924     1.0  0.56765  0.38940  0.24676  1.0000
  H   H2925     1.0  0.42100  0.21656  0.28309  1.0000
  C   C1667     1.0  0.40315  0.20592  0.10133  1.0000
  S   S374      1.0  0.40330  0.20786  0.22813  1.0000
  H   H2926     1.0  0.57064  0.25405  0.21756  1.0000
  H   H2927     1.0  0.55161  0.32925  0.17704  1.0000
  H   H2928     1.0  0.55890  0.38618  0.44898  1.0000
  C   C1668     1.0  0.41722  0.31340  0.22393  1.0000
  H   H2929     1.0  0.57430  0.34077  0.45624  1.0000
  H   H2930     1.0  0.58433  0.25684  0.00640  1.0000
  H   H2931     1.0  0.55306  0.22628  0.26476  1.0000
  C   C1669     1.0  0.58254  0.32460  0.39437  1.0000
  C   C1670     1.0  0.58096  0.37739  0.34040  1.0000
  H   H2932     1.0  0.55852  0.24776  0.27737  1.0000
  C   C1671     1.0  0.58030  0.24692  0.25112  1.0000
  C   C1672     1.0  0.58920  0.26952  0.99633  1.0000
  H   H2933     1.0  0.58286  0.20401  0.26071  1.0000
  H   H2934     1.0  0.58298  0.40100  0.42379  1.0000
  C   C1673     1.0  0.57767  0.37038  0.46911  1.0000
  H   H2935     1.0  0.41545  0.31307  0.23930  1.0000
  C   C1674     1.0  0.39209  0.34254  0.16458  1.0000
  Fe  Fe189     1.0  0.39133  0.28233  0.29255  1.0000
  H   H2936     1.0  0.40311  0.38504  0.21616  1.0000
  H   H2937     1.0  0.58011  0.30562  0.45612  1.0000
  H   H2938     1.0  0.58409  0.35286  0.32774  1.0000
  H   H2939     1.0  0.51575  0.38734  0.46904  1.0000
  C   C1675     1.0  0.39184  0.15755  0.28987  1.0000
  H   H2940     1.0  0.40084  0.20568  0.07325  1.0000
  H   H2941     1.0  0.58757  0.12704  0.18077  1.0000
  H   H2942     1.0  0.39402  0.41233  0.28379  1.0000
  C   C1676     1.0  0.57422  0.24345  0.27315  1.0000
  N   N93       1.0  0.39855  0.32208  0.21754  1.0000
  H   H2943     1.0  0.57859  0.22810  0.27997  1.0000
  H   H2944     1.0  0.57829  0.27113  0.27474  1.0000
  H   H2945     1.0  0.39224  0.42375  0.30306  1.0000
  C   C1677     1.0  0.39299  0.37521  0.22056  1.0000
  H   H2946     1.0  0.39148  0.35634  0.18646  1.0000
  Fe  Fe190     1.0  0.39179  0.22318  0.20177  1.0000
  H   H2947     1.0  0.39164  0.29412  0.22273  1.0000
  C   C1678     1.0  0.39167  0.15379  0.20255  1.0000
  H   H2948     1.0  0.39041  0.26758  0.25171  1.0000
  C   C1679     1.0  0.41069  0.42401  0.72556  1.0000
  H   H2949     1.0  0.50041  0.28220  0.68657  1.0000
  H   H2950     1.0  0.54302  0.16875  0.88793  1.0000
  C   C1680     1.0  0.53545  0.37757  0.48840  1.0000
  S   S375      1.0  0.41341  0.38079  0.68208  1.0000
  C   C1681     1.0  0.58205  0.16200  0.88772  1.0000
  S   S376      1.0  0.42751  0.28621  0.71863  1.0000
  S   S377      1.0  0.41352  0.32974  0.67633  1.0000
  H   H2951     1.0  0.56151  0.37650  0.50861  1.0000
  Fe  Fe191     1.0  0.50457  0.37375  0.71371  1.0000
  S   S378      1.0  0.52323  0.34608  0.70712  1.0000
  S   S379      1.0  0.47461  0.37287  0.73019  1.0000
  Fe  Fe192     1.0  0.53572  0.39643  0.69436  1.0000
  S   S380      1.0  0.55667  0.37071  0.68606  1.0000
  S   S381      1.0  0.54590  0.42431  0.68298  1.0000
  Fe  Fe193     1.0  0.53248  0.36408  0.67838  1.0000
  S   S382      1.0  0.53580  0.35548  0.65086  1.0000
  Fe  Fe194     1.0  0.54564  0.35521  0.71553  1.0000
  S   S383      1.0  0.56679  0.33427  0.73170  1.0000
  S   S384      1.0  0.51217  0.39116  0.68418  1.0000
  S   S385      1.0  0.52634  0.38143  0.72475  1.0000
  S   S386      1.0  0.40664  0.18973  0.78785  1.0000
  H   H2952     1.0  0.57209  0.15259  0.77168  1.0000
  S   S387      1.0  0.45765  0.18711  0.79376  1.0000
  Fe  Fe195     1.0  0.54014  0.24774  0.80727  1.0000
  S   S388      1.0  0.53821  0.23338  0.83819  1.0000
  S   S389      1.0  0.52413  0.27818  0.79930  1.0000
  Fe  Fe196     1.0  0.56300  0.21110  0.79413  1.0000
  S   S390      1.0  0.56269  0.19397  0.82392  1.0000
  C   C1682     1.0  0.58235  0.44465  0.70026  1.0000
  Fe  Fe197     1.0  0.53210  0.20900  0.82969  1.0000
  S   S391      1.0  0.50815  0.19423  0.84680  1.0000
  C   C1683     1.0  0.54671  0.35954  0.48058  1.0000
  H   H2953     1.0  0.39057  0.29864  0.74063  1.0000
  S   S392      1.0  0.53192  0.22436  0.79940  1.0000
  H   H2954     1.0  0.58507  0.48497  0.75927  1.0000
  H   H2955     1.0  0.58353  0.32483  0.84536  1.0000
  C   C1684     1.0  0.58183  0.43426  0.71905  1.0000
  H   H2956     1.0  0.50489  0.31199  0.71516  1.0000
  H   H2957     1.0  0.42570  0.41627  0.72220  1.0000
  C   C1685     1.0  0.56703  0.34705  0.62320  1.0000
  H   H2958     1.0  0.40221  0.41185  0.70692  1.0000
  C   C1686     1.0  0.53233  0.27824  0.84816  1.0000
  H   H2959     1.0  0.57689  0.29233  0.97453  1.0000
  Fe  Fe198     1.0  0.42644  0.18893  0.80629  1.0000
  H   H2960     1.0  0.57397  0.28897  0.47829  1.0000
  H   H2961     1.0  0.56281  0.10632  0.81844  1.0000
  H   H2962     1.0  0.48587  0.29265  0.64708  1.0000
  N   N94       1.0  0.57876  0.29833  0.82540  1.0000
  C   C1687     1.0  0.58618  0.33919  0.61658  1.0000
  H   H2963     1.0  0.50737  0.39606  0.49076  1.0000
  H   H2964     1.0  0.41453  0.29881  0.76575  1.0000
  Fe  Fe199     1.0  0.56893  0.22011  0.82918  1.0000
  H   H2965     1.0  0.57021  0.10682  0.79393  1.0000
  H   H2966     1.0  0.53963  0.34763  0.48947  1.0000
  H   H2967     1.0  0.57100  0.45024  0.67506  1.0000
  H   H2968     1.0  0.53917  0.26400  0.85570  1.0000
  C   C1688     1.0  0.47535  0.34139  0.67310  1.0000
  H   H2969     1.0  0.58444  0.34266  0.53327  1.0000
  C   C1689     1.0  0.57278  0.41989  0.58563  1.0000
  C   C1690     1.0  0.57106  0.33441  0.65575  1.0000
  H   H2970     1.0  0.57721  0.30422  0.86306  1.0000
  H   H2971     1.0  0.56232  0.43276  0.58020  1.0000
  C   C1691     1.0  0.57692  0.06988  0.81603  1.0000
  H   H2972     1.0  0.55649  0.17062  0.86372  1.0000
  C   C1692     1.0  0.47165  0.18781  0.80912  1.0000
  C   C1693     1.0  0.46403  0.18769  0.82843  1.0000
  C   C1694     1.0  0.47541  0.18917  0.84012  1.0000
  C   C1695     1.0  0.49428  0.19113  0.83245  1.0000
  C   C1696     1.0  0.50190  0.19084  0.81326  1.0000
  C   C1697     1.0  0.49068  0.18908  0.80166  1.0000
  H   H2973     1.0  0.44937  0.18660  0.83433  1.0000
  H   H2974     1.0  0.46945  0.18923  0.85500  1.0000
  H   H2975     1.0  0.51657  0.19165  0.80741  1.0000
  H   H2976     1.0  0.49672  0.18892  0.78682  1.0000
  C   C1698     1.0  0.55504  0.31874  0.75058  1.0000
  C   C1699     1.0  0.53542  0.32379  0.75713  1.0000
  C   C1700     1.0  0.52608  0.31130  0.77223  1.0000
  C   C1701     1.0  0.53625  0.29356  0.78052  1.0000
  C   C1702     1.0  0.55585  0.28848  0.77388  1.0000
  C   C1703     1.0  0.56530  0.30117  0.75908  1.0000
  H   H2977     1.0  0.52744  0.33741  0.75069  1.0000
  H   H2978     1.0  0.51092  0.31534  0.77736  1.0000
  H   H2979     1.0  0.56377  0.27488  0.78020  1.0000
  H   H2980     1.0  0.55925  0.35258  0.53913  1.0000
  C   C1704     1.0  0.55952  0.34486  0.64278  1.0000
  N   N95       1.0  0.58470  0.12274  0.80403  1.0000
  H   H2981     1.0  0.54712  0.34809  0.78142  1.0000
  H   H2982     1.0  0.53909  0.30184  0.82594  1.0000
  H   H2983     1.0  0.55972  0.34066  0.51039  1.0000
  H   H2984     1.0  0.57211  0.44926  0.60027  1.0000
  H   H2985     1.0  0.57519  0.19132  0.87035  1.0000
  H   H2986     1.0  0.56528  0.33260  0.67090  1.0000
  C   C1705     1.0  0.55913  0.42849  0.69723  1.0000
  C   C1706     1.0  0.58926  0.45496  0.62521  1.0000
  H   H2987     1.0  0.55699  0.13919  0.81473  1.0000
  H   H2988     1.0  0.52569  0.28761  0.85856  1.0000
  H   H2989     1.0  0.58046  0.29720  0.75398  1.0000
  C   C1707     1.0  0.55870  0.41804  0.71599  1.0000
  H   H2990     1.0  0.57653  0.40182  0.64446  1.0000
  H   H2991     1.0  0.56719  0.38454  0.63904  1.0000
  H   H2992     1.0  0.49259  0.35765  0.64892  1.0000
  H   H2993     1.0  0.54971  0.40768  0.72210  1.0000
  H   H2994     1.0  0.55432  0.31448  0.79882  1.0000
  C   C1708     1.0  0.41962  0.25438  0.74607  1.0000
  H   H2995     1.0  0.47031  0.29390  0.71563  1.0000
  H   H2996     1.0  0.43337  0.24678  0.73991  1.0000
  C   C1709     1.0  0.43006  0.37928  0.69564  1.0000
  C   C1710     1.0  0.42770  0.36969  0.71477  1.0000
  C   C1711     1.0  0.44103  0.36857  0.72544  1.0000
  C   C1712     1.0  0.45727  0.37628  0.71685  1.0000
  C   C1713     1.0  0.45940  0.38636  0.69787  1.0000
  C   C1714     1.0  0.44564  0.38814  0.68739  1.0000
  H   H2997     1.0  0.41534  0.36360  0.72156  1.0000
  H   H2998     1.0  0.43900  0.36132  0.74029  1.0000
  H   H2999     1.0  0.47156  0.39290  0.69129  1.0000
  H   H3000     1.0  0.44733  0.39599  0.67272  1.0000
  H   H3001     1.0  0.40934  0.43866  0.71628  1.0000
  H   H3002     1.0  0.55541  0.29038  0.69757  1.0000
  C   C1715     1.0  0.56971  0.42124  0.72700  1.0000
  H   H3003     1.0  0.54228  0.39010  0.48180  1.0000
  H   H3004     1.0  0.56652  0.07092  0.82964  1.0000
  S   S393      1.0  0.40905  0.21491  0.81723  1.0000
  H   H3005     1.0  0.40271  0.27231  0.68546  1.0000
  H   H3006     1.0  0.56910  0.31418  0.49626  1.0000
  C   C1716     1.0  0.57564  0.10587  0.80673  1.0000
  H   H3007     1.0  0.53905  0.27668  0.71451  1.0000
  H   H3008     1.0  0.39997  0.35545  0.63487  1.0000
  H   H3009     1.0  0.55680  0.13553  0.78106  1.0000
  H   H3010     1.0  0.56832  0.13354  0.84084  1.0000
  H   H3011     1.0  0.58420  0.15347  0.87687  1.0000
  H   H3012     1.0  0.58488  0.25814  0.82230  1.0000
  C   C1717     1.0  0.51533  0.38339  0.48460  1.0000
  H   H3013     1.0  0.50186  0.30226  0.66720  1.0000
  H   H3014     1.0  0.48359  0.36877  0.66912  1.0000
  C   C1718     1.0  0.54397  0.16384  0.78574  1.0000
  H   H3015     1.0  0.56809  0.40723  0.58440  1.0000
  C   C1719     1.0  0.49125  0.33014  0.68403  1.0000
  C   C1720     1.0  0.40606  0.25803  0.69509  1.0000
  H   H3016     1.0  0.58552  0.37283  0.71764  1.0000
  H   H3017     1.0  0.58482  0.37991  0.75538  1.0000
  C   C1721     1.0  0.47449  0.29351  0.67701  1.0000
  C   C1722     1.0  0.41349  0.27395  0.73855  1.0000
  C   C1723     1.0  0.55130  0.34467  0.79541  1.0000
  H   H3018     1.0  0.57634  0.36682  0.53696  1.0000
  H   H3019     1.0  0.47382  0.33328  0.66333  1.0000
  H   H3020     1.0  0.46162  0.34466  0.68318  1.0000
  N   N96       1.0  0.46071  0.25556  0.78241  1.0000
  C   C1724     1.0  0.46572  0.23695  0.77571  1.0000
  C   C1725     1.0  0.46027  0.25090  0.80348  1.0000
  C   C1726     1.0  0.44161  0.26640  0.77802  1.0000
  C   C1727     1.0  0.47517  0.26788  0.77231  1.0000
  C   C1728     1.0  0.49586  0.25860  0.77475  1.0000
  C   C1729     1.0  0.47171  0.23870  0.75384  1.0000
  C   C1730     1.0  0.43242  0.28452  0.78654  1.0000
  C   C1731     1.0  0.44471  0.23996  0.81630  1.0000
  C   C1732     1.0  0.44509  0.23665  0.83734  1.0000
  C   C1733     1.0  0.50991  0.27008  0.76055  1.0000
  C   C1734     1.0  0.47285  0.21975  0.74860  1.0000
  C   C1735     1.0  0.41303  0.29389  0.78143  1.0000
  H   H3021     1.0  0.45350  0.22955  0.78090  1.0000
  H   H3022     1.0  0.47733  0.22658  0.78215  1.0000
  H   H3023     1.0  0.47406  0.24168  0.80650  1.0000
  H   H3024     1.0  0.45888  0.26417  0.80855  1.0000
  H   H3025     1.0  0.43121  0.25676  0.78276  1.0000
  H   H3026     1.0  0.44267  0.27122  0.76237  1.0000
  H   H3027     1.0  0.47495  0.27270  0.75685  1.0000
  H   H3028     1.0  0.47149  0.28136  0.77762  1.0000
  H   H3029     1.0  0.50029  0.24363  0.77269  1.0000
  H   H3030     1.0  0.49719  0.25834  0.78932  1.0000
  H   H3031     1.0  0.46156  0.25000  0.74629  1.0000
  H   H3032     1.0  0.48593  0.24240  0.74837  1.0000
  H   H3033     1.0  0.44142  0.29543  0.78095  1.0000
  H   H3034     1.0  0.43018  0.28090  0.80228  1.0000
  H   H3035     1.0  0.43029  0.24797  0.81443  1.0000
  H   H3036     1.0  0.44705  0.22572  0.81288  1.0000
  H   H3037     1.0  0.44140  0.25057  0.84183  1.0000
  H   H3038     1.0  0.43459  0.22780  0.84610  1.0000
  H   H3039     1.0  0.45937  0.22887  0.84004  1.0000
  H   H3040     1.0  0.52442  0.26379  0.76340  1.0000
  H   H3041     1.0  0.51016  0.26951  0.74579  1.0000
  H   H3042     1.0  0.50611  0.28530  0.76199  1.0000
  H   H3043     1.0  0.47748  0.22124  0.73294  1.0000
  H   H3044     1.0  0.48320  0.20802  0.75560  1.0000
  H   H3045     1.0  0.45872  0.21572  0.75314  1.0000
  H   H3046     1.0  0.40657  0.30659  0.78794  1.0000
  H   H3047     1.0  0.41941  0.25706  0.69957  1.0000
  H   H3048     1.0  0.58103  0.42522  0.54592  1.0000
  H   H3049     1.0  0.52942  0.31427  0.68536  1.0000
  C   C1736     1.0  0.57091  0.31931  0.81749  1.0000
  H   H3050     1.0  0.40756  0.37585  0.63692  1.0000
  H   H3051     1.0  0.57452  0.15376  0.90115  1.0000
  H   H3052     1.0  0.55190  0.27852  0.82114  1.0000
  H   H3053     1.0  0.57462  0.15322  0.80368  1.0000
  Fe  Fe200     1.0  0.40016  0.35480  0.69034  1.0000
  H   H3054     1.0  0.41212  0.22918  0.76644  1.0000
  C   C1737     1.0  0.56932  0.14083  0.80259  1.0000
  C   C1738     1.0  0.57929  0.12010  0.84041  1.0000
  H   H3055     1.0  0.53814  0.34585  0.80665  1.0000
  H   H3056     1.0  0.55942  0.35533  0.79532  1.0000
  C   C1739     1.0  0.47942  0.28345  0.66040  1.0000
  C   C1740     1.0  0.58848  0.08557  0.81045  1.0000
  C   C1741     1.0  0.56353  0.28904  0.83966  1.0000
  H   H3057     1.0  0.40332  0.28359  0.78684  1.0000
  H   H3058     1.0  0.46627  0.28070  0.65825  1.0000
  H   H3059     1.0  0.57218  0.10780  0.84370  1.0000
  H   H3060     1.0  0.46886  0.33474  0.71995  1.0000
  N   N97       1.0  0.57267  0.41880  0.60622  1.0000
  C   C1742     1.0  0.50570  0.30232  0.70571  1.0000
  H   H3061     1.0  0.46736  0.28409  0.68971  1.0000
  H   H3062     1.0  0.53920  0.30050  0.71665  1.0000
  H   H3063     1.0  0.55811  0.35507  0.61316  1.0000
  Fe  Fe201     1.0  0.39464  0.19392  0.84062  1.0000
  C   C1743     1.0  0.49264  0.29696  0.68107  1.0000
  H   H3064     1.0  0.40840  0.24652  0.68723  1.0000
  H   H3065     1.0  0.46785  0.36908  0.65429  1.0000
  H   H3066     1.0  0.54758  0.17606  0.78910  1.0000
  H   H3067     1.0  0.58673  0.36830  0.50299  1.0000
  H   H3068     1.0  0.57953  0.11641  0.87022  1.0000
  C   C1744     1.0  0.56128  0.14734  0.78411  1.0000
  H   H3069     1.0  0.56913  0.41333  0.74158  1.0000
  S   S394      1.0  0.57130  0.23615  0.79878  1.0000
  C   C1745     1.0  0.57982  0.39110  0.63557  1.0000
  C   C1746     1.0  0.39774  0.41295  0.72204  1.0000
  H   H3070     1.0  0.56196  0.18820  0.89443  1.0000
  C   C1747     1.0  0.40749  0.24438  0.76094  1.0000
  C   C1748     1.0  0.54081  0.29136  0.70644  1.0000
  H   H3071     1.0  0.56894  0.43683  0.63698  1.0000
  H   H3072     1.0  0.52880  0.29070  0.68350  1.0000
  C   C1749     1.0  0.44752  0.31909  0.73753  1.0000
  C   C1750     1.0  0.55228  0.42123  0.61692  1.0000
  H   H3073     1.0  0.43669  0.32717  0.72893  1.0000
  C   C1751     1.0  0.48015  0.36038  0.66064  1.0000
  H   H3074     1.0  0.53412  0.37438  0.50406  1.0000
  H   H3075     1.0  0.45905  0.31528  0.70172  1.0000
  C   C1752     1.0  0.54103  0.40723  0.61480  1.0000
  H   H3076     1.0  0.49182  0.33897  0.69375  1.0000
  C   C1753     1.0  0.58472  0.39973  0.61386  1.0000
  H   H3077     1.0  0.50408  0.28806  0.71520  1.0000
  C   C1754     1.0  0.52632  0.30011  0.69363  1.0000
  C   C1755     1.0  0.52278  0.40679  0.62998  1.0000
  N   N98       1.0  0.48989  0.30987  0.69475  1.0000
  H   H3078     1.0  0.54435  0.43611  0.61207  1.0000
  H   H3079     1.0  0.55120  0.41989  0.63234  1.0000
  H   H3080     1.0  0.53911  0.16903  0.77204  1.0000
  C   C1756     1.0  0.55137  0.17780  0.87597  1.0000
  H   H3081     1.0  0.52095  0.27627  0.84224  1.0000
  C   C1757     1.0  0.57109  0.34798  0.50068  1.0000
  S   S395      1.0  0.39621  0.33681  0.71992  1.0000
  H   H3082     1.0  0.40718  0.42509  0.74072  1.0000
  Fe  Fe202     1.0  0.40725  0.31182  0.70582  1.0000
  H   H3083     1.0  0.58396  0.38840  0.60698  1.0000
  H   H3084     1.0  0.53698  0.41194  0.60069  1.0000
  H   H3085     1.0  0.54958  0.39235  0.61591  1.0000
  C   C1758     1.0  0.39541  0.28352  0.74617  1.0000
  C   C1759     1.0  0.46749  0.31954  0.72545  1.0000
  C   C1760     1.0  0.56801  0.18118  0.88210  1.0000
  H   H3086     1.0  0.40028  0.39831  0.73115  1.0000
  H   H3087     1.0  0.56930  0.07101  0.80469  1.0000
  H   H3088     1.0  0.55701  0.29713  0.85116  1.0000
  H   H3089     1.0  0.56764  0.24030  0.86664  1.0000
  H   H3090     1.0  0.53212  0.15895  0.79707  1.0000
  C   C1761     1.0  0.47127  0.30916  0.70892  1.0000
  S   S396      1.0  0.41376  0.16780  0.83101  1.0000
  H   H3091     1.0  0.51352  0.42136  0.62918  1.0000
  H   H3092     1.0  0.51492  0.39688  0.62796  1.0000
  H   H3093     1.0  0.52629  0.40139  0.64428  1.0000
  H   H3094     1.0  0.47752  0.31228  0.73512  1.0000
  H   H3095     1.0  0.54182  0.19180  0.87156  1.0000
  C   C1762     1.0  0.58479  0.24784  0.88178  1.0000
  H   H3096     1.0  0.50480  0.33012  0.67327  1.0000
  C   C1763     1.0  0.57065  0.44211  0.68954  1.0000
  H   H3097     1.0  0.48944  0.26945  0.66342  1.0000
  H   H3098     1.0  0.46396  0.30694  0.67362  1.0000
  C   C1764     1.0  0.54683  0.28744  0.83201  1.0000
  H   H3099     1.0  0.57281  0.25594  0.89012  1.0000
  H   H3100     1.0  0.44554  0.30406  0.74303  1.0000
  H   H3101     1.0  0.44531  0.32579  0.74980  1.0000
  C   C1765     1.0  0.57309  0.36363  0.50996  1.0000
  H   H3102     1.0  0.57756  0.28862  0.80076  1.0000
  C   C1766     1.0  0.40003  0.37092  0.62870  1.0000
  H   H3103     1.0  0.50762  0.37144  0.49127  1.0000
  H   H3104     1.0  0.58457  0.33698  0.50136  1.0000
  C   C1767     1.0  0.56325  0.32427  0.79883  1.0000
  H   H3105     1.0  0.58661  0.05553  0.81800  1.0000
  H   H3106     1.0  0.57202  0.36373  0.75208  1.0000
  H   H3107     1.0  0.40791  0.37265  0.61367  1.0000
  H   H3108     1.0  0.39447  0.07787  0.85268  1.0000
  C   C1768     1.0  0.58071  0.43538  0.60672  1.0000
  S   S397      1.0  0.57744  0.19852  0.76840  1.0000
  C   C1769     1.0  0.58256  0.43673  0.62643  1.0000
  H   H3109     1.0  0.58241  0.26890  0.96931  1.0000
  H   H3110     1.0  0.39455  0.24170  0.72218  1.0000
  N   N99       1.0  0.56765  0.35422  0.48052  1.0000
  H   H3111     1.0  0.57885  0.46797  0.62017  1.0000
  H   H3112     1.0  0.56982  0.27437  0.84689  1.0000
  C   C1770     1.0  0.57326  0.35588  0.53112  1.0000
  H   H3113     1.0  0.58212  0.32790  0.81394  1.0000
  H   H3114     1.0  0.58625  0.17249  0.91691  1.0000
  H   H3115     1.0  0.55951  0.32552  0.82854  1.0000
  C   C1771     1.0  0.58183  0.23907  0.86849  1.0000
  C   C1772     1.0  0.58561  0.36485  0.75476  1.0000
  H   H3116     1.0  0.57536  0.32323  0.78644  1.0000
  Fe  Fe203     1.0  0.39221  0.17094  0.81362  1.0000
  C   C1773     1.0  0.58979  0.11708  0.85634  1.0000
  H   H3117     1.0  0.58764  0.35541  0.76874  1.0000
  C   C1774     1.0  0.58787  0.28785  0.80938  1.0000
  C   C1775     1.0  0.58854  0.30934  0.85124  1.0000
  C   C1776     1.0  0.59007  0.32607  0.64912  1.0000
  H   H3118     1.0  0.39368  0.10215  0.83890  1.0000
  H   H3119     1.0  0.55364  0.32070  0.47955  1.0000
  C   C1777     1.0  0.56853  0.31862  0.48094  1.0000
  H   H3120     1.0  0.57360  0.38263  0.47626  1.0000
  H   H3121     1.0  0.59021  0.19201  0.89716  1.0000
  H   H3122     1.0  0.56627  0.71081  0.42298  1.0000
  H   H3123     1.0  0.52279  0.62753  0.32022  1.0000
  C   C1778     1.0  0.56046  0.53644  0.33326  1.0000
  H   H3124     1.0  0.57629  0.79566  0.35024  1.0000
  H   H3125     1.0  0.57334  0.65323  0.43282  1.0000
  H   H3126     1.0  0.58212  0.90675  0.27875  1.0000
  H   H3127     1.0  0.42047  0.77016  0.36122  1.0000
  Fe  Fe204     1.0  0.41759  0.70429  0.30701  1.0000
  S   S398      1.0  0.44847  0.69859  0.30862  1.0000
  H   H3128     1.0  0.58856  0.54284  0.32251  1.0000
  H   H3129     1.0  0.41824  0.67789  0.36488  1.0000
  C   C1779     1.0  0.56871  0.93658  0.21708  1.0000
  Fe  Fe205     1.0  0.53745  0.73599  0.36508  1.0000
  S   S399      1.0  0.56218  0.73911  0.34080  1.0000
  S   S400      1.0  0.54344  0.72391  0.39459  1.0000
  Fe  Fe206     1.0  0.50918  0.74930  0.33911  1.0000
  S   S401      1.0  0.53173  0.75402  0.31251  1.0000
  S   S402      1.0  0.47807  0.75627  0.33761  1.0000
  Fe  Fe207     1.0  0.54806  0.72594  0.32613  1.0000
  S   S403      1.0  0.56764  0.70631  0.30776  1.0000
  Fe  Fe208     1.0  0.54413  0.76690  0.32918  1.0000
  S   S404      1.0  0.55957  0.79119  0.31538  1.0000
  S   S405      1.0  0.52470  0.71996  0.35157  1.0000
  S   S406      1.0  0.52010  0.76504  0.35473  1.0000
  H   H3130     1.0  0.47833  0.82650  0.21733  1.0000
  H   H3131     1.0  0.54057  0.88465  0.24348  1.0000
  S   S407      1.0  0.39189  0.85748  0.18353  1.0000
  H   H3132     1.0  0.45501  0.82981  0.23279  1.0000
  H   H3133     1.0  0.55505  0.76050  0.37852  1.0000
  Fe  Fe209     1.0  0.41087  0.83948  0.16328  1.0000
  H   H3134     1.0  0.46915  0.83393  0.25783  1.0000
  S   S408      1.0  0.44265  0.82993  0.16200  1.0000
  C   C1780     1.0  0.48924  0.76304  0.26275  1.0000
  C   C1781     1.0  0.48084  0.80423  0.25407  1.0000
  C   C1782     1.0  0.43594  0.76565  0.38291  1.0000
  H   H3135     1.0  0.48604  0.79763  0.24148  1.0000
  H   H3136     1.0  0.43675  0.67754  0.37665  1.0000
  H   H3137     1.0  0.39832  0.83996  0.22860  1.0000
  C   C1783     1.0  0.57327  0.84828  0.06750  1.0000
  Fe  Fe210     1.0  0.54848  0.84089  0.19356  1.0000
  S   S409      1.0  0.54394  0.86954  0.17371  1.0000
  S   S410      1.0  0.56515  0.81429  0.18310  1.0000
  Fe  Fe211     1.0  0.52516  0.85715  0.22777  1.0000
  S   S411      1.0  0.51907  0.88725  0.21041  1.0000
  S   S412      1.0  0.51216  0.85241  0.25906  1.0000
  Fe  Fe212     1.0  0.51373  0.87288  0.18976  1.0000
  S   S413      1.0  0.48887  0.88469  0.17500  1.0000
  Fe  Fe213     1.0  0.54987  0.88068  0.19628  1.0000
  C   C1784     1.0  0.57739  0.62761  0.41185  1.0000
  S   S414      1.0  0.51781  0.84328  0.20812  1.0000
  S   S415      1.0  0.55634  0.85157  0.21520  1.0000
  H   H3138     1.0  0.40623  0.76819  0.38524  1.0000
  C   C1785     1.0  0.52655  0.61255  0.31809  1.0000
  C   C1786     1.0  0.56430  0.92296  0.20973  1.0000
  H   H3139     1.0  0.42175  0.71060  0.34559  1.0000
  H   H3140     1.0  0.56293  0.85860  0.25522  1.0000
  H   H3141     1.0  0.39449  0.75486  0.46415  1.0000
  C   C1787     1.0  0.58536  0.57992  0.31640  1.0000
  H   H3142     1.0  0.54995  0.92059  0.21320  1.0000
  H   H3143     1.0  0.48909  0.73402  0.26152  1.0000
  H   H3144     1.0  0.58677  0.85007  0.06978  1.0000
  C   C1788     1.0  0.42639  0.70549  0.35938  1.0000
  C   C1789     1.0  0.49505  0.79688  0.30229  1.0000
  C   C1790     1.0  0.45462  0.84516  0.16694  1.0000
  C   C1791     1.0  0.44731  0.86492  0.16490  1.0000
  C   C1792     1.0  0.45782  0.87686  0.16767  1.0000
  C   C1793     1.0  0.47541  0.86908  0.17308  1.0000
  C   C1794     1.0  0.48231  0.84920  0.17591  1.0000
  C   C1795     1.0  0.47217  0.83735  0.17242  1.0000
  H   H3145     1.0  0.43382  0.87110  0.16064  1.0000
  H   H3146     1.0  0.45234  0.89222  0.16549  1.0000
  H   H3147     1.0  0.49570  0.84302  0.18027  1.0000
  H   H3148     1.0  0.47802  0.82213  0.17379  1.0000
  H   H3149     1.0  0.39080  0.63715  0.28960  1.0000
  C   C1796     1.0  0.40185  0.74392  0.35399  1.0000
  H   H3150     1.0  0.43560  0.75860  0.39814  1.0000
  C   C1797     1.0  0.54136  0.87247  0.12659  1.0000
  C   C1798     1.0  0.56687  0.51734  0.32680  1.0000
  H   H3151     1.0  0.51475  0.60521  0.32642  1.0000
  H   H3152     1.0  0.51407  0.90838  0.27193  1.0000
  H   H3153     1.0  0.41568  0.70565  0.38905  1.0000
  C   C1799     1.0  0.54688  0.80862  0.29961  1.0000
  C   C1800     1.0  0.52995  0.82044  0.30666  1.0000
  C   C1801     1.0  0.51972  0.83432  0.29404  1.0000
  C   C1802     1.0  0.52621  0.83617  0.27437  1.0000
  C   C1803     1.0  0.54332  0.82458  0.26730  1.0000
  C   C1804     1.0  0.55372  0.81086  0.27992  1.0000
  H   H3154     1.0  0.52467  0.81878  0.32188  1.0000
  H   H3155     1.0  0.50656  0.84340  0.29952  1.0000
  H   H3156     1.0  0.54831  0.82586  0.25214  1.0000
  H   H3157     1.0  0.56682  0.80169  0.27446  1.0000
  H   H3158     1.0  0.58992  0.68268  0.39905  1.0000
  H   H3159     1.0  0.55375  0.87390  0.08767  1.0000
  H   H3160     1.0  0.55041  0.58106  0.30731  1.0000
  H   H3161     1.0  0.40642  0.81540  0.21023  1.0000
  H   H3162     1.0  0.47004  0.80584  0.28989  1.0000
  H   H3163     1.0  0.52408  0.81396  0.17262  1.0000
  C   C1805     1.0  0.49153  0.74152  0.27144  1.0000
  H   H3164     1.0  0.56988  0.54391  0.38482  1.0000
  N   N100      1.0  0.57170  0.88089  0.26294  1.0000
  H   H3165     1.0  0.56570  0.82978  0.09466  1.0000
  C   C1806     1.0  0.45698  0.71526  0.31550  1.0000
  C   C1807     1.0  0.44604  0.73360  0.31675  1.0000
  C   C1808     1.0  0.45277  0.74621  0.32330  1.0000
  C   C1809     1.0  0.47054  0.74062  0.32840  1.0000
  C   C1810     1.0  0.48176  0.72253  0.32653  1.0000
  C   C1811     1.0  0.47495  0.70987  0.32016  1.0000
  H   H3166     1.0  0.43231  0.73794  0.31290  1.0000
  H   H3167     1.0  0.44415  0.76028  0.32452  1.0000
  H   H3168     1.0  0.49554  0.71815  0.33028  1.0000
  H   H3169     1.0  0.48355  0.69576  0.31905  1.0000
  C   C1812     1.0  0.57098  0.64291  0.33541  1.0000
  C   C1813     1.0  0.55398  0.65608  0.33953  1.0000
  C   C1814     1.0  0.55273  0.67566  0.33092  1.0000
  C   C1815     1.0  0.56832  0.68189  0.31784  1.0000
  S   S416      1.0  0.39516  0.85339  0.13936  1.0000
  H   H3170     1.0  0.55775  0.94466  0.22635  1.0000
  H   H3171     1.0  0.54199  0.65127  0.34978  1.0000
  H   H3172     1.0  0.53971  0.68590  0.33433  1.0000
  H   H3173     1.0  0.47458  0.76834  0.26025  1.0000
  C   C1816     1.0  0.51887  0.90429  0.25789  1.0000
  H   H3174     1.0  0.58069  0.66683  0.36130  1.0000
  C   C1817     1.0  0.41065  0.71296  0.37559  1.0000
  C   C1818     1.0  0.57150  0.87177  0.28370  1.0000
  C   C1819     1.0  0.52110  0.86654  0.10770  1.0000
  C   C1820     1.0  0.48558  0.80541  0.28479  1.0000
  C   C1821     1.0  0.55948  0.73444  0.39991  1.0000
  C   C1822     1.0  0.56278  0.75254  0.38960  1.0000
  C   C1823     1.0  0.57585  0.76055  0.39391  1.0000
  C   C1824     1.0  0.56062  0.84802  0.31372  1.0000
  C   C1825     1.0  0.56915  0.72453  0.41462  1.0000
  N   N101      1.0  0.56942  0.56963  0.32710  1.0000
  H   H3175     1.0  0.56211  0.63203  0.41793  1.0000
  C   C1826     1.0  0.58635  0.64907  0.32193  1.0000
  H   H3176     1.0  0.58128  0.51004  0.32944  1.0000
  C   C1827     1.0  0.55070  0.58099  0.32218  1.0000
  H   H3177     1.0  0.42465  0.77764  0.16313  1.0000
  H   H3178     1.0  0.58419  0.59281  0.32197  1.0000
  C   C1828     1.0  0.57375  0.55045  0.32163  1.0000
  H   H3179     1.0  0.48309  0.82228  0.31458  1.0000
  H   H3180     1.0  0.52820  0.61315  0.30270  1.0000
  H   H3181     1.0  0.58601  0.62750  0.42194  1.0000
  H   H3182     1.0  0.55691  0.50768  0.33490  1.0000
  C   C1829     1.0  0.42173  0.74053  0.37737  1.0000
  C   C1830     1.0  0.58493  0.66852  0.31297  1.0000
  H   H3183     1.0  0.43488  0.73670  0.36674  1.0000
  H   H3184     1.0  0.48425  0.87014  0.10336  1.0000
  N   N102      1.0  0.57847  0.66227  0.39179  1.0000
  H   H3185     1.0  0.53355  0.87586  0.26864  1.0000
  C   C1831     1.0  0.41348  0.83276  0.22493  1.0000
  H   H3186     1.0  0.39111  0.77400  0.35821  1.0000
  H   H3187     1.0  0.54568  0.54263  0.33130  1.0000
  H   H3188     1.0  0.44202  0.67864  0.35141  1.0000
  C   C1832     1.0  0.54074  0.83907  0.12654  1.0000
  H   H3189     1.0  0.46781  0.84909  0.22427  1.0000
  H   H3190     1.0  0.50522  0.76593  0.28198  1.0000
  H   H3191     1.0  0.41556  0.74514  0.34388  1.0000
  H   H3192     1.0  0.48725  0.82066  0.28001  1.0000
  H   H3193     1.0  0.57525  0.92138  0.25718  1.0000
  H   H3194     1.0  0.42512  0.73234  0.39136  1.0000
  C   C1833     1.0  0.57851  0.81872  0.15963  1.0000
  H   H3195     1.0  0.57472  0.83808  0.31262  1.0000
  C   C1834     1.0  0.58515  0.67253  0.37149  1.0000
  H   H3196     1.0  0.46626  0.80139  0.26030  1.0000
  C   C1835     1.0  0.43107  0.68353  0.36343  1.0000
  C   C1836     1.0  0.49226  0.77407  0.27637  1.0000
  H   H3197     1.0  0.55499  0.56170  0.35653  1.0000
  C   C1837     1.0  0.52921  0.81569  0.15697  1.0000
  H   H3198     1.0  0.46985  0.80321  0.32415  1.0000
  H   H3199     1.0  0.49202  0.80078  0.33080  1.0000
  H   H3200     1.0  0.48019  0.77247  0.28888  1.0000
  C   C1838     1.0  0.48429  0.80647  0.31892  1.0000
  N   N103      1.0  0.43898  0.78281  0.21200  1.0000
  C   C1839     1.0  0.43557  0.80315  0.21458  1.0000
  C   C1840     1.0  0.45979  0.77590  0.20379  1.0000
  C   C1841     1.0  0.42769  0.78310  0.19780  1.0000
  C   C1842     1.0  0.43221  0.76932  0.23029  1.0000
  C   C1843     1.0  0.44183  0.76700  0.24695  1.0000
  C   C1844     1.0  0.41468  0.81301  0.22132  1.0000
  C   C1845     1.0  0.43067  0.76396  0.19140  1.0000
  C   C1846     1.0  0.47450  0.78324  0.20992  1.0000
  C   C1847     1.0  0.49479  0.77288  0.20304  1.0000
  C   C1848     1.0  0.43172  0.75558  0.26533  1.0000
  H   H3201     1.0  0.57315  0.55251  0.30644  1.0000
  S   S417      1.0  0.40947  0.69119  0.28715  1.0000
  H   H3202     1.0  0.44119  0.81249  0.20088  1.0000
  H   H3203     1.0  0.44355  0.80403  0.22477  1.0000
  H   H3204     1.0  0.46348  0.75988  0.20693  1.0000
  H   H3205     1.0  0.46271  0.78056  0.18792  1.0000
  H   H3206     1.0  0.43089  0.79440  0.18475  1.0000
  H   H3207     1.0  0.41223  0.78697  0.20371  1.0000
  H   H3208     1.0  0.41654  0.77345  0.23514  1.0000
  H   H3209     1.0  0.43463  0.75454  0.22797  1.0000
  H   H3210     1.0  0.44174  0.78102  0.24972  1.0000
  H   H3211     1.0  0.45663  0.75877  0.24380  1.0000
  S   S418      1.0  0.57391  0.89652  0.18677  1.0000
  H   H3212     1.0  0.40779  0.80436  0.23472  1.0000
  H   H3213     1.0  0.42530  0.75278  0.20344  1.0000
  H   H3214     1.0  0.44585  0.75843  0.18564  1.0000
  H   H3215     1.0  0.47365  0.79882  0.20360  1.0000
  H   H3216     1.0  0.47201  0.78129  0.22552  1.0000
  H   H3217     1.0  0.49670  0.75725  0.20956  1.0000
  H   H3218     1.0  0.49813  0.77498  0.18727  1.0000
  H   H3219     1.0  0.50495  0.77883  0.20717  1.0000
  H   H3220     1.0  0.43141  0.74121  0.26350  1.0000
  H   H3221     1.0  0.43932  0.75344  0.27693  1.0000
  H   H3222     1.0  0.41693  0.76351  0.26953  1.0000
  H   H3223     1.0  0.54290  0.80534  0.15426  1.0000
  H   H3224     1.0  0.55604  0.61047  0.31638  1.0000
  C   C1849     1.0  0.53689  0.88857  0.25759  1.0000
  H   H3225     1.0  0.42052  0.84197  0.21198  1.0000
  C   C1850     1.0  0.58536  0.55424  0.35619  1.0000
  H   H3226     1.0  0.55990  0.85835  0.32242  1.0000
  C   C1851     1.0  0.51360  0.79719  0.26040  1.0000
  C   C1852     1.0  0.52408  0.78843  0.24286  1.0000
  C   C1853     1.0  0.54385  0.79312  0.23520  1.0000
  H   H3227     1.0  0.51458  0.81254  0.25672  1.0000
  H   H3228     1.0  0.52240  0.79027  0.27134  1.0000
  H   H3229     1.0  0.51635  0.79407  0.23104  1.0000
  H   H3230     1.0  0.52614  0.77254  0.24695  1.0000
  H   H3231     1.0  0.49222  0.83083  0.24257  1.0000
  H   H3232     1.0  0.49918  0.76496  0.24879  1.0000
  H   H3233     1.0  0.55131  0.78623  0.22297  1.0000
  H   H3234     1.0  0.54279  0.80888  0.23010  1.0000
  H   H3235     1.0  0.55245  0.78770  0.24638  1.0000
  C   C1854     1.0  0.46932  0.83324  0.22922  1.0000
  N   N104      1.0  0.49328  0.79508  0.26853  1.0000
  H   H3236     1.0  0.55633  0.90723  0.24774  1.0000
  C   C1855     1.0  0.54287  0.90541  0.12972  1.0000
  H   H3237     1.0  0.49993  0.85368  0.13062  1.0000
  H   H3238     1.0  0.57657  0.83618  0.06019  1.0000
  N   N105      1.0  0.53935  0.85951  0.11499  1.0000
  S   S419      1.0  0.39457  0.81578  0.17425  1.0000
  H   H3239     1.0  0.55398  0.89473  0.10420  1.0000
  H   H3240     1.0  0.53464  0.83062  0.12021  1.0000
  C   C1856     1.0  0.41967  0.76216  0.37625  1.0000
  H   H3241     1.0  0.50605  0.73529  0.27424  1.0000
  H   H3242     1.0  0.55608  0.89936  0.13538  1.0000
  H   H3243     1.0  0.52983  0.87290  0.13945  1.0000
  H   H3244     1.0  0.57546  0.87343  0.23592  1.0000
  C   C1857     1.0  0.54504  0.60212  0.32471  1.0000
  C   C1858     1.0  0.55728  0.66934  0.39712  1.0000
  C   C1859     1.0  0.57496  0.86610  0.25121  1.0000
  H   H3245     1.0  0.54244  0.86739  0.29581  1.0000
  H   H3246     1.0  0.49552  0.78132  0.30737  1.0000
  H   H3247     1.0  0.56516  0.67858  0.42653  1.0000
  C   C1860     1.0  0.54540  0.66695  0.38405  1.0000
  H   H3248     1.0  0.51797  0.84600  0.15126  1.0000
  H   H3249     1.0  0.58507  0.95954  0.15033  1.0000
  C   C1861     1.0  0.48527  0.87817  0.11356  1.0000
  C   C1862     1.0  0.52418  0.67373  0.39147  1.0000
  C   C1863     1.0  0.57802  0.66687  0.42565  1.0000
  H   H3250     1.0  0.55421  0.68490  0.39709  1.0000
  H   H3251     1.0  0.55131  0.66245  0.41188  1.0000
  H   H3252     1.0  0.47203  0.87866  0.12474  1.0000
  H   H3253     1.0  0.48099  0.73896  0.28499  1.0000
  H   H3254     1.0  0.44987  0.75999  0.37425  1.0000
  H   H3255     1.0  0.43976  0.71024  0.35770  1.0000
  H   H3256     1.0  0.53038  0.90550  0.14180  1.0000
  H   H3257     1.0  0.54824  0.90296  0.27272  1.0000
  H   H3258     1.0  0.56702  0.86160  0.05810  1.0000
  C   C1864     1.0  0.53183  0.83630  0.14816  1.0000
  H   H3259     1.0  0.54900  0.67587  0.36956  1.0000
  H   H3260     1.0  0.54787  0.65171  0.38314  1.0000
  H   H3261     1.0  0.52113  0.88069  0.09754  1.0000
  C   C1865     1.0  0.58725  0.93992  0.21224  1.0000
  H   H3262     1.0  0.57962  0.84773  0.15892  1.0000
  H   H3263     1.0  0.50229  0.87667  0.13307  1.0000
  C   C1866     1.0  0.50233  0.86822  0.12283  1.0000
  H   H3264     1.0  0.51856  0.81238  0.15103  1.0000
  C   C1867     1.0  0.57842  0.91293  0.19737  1.0000
  H   H3265     1.0  0.52103  0.68905  0.39247  1.0000
  H   H3266     1.0  0.51607  0.67247  0.38148  1.0000
  H   H3267     1.0  0.51943  0.66481  0.40571  1.0000
  H   H3268     1.0  0.57441  0.59613  0.29050  1.0000
  H   H3269     1.0  0.50739  0.89886  0.25537  1.0000
  H   H3270     1.0  0.56820  0.88297  0.29214  1.0000
  H   H3271     1.0  0.39480  0.65609  0.37211  1.0000
  H   H3272     1.0  0.50984  0.79892  0.29864  1.0000
  H   H3273     1.0  0.42218  0.75293  0.17139  1.0000
  C   C1868     1.0  0.58351  0.83656  0.15099  1.0000
  H   H3274     1.0  0.52138  0.91717  0.24648  1.0000
  H   H3275     1.0  0.54313  0.92050  0.12196  1.0000
  H   H3276     1.0  0.53893  0.57391  0.33124  1.0000
  C   C1869     1.0  0.55574  0.85980  0.09793  1.0000
  H   H3277     1.0  0.55592  0.83171  0.12598  1.0000
  C   C1870     1.0  0.54155  0.89371  0.11622  1.0000
  H   H3278     1.0  0.48637  0.89316  0.10604  1.0000
  C   C1871     1.0  0.47845  0.82633  0.24665  1.0000
  C   C1872     1.0  0.58285  0.73216  0.41834  1.0000
  H   H3279     1.0  0.54614  0.84259  0.08337  1.0000
  H   H3280     1.0  0.56931  0.85831  0.10240  1.0000
  H   H3281     1.0  0.52836  0.90060  0.11076  1.0000
  H   H3282     1.0  0.55812  0.84761  0.28594  1.0000
  H   H3283     1.0  0.57799  0.56584  0.38179  1.0000
  H   H3284     1.0  0.54129  0.83952  0.15559  1.0000
  H   H3285     1.0  0.54276  0.60260  0.33990  1.0000
  H   H3286     1.0  0.55476  0.86651  0.13203  1.0000
  H   H3287     1.0  0.54964  0.83935  0.32116  1.0000
  C   C1873     1.0  0.55936  0.84396  0.08650  1.0000
  H   H3288     1.0  0.42021  0.83130  0.23700  1.0000
  C   C1874     1.0  0.55710  0.85863  0.29388  1.0000
  H   H3289     1.0  0.43462  0.78133  0.38122  1.0000
  H   H3290     1.0  0.51999  0.85680  0.09920  1.0000
  C   C1875     1.0  0.55355  0.89562  0.26053  1.0000
  H   H3291     1.0  0.56051  0.53311  0.34866  1.0000
  H   H3292     1.0  0.39382  0.69180  0.25062  1.0000
  H   H3293     1.0  0.57475  0.59796  0.42384  1.0000
  H   H3294     1.0  0.57826  0.63758  0.38145  1.0000
  H   H3295     1.0  0.56603  0.58136  0.35168  1.0000
  C   C1876     1.0  0.58068  0.60683  0.41002  1.0000
  S   S420      1.0  0.57355  0.61901  0.34800  1.0000
  C   C1877     1.0  0.56794  0.56719  0.34816  1.0000
  H   H3296     1.0  0.56715  0.51965  0.31137  1.0000
  C   C1878     1.0  0.41977  0.76673  0.17581  1.0000
  H   H3297     1.0  0.58550  0.88066  0.15331  1.0000
  C   C1879     1.0  0.58165  0.55166  0.37779  1.0000
  C   C1880     1.0  0.58742  0.58615  0.29446  1.0000
  H   H3298     1.0  0.58013  0.79039  0.15588  1.0000
  N   N106      1.0  0.40534  0.73452  0.37383  1.0000
  S   S421      1.0  0.39936  0.73342  0.29902  1.0000
  H   H3299     1.0  0.40428  0.77142  0.18113  1.0000
  H   H3300     1.0  0.57789  0.77479  0.38632  1.0000
  H   H3301     1.0  0.57829  0.68814  0.36933  1.0000
  H   H3302     1.0  0.57367  0.60588  0.39897  1.0000
  H   H3303     1.0  0.58270  0.82829  0.24560  1.0000
  H   H3304     1.0  0.39888  0.73142  0.41432  1.0000
  C   C1881     1.0  0.58372  0.64093  0.39245  1.0000
  H   H3305     1.0  0.58312  0.67032  0.45179  1.0000
  C   C1882     1.0  0.58823  0.66750  0.40451  1.0000
  H   H3306     1.0  0.58889  0.53971  0.35307  1.0000
  S   S422      1.0  0.39565  0.69372  0.33198  1.0000
  H   H3307     1.0  0.40074  0.67030  0.24137  1.0000
  C   C1883     1.0  0.58645  0.75009  0.40777  1.0000
  H   H3308     1.0  0.39795  0.70732  0.37643  1.0000
  H   H3309     1.0  0.39540  0.73471  0.34891  1.0000
  H   H3310     1.0  0.40409  0.77597  0.32334  1.0000
  C   C1884     1.0  0.58392  0.80421  0.14931  1.0000
  H   H3311     1.0  0.58590  0.86342  0.28561  1.0000
  C   C1885     1.0  0.58615  0.90941  0.26303  1.0000
  H   H3312     1.0  0.39067  0.66905  0.26636  1.0000
  C   C1886     1.0  0.58810  0.89121  0.25539  1.0000
  H   H3313     1.0  0.39087  0.58454  0.29645  1.0000
  H   H3314     1.0  0.58966  0.76297  0.34325  1.0000
  C   C1887     1.0  0.58183  0.67153  0.74323  1.0000
  C   C1888     1.0  0.51665  0.81983  0.93046  1.0000
  S   S423      1.0  0.41414  0.73928  0.69330  1.0000
  H   H3315     1.0  0.57082  0.77216  0.69485  1.0000
  C   C1889     1.0  0.49865  0.82448  0.94541  1.0000
  H   H3316     1.0  0.55268  0.71686  0.59037  1.0000
  C   C1890     1.0  0.57831  0.89947  0.82914  1.0000
  H   H3317     1.0  0.51308  0.90726  0.81977  1.0000
  H   H3318     1.0  0.54100  0.89821  0.87078  1.0000
  H   H3319     1.0  0.52647  0.84387  0.93326  1.0000
  H   H3320     1.0  0.49414  0.76670  0.82675  1.0000
  C   C1891     1.0  0.56648  0.73331  0.65108  1.0000
  Fe  Fe214     1.0  0.50589  0.72277  0.72912  1.0000
  S   S424      1.0  0.51057  0.74737  0.70433  1.0000
  S   S425      1.0  0.47659  0.71706  0.74337  1.0000
  Fe  Fe215     1.0  0.54753  0.71177  0.73196  1.0000
  S   S426      1.0  0.55546  0.73560  0.70747  1.0000
  S   S427      1.0  0.57107  0.69478  0.74713  1.0000
  Fe  Fe216     1.0  0.52872  0.75373  0.72056  1.0000
  S   S428      1.0  0.52617  0.78389  0.72352  1.0000
  Fe  Fe217     1.0  0.53687  0.72689  0.69358  1.0000
  S   S429      1.0  0.54514  0.72567  0.66261  1.0000
  S   S430      1.0  0.52212  0.73071  0.74633  1.0000
  S   S431      1.0  0.53076  0.70150  0.71713  1.0000
  H   H3321     1.0  0.40364  0.62720  0.73338  1.0000
  H   H3322     1.0  0.51979  0.71462  0.81738  1.0000
  H   H3323     1.0  0.57488  0.74173  0.55289  1.0000
  H   H3324     1.0  0.53760  0.95112  0.77696  1.0000
  H   H3325     1.0  0.48388  0.80032  0.72457  1.0000
  C   C1892     1.0  0.58101  0.67224  0.67967  1.0000
  H   H3326     1.0  0.55113  0.82823  0.94662  1.0000
  H   H3327     1.0  0.55551  0.75025  0.62643  1.0000
  S   S432      1.0  0.41702  0.80553  0.79508  1.0000
  H   H3328     1.0  0.54384  0.78709  0.67855  1.0000
  C   C1893     1.0  0.55494  0.73124  0.59002  1.0000
  C   C1894     1.0  0.52591  0.83752  0.92153  1.0000
  C   C1895     1.0  0.55394  0.78517  0.66495  1.0000
  C   C1896     1.0  0.54715  0.80553  0.89324  1.0000
  Fe  Fe218     1.0  0.41947  0.83469  0.79651  1.0000
  S   S433      1.0  0.44756  0.84404  0.78452  1.0000
  H   H3329     1.0  0.58914  0.74516  0.50040  1.0000
  Fe  Fe219     1.0  0.57100  0.84731  0.80011  1.0000
  S   S434      1.0  0.55694  0.83964  0.83085  1.0000
  C   C1897     1.0  0.56773  0.74548  0.63300  1.0000
  Fe  Fe220     1.0  0.57203  0.80830  0.79298  1.0000
  S   S435      1.0  0.55848  0.79737  0.82329  1.0000
  C   C1898     1.0  0.58273  0.72900  0.56177  1.0000
  Fe  Fe221     1.0  0.53886  0.82625  0.82063  1.0000
  S   S436      1.0  0.50814  0.82782  0.83550  1.0000
  H   H3330     1.0  0.40461  0.75699  0.76351  1.0000
  S   S437      1.0  0.58143  0.78762  0.77325  1.0000
  S   S438      1.0  0.55101  0.83634  0.78961  1.0000
  H   H3331     1.0  0.51999  0.78639  0.85164  1.0000
  C   C1899     1.0  0.46414  0.83926  0.79900  1.0000
  C   C1900     1.0  0.48228  0.84316  0.79060  1.0000
  C   C1901     1.0  0.49602  0.83922  0.80161  1.0000
  C   C1902     1.0  0.49150  0.83190  0.82122  1.0000
  C   C1903     1.0  0.47331  0.82816  0.82969  1.0000
  C   C1904     1.0  0.45970  0.83163  0.81857  1.0000
  H   H3332     1.0  0.48579  0.84898  0.77544  1.0000
  H   H3333     1.0  0.51000  0.84199  0.79495  1.0000
  H   H3334     1.0  0.46973  0.82252  0.84487  1.0000
  H   H3335     1.0  0.44572  0.82861  0.82515  1.0000
  H   H3336     1.0  0.52577  0.80708  0.87739  1.0000
  N   N107      1.0  0.51664  0.75509  0.80518  1.0000
  H   H3337     1.0  0.46599  0.79189  0.75503  1.0000
  H   H3338     1.0  0.39090  0.65104  0.68607  1.0000
  H   H3339     1.0  0.53919  0.79831  0.90680  1.0000
  H   H3340     1.0  0.43865  0.77609  0.69030  1.0000
  H   H3341     1.0  0.56101  0.93980  0.76626  1.0000
  H   H3342     1.0  0.51203  0.85992  0.85392  1.0000
  H   H3343     1.0  0.57741  0.74663  0.58296  1.0000
  C   C1905     1.0  0.56660  0.72556  0.78550  1.0000
  H   H3344     1.0  0.50209  0.82834  0.95734  1.0000
  H   H3345     1.0  0.56926  0.80080  0.70072  1.0000
  H   H3346     1.0  0.56897  0.87543  0.82603  1.0000
  H   H3347     1.0  0.54131  0.89411  0.89566  1.0000
  C   C1906     1.0  0.54560  0.94014  0.76850  1.0000
  H   H3348     1.0  0.56208  0.52283  0.73989  1.0000
  C   C1907     1.0  0.41119  0.68787  0.76664  1.0000
  S   S439      1.0  0.39620  0.85044  0.78059  1.0000
  H   H3349     1.0  0.44264  0.78758  0.75948  1.0000
  H   H3350     1.0  0.51534  0.92599  0.76910  1.0000
  H   H3351     1.0  0.53829  0.72283  0.78752  1.0000
  C   C1908     1.0  0.58217  0.72754  0.65977  1.0000
  H   H3352     1.0  0.49799  0.72453  0.83185  1.0000
  S   S440      1.0  0.57971  0.87573  0.78539  1.0000
  H   H3353     1.0  0.48819  0.83658  0.93898  1.0000
  H   H3354     1.0  0.41803  0.77473  0.70951  1.0000
  C   C1909     1.0  0.54182  0.78526  0.73683  1.0000
  C   C1910     1.0  0.53945  0.80195  0.74347  1.0000
  C   C1911     1.0  0.55127  0.80276  0.75501  1.0000
  C   C1912     1.0  0.56598  0.78712  0.75928  1.0000
  C   C1913     1.0  0.56881  0.77077  0.75195  1.0000
  C   C1914     1.0  0.55658  0.76971  0.74100  1.0000
  H   H3355     1.0  0.52828  0.81416  0.73992  1.0000
  H   H3356     1.0  0.54920  0.81556  0.76032  1.0000
  C   C1915     1.0  0.54700  0.88798  0.88273  1.0000
  H   H3357     1.0  0.55861  0.75682  0.73584  1.0000
  H   H3358     1.0  0.41189  0.73042  0.85080  1.0000
  H   H3359     1.0  0.41688  0.70451  0.85537  1.0000
  H   H3360     1.0  0.56676  0.85137  0.89582  1.0000
  H   H3361     1.0  0.41198  0.74460  0.80417  1.0000
  C   C1916     1.0  0.58130  0.64249  0.73416  1.0000
  C   C1917     1.0  0.57259  0.66128  0.73656  1.0000
  H   H3362     1.0  0.41086  0.68202  0.73342  1.0000
  C   C1918     1.0  0.47500  0.79550  0.71762  1.0000
  H   H3363     1.0  0.57399  0.63452  0.72925  1.0000
  H   H3364     1.0  0.55857  0.66765  0.73369  1.0000
  H   H3365     1.0  0.53935  0.73374  0.81669  1.0000
  H   H3366     1.0  0.51555  0.84844  0.91380  1.0000
  C   C1919     1.0  0.54778  0.50271  0.76153  1.0000
  H   H3367     1.0  0.51155  0.76428  0.85960  1.0000
  H   H3368     1.0  0.43362  0.77925  0.73462  1.0000
  H   H3369     1.0  0.49673  0.78620  0.84902  1.0000
  C   C1920     1.0  0.46653  0.75493  0.77351  1.0000
  C   C1921     1.0  0.52019  0.77342  0.82871  1.0000
  H   H3370     1.0  0.47631  0.76131  0.77760  1.0000
  H   H3371     1.0  0.44042  0.80717  0.69576  1.0000
  H   H3372     1.0  0.55574  0.83183  0.87904  1.0000
  H   H3373     1.0  0.51267  0.93101  0.79161  1.0000
  H   H3374     1.0  0.54945  0.80734  0.86313  1.0000
  H   H3375     1.0  0.54389  0.78533  0.87849  1.0000
  C   C1922     1.0  0.57922  0.81072  0.94436  1.0000
  H   H3376     1.0  0.40551  0.73021  0.79157  1.0000
  C   C1923     1.0  0.50959  0.76009  0.82449  1.0000
  C   C1924     1.0  0.39601  0.71844  0.83774  1.0000
  C   C1925     1.0  0.54114  0.80113  0.87707  1.0000
  C   C1926     1.0  0.44207  0.84920  0.73597  1.0000
  H   H3377     1.0  0.41952  0.80675  0.71425  1.0000
  C   C1927     1.0  0.49750  0.80729  0.68718  1.0000
  H   H3378     1.0  0.53030  0.86072  0.75749  1.0000
  H   H3379     1.0  0.41004  0.77217  0.77600  1.0000
  C   C1928     1.0  0.42616  0.78467  0.69841  1.0000
  C   C1929     1.0  0.43127  0.73459  0.70729  1.0000
  C   C1930     1.0  0.42607  0.73231  0.72709  1.0000
  C   C1931     1.0  0.44009  0.72710  0.73800  1.0000
  C   C1932     1.0  0.45936  0.72491  0.72917  1.0000
  C   C1933     1.0  0.46456  0.72814  0.70930  1.0000
  C   C1934     1.0  0.45054  0.73286  0.69841  1.0000
  H   H3380     1.0  0.41126  0.73436  0.73401  1.0000
  H   H3381     1.0  0.43601  0.72466  0.75335  1.0000
  H   H3382     1.0  0.47941  0.72644  0.70235  1.0000
  H   H3383     1.0  0.45467  0.73491  0.68307  1.0000
  H   H3384     1.0  0.54398  0.74488  0.77282  1.0000
  Fe  Fe222     1.0  0.39233  0.82112  0.78142  1.0000
  H   H3385     1.0  0.57726  0.71658  0.56110  1.0000
  C   C1935     1.0  0.57356  0.78764  0.66531  1.0000
  C   C1936     1.0  0.53672  0.87359  0.75094  1.0000
  H   H3386     1.0  0.49002  0.88863  0.79739  1.0000
  H   H3387     1.0  0.53656  0.87750  0.73551  1.0000
  H   H3388     1.0  0.44948  0.92533  0.81610  1.0000
  C   C1937     1.0  0.55125  0.85350  0.90165  1.0000
  H   H3389     1.0  0.53466  0.89230  0.81124  1.0000
  H   H3390     1.0  0.54092  0.88169  0.78311  1.0000
  H   H3391     1.0  0.48230  0.78050  0.71673  1.0000
  H   H3392     1.0  0.45659  0.75609  0.74872  1.0000
  C   C1938     1.0  0.45688  0.78563  0.74973  1.0000
  H   H3393     1.0  0.57307  0.89700  0.84437  1.0000
  H   H3394     1.0  0.52086  0.86412  0.81937  1.0000
  H   H3395     1.0  0.52038  0.87218  0.78810  1.0000
  C   C1939     1.0  0.51546  0.87388  0.84531  1.0000
  C   C1940     1.0  0.43250  0.79759  0.70739  1.0000
  H   H3396     1.0  0.49503  0.69647  0.82188  1.0000
  C   C1941     1.0  0.58329  0.50086  0.75439  1.0000
  H   H3397     1.0  0.49724  0.87742  0.82621  1.0000
  C   C1942     1.0  0.51247  0.87686  0.82512  1.0000
  H   H3398     1.0  0.55173  0.87001  0.75254  1.0000
  H   H3399     1.0  0.48162  0.91023  0.82158  1.0000
  H   H3400     1.0  0.55037  0.73364  0.60477  1.0000
  C   C1943     1.0  0.57588  0.73222  0.58248  1.0000
  H   H3401     1.0  0.48196  0.93077  0.80197  1.0000
  H   H3402     1.0  0.54162  0.94429  0.75438  1.0000
  H   H3403     1.0  0.42735  0.61238  0.73005  1.0000
  N   N108      1.0  0.54516  0.83435  0.90845  1.0000
  H   H3404     1.0  0.53184  0.90306  0.75243  1.0000
  C   C1944     1.0  0.58353  0.82087  0.70417  1.0000
  H   H3405     1.0  0.42708  0.75105  0.77049  1.0000
  C   C1945     1.0  0.58339  0.80055  0.70309  1.0000
  H   H3406     1.0  0.44208  0.85614  0.72077  1.0000
  C   C1946     1.0  0.45929  0.91615  0.80649  1.0000
  H   H3407     1.0  0.48003  0.76072  0.74415  1.0000
  H   H3408     1.0  0.46814  0.82895  0.73008  1.0000
  H   H3409     1.0  0.50366  0.81467  0.69453  1.0000
  H   H3410     1.0  0.51071  0.89345  0.75803  1.0000
  C   C1947     1.0  0.54164  0.92031  0.77907  1.0000
  C   C1948     1.0  0.47985  0.91574  0.80663  1.0000
  H   H3411     1.0  0.45340  0.82263  0.75332  1.0000
  H   H3412     1.0  0.51092  0.74680  0.83588  1.0000
  C   C1949     1.0  0.54427  0.82758  0.89132  1.0000
  C   C1950     1.0  0.44428  0.78555  0.72257  1.0000
  C   C1951     1.0  0.44430  0.81626  0.73028  1.0000
  N   N109      1.0  0.51473  0.90103  0.79251  1.0000
  H   H3413     1.0  0.45630  0.90142  0.81159  1.0000
  C   C1952     1.0  0.50507  0.72279  0.81715  1.0000
  H   H3414     1.0  0.54656  0.91672  0.79265  1.0000
  C   C1953     1.0  0.41175  0.75710  0.77480  1.0000
  N   N110      1.0  0.45517  0.79599  0.72959  1.0000
  C   C1954     1.0  0.49606  0.78754  0.79105  1.0000
  H   H3415     1.0  0.49847  0.81516  0.67210  1.0000
  H   H3416     1.0  0.45645  0.92215  0.79191  1.0000
  C   C1955     1.0  0.52545  0.89042  0.76019  1.0000
  H   H3417     1.0  0.50536  0.81209  0.77044  1.0000
  S   S441      1.0  0.40037  0.83405  0.82547  1.0000
  H   H3418     1.0  0.50601  0.79244  0.68746  1.0000
  H   H3419     1.0  0.54597  0.74248  0.58099  1.0000
  H   H3420     1.0  0.54526  0.51074  0.77289  1.0000
  H   H3421     1.0  0.48061  0.81201  0.77365  1.0000
  H   H3422     1.0  0.47135  0.79984  0.68851  1.0000
  C   C1956     1.0  0.52017  0.92017  0.78284  1.0000
  H   H3423     1.0  0.50603  0.88556  0.85222  1.0000
  H   H3424     1.0  0.53046  0.87369  0.84505  1.0000
  C   C1957     1.0  0.51905  0.89523  0.81218  1.0000
  H   H3425     1.0  0.55043  0.90990  0.77030  1.0000
  H   H3426     1.0  0.49066  0.90935  0.77887  1.0000
  C   C1958     1.0  0.55994  0.82029  0.91862  1.0000
  H   H3427     1.0  0.51958  0.78732  0.81816  1.0000
  H   H3428     1.0  0.44861  0.85758  0.74188  1.0000
  C   C1959     1.0  0.46541  0.76371  0.75271  1.0000
  H   H3429     1.0  0.55476  0.77066  0.66274  1.0000
  H   H3430     1.0  0.49814  0.79612  0.76023  1.0000
  C   C1960     1.0  0.57603  0.88722  0.81876  1.0000
  H   H3431     1.0  0.50164  0.70778  0.79714  1.0000
  H   H3432     1.0  0.46895  0.82205  0.69576  1.0000
  C   C1961     1.0  0.52583  0.88565  0.78170  1.0000
  H   H3433     1.0  0.54889  0.86049  0.91381  1.0000
  C   C1962     1.0  0.49389  0.90302  0.79329  1.0000
  N   N111      1.0  0.43883  0.66727  0.72142  1.0000
  C   C1963     1.0  0.45780  0.65854  0.72704  1.0000
  C   C1964     1.0  0.42925  0.65140  0.72201  1.0000
  C   C1965     1.0  0.44276  0.67825  0.70095  1.0000
  C   C1966     1.0  0.42599  0.68083  0.73368  1.0000
  C   C1967     1.0  0.42790  0.67631  0.75480  1.0000
  C   C1968     1.0  0.47078  0.67297  0.72390  1.0000
  C   C1969     1.0  0.42530  0.68721  0.69156  1.0000
  C   C1970     1.0  0.42462  0.63751  0.74148  1.0000
  C   C1971     1.0  0.41664  0.62126  0.73942  1.0000
  H   H3434     1.0  0.58286  0.78630  0.65120  1.0000
  C   C1972     1.0  0.48630  0.66485  0.73551  1.0000
  C   C1973     1.0  0.43095  0.69909  0.67149  1.0000
  H   H3435     1.0  0.46598  0.64734  0.71883  1.0000
  H   H3436     1.0  0.45607  0.65073  0.74213  1.0000
  H   H3437     1.0  0.41525  0.65753  0.71786  1.0000
  H   H3438     1.0  0.43798  0.64266  0.71145  1.0000
  H   H3439     1.0  0.45321  0.66886  0.69181  1.0000
  H   H3440     1.0  0.44935  0.69054  0.69979  1.0000
  H   H3441     1.0  0.42843  0.69567  0.72761  1.0000
  C   C1974     1.0  0.40547  0.71763  0.85387  1.0000
  H   H3442     1.0  0.44104  0.68010  0.75570  1.0000
  H   H3443     1.0  0.42860  0.66096  0.76171  1.0000
  H   H3444     1.0  0.47788  0.67634  0.70864  1.0000
  H   H3445     1.0  0.46248  0.68667  0.72780  1.0000
  H   H3446     1.0  0.41455  0.69676  0.70016  1.0000
  H   H3447     1.0  0.41873  0.67602  0.69005  1.0000
  H   H3448     1.0  0.43734  0.63079  0.74775  1.0000
  C   C1975     1.0  0.58181  0.77217  0.68142  1.0000
  H   H3449     1.0  0.41031  0.70353  0.76086  1.0000
  C   C1976     1.0  0.56510  0.50719  0.74610  1.0000
  H   H3450     1.0  0.40723  0.71756  0.82477  1.0000
  H   H3451     1.0  0.54643  0.86391  0.87234  1.0000
  H   H3452     1.0  0.56245  0.79876  0.89256  1.0000
  H   H3453     1.0  0.53066  0.83484  0.88659  1.0000
  H   H3454     1.0  0.49519  0.65120  0.73184  1.0000
  H   H3455     1.0  0.49556  0.67539  0.73235  1.0000
  H   H3456     1.0  0.47994  0.66233  0.75100  1.0000
  H   H3457     1.0  0.43805  0.71047  0.67173  1.0000
  H   H3458     1.0  0.44069  0.68975  0.66201  1.0000
  H   H3459     1.0  0.41803  0.70620  0.66553  1.0000
  H   H3460     1.0  0.56271  0.88641  0.87903  1.0000
  C   C1977     1.0  0.51542  0.77297  0.78944  1.0000
  H   H3461     1.0  0.54639  0.75489  0.80189  1.0000
  C   C1978     1.0  0.51152  0.77777  0.84847  1.0000
  H   H3462     1.0  0.53532  0.76639  0.82850  1.0000
  H   H3463     1.0  0.48392  0.78050  0.79401  1.0000
  C   C1979     1.0  0.54162  0.86855  0.88612  1.0000
  C   C1980     1.0  0.49508  0.80282  0.77266  1.0000
  Fe  Fe223     1.0  0.57772  0.81149  0.83090  1.0000
  C   C1981     1.0  0.56051  0.66945  0.68593  1.0000
  H   H3464     1.0  0.44183  0.82459  0.71607  1.0000
  H   H3465     1.0  0.58257  0.68069  0.66479  1.0000
  H   H3466     1.0  0.50772  0.74064  0.78835  1.0000
  H   H3467     1.0  0.45230  0.75749  0.78298  1.0000
  H   H3468     1.0  0.48917  0.75009  0.80576  1.0000
  H   H3469     1.0  0.55625  0.80594  0.92435  1.0000
  H   H3470     1.0  0.54840  0.79608  0.65310  1.0000
  C   C1982     1.0  0.53715  0.74466  0.80342  1.0000
  H   H3471     1.0  0.47960  0.71784  0.81166  1.0000
  C   C1983     1.0  0.45337  0.82848  0.73797  1.0000
  H   H3472     1.0  0.49393  0.79506  0.80273  1.0000
  H   H3473     1.0  0.51862  0.76893  0.77541  1.0000
  C   C1984     1.0  0.49467  0.71053  0.81157  1.0000
  H   H3474     1.0  0.45405  0.77306  0.71704  1.0000
  H   H3475     1.0  0.47213  0.73917  0.77535  1.0000
  H   H3476     1.0  0.52658  0.78097  0.78829  1.0000
  C   C1985     1.0  0.50435  0.74274  0.80322  1.0000
  H   H3477     1.0  0.52594  0.87072  0.89012  1.0000
  H   H3478     1.0  0.53499  0.50704  0.75516  1.0000
  H   H3479     1.0  0.55069  0.68370  0.68407  1.0000
  H   H3480     1.0  0.55769  0.66099  0.67710  1.0000
  H   H3481     1.0  0.55753  0.66203  0.70115  1.0000
  H   H3482     1.0  0.42985  0.81589  0.73933  1.0000
  H   H3483     1.0  0.42720  0.84956  0.74400  1.0000
  C   C1986     1.0  0.47674  0.80693  0.69676  1.0000
  H   H3484     1.0  0.41350  0.64530  0.75149  1.0000
  H   H3485     1.0  0.52633  0.80751  0.93759  1.0000
  C   C1987     1.0  0.56410  0.82619  0.93533  1.0000
  H   H3486     1.0  0.41686  0.79358  0.68845  1.0000
  C   C1988     1.0  0.40356  0.74490  0.79379  1.0000
  H   H3487     1.0  0.51232  0.81558  0.91929  1.0000
  H   H3488     1.0  0.57364  0.81783  0.90820  1.0000
  H   H3489     1.0  0.57441  0.79687  0.95013  1.0000
  H   H3490     1.0  0.49203  0.81170  0.95126  1.0000
  H   H3491     1.0  0.58042  0.75882  0.75484  1.0000
  H   H3492     1.0  0.58139  0.83117  0.69059  1.0000
  H   H3493     1.0  0.58296  0.68063  0.68905  1.0000
  H   H3494     1.0  0.58402  0.72151  0.59252  1.0000
  H   H3495     1.0  0.39200  0.78785  0.73184  1.0000
  H   H3496     1.0  0.41278  0.61186  0.75363  1.0000
  C   C1989     1.0  0.58269  0.89046  0.79903  1.0000
  H   H3497     1.0  0.58645  0.71787  0.52848  1.0000
  C   C1990     1.0  0.54552  0.73454  0.78640  1.0000
  H   H3498     1.0  0.58199  0.81528  0.95623  1.0000
  H   H3499     1.0  0.56964  0.83966  0.93035  1.0000
  H   H3500     1.0  0.58509  0.79111  0.71712  1.0000
  H   H3501     1.0  0.41305  0.68449  0.78156  1.0000
  H   H3502     1.0  0.39772  0.68410  0.76664  1.0000
  H   H3503     1.0  0.57190  0.80238  0.66726  1.0000
  C   C1991     1.0  0.58776  0.91467  0.81999  1.0000
  H   H3504     1.0  0.58694  0.83729  0.84703  1.0000
  H   H3505     1.0  0.57182  0.82540  0.71584  1.0000
  H   H3506     1.0  0.58312  0.75818  0.67784  1.0000
  H   H3507     1.0  0.39491  0.71712  0.86756  1.0000
  H   H3508     1.0  0.56653  0.49904  0.73510  1.0000
  H   H3509     1.0  0.58030  0.50666  0.76746  1.0000
  H   H3510     1.0  0.58318  0.51546  0.70998  1.0000
  H   H3511     1.0  0.58129  0.71805  0.67371  1.0000
  Fe  Fe224     1.0  0.39570  0.80620  0.82264  1.0000
  S   S442      1.0  0.39606  0.77909  0.84545  1.0000
  H   H3512     1.0  0.56852  0.71362  0.79807  1.0000
  C   C1992     1.0  0.58437  0.75238  0.62386  1.0000
  H   H3513     1.0  0.58487  0.76256  0.61033  1.0000
  H   H3514     1.0  0.57259  0.71968  0.77244  1.0000
  H   H3515     1.0  0.57464  0.73643  0.78506  1.0000
  S   S443      1.0  0.39115  0.81319  0.75479  1.0000
  H   H3516     1.0  0.58773  0.53433  0.72687  1.0000
  H   H3517     1.0  0.54981  0.48703  0.76791  1.0000
  S   S444      1.0  0.64026  0.33190  0.39744  1.0000
  Fe  Fe225     1.0  0.64457  0.34837  0.41663  1.0000
  S   S445      1.0  0.65274  0.37705  0.40498  1.0000
  H   H3518     1.0  0.73941  0.37817  0.09087  1.0000
  S   S446      1.0  0.63192  0.45491  0.32284  1.0000
  Fe  Fe226     1.0  0.64365  0.43757  0.30036  1.0000
  S   S447      1.0  0.67473  0.42317  0.29481  1.0000
  H   H3519     1.0  0.71664  0.18874  0.38125  1.0000
  H   H3520     1.0  0.64809  0.41678  0.38471  1.0000
  Fe  Fe227     1.0  0.64441  0.23658  0.08187  1.0000
  S   S448      1.0  0.66479  0.21777  0.06300  1.0000
  S   S449      1.0  0.61394  0.23391  0.09154  1.0000
  Fe  Fe228     1.0  0.67382  0.25822  0.08177  1.0000
  S   S450      1.0  0.69659  0.24156  0.06270  1.0000
  S   S451      1.0  0.67746  0.28296  0.09186  1.0000
  Fe  Fe229     1.0  0.67434  0.24494  0.04612  1.0000
  S   S452      1.0  0.67976  0.25579  0.01412  1.0000
  Fe  Fe230     1.0  0.68498  0.21593  0.08132  1.0000
  S   S453      1.0  0.70621  0.18913  0.08994  1.0000
  S   S454      1.0  0.65237  0.26391  0.06371  1.0000
  S   S455      1.0  0.66380  0.23234  0.10171  1.0000
  H   H3521     1.0  0.72520  0.38764  0.12012  1.0000
  H   H3522     1.0  0.62207  0.98988  0.25885  1.0000
  H   H3523     1.0  0.69678  0.33366  0.08547  1.0000
  C   C1993     1.0  0.71534  0.37718  0.06858  1.0000
  Fe  Fe231     1.0  0.65680  0.12195  0.23508  1.0000
  S   S456      1.0  0.66826  0.10225  0.21463  1.0000
  S   S457      1.0  0.66493  0.11364  0.26387  1.0000
  Fe  Fe232     1.0  0.63170  0.15076  0.20921  1.0000
  S   S458      1.0  0.64112  0.13349  0.18646  1.0000
  Fe  Fe233     1.0  0.63830  0.10786  0.21089  1.0000
  Fe  Fe234     1.0  0.60546  0.44455  0.28928  1.0000
  Fe  Fe235     1.0  0.67016  0.12944  0.19205  1.0000
  S   S459      1.0  0.69724  0.13072  0.17003  1.0000
  S   S460      1.0  0.62643  0.12567  0.23325  1.0000
  S   S461      1.0  0.66119  0.14860  0.21285  1.0000
  S   S462      1.0  0.76529  0.35863  0.05671  1.0000
  C   C1994     1.0  0.61723  0.24422  0.02142  1.0000
  H   H3524     1.0  0.73071  0.27564  0.99157  1.0000
  H   H3525     1.0  0.60618  0.20380  0.98264  1.0000
  Fe  Fe236     1.0  0.74973  0.45865  0.21394  1.0000
  S   S463      1.0  0.77401  0.42989  0.15474  1.0000
  H   H3526     1.0  0.66959  0.39542  0.36299  1.0000
  H   H3527     1.0  0.72705  0.45833  0.03880  1.0000
  H   H3528     1.0  0.63579  0.19123  0.25510  1.0000
  N   N112      1.0  0.73675  0.24229  0.97735  1.0000
  C   C1995     1.0  0.60592  0.39662  0.38239  1.0000
  C   C1996     1.0  0.59874  0.15067  0.16032  1.0000
  H   H3529     1.0  0.62303  0.00214  0.11163  1.0000
  S   S464      1.0  0.77416  0.45207  0.22846  1.0000
  S   S465      1.0  0.75307  0.42874  0.21024  1.0000
  Fe  Fe237     1.0  0.75734  0.34270  0.12906  1.0000
  S   S466      1.0  0.77354  0.31247  0.13744  1.0000
  S   S467      1.0  0.74224  0.35937  0.15224  1.0000
  Fe  Fe238     1.0  0.76743  0.34186  0.08671  1.0000
  C   C1997     1.0  0.75446  0.06900  0.36833  1.0000
  H   H3530     1.0  0.61174  0.30959  0.38957  1.0000
  Fe  Fe239     1.0  0.76075  0.30582  0.11641  1.0000
  S   S468      1.0  0.75313  0.27770  0.11808  1.0000
  Fe  Fe240     1.0  0.73089  0.19588  0.45745  1.0000
  S   S469      1.0  0.74242  0.33531  0.11004  1.0000
  C   C1998     1.0  0.74759  0.02788  0.37196  1.0000
  H   H3531     1.0  0.61200  0.14044  0.15577  1.0000
  C   C1999     1.0  0.76952  0.40197  0.07906  1.0000
  H   H3532     1.0  0.67598  0.35187  0.08117  1.0000
  S   S470      1.0  0.74263  0.18870  0.42866  1.0000
  S   S471      1.0  0.76025  0.13247  0.43552  1.0000
  H   H3533     1.0  0.62740  0.01924  0.20561  1.0000
  H   H3534     1.0  0.71020  0.39441  0.15244  1.0000
  Fe  Fe241     1.0  0.74503  0.13604  0.29685  1.0000
  S   S472      1.0  0.73905  0.11077  0.32038  1.0000
  S   S473      1.0  0.73131  0.14819  0.27130  1.0000
  Fe  Fe242     1.0  0.74241  0.12761  0.33999  1.0000
  S   S474      1.0  0.72338  0.13107  0.36854  1.0000
  S   S475      1.0  0.74510  0.15387  0.31678  1.0000
  C   C2000     1.0  0.73462  0.13270  0.38596  1.0000
  C   C2001     1.0  0.75211  0.12070  0.38855  1.0000
  C   C2002     1.0  0.75994  0.12082  0.40372  1.0000
  C   C2003     1.0  0.75072  0.13350  0.41591  1.0000
  C   C2004     1.0  0.73356  0.14597  0.41293  1.0000
  C   C2005     1.0  0.72532  0.14525  0.39827  1.0000
  H   H3535     1.0  0.75922  0.11080  0.37934  1.0000
  H   H3536     1.0  0.77307  0.11097  0.40612  1.0000
  H   H3537     1.0  0.72624  0.15553  0.42246  1.0000
  H   H3538     1.0  0.63114  0.01217  0.06571  1.0000
  H   H3539     1.0  0.73704  0.04373  0.27200  1.0000
  C   C2006     1.0  0.68716  0.46466  0.20337  1.0000
  C   C2007     1.0  0.77232  0.32311  0.01244  1.0000
  C   C2008     1.0  0.76990  0.31449  0.03191  1.0000
  C   C2009     1.0  0.76714  0.32542  0.04553  1.0000
  H   H3540     1.0  0.69646  0.34245  0.29464  1.0000
  H   H3541     1.0  0.61453  0.18160  0.26453  1.0000
  H   H3542     1.0  0.70423  0.48111  0.42786  1.0000
  H   H3543     1.0  0.61474  0.21070  0.12817  1.0000
  C   C2010     1.0  0.75261  0.37728  0.15462  1.0000
  C   C2011     1.0  0.76875  0.38219  0.14159  1.0000
  C   C2012     1.0  0.72741  0.27883  0.97726  1.0000
  C   C2013     1.0  0.76627  0.40895  0.15589  1.0000
  C   C2014     1.0  0.75084  0.40334  0.16978  1.0000
  C   C2015     1.0  0.74387  0.38767  0.16899  1.0000
  H   H3544     1.0  0.74231  0.07609  0.43741  1.0000
  C   C2016     1.0  0.62039  0.26178  0.00491  1.0000
  H   H3545     1.0  0.74381  0.41158  0.18058  1.0000
  H   H3546     1.0  0.73142  0.38392  0.17919  1.0000
  Fe  Fe243     1.0  0.75600  0.16028  0.44480  1.0000
  C   C2017     1.0  0.68276  0.12408  0.26605  1.0000
  C   C2018     1.0  0.69285  0.13498  0.25013  1.0000
  C   C2019     1.0  0.70760  0.14241  0.25199  1.0000
  C   C2020     1.0  0.71260  0.13872  0.26969  1.0000
  C   C2021     1.0  0.70261  0.12772  0.28562  1.0000
  C   C2022     1.0  0.68757  0.12061  0.28383  1.0000
  H   H3547     1.0  0.68942  0.13758  0.23635  1.0000
  H   H3548     1.0  0.71531  0.15090  0.23962  1.0000
  H   H3549     1.0  0.70624  0.12498  0.29934  1.0000
  H   H3550     1.0  0.67977  0.11224  0.29622  1.0000
  C   C2023     1.0  0.63437  0.06386  0.20331  1.0000
  C   C2024     1.0  0.65181  0.06312  0.19037  1.0000
  C   C2025     1.0  0.66024  0.04669  0.18265  1.0000
  C   C2026     1.0  0.65154  0.03075  0.18814  1.0000
  C   C2027     1.0  0.61011  0.25781  0.11564  1.0000
  H   H3551     1.0  0.65864  0.07530  0.18608  1.0000
  H   H3552     1.0  0.67358  0.04632  0.17240  1.0000
  H   H3553     1.0  0.74225  0.39469  0.06885  1.0000
  C   C2028     1.0  0.69873  0.28127  0.09883  1.0000
  C   C2029     1.0  0.71478  0.26704  0.09464  1.0000
  C   C2030     1.0  0.73159  0.26626  0.10026  1.0000
  C   C2031     1.0  0.73244  0.27978  0.10993  1.0000
  C   C2032     1.0  0.71647  0.29415  0.11387  1.0000
  C   C2033     1.0  0.69962  0.29475  0.10850  1.0000
  H   H3554     1.0  0.71424  0.25660  0.08714  1.0000
  H   H3555     1.0  0.74397  0.25518  0.09713  1.0000
  H   H3556     1.0  0.71691  0.30443  0.12160  1.0000
  H   H3557     1.0  0.68713  0.30554  0.11212  1.0000
  C   C2034     1.0  0.67572  0.24227  0.99988  1.0000
  H   H3558     1.0  0.59132  0.23702  0.98269  1.0000
  H   H3559     1.0  0.70667  0.36811  0.32614  1.0000
  H   H3560     1.0  0.59442  0.24662  0.18212  1.0000
  C   C2035     1.0  0.66926  0.21329  0.99559  1.0000
  C   C2036     1.0  0.67212  0.22375  0.00744  1.0000
  H   H3561     1.0  0.66961  0.43605  0.22221  1.0000
  S   S476      1.0  0.78194  0.21742  0.40344  1.0000
  H   H3562     1.0  0.66637  0.19900  0.00151  1.0000
  H   H3563     1.0  0.67162  0.21741  0.02238  1.0000
  C   C2037     1.0  0.70233  0.17337  0.11238  1.0000
  C   C2038     1.0  0.68513  0.17557  0.12576  1.0000
  C   C2039     1.0  0.68301  0.16238  0.14355  1.0000
  C   C2040     1.0  0.69828  0.14734  0.14797  1.0000
  C   C2041     1.0  0.71537  0.14544  0.13459  1.0000
  C   C2042     1.0  0.71731  0.15822  0.11687  1.0000
  H   H3564     1.0  0.67357  0.18733  0.12234  1.0000
  H   H3565     1.0  0.66976  0.16388  0.15385  1.0000
  H   H3566     1.0  0.72718  0.13386  0.13788  1.0000
  H   H3567     1.0  0.73060  0.15640  0.10662  1.0000
  H   H3568     1.0  0.70599  0.40573  0.07355  1.0000
  H   H3569     1.0  0.62463  0.25909  0.10917  1.0000
  C   C2043     1.0  0.68842  0.43809  0.27705  1.0000
  C   C2044     1.0  0.68004  0.45691  0.26938  1.0000
  C   C2045     1.0  0.69494  0.23188  0.45000  1.0000
  C   C2046     1.0  0.70918  0.46084  0.24614  1.0000
  C   C2047     1.0  0.71802  0.44239  0.25446  1.0000
  C   C2048     1.0  0.70758  0.43093  0.26977  1.0000
  H   H3570     1.0  0.72736  0.09352  0.42267  1.0000
  C   C2049     1.0  0.62179  0.19144  0.25238  1.0000
  H   H3571     1.0  0.73281  0.43680  0.24893  1.0000
  H   H3572     1.0  0.71430  0.41647  0.27581  1.0000
  H   H3573     1.0  0.68931  0.28428  0.44698  1.0000
  H   H3574     1.0  0.73025  0.04475  0.23263  1.0000
  C   C2050     1.0  0.71334  0.39156  0.08070  1.0000
  N   N113      1.0  0.73290  0.40771  0.09357  1.0000
  C   C2051     1.0  0.74093  0.38217  0.23985  1.0000
  H   H3575     1.0  0.72363  0.23147  0.43400  1.0000
  H   H3576     1.0  0.72410  0.38142  0.05416  1.0000
  C   C2052     1.0  0.63484  0.39225  0.39348  1.0000
  H   H3577     1.0  0.68958  0.22165  0.36004  1.0000
  C   C2053     1.0  0.62283  0.42260  0.37343  1.0000
  C   C2054     1.0  0.63633  0.41115  0.38408  1.0000
  H   H3578     1.0  0.62412  0.43710  0.36593  1.0000
  H   H3579     1.0  0.69211  0.41432  0.14417  1.0000
  H   H3580     1.0  0.61007  0.22776  0.20959  1.0000
  H   H3581     1.0  0.68618  0.18439  0.40754  1.0000
  H   H3582     1.0  0.70419  0.38667  0.09466  1.0000
  C   C2055     1.0  0.59839  0.31320  0.38500  1.0000
  C   C2056     1.0  0.70695  0.41009  0.14631  1.0000
  H   H3583     1.0  0.68076  0.20374  0.37881  1.0000
  H   H3584     1.0  0.68313  0.43787  0.23782  1.0000
  C   C2057     1.0  0.64649  0.38177  0.34179  1.0000
  H   H3585     1.0  0.73513  0.41240  0.13059  1.0000
  C   C2058     1.0  0.71245  0.29868  0.43455  1.0000
  H   H3586     1.0  0.74606  0.36844  0.24944  1.0000
  H   H3587     1.0  0.67020  0.18904  0.17056  1.0000
  H   H3588     1.0  0.71144  0.02987  0.19758  1.0000
  H   H3589     1.0  0.67212  0.35874  0.31760  1.0000
  H   H3590     1.0  0.67861  0.46386  0.31589  1.0000
  H   H3591     1.0  0.71490  0.37404  0.24150  1.0000
  H   H3592     1.0  0.60199  0.24401  0.02717  1.0000
  H   H3593     1.0  0.60602  0.35777  0.32882  1.0000
  H   H3594     1.0  0.71645  0.43077  0.12176  1.0000
  H   H3595     1.0  0.69588  0.40900  0.20001  1.0000
  C   C2059     1.0  0.60140  0.24679  0.10927  1.0000
  H   H3596     1.0  0.65049  0.01539  0.09612  1.0000
  H   H3597     1.0  0.68081  0.19577  0.44568  1.0000
  H   H3598     1.0  0.69432  0.38208  0.18594  1.0000
  H   H3599     1.0  0.70213  0.00374  0.25352  1.0000
  H   H3600     1.0  0.70370  0.31348  0.43380  1.0000
  H   H3601     1.0  0.72668  0.29845  0.43672  1.0000
  H   H3602     1.0  0.71425  0.29472  0.42072  1.0000
  C   C2060     1.0  0.69236  0.21196  0.37373  1.0000
  H   H3603     1.0  0.70109  0.17908  0.43591  1.0000
  N   N114      1.0  0.69158  0.22352  0.38789  1.0000
  S   S477      1.0  0.61417  0.18104  0.20544  1.0000
  C   C2061     1.0  0.69580  0.33818  0.36417  1.0000
  H   H3604     1.0  0.61801  0.25681  0.04449  1.0000
  H   H3605     1.0  0.71289  0.33699  0.99127  1.0000
  H   H3606     1.0  0.70146  0.20000  0.18320  1.0000
  S   S478      1.0  0.63002  0.45949  0.27788  1.0000
  H   H3607     1.0  0.77010  0.36886  0.01574  1.0000
  N   N115      1.0  0.73740  0.06116  0.38085  1.0000
  C   C2062     1.0  0.74185  0.03959  0.38783  1.0000
  C   C2063     1.0  0.72933  0.07066  0.39768  1.0000
  C   C2064     1.0  0.72204  0.06561  0.36956  1.0000
  H   H3608     1.0  0.68371  0.47107  0.21604  1.0000
  H   H3609     1.0  0.74731  0.38095  0.22487  1.0000
  C   C2065     1.0  0.59401  0.18690  0.12877  1.0000
  C   C2066     1.0  0.71250  0.08705  0.36385  1.0000
  C   C2067     1.0  0.60080  0.24217  0.21019  1.0000
  C   C2068     1.0  0.76752  0.34498  0.03979  1.0000
  H   H3610     1.0  0.68912  0.34072  0.32922  1.0000
  H   H3611     1.0  0.59369  0.17419  0.12365  1.0000
  C   C2069     1.0  0.70066  0.09024  0.34893  1.0000
  H   H3612     1.0  0.66990  0.40318  0.33817  1.0000
  H   H3613     1.0  0.77599  0.37400  0.13091  1.0000
  H   H3614     1.0  0.72518  0.08653  0.39275  1.0000
  H   H3615     1.0  0.71611  0.06569  0.40618  1.0000
  H   H3616     1.0  0.71041  0.05783  0.37762  1.0000
  H   H3617     1.0  0.72783  0.06030  0.35615  1.0000
  H   H3618     1.0  0.68763  0.30383  0.46867  1.0000
  H   H3619     1.0  0.75246  0.08449  0.36839  1.0000
  H   H3620     1.0  0.67029  0.98732  0.10878  1.0000
  H   H3621     1.0  0.65772  0.98593  0.25088  1.0000
  Fe  Fe244     1.0  0.61688  0.47616  0.30099  1.0000
  H   H3622     1.0  0.71348  0.03789  0.25391  1.0000
  H   H3623     1.0  0.72334  0.09600  0.35811  1.0000
  H   H3624     1.0  0.70272  0.09212  0.37641  1.0000
  H   H3625     1.0  0.62192  0.02879  0.08155  1.0000
  S   S479      1.0  0.78315  0.39645  0.24596  1.0000
  C   C2070     1.0  0.77423  0.05820  0.37301  1.0000
  H   H3626     1.0  0.74814  0.99981  0.39139  1.0000
  H   H3627     1.0  0.62679  0.98717  0.09535  1.0000
  H   H3628     1.0  0.74915  0.05386  0.24928  1.0000
  H   H3629     1.0  0.70072  0.04171  0.28325  1.0000
  C   C2071     1.0  0.78903  0.07076  0.36522  1.0000
  H   H3630     1.0  0.75612  0.39473  0.10818  1.0000
  C   C2072     1.0  0.65341  0.16851  0.10049  1.0000
  H   H3631     1.0  0.69431  0.10579  0.34495  1.0000
  H   H3632     1.0  0.70962  0.08554  0.33587  1.0000
  H   H3633     1.0  0.68901  0.08215  0.35472  1.0000
  C   C2073     1.0  0.72436  0.42775  0.08395  1.0000
  C   C2074     1.0  0.70475  0.32754  0.38138  1.0000
  C   C2075     1.0  0.73716  0.23802  0.99835  1.0000
  Fe  Fe245     1.0  0.77643  0.14181  0.31279  1.0000
  H   H3634     1.0  0.75092  0.06560  0.27832  1.0000
  S   S480      1.0  0.72117  0.47500  0.22599  1.0000
  H   H3635     1.0  0.72400  0.21538  0.16970  1.0000
  C   C2076     1.0  0.73285  0.43469  0.06260  1.0000
  C   C2077     1.0  0.74070  0.21657  0.00895  1.0000
  C   C2078     1.0  0.74342  0.21443  0.02909  1.0000
  H   H3636     1.0  0.66513  0.23606  0.46280  1.0000
  H   H3637     1.0  0.78052  0.00490  0.31682  1.0000
  H   H3638     1.0  0.61473  0.16657  0.16795  1.0000
  H   H3639     1.0  0.71054  0.27986  0.03093  1.0000
  H   H3640     1.0  0.61219  0.04841  0.21880  1.0000
  H   H3641     1.0  0.74793  0.24474  0.00052  1.0000
  H   H3642     1.0  0.72329  0.24467  0.00658  1.0000
  S   S481      1.0  0.76639  0.46886  0.18463  1.0000
  H   H3643     1.0  0.60108  0.38883  0.43727  1.0000
  C   C2079     1.0  0.60096  0.25342  0.18966  1.0000
  H   H3644     1.0  0.67774  0.17371  0.44207  1.0000
  H   H3645     1.0  0.59458  0.39069  0.38129  1.0000
  C   C2080     1.0  0.61688  0.24828  0.97910  1.0000
  C   C2081     1.0  0.74266  0.06807  0.41135  1.0000
  H   H3646     1.0  0.71155  0.29390  0.47148  1.0000
  Fe  Fe246     1.0  0.63253  0.31951  0.45277  1.0000
  H   H3647     1.0  0.66360  0.16095  0.10993  1.0000
  H   H3648     1.0  0.72822  0.21036  0.01033  1.0000
  H   H3649     1.0  0.75339  0.20785  0.00137  1.0000
  H   H3650     1.0  0.76479  0.31865  0.06052  1.0000
  H   H3651     1.0  0.75596  0.22008  0.02868  1.0000
  C   C2082     1.0  0.71927  0.38648  0.24337  1.0000
  C   C2083     1.0  0.62564  0.24427  0.03800  1.0000
  C   C2084     1.0  0.60535  0.23203  0.98679  1.0000
  H   H3652     1.0  0.78768  0.26843  0.06643  1.0000
  C   C2085     1.0  0.67813  0.39329  0.34876  1.0000
  H   H3653     1.0  0.70877  0.42937  0.08563  1.0000
  C   C2086     1.0  0.69681  0.44345  0.20810  1.0000
  H   H3654     1.0  0.62661  0.18819  0.10067  1.0000
  H   H3655     1.0  0.62891  0.08002  0.27466  1.0000
  H   H3656     1.0  0.65617  0.26504  0.43826  1.0000
  H   H3657     1.0  0.59851  0.13994  0.19072  1.0000
  H   H3658     1.0  0.70612  0.45089  0.05445  1.0000
  H   H3659     1.0  0.62840  0.35162  0.47213  1.0000
  H   H3660     1.0  0.60279  0.22737  0.00247  1.0000
  C   C2087     1.0  0.71166  0.40570  0.23018  1.0000
  H   H3661     1.0  0.59293  0.26845  0.18938  1.0000
  H   H3662     1.0  0.74577  0.39379  0.24292  1.0000
  H   H3663     1.0  0.70663  0.36362  0.35847  1.0000
  H   H3664     1.0  0.75776  0.18117  0.37966  1.0000
  H   H3665     1.0  0.71494  0.06433  0.28995  1.0000
  C   C2088     1.0  0.59054  0.18606  0.20276  1.0000
  S   S482      1.0  0.78060  0.35212  0.10497  1.0000
  H   H3666     1.0  0.65519  0.32323  0.02116  1.0000
  H   H3667     1.0  0.75568  0.06904  0.35312  1.0000
  C   C2089     1.0  0.78111  0.33446  0.21239  1.0000
  H   H3668     1.0  0.65407  0.99369  0.12920  1.0000
  H   H3669     1.0  0.65273  0.38626  0.32644  1.0000
  H   H3670     1.0  0.70821  0.41785  0.15663  1.0000
  H   H3671     1.0  0.70758  0.31178  0.38241  1.0000
  H   H3672     1.0  0.70863  0.25972  0.98080  1.0000
  H   H3673     1.0  0.73853  0.01161  0.26666  1.0000
  H   H3674     1.0  0.77159  0.34121  0.18511  1.0000
  H   H3675     1.0  0.77003  0.08965  0.25850  1.0000
  H   H3676     1.0  0.59327  0.36539  0.46826  1.0000
  C   C2090     1.0  0.60336  0.17015  0.15975  1.0000
  H   H3677     1.0  0.68535  0.36357  0.37620  1.0000
  H   H3678     1.0  0.75588  0.01881  0.24551  1.0000
  H   H3679     1.0  0.75308  0.03493  0.39626  1.0000
  H   H3680     1.0  0.68327  0.48210  0.24715  1.0000
  H   H3681     1.0  0.77104  0.00674  0.38259  1.0000
  H   H3682     1.0  0.68597  0.42973  0.33022  1.0000
  H   H3683     1.0  0.67948  0.00269  0.23543  1.0000
  C   C2091     1.0  0.74059  0.01860  0.25126  1.0000
  H   H3684     1.0  0.61580  0.25378  0.18184  1.0000
  C   C2092     1.0  0.76713  0.34540  0.19907  1.0000
  H   H3685     1.0  0.74692  0.43799  0.06100  1.0000
  C   C2093     1.0  0.72035  0.45331  0.05393  1.0000
  H   H3686     1.0  0.67389  0.46632  0.19844  1.0000
  C   C2094     1.0  0.68698  0.35504  0.31956  1.0000
  C   C2095     1.0  0.70276  0.28435  0.45061  1.0000
  H   H3687     1.0  0.62250  0.98772  0.28349  1.0000
  H   H3688     1.0  0.61745  0.22688  0.15987  1.0000
  N   N116      1.0  0.69078  0.41038  0.22960  1.0000
  C   C2096     1.0  0.69510  0.21075  0.40676  1.0000
  S   S483      1.0  0.62724  0.30039  0.43669  1.0000
  S   S484      1.0  0.78543  0.07034  0.31530  1.0000
  H   H3689     1.0  0.62720  0.19066  0.16624  1.0000
  H   H3690     1.0  0.69858  0.30924  0.06056  1.0000
  H   H3691     1.0  0.70162  0.17673  0.18087  1.0000
  C   C2097     1.0  0.69850  0.29019  0.47006  1.0000
  C   C2098     1.0  0.69228  0.36025  0.36192  1.0000
  C   C2099     1.0  0.64923  0.99153  0.26360  1.0000
  H   H3692     1.0  0.77333  0.26769  0.43322  1.0000
  H   H3693     1.0  0.73424  0.42404  0.05407  1.0000
  H   H3694     1.0  0.65535  0.36736  0.36823  1.0000
  C   C2100     1.0  0.70891  0.23876  0.43498  1.0000
  C   C2101     1.0  0.60760  0.41530  0.37265  1.0000
  C   C2102     1.0  0.67089  0.25787  0.43739  1.0000
  H   H3695     1.0  0.73768  0.36376  0.99281  1.0000
  C   C2103     1.0  0.69326  0.38081  0.21579  1.0000
  S   S485      1.0  0.74205  0.16653  0.47378  1.0000
  H   H3696     1.0  0.69798  0.29190  0.98777  1.0000
  H   H3697     1.0  0.64252  0.27586  0.36858  1.0000
  H   H3698     1.0  0.75375  0.41992  0.09927  1.0000
  C   C2104     1.0  0.66140  0.36776  0.35282  1.0000
  H   H3699     1.0  0.62455  0.23073  0.01643  1.0000
  C   C2105     1.0  0.70944  0.18459  0.35692  1.0000
  C   C2106     1.0  0.67930  0.40271  0.24887  1.0000
  N   N117      1.0  0.72167  0.07137  0.25905  1.0000
  C   C2107     1.0  0.71107  0.07976  0.24299  1.0000
  C   C2108     1.0  0.70753  0.06998  0.27781  1.0000
  C   C2109     1.0  0.73335  0.08553  0.25844  1.0000
  C   C2110     1.0  0.73471  0.05205  0.25761  1.0000
  C   C2111     1.0  0.72348  0.08420  0.22258  1.0000
  C   C2112     1.0  0.74369  0.08095  0.27519  1.0000
  C   C2113     1.0  0.78255  0.03392  0.31566  1.0000
  C   C2114     1.0  0.63504  0.02028  0.07417  1.0000
  C   C2115     1.0  0.72243  0.10577  0.21448  1.0000
  H   H3700     1.0  0.59505  0.29847  0.47349  1.0000
  H   H3701     1.0  0.70056  0.09308  0.24567  1.0000
  H   H3702     1.0  0.70210  0.07018  0.24250  1.0000
  C   C2116     1.0  0.75747  0.00714  0.37883  1.0000
  H   H3703     1.0  0.69926  0.08456  0.27933  1.0000
  H   H3704     1.0  0.72426  0.10021  0.25809  1.0000
  H   H3705     1.0  0.74443  0.08679  0.24512  1.0000
  H   H3706     1.0  0.73854  0.07666  0.22185  1.0000
  H   H3707     1.0  0.71815  0.07877  0.21285  1.0000
  C   C2117     1.0  0.61557  0.21432  0.97855  1.0000
  H   H3708     1.0  0.73334  0.08431  0.28821  1.0000
  H   H3709     1.0  0.68527  0.06078  0.26988  1.0000
  C   C2118     1.0  0.67841  0.05890  0.29982  1.0000
  H   H3710     1.0  0.77958  0.04536  0.36658  1.0000
  H   H3711     1.0  0.77383  0.05313  0.38844  1.0000
  H   H3712     1.0  0.78134  0.24473  0.42663  1.0000
  H   H3713     1.0  0.72772  0.11229  0.22330  1.0000
  H   H3714     1.0  0.73120  0.10809  0.19981  1.0000
  H   H3715     1.0  0.70757  0.11329  0.21367  1.0000
  C   C2119     1.0  0.77522  0.39826  0.14189  1.0000
  H   H3716     1.0  0.73844  0.21265  0.97658  1.0000
  H   H3717     1.0  0.60693  0.25004  0.21698  1.0000
  C   C2120     1.0  0.70547  0.23689  0.37998  1.0000
  C   C2121     1.0  0.66604  0.25218  0.37472  1.0000
  C   C2122     1.0  0.72585  0.22918  0.38389  1.0000
  C   C2123     1.0  0.73887  0.24311  0.37258  1.0000
  C   C2124     1.0  0.64638  0.26434  0.38086  1.0000
  H   H3718     1.0  0.69330  0.21980  0.41711  1.0000
  H   H3719     1.0  0.70668  0.24209  0.36430  1.0000
  H   H3720     1.0  0.70007  0.25007  0.38597  1.0000
  H   H3721     1.0  0.66994  0.24259  0.40381  1.0000
  H   H3722     1.0  0.67608  0.26210  0.36929  1.0000
  H   H3723     1.0  0.72557  0.22748  0.39920  1.0000
  H   H3724     1.0  0.73231  0.21505  0.38026  1.0000
  H   H3725     1.0  0.73281  0.25764  0.37571  1.0000
  H   H3726     1.0  0.75296  0.23790  0.37662  1.0000
  H   H3727     1.0  0.74095  0.24411  0.35706  1.0000
  H   H3728     1.0  0.64635  0.27126  0.39239  1.0000
  H   H3729     1.0  0.63544  0.25536  0.38594  1.0000
  N   N118      1.0  0.71408  0.21460  0.14516  1.0000
  C   C2125     1.0  0.70643  0.19639  0.15322  1.0000
  C   C2126     1.0  0.72116  0.21628  0.12398  1.0000
  C   C2127     1.0  0.69877  0.23202  0.14863  1.0000
  C   C2128     1.0  0.68201  0.23631  0.13845  1.0000
  C   C2129     1.0  0.68481  0.26455  0.42216  1.0000
  C   C2130     1.0  0.73844  0.20061  0.11771  1.0000
  C   C2131     1.0  0.74678  0.20619  0.09642  1.0000
  C   C2132     1.0  0.66611  0.25244  0.14508  1.0000
  C   C2133     1.0  0.67527  0.19653  0.17872  1.0000
  H   H3730     1.0  0.71814  0.18369  0.15123  1.0000
  H   H3731     1.0  0.69651  0.19552  0.14486  1.0000
  H   H3732     1.0  0.70979  0.21550  0.11724  1.0000
  H   H3733     1.0  0.72458  0.23062  0.11722  1.0000
  H   H3734     1.0  0.69309  0.23108  0.16414  1.0000
  H   H3735     1.0  0.70475  0.24524  0.14356  1.0000
  H   H3736     1.0  0.67593  0.22347  0.14093  1.0000
  H   H3737     1.0  0.68699  0.24126  0.12289  1.0000
  H   H3738     1.0  0.72228  0.20617  0.35944  1.0000
  H   H3739     1.0  0.75003  0.19816  0.12533  1.0000
  H   H3740     1.0  0.73396  0.18676  0.12046  1.0000
  H   H3741     1.0  0.73567  0.20930  0.08797  1.0000
  H   H3742     1.0  0.75299  0.21911  0.09327  1.0000
  H   H3743     1.0  0.75813  0.19415  0.09196  1.0000
  H   H3744     1.0  0.67151  0.26584  0.14213  1.0000
  H   H3745     1.0  0.65457  0.25545  0.13717  1.0000
  H   H3746     1.0  0.66008  0.24826  0.16054  1.0000
  H   H3747     1.0  0.63604  0.25930  0.99967  1.0000
  C   C2134     1.0  0.68759  0.40283  0.21403  1.0000
  H   H3748     1.0  0.76071  0.99923  0.36723  1.0000
  H   H3749     1.0  0.63534  0.01915  0.24898  1.0000
  H   H3750     1.0  0.73356  0.24385  0.14510  1.0000
  C   C2135     1.0  0.59995  0.26729  0.13042  1.0000
  H   H3751     1.0  0.63462  0.36007  0.33681  1.0000
  H   H3752     1.0  0.68187  0.42701  0.35576  1.0000
  H   H3753     1.0  0.70678  0.39727  0.33252  1.0000
  H   H3754     1.0  0.77118  0.38707  0.07749  1.0000
  Fe  Fe247     1.0  0.61351  0.32777  0.41913  1.0000
  C   C2136     1.0  0.69921  0.99520  0.28383  1.0000
  C   C2137     1.0  0.69068  0.00048  0.26610  1.0000
  N   N119      1.0  0.68079  0.37265  0.34741  1.0000
  H   H3755     1.0  0.71057  0.44283  0.21154  1.0000
  H   H3756     1.0  0.61645  0.27485  0.01102  1.0000
  H   H3757     1.0  0.67464  0.47185  0.33775  1.0000
  H   H3758     1.0  0.65250  0.07863  0.26016  1.0000
  H   H3759     1.0  0.68754  0.38445  0.31699  1.0000
  H   H3760     1.0  0.65686  0.98550  0.27549  1.0000
  H   H3761     1.0  0.60917  0.29734  0.36263  1.0000
  S   S486      1.0  0.61683  0.34638  0.43679  1.0000
  C   C2138     1.0  0.72986  0.21367  0.15478  1.0000
  H   H3762     1.0  0.76616  0.23793  0.14940  1.0000
  H   H3763     1.0  0.62319  0.36786  0.35887  1.0000
  C   C2139     1.0  0.73239  0.07785  0.42798  1.0000
  H   H3764     1.0  0.76596  0.36111  0.19683  1.0000
  H   H3765     1.0  0.72576  0.43854  0.09111  1.0000
  H   H3766     1.0  0.62434  0.18605  0.23920  1.0000
  H   H3767     1.0  0.71217  0.26997  0.45067  1.0000
  H   H3768     1.0  0.74740  0.32588  0.21026  1.0000
  H   H3769     1.0  0.61835  0.37051  0.39962  1.0000
  S   S487      1.0  0.77369  0.11647  0.33725  1.0000
  H   H3770     1.0  0.63789  0.16503  0.13905  1.0000
  H   H3771     1.0  0.59733  0.19796  0.11556  1.0000
  S   S488      1.0  0.62011  0.42123  0.30990  1.0000
  H   H3772     1.0  0.66850  0.04915  0.30237  1.0000
  H   H3773     1.0  0.73946  0.19922  0.15606  1.0000
  H   H3774     1.0  0.59952  0.20832  0.15081  1.0000
  C   C2140     1.0  0.75278  0.40649  0.09581  1.0000
  H   H3775     1.0  0.72052  0.40623  0.21552  1.0000
  H   H3776     1.0  0.77545  0.22196  0.98066  1.0000
  S   S489      1.0  0.67863  0.28463  0.40440  1.0000
  C   C2141     1.0  0.69699  0.19233  0.17483  1.0000
  C   C2142     1.0  0.68581  0.18542  0.43614  1.0000
  C   C2143     1.0  0.69211  0.42269  0.34307  1.0000
  C   C2144     1.0  0.69022  0.46803  0.25371  1.0000
  H   H3777     1.0  0.63193  0.40293  0.27228  1.0000
  H   H3778     1.0  0.68253  0.33307  0.36643  1.0000
  Fe  Fe248     1.0  0.60677  0.44112  0.32991  1.0000
  H   H3779     1.0  0.70468  0.19299  0.34360  1.0000
  Fe  Fe249     1.0  0.77208  0.43806  0.18233  1.0000
  H   H3780     1.0  0.77157  0.19068  0.35664  1.0000
  H   H3781     1.0  0.73058  0.22221  0.03752  1.0000
  H   H3782     1.0  0.77619  0.34103  0.22509  1.0000
  C   C2145     1.0  0.60990  0.21193  0.25008  1.0000
  H   H3783     1.0  0.66104  0.17695  0.08737  1.0000
  H   H3784     1.0  0.64990  0.30289  0.03972  1.0000
  H   H3785     1.0  0.69984  0.43784  0.19504  1.0000
  C   C2146     1.0  0.69318  0.05697  0.28147  1.0000
  C   C2147     1.0  0.69104  0.37069  0.32740  1.0000
  H   H3786     1.0  0.71465  0.26042  0.40946  1.0000
  C   C2148     1.0  0.62924  0.19926  0.15153  1.0000
  H   H3787     1.0  0.69919  0.17537  0.36540  1.0000
  C   C2149     1.0  0.71141  0.19793  0.36847  1.0000
  H   H3788     1.0  0.75719  0.03448  0.35921  1.0000
  H   H3789     1.0  0.76728  0.21235  0.15657  1.0000
  H   H3790     1.0  0.69754  0.36748  0.28976  1.0000
  H   H3791     1.0  0.71500  0.34919  0.30121  1.0000
  H   H3792     1.0  0.69688  0.47268  0.19190  1.0000
  C   C2150     1.0  0.70382  0.25507  0.42104  1.0000
  H   H3793     1.0  0.75485  0.07507  0.40380  1.0000
  H   H3794     1.0  0.67002  0.07390  0.29865  1.0000
  C   C2151     1.0  0.67647  0.25021  0.98041  1.0000
  C   C2152     1.0  0.63097  0.21919  0.15230  1.0000
  H   H3795     1.0  0.78473  0.08343  0.37185  1.0000
  H   H3796     1.0  0.72343  0.17503  0.35299  1.0000
  H   H3797     1.0  0.64291  0.19251  0.14345  1.0000
  H   H3798     1.0  0.68281  0.40790  0.26000  1.0000
  H   H3799     1.0  0.71164  0.15430  0.39656  1.0000
  H   H3800     1.0  0.68637  0.98766  0.26505  1.0000
  H   H3801     1.0  0.63465  0.22790  0.13771  1.0000
  H   H3802     1.0  0.61791  0.22110  0.23807  1.0000
  H   H3803     1.0  0.75116  0.22829  0.17127  1.0000
  H   H3804     1.0  0.68314  0.38682  0.25294  1.0000
  H   H3805     1.0  0.63203  0.24160  0.97953  1.0000
  C   C2153     1.0  0.72850  0.03896  0.24822  1.0000
  C   C2154     1.0  0.65737  0.40830  0.25123  1.0000
  C   C2155     1.0  0.64758  0.39793  0.27055  1.0000
  H   H3806     1.0  0.74953  0.22814  0.13056  1.0000
  H   H3807     1.0  0.65264  0.40447  0.24010  1.0000
  H   H3808     1.0  0.67178  0.37888  0.20175  1.0000
  H   H3809     1.0  0.65109  0.38215  0.27160  1.0000
  H   H3810     1.0  0.65202  0.40110  0.28228  1.0000
  H   H3811     1.0  0.64827  0.15765  0.09646  1.0000
  H   H3812     1.0  0.70562  0.40514  0.11257  1.0000
  H   H3813     1.0  0.70892  0.37607  0.21377  1.0000
  S   S490      1.0  0.66092  0.32308  0.43422  1.0000
  C   C2156     1.0  0.67596  0.24147  0.45126  1.0000
  N   N120      1.0  0.66181  0.02333  0.25223  1.0000
  C   C2157     1.0  0.67261  0.01817  0.23350  1.0000
  C   C2158     1.0  0.64491  0.01379  0.25941  1.0000
  C   C2159     1.0  0.65421  0.04483  0.24853  1.0000
  C   C2160     1.0  0.67392  0.01809  0.26700  1.0000
  H   H3814     1.0  0.71837  0.33173  0.38001  1.0000
  C   C2161     1.0  0.68789  0.03003  0.22197  1.0000
  C   C2162     1.0  0.64099  0.05285  0.26580  1.0000
  N   N121      1.0  0.60927  0.18213  0.14019  1.0000
  C   C2163     1.0  0.63429  0.03137  0.20138  1.0000
  H   H3815     1.0  0.73635  0.00980  0.24375  1.0000
  N   N122      1.0  0.61039  0.26518  0.98876  1.0000
  C   C2164     1.0  0.63863  0.07464  0.26225  1.0000
  H   H3816     1.0  0.66566  0.46296  0.27543  1.0000
  C   C2165     1.0  0.74722  0.34144  0.20795  1.0000
  H   H3817     1.0  0.63628  0.01769  0.27296  1.0000
  H   H3818     1.0  0.71508  0.41684  0.23546  1.0000
  H   H3819     1.0  0.64621  0.04938  0.23685  1.0000
  H   H3820     1.0  0.66609  0.05267  0.24346  1.0000
  H   H3821     1.0  0.68047  0.03027  0.26617  1.0000
  H   H3822     1.0  0.66486  0.01569  0.28158  1.0000
  H   H3823     1.0  0.64379  0.03039  0.06425  1.0000
  H   H3824     1.0  0.60667  0.27588  0.13525  1.0000
  H   H3825     1.0  0.68092  0.04451  0.21492  1.0000
  H   H3826     1.0  0.75200  0.10870  0.26754  1.0000
  H   H3827     1.0  0.64661  0.04642  0.27898  1.0000
  H   H3828     1.0  0.62663  0.04977  0.26826  1.0000
  C   C2166     1.0  0.72711  0.36004  0.98710  1.0000
  H   H3829     1.0  0.66220  0.35306  0.35124  1.0000
  S   S491      1.0  0.70100  0.21108  0.46700  1.0000
  H   H3830     1.0  0.77903  0.31941  0.21784  1.0000
  C   C2167     1.0  0.64636  0.00651  0.08858  1.0000
  C   C2168     1.0  0.78769  0.17835  0.37918  1.0000
  S   S492      1.0  0.77519  0.30870  0.99602  1.0000
  C   C2169     1.0  0.69653  0.40084  0.34548  1.0000
  H   H3831     1.0  0.68871  0.99039  0.29678  1.0000
  H   H3832     1.0  0.61898  0.38335  0.33649  1.0000
  H   H3833     1.0  0.63245  0.08182  0.24948  1.0000
  H   H3834     1.0  0.71867  0.46476  0.06168  1.0000
  H   H3835     1.0  0.66938  0.31810  0.04993  1.0000
  C   C2170     1.0  0.61245  0.20075  0.14225  1.0000
  H   H3836     1.0  0.74165  0.34607  0.22171  1.0000
  H   H3837     1.0  0.64218  0.19382  0.11209  1.0000
  Fe  Fe250     1.0  0.76828  0.19844  0.42974  1.0000
  C   C2171     1.0  0.73298  0.39268  0.08325  1.0000
  Fe  Fe251     1.0  0.65443  0.30623  0.41665  1.0000
  N   N123      1.0  0.70924  0.32070  0.03059  1.0000
  C   C2172     1.0  0.70512  0.32135  0.05139  1.0000
  C   C2173     1.0  0.72479  0.30344  0.02717  1.0000
  C   C2174     1.0  0.71683  0.33844  0.01921  1.0000
  C   C2175     1.0  0.69186  0.32047  0.02391  1.0000
  C   C2176     1.0  0.67666  0.31007  0.03851  1.0000
  C   C2177     1.0  0.69222  0.34024  0.05655  1.0000
  C   C2178     1.0  0.72355  0.33997  0.99741  1.0000
  C   C2179     1.0  0.72047  0.28340  0.03764  1.0000
  C   C2180     1.0  0.73863  0.26784  0.03617  1.0000
  H   H3838     1.0  0.60928  0.29595  0.98070  1.0000
  C   C2181     1.0  0.68477  0.33799  0.07798  1.0000
  H   H3839     1.0  0.68539  0.05498  0.31218  1.0000
  H   H3840     1.0  0.71864  0.31930  0.05616  1.0000
  H   H3841     1.0  0.65225  0.42398  0.25056  1.0000
  H   H3842     1.0  0.72885  0.30297  0.01182  1.0000
  H   H3843     1.0  0.73780  0.30467  0.03096  1.0000
  H   H3844     1.0  0.72897  0.33961  0.02467  1.0000
  H   H3845     1.0  0.70576  0.35164  0.02092  1.0000
  H   H3846     1.0  0.68416  0.33541  0.01894  1.0000
  H   H3847     1.0  0.69620  0.31393  0.01120  1.0000
  H   H3848     1.0  0.70050  0.35179  0.05186  1.0000
  H   H3849     1.0  0.67991  0.34505  0.04947  1.0000
  H   H3850     1.0  0.67404  0.26811  0.47307  1.0000
  H   H3851     1.0  0.73711  0.32966  0.99428  1.0000
  H   H3852     1.0  0.73515  0.25349  0.04298  1.0000
  H   H3853     1.0  0.74571  0.26801  0.02104  1.0000
  H   H3854     1.0  0.70340  0.39455  0.35793  1.0000
  H   H3855     1.0  0.71510  0.22593  0.98249  1.0000
  H   H3856     1.0  0.67576  0.32703  0.08337  1.0000
  C   C2182     1.0  0.75289  0.02341  0.32139  1.0000
  H   H3857     1.0  0.72761  0.04544  0.32535  1.0000
  H   H3858     1.0  0.66084  0.22689  0.39581  1.0000
  H   H3859     1.0  0.64080  0.39493  0.34770  1.0000
  C   C2183     1.0  0.61955  0.38509  0.39269  1.0000
  H   H3860     1.0  0.66938  0.21215  0.17517  1.0000
  H   H3861     1.0  0.69205  0.35917  0.20163  1.0000
  S   S493      1.0  0.62309  0.08421  0.21323  1.0000
  S   S494      1.0  0.73996  0.00525  0.32569  1.0000
  H   H3862     1.0  0.74863  0.27014  0.04366  1.0000
  C   C2184     1.0  0.74296  0.04220  0.32254  1.0000
  H   H3863     1.0  0.68640  0.37294  0.22972  1.0000
  H   H3864     1.0  0.72205  0.36251  0.07545  1.0000
  H   H3865     1.0  0.67254  0.40774  0.21250  1.0000
  C   C2185     1.0  0.67179  0.23579  0.39160  1.0000
  H   H3866     1.0  0.66545  0.24621  0.36279  1.0000
  C   C2186     1.0  0.72081  0.41516  0.12745  1.0000
  H   H3867     1.0  0.70537  0.42774  0.34126  1.0000
  C   C2187     1.0  0.77274  0.01935  0.31771  1.0000
  C   C2188     1.0  0.75280  0.05680  0.32020  1.0000
  H   H3868     1.0  0.74501  0.07115  0.32111  1.0000
  H   H3869     1.0  0.66723  0.20197  0.41757  1.0000
  C   C2189     1.0  0.68257  0.19553  0.41611  1.0000
  C   C2190     1.0  0.72073  0.40310  0.11330  1.0000
  C   C2191     1.0  0.75860  0.09316  0.27078  1.0000
  H   H3870     1.0  0.64353  0.28430  0.97760  1.0000
  C   C2192     1.0  0.62568  0.04793  0.20879  1.0000
  C   C2193     1.0  0.63432  0.99262  0.10322  1.0000
  H   H3871     1.0  0.71428  0.28255  0.05298  1.0000
  H   H3872     1.0  0.69630  0.03198  0.23129  1.0000
  Fe  Fe252     1.0  0.77069  0.10136  0.31591  1.0000
  H   H3873     1.0  0.70107  0.37681  0.06702  1.0000
  H   H3874     1.0  0.70993  0.20248  0.40560  1.0000
  H   H3875     1.0  0.68281  0.29532  0.04547  1.0000
  C   C2194     1.0  0.68745  0.37498  0.20031  1.0000
  S   S495      1.0  0.77672  0.12579  0.29099  1.0000
  C   C2195     1.0  0.77263  0.05268  0.31699  1.0000
  H   H3876     1.0  0.69490  0.33072  0.39474  1.0000
  C   C2196     1.0  0.59119  0.35751  0.33658  1.0000
  H   H3877     1.0  0.65753  0.48124  0.32270  1.0000
  H   H3878     1.0  0.73749  0.34951  0.19814  1.0000
  H   H3879     1.0  0.77415  0.34960  0.99167  1.0000
  H   H3880     1.0  0.72926  0.03472  0.39805  1.0000
  H   H3881     1.0  0.74568  0.19899  0.03638  1.0000
  C   C2197     1.0  0.76990  0.35369  0.02031  1.0000
  C   C2198     1.0  0.62981  0.37263  0.34365  1.0000
  H   H3882     1.0  0.74789  0.05267  0.41736  1.0000
  H   H3883     1.0  0.66261  0.02011  0.22404  1.0000
  C   C2199     1.0  0.69983  0.35349  0.30009  1.0000
  C   C2200     1.0  0.70148  0.02045  0.20634  1.0000
  H   H3884     1.0  0.72008  0.07138  0.43648  1.0000
  S   S496      1.0  0.78253  0.16951  0.44415  1.0000
  H   H3885     1.0  0.70585  0.33389  0.35141  1.0000
  C   C2201     1.0  0.63671  0.18194  0.11037  1.0000
  C   C2202     1.0  0.67289  0.47641  0.32274  1.0000
  C   C2203     1.0  0.66148  0.30879  0.02884  1.0000
  H   H3886     1.0  0.64092  0.24479  0.03316  1.0000
  H   H3887     1.0  0.62408  0.15803  0.12718  1.0000
  H   H3888     1.0  0.66767  0.29910  0.01867  1.0000
  Fe  Fe253     1.0  0.77887  0.42273  0.22261  1.0000
  H   H3889     1.0  0.76538  0.20350  0.37554  1.0000
  C   C2204     1.0  0.68419  0.43202  0.22517  1.0000
  Fe  Fe254     1.0  0.76733  0.17878  0.47153  1.0000
  H   H3890     1.0  0.70395  0.00756  0.28551  1.0000
  C   C2205     1.0  0.75763  0.22668  0.15640  1.0000
  H   H3891     1.0  0.73472  0.02741  0.36738  1.0000
  S   S497      1.0  0.66252  0.01037  0.17817  1.0000
  H   H3892     1.0  0.60876  0.21692  0.26317  1.0000
  S   S498      1.0  0.78485  0.31210  0.09216  1.0000
  H   H3893     1.0  0.70986  0.00648  0.21267  1.0000
  H   H3894     1.0  0.76997  0.29925  0.03653  1.0000
  C   C2206     1.0  0.77224  0.34281  0.00665  1.0000
  H   H3895     1.0  0.66966  0.19120  0.19410  1.0000
  C   C2207     1.0  0.62713  0.17090  0.12991  1.0000
  H   H3896     1.0  0.64227  0.21780  0.15999  1.0000
  C   C2208     1.0  0.76943  0.18901  0.37228  1.0000
  H   H3897     1.0  0.76744  0.41160  0.06528  1.0000
  S   S499      1.0  0.75517  0.20859  0.45694  1.0000
  H   H3898     1.0  0.69348  0.01797  0.19689  1.0000
  C   C2209     1.0  0.74225  0.22911  0.14539  1.0000
  H   H3899     1.0  0.71382  0.38755  0.25851  1.0000
  H   H3900     1.0  0.78467  0.17699  0.39481  1.0000
  H   H3901     1.0  0.71396  0.30839  0.97881  1.0000
  H   H3902     1.0  0.62424  0.23096  0.04914  1.0000
  H   H3903     1.0  0.71369  0.37100  0.98869  1.0000
  H   H3904     1.0  0.78571  0.19983  0.26825  1.0000
  H   H3905     1.0  0.76511  0.09021  0.28331  1.0000
  H   H3906     1.0  0.59295  0.21381  0.18467  1.0000
  H   H3907     1.0  0.65950  0.99882  0.08057  1.0000
  H   H3908     1.0  0.59146  0.34685  0.35025  1.0000
  H   H3909     1.0  0.76590  0.24683  0.44956  1.0000
  H   H3910     1.0  0.78266  0.15097  0.37832  1.0000
  H   H3911     1.0  0.59101  0.17852  0.16816  1.0000
  H   H3912     1.0  0.62857  0.20728  0.98434  1.0000
  S   S500      1.0  0.59189  0.43659  0.26960  1.0000
  H   H3913     1.0  0.59531  0.24845  0.24705  1.0000
  H   H3914     1.0  0.59839  0.25143  0.27813  1.0000
  H   H3915     1.0  0.78719  0.40241  0.13120  1.0000
  H   H3916     1.0  0.59429  0.39573  0.28613  1.0000
  C   C2210     1.0  0.59692  0.30626  0.36978  1.0000
  C   C2211     1.0  0.77789  0.25202  0.43871  1.0000
  H   H3917     1.0  0.59161  0.20426  0.23613  1.0000
  C   C2212     1.0  0.78826  0.40354  0.08266  1.0000
  H   H3918     1.0  0.78767  0.41840  0.08374  1.0000
  S   S501      1.0  0.59110  0.42898  0.35882  1.0000
  H   H3919     1.0  0.59189  0.33339  0.47035  1.0000
  S   S502      1.0  0.59061  0.46373  0.30988  1.0000
  C   C2213     1.0  0.67018  0.22122  0.97610  1.0000
  C   C2214     1.0  0.71035  0.29568  0.97649  1.0000
  H   H3920     1.0  0.60109  0.13985  0.78014  1.0000
  H   H3921     1.0  0.60099  0.36478  0.63248  1.0000
  H   H3922     1.0  0.65550  0.02443  0.75764  1.0000
  H   H3923     1.0  0.73736  0.36342  0.86697  1.0000
  C   C2215     1.0  0.68491  0.18376  0.75722  1.0000
  C   C2216     1.0  0.67774  0.30350  0.50560  1.0000
  Fe  Fe255     1.0  0.63431  0.34059  0.59642  1.0000
  S   S503      1.0  0.61758  0.36940  0.58483  1.0000
  S   S504      1.0  0.62185  0.31950  0.62140  1.0000
  Fe  Fe256     1.0  0.67132  0.34861  0.57081  1.0000
  S   S505      1.0  0.65779  0.37829  0.55711  1.0000
  S   S506      1.0  0.70234  0.33636  0.56140  1.0000
  Fe  Fe257     1.0  0.64192  0.38079  0.58674  1.0000
  S   S507      1.0  0.63718  0.40810  0.59716  1.0000
  Fe  Fe258     1.0  0.63476  0.36439  0.55634  1.0000
  S   S508      1.0  0.62237  0.37391  0.52998  1.0000
  S   S509      1.0  0.65744  0.35224  0.60048  1.0000
  S   S510      1.0  0.64953  0.33440  0.56774  1.0000
  Fe  Fe259     1.0  0.66664  0.42852  0.72376  1.0000
  S   S511      1.0  0.67956  0.43723  0.69269  1.0000
  S   S512      1.0  0.68166  0.41726  0.74839  1.0000
  Fe  Fe260     1.0  0.62637  0.43754  0.71660  1.0000
  S   S513      1.0  0.63572  0.44702  0.68504  1.0000
  H   H3924     1.0  0.66252  0.28700  0.48469  1.0000
  Fe  Fe261     1.0  0.65974  0.42132  0.68797  1.0000
  S   S514      1.0  0.66813  0.39772  0.67144  1.0000
  Fe  Fe262     1.0  0.65441  0.46213  0.69268  1.0000
  H   H3925     1.0  0.67949  0.02447  0.74442  1.0000
  S   S515      1.0  0.64883  0.41068  0.71916  1.0000
  S   S516      1.0  0.64313  0.45442  0.72400  1.0000
  S   S517      1.0  0.66131  0.25672  0.88147  1.0000
  Fe  Fe263     1.0  0.67594  0.22566  0.88929  1.0000
  S   S518      1.0  0.68933  0.20957  0.86542  1.0000
  Fe  Fe264     1.0  0.67321  0.26138  0.90433  1.0000
  S   S519      1.0  0.68248  0.28832  0.90449  1.0000
  Fe  Fe265     1.0  0.66103  0.12654  0.80128  1.0000
  S   S520      1.0  0.63922  0.12301  0.82869  1.0000
  Fe  Fe266     1.0  0.69218  0.09768  0.81819  1.0000
  S   S521      1.0  0.67313  0.09108  0.84678  1.0000
  S   S522      1.0  0.72281  0.08245  0.81259  1.0000
  Fe  Fe267     1.0  0.65148  0.09142  0.83072  1.0000
  S   S523      1.0  0.63264  0.06962  0.84234  1.0000
  Fe  Fe268     1.0  0.66267  0.12306  0.84251  1.0000
  S   S524      1.0  0.65966  0.13538  0.86817  1.0000
  S   S525      1.0  0.67162  0.09496  0.80245  1.0000
  S   S526      1.0  0.68314  0.12965  0.81492  1.0000
  S   S527      1.0  0.72656  0.45449  0.81165  1.0000
  S   S528      1.0  0.73686  0.46515  0.75693  1.0000
  H   H3926     1.0  0.59111  0.48437  0.70022  1.0000
  Fe  Fe269     1.0  0.75643  0.35075  0.93425  1.0000
  S   S529      1.0  0.77340  0.33585  0.91094  1.0000
  S   S530      1.0  0.73688  0.37931  0.92676  1.0000
  H   H3927     1.0  0.68733  0.19734  0.74692  1.0000
  H   H3928     1.0  0.68683  0.18445  0.77127  1.0000
  H   H3929     1.0  0.75460  0.36930  0.80896  1.0000
  Fe  Fe270     1.0  0.76765  0.30876  0.93175  1.0000
  S   S531      1.0  0.76189  0.28407  0.92307  1.0000
  S   S532      1.0  0.77894  0.08415  0.71717  1.0000
  H   H3930     1.0  0.71197  0.42239  0.63255  1.0000
  H   H3931     1.0  0.77666  0.35691  0.79620  1.0000
  S   S533      1.0  0.73802  0.26872  0.62231  1.0000
  H   H3932     1.0  0.64698  0.10432  0.76821  1.0000
  C   C2217     1.0  0.77198  0.22628  0.96632  1.0000
  H   H3933     1.0  0.73897  0.01470  0.74119  1.0000
  H   H3934     1.0  0.61664  0.25313  0.96363  1.0000
  H   H3935     1.0  0.76287  0.00054  0.73768  1.0000
  H   H3936     1.0  0.71349  0.16850  0.74896  1.0000
  H   H3937     1.0  0.69060  0.48517  0.81638  1.0000
  H   H3938     1.0  0.59483  0.43553  0.56772  1.0000
  H   H3939     1.0  0.60637  0.26295  0.82486  1.0000
  H   H3940     1.0  0.76782  0.32620  0.60486  1.0000
  H   H3941     1.0  0.72247  0.26531  0.95751  1.0000
  H   H3942     1.0  0.59894  0.31796  0.65916  1.0000
  C   C2218     1.0  0.60628  0.41488  0.66552  1.0000
  H   H3943     1.0  0.73421  0.19962  0.95130  1.0000
  H   H3944     1.0  0.66708  0.32347  0.52450  1.0000
  H   H3945     1.0  0.61244  0.31465  0.68837  1.0000
  N   N124      1.0  0.69176  0.27558  0.48749  1.0000
  H   H3946     1.0  0.59992  0.40074  0.60996  1.0000
  H   H3947     1.0  0.72367  0.46537  0.67953  1.0000
  H   H3948     1.0  0.74075  0.02797  0.80749  1.0000
  C   C2219     1.0  0.73671  0.15311  0.53674  1.0000
  H   H3949     1.0  0.73300  0.16775  0.52788  1.0000
  C   C2220     1.0  0.73415  0.39385  0.86382  1.0000
  C   C2221     1.0  0.73619  0.37476  0.87404  1.0000
  C   C2222     1.0  0.73691  0.37028  0.89337  1.0000
  C   C2223     1.0  0.73559  0.38488  0.90261  1.0000
  C   C2224     1.0  0.73329  0.40403  0.89245  1.0000
  C   C2225     1.0  0.73280  0.40851  0.87300  1.0000
  H   H3950     1.0  0.73803  0.35556  0.90126  1.0000
  H   H3951     1.0  0.73201  0.41535  0.89962  1.0000
  H   H3952     1.0  0.73095  0.42332  0.86524  1.0000
  H   H3953     1.0  0.60678  0.30174  0.82526  1.0000
  C   C2226     1.0  0.72239  0.21226  0.94928  1.0000
  H   H3954     1.0  0.63836  0.24589  0.51125  1.0000
  H   H3955     1.0  0.71531  0.24233  0.94899  1.0000
  C   C2227     1.0  0.73689  0.09486  0.79279  1.0000
  C   C2228     1.0  0.73049  0.11433  0.78523  1.0000
  C   C2229     1.0  0.74202  0.12435  0.76988  1.0000
  C   C2230     1.0  0.75948  0.11464  0.76121  1.0000
  C   C2231     1.0  0.76589  0.09509  0.76845  1.0000
  C   C2232     1.0  0.75477  0.08532  0.78454  1.0000
  H   H3956     1.0  0.71670  0.12173  0.79115  1.0000
  H   H3957     1.0  0.73707  0.13946  0.76432  1.0000
  S   S534      1.0  0.78139  0.34917  0.94645  1.0000
  H   H3958     1.0  0.75988  0.07028  0.79035  1.0000
  C   C2233     1.0  0.63162  0.05412  0.82843  1.0000
  C   C2234     1.0  0.62384  0.03776  0.83740  1.0000
  C   C2235     1.0  0.67401  0.23962  0.96852  1.0000
  C   C2236     1.0  0.63768  0.05818  0.80862  1.0000
  H   H3959     1.0  0.67732  0.31811  0.66447  1.0000
  H   H3960     1.0  0.72361  0.14904  0.54634  1.0000
  H   H3961     1.0  0.62706  0.12081  0.79309  1.0000
  C   C2237     1.0  0.70384  0.28583  0.91183  1.0000
  C   C2238     1.0  0.71895  0.27029  0.90909  1.0000
  C   C2239     1.0  0.73661  0.26985  0.91281  1.0000
  C   C2240     1.0  0.73929  0.28489  0.91932  1.0000
  C   C2241     1.0  0.72404  0.30016  0.92263  1.0000
  C   C2242     1.0  0.70634  0.30053  0.91903  1.0000
  H   H3962     1.0  0.71725  0.25893  0.90347  1.0000
  H   H3963     1.0  0.74835  0.25798  0.91024  1.0000
  H   H3964     1.0  0.72593  0.31175  0.92779  1.0000
  H   H3965     1.0  0.69460  0.31239  0.92157  1.0000
  C   C2243     1.0  0.68007  0.18956  0.86619  1.0000
  C   C2244     1.0  0.67278  0.17820  0.88356  1.0000
  C   C2245     1.0  0.66664  0.16163  0.88392  1.0000
  C   C2246     1.0  0.66758  0.15633  0.86694  1.0000
  C   C2247     1.0  0.67449  0.16787  0.84955  1.0000
  C   C2248     1.0  0.68095  0.18428  0.84919  1.0000
  H   H3966     1.0  0.66122  0.15284  0.89744  1.0000
  H   H3967     1.0  0.67470  0.16421  0.83642  1.0000
  H   H3968     1.0  0.68639  0.19311  0.83570  1.0000
  C   C2249     1.0  0.69625  0.43131  0.75088  1.0000
  C   C2250     1.0  0.70472  0.42557  0.76677  1.0000
  C   C2251     1.0  0.71699  0.43606  0.76881  1.0000
  C   C2252     1.0  0.72089  0.45235  0.75491  1.0000
  C   C2253     1.0  0.71211  0.45836  0.73919  1.0000
  C   C2254     1.0  0.69979  0.44785  0.73719  1.0000
  H   H3969     1.0  0.70193  0.41287  0.77743  1.0000
  H   H3970     1.0  0.72361  0.43138  0.78101  1.0000
  H   H3971     1.0  0.71496  0.47101  0.72848  1.0000
  H   H3972     1.0  0.69327  0.45231  0.72494  1.0000
  C   C2255     1.0  0.78393  0.03318  0.67863  1.0000
  S   S535      1.0  0.73306  0.39893  0.83968  1.0000
  H   H3973     1.0  0.73715  0.44799  0.89253  1.0000
  H   H3974     1.0  0.73365  0.14026  0.51503  1.0000
  Fe  Fe271     1.0  0.66433  0.22505  0.93166  1.0000
  H   H3975     1.0  0.72267  0.21425  0.51850  1.0000
  C   C2256     1.0  0.71273  0.31830  0.57858  1.0000
  C   C2257     1.0  0.70328  0.31496  0.59765  1.0000
  C   C2258     1.0  0.71147  0.30004  0.61110  1.0000
  C   C2259     1.0  0.72888  0.28810  0.60545  1.0000
  C   C2260     1.0  0.73849  0.29151  0.58642  1.0000
  C   C2261     1.0  0.73052  0.30678  0.57304  1.0000
  H   H3976     1.0  0.68966  0.32375  0.60209  1.0000
  H   H3977     1.0  0.70411  0.29738  0.62581  1.0000
  H   H3978     1.0  0.75201  0.28237  0.58199  1.0000
  H   H3979     1.0  0.73791  0.30932  0.55829  1.0000
  C   C2262     1.0  0.64473  0.40546  0.61838  1.0000
  C   C2263     1.0  0.64861  0.38736  0.63033  1.0000
  C   C2264     1.0  0.65546  0.38527  0.64671  1.0000
  C   C2265     1.0  0.65815  0.40129  0.65153  1.0000
  C   C2266     1.0  0.65358  0.41956  0.64003  1.0000
  C   C2267     1.0  0.64694  0.42162  0.62343  1.0000
  H   H3980     1.0  0.64619  0.37496  0.62708  1.0000
  H   H3981     1.0  0.65855  0.37118  0.65573  1.0000
  H   H3982     1.0  0.65554  0.43202  0.64369  1.0000
  H   H3983     1.0  0.64374  0.43571  0.61436  1.0000
  S   S536      1.0  0.65792  0.14400  0.77206  1.0000
  Fe  Fe272     1.0  0.77501  0.32098  0.96458  1.0000
  S   S537      1.0  0.69037  0.23123  0.90980  1.0000
  C   C2268     1.0  0.62666  0.32854  0.49700  1.0000
  C   C2269     1.0  0.62545  0.32330  0.51675  1.0000
  C   C2270     1.0  0.62492  0.33699  0.52688  1.0000
  C   C2271     1.0  0.62507  0.35610  0.51735  1.0000
  C   C2272     1.0  0.62629  0.36131  0.49760  1.0000
  C   C2273     1.0  0.77911  0.19075  0.50855  1.0000
  S   S538      1.0  0.65144  0.21669  0.91180  1.0000
  H   H3984     1.0  0.62372  0.33295  0.54214  1.0000
  N   N125      1.0  0.61460  0.36601  0.70242  1.0000
  H   H3985     1.0  0.74778  0.12415  0.53137  1.0000
  H   H3986     1.0  0.63283  0.23356  0.87583  1.0000
  C   C2274     1.0  0.60956  0.38079  0.68507  1.0000
  C   C2275     1.0  0.63447  0.36609  0.70367  1.0000
  C   C2276     1.0  0.60569  0.17624  0.78720  1.0000
  C   C2277     1.0  0.62425  0.34027  0.68194  1.0000
  C   C2278     1.0  0.61092  0.40167  0.68402  1.0000
  H   H3987     1.0  0.68993  0.30846  0.52704  1.0000
  H   H3988     1.0  0.61073  0.29219  0.86661  1.0000
  C   C2279     1.0  0.66446  0.35042  0.71651  1.0000
  H   H3989     1.0  0.77100  0.40582  0.92640  1.0000
  H   H3990     1.0  0.62335  0.17635  0.82300  1.0000
  H   H3991     1.0  0.60757  0.18448  0.73969  1.0000
  C   C2280     1.0  0.59215  0.42072  0.57145  1.0000
  C   C2281     1.0  0.61859  0.23523  0.87384  1.0000
  H   H3992     1.0  0.73607  0.00157  0.78146  1.0000
  H   H3993     1.0  0.59959  0.13422  0.81814  1.0000
  H   H3994     1.0  0.61918  0.37697  0.67188  1.0000
  H   H3995     1.0  0.64330  0.36989  0.68918  1.0000
  H   H3996     1.0  0.63407  0.37772  0.71078  1.0000
  C   C2282     1.0  0.59317  0.12145  0.82074  1.0000
  H   H3997     1.0  0.62575  0.14488  0.89992  1.0000
  H   H3998     1.0  0.61678  0.34763  0.67008  1.0000
  H   H3999     1.0  0.63853  0.34383  0.67770  1.0000
  H   H4000     1.0  0.62534  0.40246  0.68474  1.0000
  C   C2283     1.0  0.77737  0.44315  0.88599  1.0000
  H   H4001     1.0  0.68593  0.45208  0.81864  1.0000
  H   H4002     1.0  0.70076  0.98794  0.82125  1.0000
  H   H4003     1.0  0.70481  0.46666  0.89111  1.0000
  S   S539      1.0  0.66618  0.20818  0.96147  1.0000
  H   H4004     1.0  0.65867  0.00621  0.83603  1.0000
  H   H4005     1.0  0.76239  0.21237  0.49052  1.0000
  H   H4006     1.0  0.67317  0.35640  0.70265  1.0000
  C   C2284     1.0  0.76942  0.37027  0.80142  1.0000
  H   H4007     1.0  0.70498  0.28393  0.50567  1.0000
  H   H4008     1.0  0.74891  0.48504  0.86654  1.0000
  C   C2285     1.0  0.61280  0.12710  0.89088  1.0000
  S   S540      1.0  0.59478  0.21723  0.84086  1.0000
  C   C2286     1.0  0.78201  0.11873  0.80515  1.0000
  S   S541      1.0  0.77001  0.21751  0.62712  1.0000
  N   N126      1.0  0.66791  0.27208  0.59722  1.0000
  C   C2287     1.0  0.68042  0.27866  0.57824  1.0000
  C   C2288     1.0  0.64768  0.28282  0.59700  1.0000
  C   C2289     1.0  0.67419  0.27792  0.61218  1.0000
  C   C2290     1.0  0.66926  0.25057  0.60246  1.0000
  C   C2291     1.0  0.67244  0.24025  0.58591  1.0000
  C   C2292     1.0  0.70207  0.27109  0.57711  1.0000
  C   C2293     1.0  0.66239  0.27364  0.63283  1.0000
  C   C2294     1.0  0.63804  0.28031  0.58208  1.0000
  C   C2295     1.0  0.61881  0.29426  0.58195  1.0000
  C   C2296     1.0  0.67178  0.21898  0.59352  1.0000
  C   C2297     1.0  0.71330  0.27410  0.55657  1.0000
  C   C2298     1.0  0.67134  0.27835  0.64680  1.0000
  H   H4009     1.0  0.67800  0.29470  0.57445  1.0000
  H   H4010     1.0  0.67671  0.27464  0.56661  1.0000
  H   H4011     1.0  0.63814  0.27858  0.61092  1.0000
  H   H4012     1.0  0.64694  0.29847  0.59500  1.0000
  H   H4013     1.0  0.67411  0.29362  0.60815  1.0000
  H   H4014     1.0  0.68908  0.27046  0.61308  1.0000
  H   H4015     1.0  0.68124  0.24328  0.60993  1.0000
  H   H4016     1.0  0.65628  0.24705  0.61298  1.0000
  H   H4017     1.0  0.68655  0.24093  0.57646  1.0000
  H   H4018     1.0  0.66179  0.24676  0.57692  1.0000
  H   H4019     1.0  0.70720  0.27905  0.58465  1.0000
  H   H4020     1.0  0.70552  0.25567  0.58401  1.0000
  H   H4021     1.0  0.66142  0.25827  0.63757  1.0000
  H   H4022     1.0  0.64783  0.28261  0.63400  1.0000
  H   H4023     1.0  0.64666  0.28309  0.56744  1.0000
  H   H4024     1.0  0.63515  0.26561  0.58586  1.0000
  H   H4025     1.0  0.62061  0.30940  0.57785  1.0000
  H   H4026     1.0  0.61190  0.29197  0.57148  1.0000
  H   H4027     1.0  0.60929  0.29196  0.59624  1.0000
  H   H4028     1.0  0.68295  0.21165  0.60194  1.0000
  H   H4029     1.0  0.72871  0.26861  0.55645  1.0000
  H   H4030     1.0  0.70897  0.26624  0.54820  1.0000
  H   H4031     1.0  0.71113  0.28968  0.54978  1.0000
  H   H4032     1.0  0.68607  0.26980  0.64655  1.0000
  H   H4033     1.0  0.67157  0.29393  0.64315  1.0000
  H   H4034     1.0  0.66281  0.27490  0.66146  1.0000
  C   C2299     1.0  0.66354  0.25820  0.50262  1.0000
  C   C2300     1.0  0.70841  0.24334  0.50724  1.0000
  C   C2301     1.0  0.71789  0.22275  0.50525  1.0000
  C   C2302     1.0  0.64374  0.25802  0.50056  1.0000
  H   H4035     1.0  0.66202  0.26136  0.51670  1.0000
  H   H4036     1.0  0.67222  0.24353  0.50220  1.0000
  H   H4037     1.0  0.71742  0.24865  0.51360  1.0000
  H   H4038     1.0  0.69474  0.24270  0.51750  1.0000
  H   H4039     1.0  0.72017  0.21499  0.93456  1.0000
  H   H4040     1.0  0.61909  0.03454  0.85272  1.0000
  H   H4041     1.0  0.75697  0.01976  0.75017  1.0000
  C   C2303     1.0  0.62306  0.10848  0.90209  1.0000
  C   C2304     1.0  0.71018  0.47624  0.67938  1.0000
  C   C2305     1.0  0.77573  0.41198  0.91103  1.0000
  H   H4042     1.0  0.64407  0.25626  0.48614  1.0000
  H   H4043     1.0  0.61286  0.15243  0.85427  1.0000
  H   H4044     1.0  0.63936  0.16339  0.74099  1.0000
  Fe  Fe273     1.0  0.63742  0.24780  0.90493  1.0000
  C   C2306     1.0  0.72187  0.40994  0.62721  1.0000
  H   H4045     1.0  0.59921  0.29504  0.79937  1.0000
  C   C2307     1.0  0.67032  0.01168  0.83813  1.0000
  C   C2308     1.0  0.71707  0.47095  0.88002  1.0000
  H   H4046     1.0  0.62643  0.37608  0.49018  1.0000
  C   C2309     1.0  0.62012  0.11318  0.78678  1.0000
  C   C2310     1.0  0.61255  0.34685  0.70051  1.0000
  H   H4047     1.0  0.61765  0.46807  0.75433  1.0000
  H   H4048     1.0  0.77492  0.15367  0.76657  1.0000
  H   H4049     1.0  0.67501  0.24575  0.95346  1.0000
  C   C2311     1.0  0.59959  0.12459  0.78575  1.0000
  C   C2312     1.0  0.68419  0.01651  0.81923  1.0000
  H   H4050     1.0  0.59068  0.45539  0.63955  1.0000
  C   C2313     1.0  0.76855  0.20913  0.50282  1.0000
  C   C2314     1.0  0.69376  0.33726  0.64305  1.0000
  H   H4051     1.0  0.66783  0.04170  0.75931  1.0000
  C   C2315     1.0  0.59647  0.26611  0.81517  1.0000
  H   H4052     1.0  0.71279  0.07851  0.85996  1.0000
  C   C2316     1.0  0.75253  0.46948  0.87302  1.0000
  H   H4053     1.0  0.78595  0.11243  0.79234  1.0000
  H   H4054     1.0  0.67824  0.44751  0.79963  1.0000
  C   C2317     1.0  0.59733  0.22861  0.85771  1.0000
  S   S542      1.0  0.60693  0.25657  0.90134  1.0000
  H   H4055     1.0  0.59176  0.45461  0.69397  1.0000
  H   H4056     1.0  0.73398  0.15523  0.88680  1.0000
  H   H4057     1.0  0.61563  0.40943  0.65306  1.0000
  H   H4058     1.0  0.59902  0.08319  0.79725  1.0000
  C   C2318     1.0  0.67275  0.27304  0.48624  1.0000
  H   H4059     1.0  0.70270  0.47387  0.66943  1.0000
  H   H4060     1.0  0.79016  0.31799  0.84962  1.0000
  H   H4061     1.0  0.77741  0.34420  0.87003  1.0000
  C   C2319     1.0  0.76444  0.12162  0.65283  1.0000
  N   N127      1.0  0.76255  0.03539  0.68306  1.0000
  C   C2320     1.0  0.75710  0.02283  0.70249  1.0000
  C   C2321     1.0  0.75750  0.02867  0.66789  1.0000
  H   H4062     1.0  0.78633  0.16374  0.73049  1.0000
  C   C2322     1.0  0.75381  0.05635  0.68255  1.0000
  C   C2323     1.0  0.73192  0.06166  0.68846  1.0000
  C   C2324     1.0  0.75956  0.02942  0.71962  1.0000
  H   H4063     1.0  0.63818  0.34068  0.72761  1.0000
  C   C2325     1.0  0.73887  0.02102  0.67303  1.0000
  C   C2326     1.0  0.73452  0.01781  0.65532  1.0000
  C   C2327     1.0  0.72541  0.08196  0.69225  1.0000
  C   C2328     1.0  0.75422  0.01521  0.73830  1.0000
  H   H4064     1.0  0.77265  0.38724  0.81911  1.0000
  H   H4065     1.0  0.76536  0.00781  0.70282  1.0000
  H   H4066     1.0  0.74203  0.02162  0.70575  1.0000
  H   H4067     1.0  0.75686  0.04043  0.65491  1.0000
  H   H4068     1.0  0.76892  0.01667  0.66321  1.0000
  H   H4069     1.0  0.63381  0.31472  0.67010  1.0000
  C   C2329     1.0  0.60320  0.24588  0.88451  1.0000
  H   H4070     1.0  0.76019  0.06191  0.69139  1.0000
  H   H4071     1.0  0.75740  0.06510  0.66792  1.0000
  H   H4072     1.0  0.72621  0.05174  0.70153  1.0000
  H   H4073     1.0  0.72551  0.06151  0.67668  1.0000
  H   H4074     1.0  0.62033  0.16531  0.91917  1.0000
  H   H4075     1.0  0.75027  0.04365  0.72094  1.0000
  H   H4076     1.0  0.76638  0.35860  0.84157  1.0000
  H   H4077     1.0  0.66859  0.29863  0.53654  1.0000
  H   H4078     1.0  0.74028  0.00697  0.68339  1.0000
  H   H4079     1.0  0.72651  0.03093  0.67946  1.0000
  H   H4080     1.0  0.63482  0.29759  0.93742  1.0000
  H   H4081     1.0  0.60054  0.10337  0.85708  1.0000
  H   H4082     1.0  0.70637  0.29952  0.96240  1.0000
  H   H4083     1.0  0.73033  0.09264  0.67938  1.0000
  H   H4084     1.0  0.70966  0.08564  0.69614  1.0000
  H   H4085     1.0  0.73121  0.08279  0.70419  1.0000
  C   C2330     1.0  0.59988  0.18364  0.76978  1.0000
  H   H4086     1.0  0.70768  0.21574  0.50256  1.0000
  H   H4087     1.0  0.63200  0.12563  0.75734  1.0000
  H   H4088     1.0  0.64384  0.07063  0.80158  1.0000
  C   C2331     1.0  0.72709  0.23002  0.95232  1.0000
  C   C2332     1.0  0.68546  0.32897  0.66382  1.0000
  H   H4089     1.0  0.72954  0.14594  0.62852  1.0000
  H   H4090     1.0  0.71858  0.46452  0.86770  1.0000
  H   H4091     1.0  0.77945  0.08753  0.76176  1.0000
  C   C2333     1.0  0.74445  0.13922  0.52326  1.0000
  H   H4092     1.0  0.62062  0.26437  0.79124  1.0000
  C   C2334     1.0  0.62234  0.02539  0.82669  1.0000
  H   H4093     1.0  0.66328  0.30420  0.50390  1.0000
  H   H4094     1.0  0.65764  0.21730  0.60264  1.0000
  H   H4095     1.0  0.75788  0.23765  0.50832  1.0000
  N   N128      1.0  0.70591  0.00144  0.79125  1.0000
  H   H4096     1.0  0.74342  0.17449  0.76798  1.0000
  H   H4097     1.0  0.59593  0.08343  0.82213  1.0000
  H   H4098     1.0  0.60864  0.47573  0.77640  1.0000
  H   H4099     1.0  0.77087  0.13085  0.57916  1.0000
  H   H4100     1.0  0.75404  0.46215  0.86136  1.0000
  H   H4101     1.0  0.62783  0.15795  0.80141  1.0000
  H   H4102     1.0  0.70921  0.20889  0.95937  1.0000
  H   H4103     1.0  0.61729  0.31292  0.84892  1.0000
  H   H4104     1.0  0.59126  0.41585  0.66521  1.0000
  C   C2335     1.0  0.72931  0.22707  0.97310  1.0000
  H   H4105     1.0  0.78554  0.13410  0.65702  1.0000
  C   C2336     1.0  0.63208  0.11127  0.76706  1.0000
  H   H4106     1.0  0.70997  0.21867  0.55500  1.0000
  S   S543      1.0  0.78186  0.17242  0.49643  1.0000
  S   S544      1.0  0.78395  0.24709  0.58599  1.0000
  C   C2337     1.0  0.63566  0.15935  0.77134  1.0000
  H   H4107     1.0  0.60638  0.41644  0.54304  1.0000
  H   H4108     1.0  0.62552  0.18324  0.89773  1.0000
  H   H4109     1.0  0.62651  0.10224  0.76095  1.0000
  C   C2338     1.0  0.62786  0.02976  0.80685  1.0000
  N   N129      1.0  0.70518  0.33987  0.85892  1.0000
  C   C2339     1.0  0.70399  0.35914  0.84509  1.0000
  C   C2340     1.0  0.70259  0.34234  0.87905  1.0000
  C   C2341     1.0  0.72484  0.32798  0.85344  1.0000
  C   C2342     1.0  0.69098  0.32911  0.85790  1.0000
  C   C2343     1.0  0.66982  0.33908  0.86238  1.0000
  C   C2344     1.0  0.70729  0.35883  0.82373  1.0000
  C   C2345     1.0  0.73030  0.30869  0.86764  1.0000
  C   C2346     1.0  0.68971  0.36124  0.88429  1.0000
  C   C2347     1.0  0.68631  0.36025  0.90564  1.0000
  C   C2348     1.0  0.65716  0.32726  0.85952  1.0000
  C   C2349     1.0  0.70505  0.37922  0.81142  1.0000
  C   C2350     1.0  0.75029  0.29796  0.86032  1.0000
  H   H4110     1.0  0.71456  0.36665  0.84644  1.0000
  H   H4111     1.0  0.69001  0.36879  0.84853  1.0000
  H   H4112     1.0  0.69716  0.33006  0.88946  1.0000
  H   H4113     1.0  0.71646  0.34191  0.88226  1.0000
  H   H4114     1.0  0.73577  0.33656  0.85145  1.0000
  H   H4115     1.0  0.72664  0.32412  0.83956  1.0000
  H   H4116     1.0  0.69420  0.32533  0.84377  1.0000
  H   H4117     1.0  0.69213  0.31506  0.86824  1.0000
  H   H4118     1.0  0.66699  0.35357  0.85306  1.0000
  H   H4119     1.0  0.66551  0.34019  0.87752  1.0000
  H   H4120     1.0  0.72187  0.35112  0.81852  1.0000
  H   H4121     1.0  0.69689  0.35190  0.82130  1.0000
  H   H4122     1.0  0.72050  0.29896  0.86978  1.0000
  H   H4123     1.0  0.73017  0.31115  0.88168  1.0000
  H   H4124     1.0  0.69669  0.37358  0.87672  1.0000
  H   H4125     1.0  0.67572  0.36440  0.88041  1.0000
  H   H4126     1.0  0.70000  0.35736  0.91021  1.0000
  H   H4127     1.0  0.67778  0.37421  0.90888  1.0000
  H   H4128     1.0  0.67842  0.34876  0.91390  1.0000
  H   H4129     1.0  0.66051  0.32584  0.84447  1.0000
  H   H4130     1.0  0.65911  0.31269  0.86898  1.0000
  H   H4131     1.0  0.64202  0.33450  0.86312  1.0000
  H   H4132     1.0  0.69050  0.38770  0.81552  1.0000
  H   H4133     1.0  0.71554  0.38672  0.81287  1.0000
  H   H4134     1.0  0.70750  0.37861  0.79622  1.0000
  H   H4135     1.0  0.73346  0.03129  0.64417  1.0000
  H   H4136     1.0  0.76765  0.30872  0.62708  1.0000
  H   H4137     1.0  0.76078  0.30699  0.85801  1.0000
  H   H4138     1.0  0.67629  0.02818  0.80958  1.0000
  H   H4139     1.0  0.60373  0.14052  0.91494  1.0000
  S   S545      1.0  0.76759  0.46787  0.79119  1.0000
  H   H4140     1.0  0.63923  0.05002  0.78251  1.0000
  H   H4141     1.0  0.60122  0.31594  0.87118  1.0000
  C   C2351     1.0  0.76948  0.47475  0.89534  1.0000
  H   H4142     1.0  0.63372  0.27157  0.50310  1.0000
  S   S546      1.0  0.64772  0.25532  0.92713  1.0000
  H   H4143     1.0  0.73032  0.22263  0.49321  1.0000
  S   S547      1.0  0.77270  0.12704  0.74089  1.0000
  H   H4144     1.0  0.77266  0.43558  0.87756  1.0000
  H   H4145     1.0  0.72817  0.41496  0.61195  1.0000
  H   H4146     1.0  0.73329  0.40448  0.63551  1.0000
  C   C2352     1.0  0.77672  0.14405  0.57410  1.0000
  S   S548      1.0  0.62678  0.31118  0.48484  1.0000
  H   H4147     1.0  0.66601  0.01420  0.78802  1.0000
  Fe  Fe274     1.0  0.75757  0.24504  0.60876  1.0000
  H   H4148     1.0  0.66166  0.46155  0.81569  1.0000
  H   H4149     1.0  0.76799  0.21419  0.96321  1.0000
  C   C2353     1.0  0.62731  0.34751  0.48738  1.0000
  S   S549      1.0  0.76219  0.43795  0.83312  1.0000
  C   C2354     1.0  0.66954  0.02668  0.75801  1.0000
  H   H4150     1.0  0.67231  0.18190  0.89676  1.0000
  N   N130      1.0  0.71477  0.36112  0.62181  1.0000
  C   C2355     1.0  0.72978  0.34542  0.61390  1.0000
  C   C2356     1.0  0.70088  0.36938  0.60873  1.0000
  C   C2357     1.0  0.72438  0.37624  0.62300  1.0000
  C   C2358     1.0  0.70415  0.35344  0.64147  1.0000
  C   C2359     1.0  0.74299  0.33225  0.62734  1.0000
  C   C2360     1.0  0.71097  0.39431  0.62959  1.0000
  C   C2361     1.0  0.70858  0.38122  0.58885  1.0000
  C   C2362     1.0  0.69377  0.38750  0.57645  1.0000
  C   C2363     1.0  0.75866  0.31828  0.61708  1.0000
  H   H4151     1.0  0.73912  0.35175  0.60065  1.0000
  H   H4152     1.0  0.72326  0.33594  0.60934  1.0000
  H   H4153     1.0  0.69571  0.35765  0.60616  1.0000
  H   H4154     1.0  0.68790  0.37858  0.61551  1.0000
  H   H4155     1.0  0.73382  0.38097  0.60910  1.0000
  H   H4156     1.0  0.73401  0.37013  0.63324  1.0000
  H   H4157     1.0  0.71374  0.34842  0.65180  1.0000
  H   H4158     1.0  0.69303  0.36513  0.64692  1.0000
  H   H4159     1.0  0.70351  0.32528  0.63695  1.0000
  H   H4160     1.0  0.68185  0.34295  0.63539  1.0000
  C   C2364     1.0  0.61950  0.47728  0.76293  1.0000
  H   H4161     1.0  0.73489  0.32349  0.63981  1.0000
  H   H4162     1.0  0.70439  0.39051  0.64492  1.0000
  H   H4163     1.0  0.69945  0.40067  0.62152  1.0000
  H   H4164     1.0  0.71216  0.39444  0.59007  1.0000
  H   H4165     1.0  0.72142  0.37262  0.58126  1.0000
  H   H4166     1.0  0.69050  0.37469  0.57393  1.0000
  H   H4167     1.0  0.68051  0.39623  0.58337  1.0000
  H   H4168     1.0  0.69935  0.39630  0.56245  1.0000
  C   C2365     1.0  0.77117  0.43395  0.90744  1.0000
  H   H4169     1.0  0.59738  0.34719  0.70104  1.0000
  H   H4170     1.0  0.75245  0.30911  0.61182  1.0000
  N   N131      1.0  0.73398  0.12998  0.84163  1.0000
  C   C2366     1.0  0.75470  0.12824  0.83190  1.0000
  C   C2367     1.0  0.72945  0.13982  0.85818  1.0000
  C   C2368     1.0  0.73043  0.10980  0.84958  1.0000
  C   C2369     1.0  0.72104  0.14022  0.82791  1.0000
  C   C2370     1.0  0.72366  0.16058  0.81657  1.0000
  C   C2371     1.0  0.76103  0.11908  0.81415  1.0000
  C   C2372     1.0  0.71024  0.10815  0.86165  1.0000
  C   C2373     1.0  0.74057  0.15550  0.85640  1.0000
  C   C2374     1.0  0.71198  0.16798  0.80104  1.0000
  H   H4171     1.0  0.62845  0.16769  0.87308  1.0000
  C   C2375     1.0  0.70925  0.08719  0.87097  1.0000
  H   H4172     1.0  0.76377  0.11971  0.84229  1.0000
  H   H4173     1.0  0.75870  0.14247  0.82701  1.0000
  H   H4174     1.0  0.71398  0.14636  0.86146  1.0000
  H   H4175     1.0  0.73226  0.12911  0.87143  1.0000
  H   H4176     1.0  0.74092  0.10118  0.85850  1.0000
  H   H4177     1.0  0.73252  0.10219  0.83796  1.0000
  H   H4178     1.0  0.72222  0.13125  0.81769  1.0000
  H   H4179     1.0  0.70598  0.14191  0.83562  1.0000
  H   H4180     1.0  0.73865  0.16087  0.80947  1.0000
  H   H4181     1.0  0.71861  0.17077  0.82624  1.0000
  H   H4182     1.0  0.75910  0.10403  0.81786  1.0000
  H   H4183     1.0  0.75289  0.12752  0.80307  1.0000
  H   H4184     1.0  0.69961  0.11375  0.85248  1.0000
  H   H4185     1.0  0.70594  0.11624  0.87318  1.0000
  H   H4186     1.0  0.75573  0.14882  0.85666  1.0000
  H   H4187     1.0  0.73995  0.16657  0.84307  1.0000
  H   H4188     1.0  0.71380  0.18274  0.79338  1.0000
  H   H4189     1.0  0.71666  0.15852  0.79063  1.0000
  H   H4190     1.0  0.69665  0.16858  0.80730  1.0000
  C   C2376     1.0  0.59771  0.32870  0.62954  1.0000
  H   H4191     1.0  0.63350  0.31314  0.95306  1.0000
  C   C2377     1.0  0.61202  0.17881  0.75317  1.0000
  H   H4192     1.0  0.71921  0.08100  0.88086  1.0000
  H   H4193     1.0  0.69462  0.08638  0.87925  1.0000
  H   H4194     1.0  0.77548  0.17722  0.76864  1.0000
  H   H4195     1.0  0.63757  0.10970  0.90219  1.0000
  C   C2378     1.0  0.67687  0.01239  0.77490  1.0000
  C   C2379     1.0  0.61542  0.28296  0.97445  1.0000
  H   H4196     1.0  0.61530  0.35967  0.74293  1.0000
  C   C2380     1.0  0.61427  0.17906  0.91021  1.0000
  H   H4197     1.0  0.75405  0.28461  0.87104  1.0000
  H   H4198     1.0  0.72370  0.03541  0.77218  1.0000
  S   S550      1.0  0.77040  0.23772  0.54129  1.0000
  C   C2381     1.0  0.62345  0.16386  0.78799  1.0000
  H   H4199     1.0  0.60510  0.10889  0.82235  1.0000
  H   H4200     1.0  0.65026  0.33620  0.70472  1.0000
  H   H4201     1.0  0.61644  0.01275  0.83377  1.0000
  H   H4202     1.0  0.59798  0.17555  0.84941  1.0000
  C   C2382     1.0  0.76608  0.22343  0.51290  1.0000
  Fe  Fe275     1.0  0.77302  0.22976  0.57216  1.0000
  S   S551      1.0  0.74159  0.18118  0.61965  1.0000
  H   H4203     1.0  0.66117  0.36061  0.72607  1.0000
  H   H4204     1.0  0.61042  0.18801  0.86947  1.0000
  C   C2383     1.0  0.76665  0.15520  0.64045  1.0000
  Fe  Fe276     1.0  0.78108  0.43771  0.80425  1.0000
  H   H4205     1.0  0.64097  0.16348  0.83702  1.0000
  H   H4206     1.0  0.59907  0.28228  0.84323  1.0000
  H   H4207     1.0  0.62107  0.19451  0.92765  1.0000
  H   H4208     1.0  0.60293  0.48245  0.72853  1.0000
  H   H4209     1.0  0.67433  0.21190  0.58144  1.0000
  N   N132      1.0  0.71103  0.15027  0.72130  1.0000
  C   C2384     1.0  0.70443  0.14903  0.70429  1.0000
  C   C2385     1.0  0.71262  0.13082  0.73480  1.0000
  C   C2386     1.0  0.69567  0.16416  0.73153  1.0000
  C   C2387     1.0  0.72948  0.15731  0.71589  1.0000
  C   C2388     1.0  0.74401  0.15219  0.69780  1.0000
  C   C2389     1.0  0.69885  0.16854  0.69050  1.0000
  C   C2390     1.0  0.69890  0.16647  0.75051  1.0000
  C   C2391     1.0  0.72806  0.11421  0.72777  1.0000
  C   C2392     1.0  0.72596  0.09494  0.74151  1.0000
  C   C2393     1.0  0.76132  0.16117  0.69387  1.0000
  C   C2394     1.0  0.69903  0.16576  0.67087  1.0000
  H   H4210     1.0  0.69175  0.14227  0.70905  1.0000
  H   H4211     1.0  0.71529  0.13928  0.69594  1.0000
  H   H4212     1.0  0.71595  0.13146  0.74818  1.0000
  H   H4213     1.0  0.69861  0.12639  0.73914  1.0000
  H   H4214     1.0  0.68167  0.15993  0.73474  1.0000
  H   H4215     1.0  0.72655  0.17328  0.71350  1.0000
  H   H4216     1.0  0.73704  0.15197  0.72795  1.0000
  H   H4217     1.0  0.73785  0.15785  0.68489  1.0000
  H   H4218     1.0  0.74903  0.13647  0.69922  1.0000
  H   H4219     1.0  0.68424  0.17587  0.69634  1.0000
  H   H4220     1.0  0.70856  0.17830  0.68865  1.0000
  H   H4221     1.0  0.69660  0.15361  0.76201  1.0000
  H   H4222     1.0  0.72738  0.11296  0.71353  1.0000
  H   H4223     1.0  0.74232  0.11649  0.72722  1.0000
  H   H4224     1.0  0.72686  0.09529  0.75604  1.0000
  H   H4225     1.0  0.71214  0.09151  0.74215  1.0000
  H   H4226     1.0  0.73755  0.08328  0.73663  1.0000
  H   H4227     1.0  0.77139  0.15747  0.68086  1.0000
  H   H4228     1.0  0.75704  0.17708  0.69145  1.0000
  H   H4229     1.0  0.76878  0.15569  0.70593  1.0000
  H   H4230     1.0  0.71360  0.15930  0.66407  1.0000
  H   H4231     1.0  0.68920  0.15632  0.67204  1.0000
  H   H4232     1.0  0.69447  0.17991  0.66156  1.0000
  N   N133      1.0  0.74479  0.16342  0.56388  1.0000
  C   C2395     1.0  0.75163  0.15241  0.54812  1.0000
  C   C2396     1.0  0.72875  0.15620  0.57895  1.0000
  C   C2397     1.0  0.73735  0.18416  0.55498  1.0000
  C   C2398     1.0  0.76112  0.16275  0.57268  1.0000
  H   H4233     1.0  0.76375  0.15793  0.53764  1.0000
  C   C2399     1.0  0.73293  0.19892  0.56779  1.0000
  C   C2400     1.0  0.73264  0.13466  0.58881  1.0000
  C   C2401     1.0  0.71450  0.12879  0.60167  1.0000
  C   C2402     1.0  0.72381  0.21887  0.55778  1.0000
  H   H4234     1.0  0.75754  0.13705  0.55353  1.0000
  H   H4235     1.0  0.72070  0.25946  0.48055  1.0000
  H   H4236     1.0  0.72463  0.16409  0.59067  1.0000
  H   H4237     1.0  0.71573  0.15941  0.57309  1.0000
  H   H4238     1.0  0.72405  0.18554  0.55017  1.0000
  H   H4239     1.0  0.74768  0.18921  0.54192  1.0000
  H   H4240     1.0  0.75498  0.25020  0.94997  1.0000
  H   H4241     1.0  0.75565  0.16595  0.58710  1.0000
  C   C2403     1.0  0.73510  0.46385  0.88812  1.0000
  H   H4242     1.0  0.78859  0.03847  0.68891  1.0000
  H   H4243     1.0  0.74613  0.20023  0.57111  1.0000
  H   H4244     1.0  0.72301  0.19479  0.58141  1.0000
  H   H4245     1.0  0.73806  0.12525  0.57841  1.0000
  H   H4246     1.0  0.74296  0.13190  0.59804  1.0000
  H   H4247     1.0  0.70829  0.13775  0.61249  1.0000
  H   H4248     1.0  0.70385  0.13033  0.59309  1.0000
  H   H4249     1.0  0.71782  0.11350  0.60922  1.0000
  H   H4250     1.0  0.72141  0.22922  0.56694  1.0000
  H   H4251     1.0  0.73329  0.22394  0.54413  1.0000
  Fe  Fe277     1.0  0.74775  0.45373  0.78419  1.0000
  H   H4252     1.0  0.60418  0.20882  0.91331  1.0000
  H   H4253     1.0  0.59352  0.42442  0.63152  1.0000
  H   H4254     1.0  0.69386  0.17882  0.72223  1.0000
  Fe  Fe278     1.0  0.74371  0.42562  0.82253  1.0000
  Fe  Fe279     1.0  0.74723  0.46694  0.81928  1.0000
  C   C2404     1.0  0.70617  0.25678  0.48754  1.0000
  S   S552      1.0  0.76337  0.42371  0.79428  1.0000
  C   C2405     1.0  0.73272  0.16563  0.87307  1.0000
  H   H4255     1.0  0.74077  0.17689  0.87141  1.0000
  C   C2406     1.0  0.59411  0.29729  0.83570  1.0000
  H   H4256     1.0  0.69701  0.32186  0.67178  1.0000
  H   H4257     1.0  0.75197  0.16854  0.74492  1.0000
  H   H4258     1.0  0.72076  0.01321  0.65905  1.0000
  C   C2407     1.0  0.78489  0.20108  0.53459  1.0000
  H   H4259     1.0  0.66860  0.48027  0.71494  1.0000
  C   C2408     1.0  0.77338  0.13674  0.65079  1.0000
  H   H4260     1.0  0.74578  0.00639  0.64951  1.0000
  C   C2409     1.0  0.63527  0.04636  0.79785  1.0000
  S   S553      1.0  0.62502  0.01519  0.79292  1.0000
  H   H4261     1.0  0.68520  0.27347  0.51813  1.0000
  H   H4262     1.0  0.70311  0.24838  0.47871  1.0000
  H   H4263     1.0  0.66402  0.02481  0.84400  1.0000
  H   H4264     1.0  0.78479  0.13352  0.80070  1.0000
  H   H4265     1.0  0.67004  0.18243  0.75884  1.0000
  H   H4266     1.0  0.60840  0.42949  0.66452  1.0000
  H   H4267     1.0  0.67265  0.48192  0.78459  1.0000
  H   H4268     1.0  0.71757  0.17269  0.87350  1.0000
  H   H4269     1.0  0.61952  0.21827  0.96275  1.0000
  H   H4270     1.0  0.64418  0.26895  0.96217  1.0000
  C   C2410     1.0  0.78099  0.35701  0.83255  1.0000
  H   H4271     1.0  0.61620  0.33528  0.71278  1.0000
  H   H4272     1.0  0.70559  0.01687  0.76225  1.0000
  H   H4273     1.0  0.62488  0.30864  0.52423  1.0000
  S   S554      1.0  0.74841  0.32394  0.95418  1.0000
  H   H4274     1.0  0.78707  0.18668  0.73348  1.0000
  C   C2411     1.0  0.59247  0.41537  0.55293  1.0000
  C   C2412     1.0  0.62999  0.16692  0.75390  1.0000
  C   C2413     1.0  0.69049  0.28325  0.50476  1.0000
  C   C2414     1.0  0.77409  0.16892  0.75890  1.0000
  C   C2415     1.0  0.61332  0.17209  0.87195  1.0000
  C   C2416     1.0  0.67579  0.30870  0.52463  1.0000
  C   C2417     1.0  0.75421  0.17651  0.75456  1.0000
  H   H4275     1.0  0.60848  0.38176  0.64088  1.0000
  C   C2418     1.0  0.62656  0.31867  0.68398  1.0000
  H   H4276     1.0  0.60407  0.41087  0.57761  1.0000
  H   H4277     1.0  0.63011  0.18833  0.83729  1.0000
  H   H4278     1.0  0.75216  0.19208  0.74777  1.0000
  N   N134      1.0  0.77096  0.46473  0.87965  1.0000
  H   H4279     1.0  0.76893  0.38252  0.78891  1.0000
  H   H4280     1.0  0.73969  0.28355  0.96651  1.0000
  H   H4281     1.0  0.77350  0.16692  0.63890  1.0000
  H   H4282     1.0  0.62772  0.21850  0.85230  1.0000
  H   H4283     1.0  0.59541  0.43455  0.59801  1.0000
  C   C2419     1.0  0.60553  0.30747  0.85995  1.0000
  C   C2420     1.0  0.75600  0.24448  0.96514  1.0000
  H   H4284     1.0  0.77639  0.30961  0.88425  1.0000
  H   H4285     1.0  0.68393  0.31477  0.49431  1.0000
  H   H4286     1.0  0.74032  0.23256  0.94192  1.0000
  C   C2421     1.0  0.68237  0.47659  0.79471  1.0000
  C   C2422     1.0  0.62754  0.17437  0.83669  1.0000
  S   S555      1.0  0.74548  0.23064  0.59337  1.0000
  C   C2423     1.0  0.72367  0.00733  0.79201  1.0000
  C   C2424     1.0  0.74880  0.12495  0.64453  1.0000
  H   H4287     1.0  0.77515  0.37946  0.85599  1.0000
  H   H4288     1.0  0.74043  0.04868  0.78808  1.0000
  H   H4289     1.0  0.74189  0.11330  0.64599  1.0000
  C   C2425     1.0  0.60018  0.37166  0.71951  1.0000
  H   H4290     1.0  0.59068  0.40031  0.55574  1.0000
  H   H4291     1.0  0.74994  0.34075  0.63259  1.0000
  H   H4292     1.0  0.67574  0.34047  0.67079  1.0000
  C   C2426     1.0  0.60776  0.25813  0.79765  1.0000
  H   H4293     1.0  0.64045  0.45431  0.77555  1.0000
  H   H4294     1.0  0.67290  0.33660  0.72310  1.0000
  C   C2427     1.0  0.59630  0.37537  0.64172  1.0000
  H   H4295     1.0  0.69542  0.02177  0.82232  1.0000
  H   H4296     1.0  0.69229  0.03058  0.77939  1.0000
  C   C2428     1.0  0.63905  0.46969  0.76814  1.0000
  C   C2429     1.0  0.74080  0.03298  0.79203  1.0000
  C   C2430     1.0  0.75080  0.15848  0.63243  1.0000
  C   C2431     1.0  0.74187  0.14337  0.63457  1.0000
  H   H4297     1.0  0.77435  0.03061  0.71816  1.0000
  C   C2432     1.0  0.60870  0.19434  0.92213  1.0000
  H   H4298     1.0  0.59496  0.12075  0.77446  1.0000
  C   C2433     1.0  0.61101  0.14438  0.89973  1.0000
  C   C2434     1.0  0.64614  0.34708  0.71360  1.0000
  H   H4299     1.0  0.64090  0.47793  0.77774  1.0000
  S   S556      1.0  0.59638  0.43717  0.73269  1.0000
  C   C2435     1.0  0.61566  0.22669  0.86049  1.0000
  Fe  Fe280     1.0  0.76004  0.20314  0.60973  1.0000
  C   C2436     1.0  0.69590  0.01593  0.77654  1.0000
  H   H4300     1.0  0.69698  0.47250  0.78651  1.0000
  H   H4301     1.0  0.60065  0.40759  0.69569  1.0000
  H   H4302     1.0  0.63522  0.31045  0.69475  1.0000
  C   C2437     1.0  0.72313  0.26121  0.97284  1.0000
  C   C2438     1.0  0.67669  0.45836  0.80807  1.0000
  H   H4303     1.0  0.73257  0.47007  0.90074  1.0000
  H   H4304     1.0  0.77893  0.43812  0.91601  1.0000
  C   C2439     1.0  0.63690  0.28262  0.96660  1.0000
  H   H4305     1.0  0.65590  0.29838  0.94431  1.0000
  H   H4306     1.0  0.75749  0.14283  0.51303  1.0000
  H   H4307     1.0  0.75104  0.29393  0.84679  1.0000
  H   H4308     1.0  0.62058  0.09859  0.79576  1.0000
  H   H4309     1.0  0.76898  0.17427  0.56435  1.0000
  H   H4310     1.0  0.61235  0.24226  0.80190  1.0000
  H   H4311     1.0  0.59899  0.26143  0.78678  1.0000
  H   H4312     1.0  0.59652  0.17994  0.80006  1.0000
  C   C2440     1.0  0.77402  0.21939  0.52897  1.0000
  H   H4313     1.0  0.71066  0.03723  0.79578  1.0000
  H   H4314     1.0  0.59489  0.38110  0.68385  1.0000
  C   C2441     1.0  0.72343  0.02921  0.78758  1.0000
  H   H4315     1.0  0.65055  0.47073  0.75515  1.0000
  H   H4316     1.0  0.67811  0.99787  0.77275  1.0000
  H   H4317     1.0  0.59171  0.36772  0.65657  1.0000
  H   H4318     1.0  0.75414  0.02564  0.78380  1.0000
  S   S557      1.0  0.77250  0.09832  0.66537  1.0000
  H   H4319     1.0  0.76121  0.25553  0.96884  1.0000
  H   H4320     1.0  0.75915  0.46970  0.90827  1.0000
  H   H4321     1.0  0.78421  0.40515  0.86792  1.0000
  H   H4322     1.0  0.60336  0.45512  0.61542  1.0000
  H   H4323     1.0  0.70106  0.47414  0.69384  1.0000
  H   H4324     1.0  0.76819  0.40692  0.90293  1.0000
  C   C2442     1.0  0.60225  0.35853  0.73920  1.0000
  C   C2443     1.0  0.78020  0.37358  0.81467  1.0000
  H   H4325     1.0  0.75579  0.43855  0.91295  1.0000
  N   N135      1.0  0.60084  0.16382  0.89033  1.0000
  H   H4326     1.0  0.59698  0.19118  0.93448  1.0000
  H   H4327     1.0  0.78829  0.05967  0.65709  1.0000
  C   C2444     1.0  0.61181  0.16780  0.85322  1.0000
  H   H4328     1.0  0.62122  0.12916  0.87617  1.0000
  H   H4329     1.0  0.59698  0.12915  0.85389  1.0000
  C   C2445     1.0  0.59679  0.17713  0.90382  1.0000
  C   C2446     1.0  0.64038  0.29899  0.94931  1.0000
  H   H4330     1.0  0.60262  0.34332  0.73965  1.0000
  H   H4331     1.0  0.60075  0.38608  0.72092  1.0000
  H   H4332     1.0  0.62444  0.09641  0.89525  1.0000
  H   H4333     1.0  0.78333  0.34336  0.82803  1.0000
  H   H4334     1.0  0.61500  0.10509  0.91698  1.0000
  H   H4335     1.0  0.78856  0.04000  0.64704  1.0000
  C   C2447     1.0  0.78590  0.47192  0.86301  1.0000
  H   H4336     1.0  0.68126  0.99190  0.81051  1.0000
  S   S558      1.0  0.78701  0.20112  0.58749  1.0000
  H   H4337     1.0  0.69707  0.98892  0.74329  1.0000
  H   H4338     1.0  0.69929  0.99420  0.68365  1.0000
  H   H4339     1.0  0.77926  0.46678  0.83809  1.0000
  C   C2448     1.0  0.78751  0.18682  0.52433  1.0000
  H   H4340     1.0  0.67894  0.26463  0.97441  1.0000
  H   H4341     1.0  0.78074  0.14220  0.60248  1.0000
  C   C2449     1.0  0.78915  0.14347  0.58765  1.0000
  C   C2450     1.0  0.78951  0.17106  0.74023  1.0000
  H   H4342     1.0  0.60907  0.28555  0.96181  1.0000
  H   H4343     1.0  0.59867  0.12482  0.89098  1.0000
  H   H4344     1.0  0.67772  0.00059  0.84866  1.0000
  H   H4345     1.0  0.78753  0.23428  0.93713  1.0000
  C   C2451     1.0  0.69300  0.99848  0.81066  1.0000
  H   H4346     1.0  0.78601  0.14352  0.55980  1.0000
  H   H4347     1.0  0.73274  0.36047  0.97167  1.0000
  H   H4348     1.0  0.59195  0.34105  0.60144  1.0000
  H   H4349     1.0  0.78338  0.47091  0.89980  1.0000
  H   H4350     1.0  0.72755  0.00076  0.80616  1.0000
  C   C2452     1.0  0.79009  0.23019  0.95187  1.0000
  C   C2453     1.0  0.66706  0.96016  0.08927  1.0000
  Fe  Fe281     1.0  0.63309  0.60312  0.37128  1.0000
  S   S559      1.0  0.62416  0.62623  0.34702  1.0000
  S   S560      1.0  0.63452  0.60968  0.39867  1.0000
  Fe  Fe282     1.0  0.63414  0.57078  0.35201  1.0000
  S   S561      1.0  0.62499  0.59156  0.32644  1.0000
  S   S562      1.0  0.63792  0.53851  0.35711  1.0000
  Fe  Fe283     1.0  0.64567  0.60774  0.32853  1.0000
  S   S563      1.0  0.66484  0.61973  0.30163  1.0000
  H   H4351     1.0  0.76196  0.76846  0.09726  1.0000
  S   S564      1.0  0.65630  0.58590  0.35289  1.0000
  Fe  Fe284     1.0  0.64925  0.87825  0.09612  1.0000
  S   S565      1.0  0.64780  0.84833  0.11333  1.0000
  S   S566      1.0  0.63893  0.90466  0.10914  1.0000
  Fe  Fe285     1.0  0.66260  0.86479  0.05872  1.0000
  S   S567      1.0  0.66247  0.83384  0.07293  1.0000
  S   S568      1.0  0.67238  0.87352  0.02679  1.0000
  Fe  Fe286     1.0  0.63467  0.84543  0.09086  1.0000
  H   H4352     1.0  0.60157  0.60960  0.29113  1.0000
  Fe  Fe287     1.0  0.67562  0.83924  0.09423  1.0000
  S   S569      1.0  0.69765  0.81721  0.10866  1.0000
  S   S570      1.0  0.63367  0.87606  0.07492  1.0000
  S   S571      1.0  0.67829  0.86939  0.07864  1.0000
  H   H4353     1.0  0.73636  0.50812  0.22815  1.0000
  H   H4354     1.0  0.65725  0.94580  0.11843  1.0000
  H   H4355     1.0  0.68835  0.52008  0.35541  1.0000
  Fe  Fe288     1.0  0.66125  0.94034  0.18822  1.0000
  S   S572      1.0  0.64591  0.93037  0.21813  1.0000
  S   S573      1.0  0.67709  0.91939  0.16907  1.0000
  S   S574      1.0  0.73251  0.83650  0.46431  1.0000
  Fe  Fe289     1.0  0.66058  0.94881  0.22651  1.0000
  S   S575      1.0  0.67153  0.93883  0.25384  1.0000
  Fe  Fe290     1.0  0.62420  0.95748  0.21195  1.0000
  Fe  Fe291     1.0  0.76008  0.57481  0.25258  1.0000
  S   S576      1.0  0.74176  0.56205  0.27970  1.0000
  Fe  Fe292     1.0  0.76474  0.59263  0.21027  1.0000
  S   S577      1.0  0.75289  0.60300  0.18376  1.0000
  S   S578      1.0  0.76914  0.56207  0.22670  1.0000
  S   S579      1.0  0.75257  0.60489  0.23620  1.0000
  Fe  Fe293     1.0  0.75869  0.69924  0.12437  1.0000
  S   S580      1.0  0.74517  0.69289  0.15528  1.0000
  S   S581      1.0  0.73409  0.96105  0.31205  1.0000
  S   S582      1.0  0.74316  0.75004  0.06662  1.0000
  S   S583      1.0  0.74662  0.69907  0.09992  1.0000
  H   H4356     1.0  0.62010  0.90658  0.99636  1.0000
  H   H4357     1.0  0.66149  0.57322  0.39143  1.0000
  C   C2454     1.0  0.69978  0.74172  0.46374  1.0000
  S   S584      1.0  0.61726  0.50784  0.29496  1.0000
  H   H4358     1.0  0.60285  0.65852  0.40408  1.0000
  H   H4359     1.0  0.63284  0.63117  0.42623  1.0000
  H   H4360     1.0  0.63438  0.96797  0.27192  1.0000
  S   S585      1.0  0.74228  0.66071  0.01060  1.0000
  H   H4361     1.0  0.75947  0.75356  0.44067  1.0000
  Fe  Fe294     1.0  0.75525  0.84611  0.43983  1.0000
  S   S586      1.0  0.75446  0.82507  0.42340  1.0000
  S   S587      1.0  0.75252  0.87806  0.42781  1.0000
  Fe  Fe295     1.0  0.77654  0.80559  0.43921  1.0000
  H   H4362     1.0  0.69136  0.78542  0.99469  1.0000
  H   H4363     1.0  0.60499  0.60107  0.26975  1.0000
  C   C2455     1.0  0.62291  0.50487  0.33093  1.0000
  H   H4364     1.0  0.72356  0.59959  0.14208  1.0000
  Fe  Fe296     1.0  0.75359  0.95965  0.28370  1.0000
  N   N136      1.0  0.71091  0.81400  0.99492  1.0000
  H   H4365     1.0  0.59938  0.63888  0.31839  1.0000
  Fe  Fe297     1.0  0.75431  0.93465  0.32370  1.0000
  S   S588      1.0  0.74849  0.90585  0.34091  1.0000
  S   S589      1.0  0.70505  0.80902  0.44931  1.0000
  S   S590      1.0  0.77192  0.93179  0.29491  1.0000
  C   C2456     1.0  0.75376  0.88597  0.40309  1.0000
  C   C2457     1.0  0.74905  0.90570  0.39515  1.0000
  C   C2458     1.0  0.74848  0.91215  0.37570  1.0000
  C   C2459     1.0  0.75239  0.89882  0.36425  1.0000
  C   C2460     1.0  0.75789  0.87921  0.37201  1.0000
  C   C2461     1.0  0.75879  0.87282  0.39131  1.0000
  H   H4366     1.0  0.74534  0.91597  0.40415  1.0000
  H   H4367     1.0  0.74417  0.92732  0.36979  1.0000
  H   H4368     1.0  0.76116  0.86891  0.36310  1.0000
  H   H4369     1.0  0.76321  0.85771  0.39705  1.0000
  Fe  Fe298     1.0  0.75404  0.97752  0.31557  1.0000
  H   H4370     1.0  0.63896  0.76316  0.32186  1.0000
  H   H4371     1.0  0.61468  0.82903  0.20017  1.0000
  H   H4372     1.0  0.66414  0.95807  0.14683  1.0000
  S   S591      1.0  0.62215  0.85933  0.97758  1.0000
  C   C2462     1.0  0.76288  0.67612  0.04831  1.0000
  C   C2463     1.0  0.75479  0.67694  0.03298  1.0000
  C   C2464     1.0  0.75238  0.66006  0.02960  1.0000
  H   H4373     1.0  0.69244  0.85748  0.45170  1.0000
  C   C2465     1.0  0.61132  0.96725  0.13254  1.0000
  H   H4374     1.0  0.75038  0.69056  0.02377  1.0000
  C   C2466     1.0  0.75052  0.62802  0.17589  1.0000
  C   C2467     1.0  0.75108  0.63923  0.18808  1.0000
  C   C2468     1.0  0.74889  0.65922  0.18187  1.0000
  C   C2469     1.0  0.74690  0.66801  0.16317  1.0000
  C   C2470     1.0  0.74688  0.65678  0.15075  1.0000
  C   C2471     1.0  0.74835  0.63683  0.15722  1.0000
  H   H4375     1.0  0.74912  0.66782  0.19143  1.0000
  H   H4376     1.0  0.74549  0.66350  0.13624  1.0000
  H   H4377     1.0  0.74811  0.62822  0.14767  1.0000
  H   H4378     1.0  0.66928  0.54192  0.22961  1.0000
  C   C2472     1.0  0.69565  0.87193  0.44464  1.0000
  H   H4379     1.0  0.74393  0.75136  0.16908  1.0000
  C   C2473     1.0  0.60390  0.59656  0.28540  1.0000
  S   S592      1.0  0.61074  0.82968  0.09773  1.0000
  C   C2474     1.0  0.69146  0.94704  0.25439  1.0000
  C   C2475     1.0  0.69880  0.94122  0.27102  1.0000
  C   C2476     1.0  0.71495  0.94724  0.27165  1.0000
  C   C2477     1.0  0.72395  0.95891  0.25556  1.0000
  C   C2478     1.0  0.71651  0.96489  0.23902  1.0000
  C   C2479     1.0  0.70020  0.95912  0.23847  1.0000
  H   H4380     1.0  0.69199  0.93200  0.28343  1.0000
  H   H4381     1.0  0.72044  0.94283  0.28456  1.0000
  H   H4382     1.0  0.77675  0.69501  0.30121  1.0000
  H   H4383     1.0  0.69455  0.96384  0.22566  1.0000
  H   H4384     1.0  0.70681  0.91737  0.35515  1.0000
  S   S593      1.0  0.77242  0.97758  0.28642  1.0000
  C   C2480     1.0  0.59386  0.80766  0.13033  1.0000
  H   H4385     1.0  0.68686  0.71733  0.46698  1.0000
  N   N137      1.0  0.61870  0.74671  0.34107  1.0000
  H   H4386     1.0  0.72187  0.78351  0.99641  1.0000
  C   C2481     1.0  0.70874  0.79817  0.09699  1.0000
  C   C2482     1.0  0.71156  0.80110  0.07721  1.0000
  C   C2483     1.0  0.72193  0.78613  0.06798  1.0000
  C   C2484     1.0  0.72931  0.76819  0.07852  1.0000
  C   C2485     1.0  0.72582  0.76504  0.09836  1.0000
  C   C2486     1.0  0.71564  0.78005  0.10756  1.0000
  H   H4387     1.0  0.70610  0.81502  0.06906  1.0000
  H   H4388     1.0  0.72457  0.78848  0.05268  1.0000
  H   H4389     1.0  0.73093  0.75104  0.10664  1.0000
  H   H4390     1.0  0.71292  0.77759  0.12290  1.0000
  S   S594      1.0  0.67802  0.95641  0.19717  1.0000
  H   H4391     1.0  0.67518  0.59785  0.40752  1.0000
  H   H4392     1.0  0.61017  0.91819  0.24145  1.0000
  C   C2487     1.0  0.64945  0.90692  0.12678  1.0000
  C   C2488     1.0  0.63816  0.91607  0.14142  1.0000
  C   C2489     1.0  0.64641  0.91952  0.15478  1.0000
  C   C2490     1.0  0.66607  0.91430  0.15328  1.0000
  C   C2491     1.0  0.67732  0.90493  0.13879  1.0000
  C   C2492     1.0  0.66903  0.90105  0.12570  1.0000
  H   H4393     1.0  0.62297  0.92051  0.14243  1.0000
  H   H4394     1.0  0.63762  0.92645  0.16608  1.0000
  H   H4395     1.0  0.69256  0.90089  0.13753  1.0000
  H   H4396     1.0  0.67786  0.89411  0.11439  1.0000
  C   C2493     1.0  0.65872  0.86859  0.01341  1.0000
  C   C2494     1.0  0.64057  0.86494  0.02180  1.0000
  C   C2495     1.0  0.62951  0.86190  0.01072  1.0000
  C   C2496     1.0  0.63680  0.86181  0.99139  1.0000
  C   C2497     1.0  0.75211  0.77289  0.01179  1.0000
  C   C2498     1.0  0.66600  0.86860  0.99403  1.0000
  H   H4397     1.0  0.63485  0.86490  0.03673  1.0000
  H   H4398     1.0  0.67633  0.51722  0.22680  1.0000
  H   H4399     1.0  0.62079  0.93170  0.98713  1.0000
  C   C2499     1.0  0.68549  0.60279  0.29542  1.0000
  C   C2500     1.0  0.69357  0.58876  0.30949  1.0000
  C   C2501     1.0  0.71056  0.57589  0.30449  1.0000
  C   C2502     1.0  0.71972  0.57720  0.28539  1.0000
  C   C2503     1.0  0.71155  0.59101  0.27123  1.0000
  C   C2504     1.0  0.69452  0.60391  0.27626  1.0000
  H   H4400     1.0  0.68720  0.58824  0.32427  1.0000
  H   H4401     1.0  0.71694  0.56532  0.31546  1.0000
  H   H4402     1.0  0.71832  0.59174  0.25642  1.0000
  H   H4403     1.0  0.68829  0.61472  0.26531  1.0000
  C   C2505     1.0  0.63212  0.52998  0.33987  1.0000
  C   C2506     1.0  0.63165  0.54130  0.32160  1.0000
  C   C2507     1.0  0.62698  0.53442  0.30797  1.0000
  H   H4404     1.0  0.63520  0.55523  0.31789  1.0000
  S   S595      1.0  0.63193  0.70754  0.43522  1.0000
  C   C2508     1.0  0.71765  0.77163  0.41445  1.0000
  C   C2509     1.0  0.71953  0.78421  0.42472  1.0000
  H   H4405     1.0  0.73005  0.76460  0.40564  1.0000
  H   H4406     1.0  0.73334  0.78696  0.42376  1.0000
  C   C2510     1.0  0.65687  0.66343  0.39362  1.0000
  C   C2511     1.0  0.64695  0.65467  0.41114  1.0000
  C   C2512     1.0  0.64007  0.63820  0.41256  1.0000
  C   C2513     1.0  0.64265  0.63073  0.39642  1.0000
  C   C2514     1.0  0.65206  0.63984  0.37881  1.0000
  C   C2515     1.0  0.65927  0.65604  0.37747  1.0000
  H   H4407     1.0  0.64506  0.66028  0.42366  1.0000
  H   H4408     1.0  0.68246  0.53324  0.42855  1.0000
  H   H4409     1.0  0.65415  0.63418  0.36630  1.0000
  H   H4410     1.0  0.66052  0.96957  0.07731  1.0000
  S   S596      1.0  0.61196  0.58580  0.37286  1.0000
  H   H4411     1.0  0.69880  0.56406  0.38916  1.0000
  C   C2516     1.0  0.68336  0.49269  0.31210  1.0000
  C   C2517     1.0  0.70350  0.79313  0.43627  1.0000
  H   H4412     1.0  0.72144  0.59540  0.16740  1.0000
  H   H4413     1.0  0.77556  0.73113  0.44721  1.0000
  H   H4414     1.0  0.61369  0.55028  0.43808  1.0000
  H   H4415     1.0  0.68806  0.73368  0.44421  1.0000
  H   H4416     1.0  0.76521  0.90740  0.20619  1.0000
  N   N138      1.0  0.70001  0.71234  0.06106  1.0000
  C   C2518     1.0  0.68023  0.70881  0.06439  1.0000
  C   C2519     1.0  0.69984  0.72779  0.07101  1.0000
  C   C2520     1.0  0.70632  0.71956  0.03986  1.0000
  C   C2521     1.0  0.71404  0.69416  0.06714  1.0000
  C   C2522     1.0  0.70871  0.68241  0.08767  1.0000
  C   C2523     1.0  0.67824  0.69380  0.05431  1.0000
  C   C2524     1.0  0.72482  0.72756  0.03331  1.0000
  C   C2525     1.0  0.68555  0.72879  0.09027  1.0000
  C   C2526     1.0  0.68985  0.74201  0.10050  1.0000
  C   C2527     1.0  0.72294  0.66332  0.09107  1.0000
  C   C2528     1.0  0.65806  0.69012  0.06016  1.0000
  C   C2529     1.0  0.73036  0.73256  0.01156  1.0000
  H   H4417     1.0  0.67041  0.72258  0.05968  1.0000
  H   H4418     1.0  0.67433  0.70407  0.07977  1.0000
  H   H4419     1.0  0.71434  0.72670  0.07321  1.0000
  H   H4420     1.0  0.69618  0.74236  0.06186  1.0000
  H   H4421     1.0  0.69496  0.73121  0.03419  1.0000
  H   H4422     1.0  0.70869  0.70786  0.03217  1.0000
  H   H4423     1.0  0.71697  0.68434  0.05722  1.0000
  H   H4424     1.0  0.72802  0.69751  0.06600  1.0000
  H   H4425     1.0  0.69453  0.67889  0.09064  1.0000
  H   H4426     1.0  0.70909  0.69043  0.09811  1.0000
  H   H4427     1.0  0.68125  0.69900  0.03861  1.0000
  H   H4428     1.0  0.68806  0.67984  0.05799  1.0000
  H   H4429     1.0  0.73681  0.71701  0.03873  1.0000
  H   H4430     1.0  0.72296  0.74086  0.03843  1.0000
  H   H4431     1.0  0.67091  0.73472  0.08765  1.0000
  H   H4432     1.0  0.68561  0.71459  0.10007  1.0000
  H   H4433     1.0  0.70392  0.73599  0.10446  1.0000
  H   H4434     1.0  0.68983  0.75663  0.09129  1.0000
  H   H4435     1.0  0.67891  0.74325  0.11373  1.0000
  H   H4436     1.0  0.71867  0.65503  0.10577  1.0000
  H   H4437     1.0  0.72353  0.65455  0.08086  1.0000
  H   H4438     1.0  0.73732  0.66590  0.08950  1.0000
  H   H4439     1.0  0.65696  0.67957  0.05254  1.0000
  H   H4440     1.0  0.65444  0.68413  0.07572  1.0000
  H   H4441     1.0  0.64765  0.70365  0.05640  1.0000
  H   H4442     1.0  0.71965  0.74469  0.00560  1.0000
  H   H4443     1.0  0.74431  0.73681  0.00699  1.0000
  H   H4444     1.0  0.73163  0.71999  0.00549  1.0000
  C   C2530     1.0  0.63851  0.75071  0.33427  1.0000
  H   H4445     1.0  0.75702  0.66601  0.26173  1.0000
  H   H4446     1.0  0.61402  0.95501  0.12561  1.0000
  H   H4447     1.0  0.65957  0.56864  0.41626  1.0000
  H   H4448     1.0  0.67869  0.54480  0.34523  1.0000
  H   H4449     1.0  0.60374  0.71841  0.30611  1.0000
  S   S597      1.0  0.67759  0.70519  0.43003  1.0000
  N   N139      1.0  0.66887  0.54293  0.40445  1.0000
  C   C2531     1.0  0.63014  0.97108  0.13461  1.0000
  S   S598      1.0  0.65526  0.73355  0.39743  1.0000
  C   C2532     1.0  0.61657  0.82912  0.18492  1.0000
  C   C2533     1.0  0.61218  0.67955  0.34336  1.0000
  H   H4450     1.0  0.77352  0.71560  0.01861  1.0000
  H   H4451     1.0  0.76601  0.77268  0.01473  1.0000
  H   H4452     1.0  0.69708  0.50591  0.25292  1.0000
  H   H4453     1.0  0.68625  0.75229  0.46653  1.0000
  H   H4454     1.0  0.60152  0.88139  0.25861  1.0000
  H   H4455     1.0  0.64855  0.84964  0.40768  1.0000
  H   H4456     1.0  0.68862  0.83026  0.41474  1.0000
  H   H4457     1.0  0.60136  0.55645  0.41879  1.0000
  C   C2534     1.0  0.60492  0.91624  0.25708  1.0000
  H   H4458     1.0  0.59908  0.89948  0.14504  1.0000
  Fe  Fe299     1.0  0.67243  0.73671  0.41645  1.0000
  H   H4459     1.0  0.61383  0.73298  0.28411  1.0000
  H   H4460     1.0  0.74275  0.72716  0.45988  1.0000
  C   C2535     1.0  0.61841  0.70933  0.38954  1.0000
  C   C2536     1.0  0.69692  0.90969  0.35285  1.0000
  H   H4461     1.0  0.62684  0.70735  0.36047  1.0000
  H   H4462     1.0  0.67286  0.87175  0.39486  1.0000
  H   H4463     1.0  0.74379  0.76503  0.02481  1.0000
  H   H4464     1.0  0.66307  0.50633  0.26151  1.0000
  C   C2537     1.0  0.59470  0.83590  0.24017  1.0000
  H   H4465     1.0  0.72346  0.97389  0.22655  1.0000
  H   H4466     1.0  0.62610  0.69441  0.39405  1.0000
  C   C2538     1.0  0.62667  0.71767  0.36885  1.0000
  C   C2539     1.0  0.67069  0.53917  0.38507  1.0000
  C   C2540     1.0  0.62779  0.51170  0.34450  1.0000
  C   C2541     1.0  0.67750  0.84330  0.41223  1.0000
  H   H4467     1.0  0.62574  0.71999  0.33128  1.0000
  H   H4468     1.0  0.69350  0.53101  0.24938  1.0000
  C   C2542     1.0  0.74160  0.79362  0.00623  1.0000
  C   C2543     1.0  0.61407  0.74211  0.30937  1.0000
  H   H4469     1.0  0.70238  0.50006  0.43964  1.0000
  C   C2544     1.0  0.61487  0.73792  0.36215  1.0000
  C   C2545     1.0  0.61500  0.73361  0.33062  1.0000
  H   H4470     1.0  0.67323  0.79639  0.44641  1.0000
  C   C2546     1.0  0.70229  0.88810  0.36102  1.0000
  C   C2547     1.0  0.68551  0.59156  0.39591  1.0000
  H   H4471     1.0  0.68548  0.88265  0.45233  1.0000
  H   H4472     1.0  0.68168  0.82894  0.99487  1.0000
  H   H4473     1.0  0.68597  0.94229  0.07026  1.0000
  H   H4474     1.0  0.78501  0.52549  0.15564  1.0000
  C   C2548     1.0  0.60132  0.92961  0.20017  1.0000
  H   H4475     1.0  0.68456  0.81010  0.01485  1.0000
  H   H4476     1.0  0.65817  0.79688  0.01137  1.0000
  C   C2549     1.0  0.71366  0.83003  0.00219  1.0000
  H   H4477     1.0  0.75310  0.63257  0.20234  1.0000
  H   H4478     1.0  0.71292  0.78946  0.01889  1.0000
  H   H4479     1.0  0.59741  0.85373  0.12527  1.0000
  C   C2550     1.0  0.78730  0.72113  0.24074  1.0000
  C   C2551     1.0  0.67270  0.96541  0.13380  1.0000
  H   H4480     1.0  0.69855  0.53309  0.40640  1.0000
  H   H4481     1.0  0.71728  0.49679  0.27589  1.0000
  S   S599      1.0  0.75554  0.79244  0.46352  1.0000
  H   H4482     1.0  0.75287  0.50661  0.13806  1.0000
  C   C2552     1.0  0.66851  0.56389  0.40311  1.0000
  S   S600      1.0  0.64680  0.74493  0.43881  1.0000
  H   H4483     1.0  0.64898  0.53957  0.43155  1.0000
  Fe  Fe300     1.0  0.65091  0.71320  0.45150  1.0000
  Fe  Fe301     1.0  0.65839  0.70253  0.41259  1.0000
  Fe  Fe302     1.0  0.73362  0.81392  0.44903  1.0000
  C   C2553     1.0  0.59684  0.91640  0.19257  1.0000
  H   H4484     1.0  0.59739  0.88627  0.12875  1.0000
  H   H4485     1.0  0.65489  0.81657  0.99108  1.0000
  C   C2554     1.0  0.59842  0.96223  0.15205  1.0000
  H   H4486     1.0  0.77218  0.74261  0.36035  1.0000
  H   H4487     1.0  0.60949  0.67027  0.33529  1.0000
  C   C2555     1.0  0.65521  0.86477  0.98314  1.0000
  H   H4488     1.0  0.78116  0.63767  0.29293  1.0000
  H   H4489     1.0  0.67879  0.96603  0.09052  1.0000
  C   C2556     1.0  0.75801  0.64240  0.04156  1.0000
  H   H4490     1.0  0.67849  0.98389  0.14908  1.0000
  H   H4491     1.0  0.72870  0.76203  0.46251  1.0000
  C   C2557     1.0  0.65014  0.53856  0.41661  1.0000
  H   H4492     1.0  0.66446  0.83004  0.39751  1.0000
  H   H4493     1.0  0.78253  0.95280  0.22810  1.0000
  S   S601      1.0  0.78909  0.57740  0.25356  1.0000
  C   C2558     1.0  0.66616  0.52728  0.23532  1.0000
  H   H4494     1.0  0.60348  0.80438  0.19222  1.0000
  C   C2559     1.0  0.68796  0.51842  0.25887  1.0000
  H   H4495     1.0  0.63637  0.95806  0.14424  1.0000
  H   H4496     1.0  0.61751  0.58690  0.28820  1.0000
  C   C2560     1.0  0.60617  0.78137  0.34730  1.0000
  C   C2561     1.0  0.63201  0.55150  0.40983  1.0000
  C   C2562     1.0  0.77132  0.53606  0.15509  1.0000
  H   H4497     1.0  0.69937  0.59534  0.39435  1.0000
  H   H4498     1.0  0.67002  0.77400  0.42857  1.0000
  Fe  Fe303     1.0  0.75538  0.67828  0.98295  1.0000
  S   S602      1.0  0.77217  0.69913  0.98336  1.0000
  H   H4499     1.0  0.70199  0.53160  0.37661  1.0000
  C   C2563     1.0  0.74853  0.73479  0.46729  1.0000
  H   H4500     1.0  0.75210  0.70004  0.24476  1.0000
  C   C2564     1.0  0.69981  0.76769  0.41601  1.0000
  H   H4501     1.0  0.73092  0.83739  0.10693  1.0000
  H   H4502     1.0  0.73782  0.82570  0.08702  1.0000
  H   H4503     1.0  0.60359  0.65788  0.43746  1.0000
  H   H4504     1.0  0.75609  0.62933  0.03905  1.0000
  H   H4505     1.0  0.62925  0.71614  0.29887  1.0000
  C   C2565     1.0  0.68644  0.97334  0.14011  1.0000
  H   H4506     1.0  0.65550  0.82655  0.42282  1.0000
  H   H4507     1.0  0.77441  0.71026  0.26973  1.0000
  H   H4508     1.0  0.60764  0.90912  0.18262  1.0000
  N   N140      1.0  0.77269  0.78726  0.12128  1.0000
  C   C2566     1.0  0.74734  0.52713  0.20208  1.0000
  C   C2567     1.0  0.75032  0.51055  0.21914  1.0000
  H   H4509     1.0  0.74124  0.80113  0.01740  1.0000
  H   H4510     1.0  0.69305  0.56401  0.41406  1.0000
  H   H4511     1.0  0.77623  0.60316  0.28487  1.0000
  H   H4512     1.0  0.59459  0.84361  0.22518  1.0000
  H   H4513     1.0  0.68347  0.93084  0.09514  1.0000
  C   C2568     1.0  0.76677  0.64148  0.05634  1.0000
  H   H4514     1.0  0.69783  0.91228  0.33728  1.0000
  H   H4515     1.0  0.71021  0.74902  0.45262  1.0000
  H   H4516     1.0  0.74064  0.82044  0.36550  1.0000
  H   H4517     1.0  0.77588  0.88629  0.23315  1.0000
  H   H4518     1.0  0.61177  0.67989  0.37205  1.0000
  H   H4519     1.0  0.60327  0.70908  0.39131  1.0000
  C   C2569     1.0  0.68415  0.80058  0.99010  1.0000
  H   H4520     1.0  0.71022  0.87210  0.44552  1.0000
  H   H4521     1.0  0.75478  0.76553  0.99989  1.0000
  H   H4522     1.0  0.65694  0.53055  0.26442  1.0000
  H   H4523     1.0  0.73824  0.53976  0.20772  1.0000
  H   H4524     1.0  0.73947  0.52294  0.19370  1.0000
  H   H4525     1.0  0.75848  0.51389  0.22788  1.0000
  Fe  Fe304     1.0  0.77577  0.68308  0.08904  1.0000
  H   H4526     1.0  0.75806  0.49711  0.21427  1.0000
  C   C2570     1.0  0.62732  0.91695  0.98479  1.0000
  H   H4527     1.0  0.65891  0.79213  0.98865  1.0000
  H   H4528     1.0  0.61919  0.49094  0.33478  1.0000
  C   C2571     1.0  0.62280  0.51608  0.31252  1.0000
  H   H4529     1.0  0.62571  0.74992  0.30191  1.0000
  C   C2572     1.0  0.71066  0.51100  0.27982  1.0000
  C   C2573     1.0  0.67963  0.53358  0.28725  1.0000
  C   C2574     1.0  0.67871  0.55364  0.27337  1.0000
  H   H4530     1.0  0.77574  0.93378  0.21097  1.0000
  C   C2575     1.0  0.72305  0.52550  0.26737  1.0000
  C   C2576     1.0  0.74399  0.51729  0.26811  1.0000
  C   C2577     1.0  0.66698  0.56957  0.28368  1.0000
  H   H4531     1.0  0.60492  0.77659  0.36287  1.0000
  H   H4532     1.0  0.71245  0.50941  0.29453  1.0000
  H   H4533     1.0  0.62897  0.79836  0.18880  1.0000
  H   H4534     1.0  0.68586  0.53395  0.29916  1.0000
  H   H4535     1.0  0.69293  0.55691  0.26693  1.0000
  H   H4536     1.0  0.78440  0.94353  0.25261  1.0000
  H   H4537     1.0  0.59918  0.57057  0.31889  1.0000
  H   H4538     1.0  0.72198  0.52917  0.25223  1.0000
  H   H4539     1.0  0.71896  0.53874  0.27299  1.0000
  H   H4540     1.0  0.74909  0.50359  0.26312  1.0000
  H   H4541     1.0  0.75269  0.52774  0.25880  1.0000
  H   H4542     1.0  0.74614  0.51475  0.28285  1.0000
  H   H4543     1.0  0.65187  0.56838  0.28805  1.0000
  H   H4544     1.0  0.66773  0.58382  0.27396  1.0000
  H   H4545     1.0  0.76498  0.79167  0.08332  1.0000
  H   H4546     1.0  0.74611  0.84708  0.08519  1.0000
  H   H4547     1.0  0.60136  0.72902  0.33783  1.0000
  H   H4548     1.0  0.73090  0.74455  0.15559  1.0000
  H   H4549     1.0  0.65157  0.52783  0.23389  1.0000
  H   H4550     1.0  0.60406  0.83880  0.17963  1.0000
  H   H4551     1.0  0.78056  0.71313  0.18279  1.0000
  N   N141      1.0  0.72640  0.64516  0.27904  1.0000
  C   C2578     1.0  0.72709  0.66600  0.27617  1.0000
  C   C2579     1.0  0.70903  0.64103  0.29397  1.0000
  C   C2580     1.0  0.74433  0.63284  0.28508  1.0000
  C   C2581     1.0  0.72521  0.64068  0.26087  1.0000
  C   C2582     1.0  0.70877  0.65345  0.25117  1.0000
  C   C2583     1.0  0.74259  0.67352  0.25934  1.0000
  C   C2584     1.0  0.74527  0.61081  0.29076  1.0000
  C   C2585     1.0  0.70869  0.64265  0.31438  1.0000
  C   C2586     1.0  0.69075  0.63735  0.32824  1.0000
  C   C2587     1.0  0.71005  0.64829  0.23229  1.0000
  H   H4552     1.0  0.59936  0.63614  0.38849  1.0000
  C   C2588     1.0  0.76401  0.59997  0.29665  1.0000
  H   H4553     1.0  0.72972  0.66864  0.28916  1.0000
  H   H4554     1.0  0.71304  0.67539  0.27435  1.0000
  H   H4555     1.0  0.69598  0.65094  0.28985  1.0000
  H   H4556     1.0  0.70700  0.62646  0.29483  1.0000
  H   H4557     1.0  0.74698  0.63733  0.29707  1.0000
  H   H4558     1.0  0.75683  0.63503  0.27333  1.0000
  H   H4559     1.0  0.73885  0.64110  0.25028  1.0000
  H   H4560     1.0  0.72329  0.62572  0.26359  1.0000
  H   H4561     1.0  0.70913  0.66892  0.24803  1.0000
  H   H4562     1.0  0.69481  0.65128  0.26037  1.0000
  C   C2589     1.0  0.76925  0.65830  0.05973  1.0000
  H   H4563     1.0  0.74123  0.67147  0.24560  1.0000
  H   H4564     1.0  0.74440  0.60537  0.27862  1.0000
  H   H4565     1.0  0.73361  0.60698  0.30289  1.0000
  H   H4566     1.0  0.72102  0.63281  0.31989  1.0000
  H   H4567     1.0  0.70882  0.65757  0.31462  1.0000
  H   H4568     1.0  0.69065  0.63884  0.34270  1.0000
  H   H4569     1.0  0.67780  0.64695  0.32365  1.0000
  H   H4570     1.0  0.69026  0.62222  0.32909  1.0000
  H   H4571     1.0  0.69795  0.65726  0.22576  1.0000
  H   H4572     1.0  0.72345  0.65103  0.22222  1.0000
  H   H4573     1.0  0.70952  0.63292  0.23454  1.0000
  C   C2590     1.0  0.60691  0.67142  0.36474  1.0000
  Fe  Fe305     1.0  0.78242  0.60680  0.23483  1.0000
  C   C2591     1.0  0.75240  0.90089  0.26403  1.0000
  H   H4574     1.0  0.76526  0.60398  0.30952  1.0000
  H   H4575     1.0  0.59954  0.73721  0.36719  1.0000
  H   H4576     1.0  0.61773  0.80835  0.16846  1.0000
  H   H4577     1.0  0.76514  0.83019  0.10937  1.0000
  H   H4578     1.0  0.75610  0.73568  0.15271  1.0000
  C   C2592     1.0  0.70641  0.82889  0.02388  1.0000
  H   H4579     1.0  0.62750  0.68003  0.33917  1.0000
  C   C2593     1.0  0.71490  0.84197  0.03064  1.0000
  H   H4580     1.0  0.67996  0.87160  0.98744  1.0000
  C   C2594     1.0  0.68995  0.81415  0.99919  1.0000
  H   H4581     1.0  0.72883  0.83124  0.99812  1.0000
  S   S603      1.0  0.77253  0.95103  0.32986  1.0000
  H   H4582     1.0  0.70991  0.81418  0.03239  1.0000
  H   H4583     1.0  0.61585  0.90568  0.26432  1.0000
  C   C2595     1.0  0.78654  0.70514  0.25873  1.0000
  H   H4584     1.0  0.74761  0.76202  0.12576  1.0000
  H   H4585     1.0  0.73018  0.83586  0.03065  1.0000
  H   H4586     1.0  0.71336  0.85660  0.02131  1.0000
  H   H4587     1.0  0.70732  0.84340  0.04531  1.0000
  H   H4588     1.0  0.60370  0.69429  0.33947  1.0000
  H   H4589     1.0  0.76456  0.58425  0.29995  1.0000
  C   C2596     1.0  0.59899  0.82543  0.12174  1.0000
  C   C2597     1.0  0.65469  0.73424  0.32772  1.0000
  C   C2598     1.0  0.67418  0.73862  0.32543  1.0000
  H   H4590     1.0  0.64245  0.75522  0.34559  1.0000
  H   H4591     1.0  0.65360  0.73254  0.31372  1.0000
  H   H4592     1.0  0.65422  0.72023  0.33780  1.0000
  H   H4593     1.0  0.64146  0.71859  0.36812  1.0000
  H   H4594     1.0  0.61968  0.71814  0.39886  1.0000
  H   H4595     1.0  0.73535  0.77776  0.14175  1.0000
  H   H4596     1.0  0.67629  0.73949  0.33937  1.0000
  H   H4597     1.0  0.68546  0.72692  0.32019  1.0000
  H   H4598     1.0  0.67561  0.75241  0.31504  1.0000
  H   H4599     1.0  0.60571  0.77235  0.32271  1.0000
  H   H4600     1.0  0.77671  0.51840  0.18803  1.0000
  H   H4601     1.0  0.60612  0.85612  0.24706  1.0000
  C   C2599     1.0  0.76480  0.74294  0.45283  1.0000
  C   C2600     1.0  0.76711  0.92599  0.22392  1.0000
  S   S604      1.0  0.78252  0.63680  0.23701  1.0000
  C   C2601     1.0  0.76924  0.91130  0.25774  1.0000
  S   S605      1.0  0.59295  0.95689  0.22122  1.0000
  H   H4602     1.0  0.74270  0.53388  0.15395  1.0000
  C   C2602     1.0  0.65170  0.95841  0.10782  1.0000
  S   S606      1.0  0.74447  0.96632  0.25564  1.0000
  N   N142      1.0  0.70334  0.86346  0.39339  1.0000
  C   C2603     1.0  0.70726  0.86206  0.41265  1.0000
  C   C2604     1.0  0.71948  0.85056  0.38283  1.0000
  C   C2605     1.0  0.70325  0.88395  0.38233  1.0000
  C   C2606     1.0  0.68446  0.85868  0.39467  1.0000
  C   C2607     1.0  0.69390  0.87715  0.42384  1.0000
  H   H4603     1.0  0.60687  0.86874  0.17835  1.0000
  C   C2608     1.0  0.72210  0.82869  0.39131  1.0000
  C   C2609     1.0  0.74055  0.81774  0.38092  1.0000
  H   H4604     1.0  0.78965  0.65951  0.18563  1.0000
  H   H4605     1.0  0.77161  0.81788  0.09014  1.0000
  H   H4606     1.0  0.72203  0.86380  0.41110  1.0000
  H   H4607     1.0  0.70683  0.84756  0.42189  1.0000
  H   H4608     1.0  0.71773  0.85221  0.36809  1.0000
  H   H4609     1.0  0.73308  0.85486  0.38140  1.0000
  H   H4610     1.0  0.71613  0.88859  0.38291  1.0000
  H   H4611     1.0  0.69094  0.89396  0.38900  1.0000
  C   C2610     1.0  0.75687  0.52451  0.15486  1.0000
  H   H4612     1.0  0.68475  0.85393  0.38161  1.0000
  H   H4613     1.0  0.69777  0.89143  0.41755  1.0000
  H   H4614     1.0  0.67885  0.87864  0.42334  1.0000
  H   H4615     1.0  0.74937  0.94104  0.19301  1.0000
  H   H4616     1.0  0.60553  0.94900  0.16085  1.0000
  H   H4617     1.0  0.72265  0.82517  0.40656  1.0000
  H   H4618     1.0  0.71030  0.82320  0.38958  1.0000
  H   H4619     1.0  0.75301  0.82212  0.38272  1.0000
  H   H4620     1.0  0.74179  0.80209  0.38699  1.0000
  C   C2611     1.0  0.69580  0.72648  0.45586  1.0000
  H   H4621     1.0  0.66454  0.93381  0.08295  1.0000
  C   C2612     1.0  0.60444  0.76553  0.33810  1.0000
  C   C2613     1.0  0.61680  0.80880  0.18347  1.0000
  C   C2614     1.0  0.69015  0.53516  0.35236  1.0000
  H   H4622     1.0  0.73255  0.89094  0.28975  1.0000
  H   H4623     1.0  0.60026  0.75229  0.30825  1.0000
  S   S607      1.0  0.76834  0.72700  0.11105  1.0000
  H   H4624     1.0  0.64255  0.91348  0.98558  1.0000
  H   H4625     1.0  0.67353  0.50337  0.42722  1.0000
  H   H4626     1.0  0.77159  0.62769  0.06520  1.0000
  H   H4627     1.0  0.59772  0.79649  0.12232  1.0000
  H   H4628     1.0  0.74102  0.91139  0.29038  1.0000
  H   H4629     1.0  0.71425  0.57923  0.15746  1.0000
  C   C2615     1.0  0.73307  0.75101  0.47497  1.0000
  C   C2616     1.0  0.68131  0.49905  0.29100  1.0000
  C   C2617     1.0  0.68617  0.50809  0.41719  1.0000
  C   C2618     1.0  0.74519  0.89758  0.28563  1.0000
  C   C2619     1.0  0.78454  0.72446  0.01260  1.0000
  H   H4630     1.0  0.65953  0.54936  0.37798  1.0000
  H   H4631     1.0  0.77320  0.72580  0.23674  1.0000
  H   H4632     1.0  0.68048  0.59804  0.38235  1.0000
  H   H4633     1.0  0.75700  0.93748  0.23076  1.0000
  C   C2620     1.0  0.74111  0.69502  0.25710  1.0000
  C   C2621     1.0  0.67574  0.94056  0.08414  1.0000
  H   H4634     1.0  0.75012  0.80041  0.99273  1.0000
  H   H4635     1.0  0.78657  0.65607  0.31426  1.0000
  H   H4636     1.0  0.76301  0.92582  0.26082  1.0000
  H   H4637     1.0  0.68784  0.50400  0.40349  1.0000
  H   H4638     1.0  0.74041  0.90995  0.25740  1.0000
  H   H4639     1.0  0.71643  0.88266  0.35255  1.0000
  Fe  Fe306     1.0  0.60453  0.60774  0.34740  1.0000
  H   H4640     1.0  0.73085  0.93984  0.21432  1.0000
  H   H4641     1.0  0.70928  0.71724  0.45006  1.0000
  H   H4642     1.0  0.75637  0.88664  0.26029  1.0000
  H   H4643     1.0  0.74718  0.90695  0.22760  1.0000
  S   S608      1.0  0.63753  0.97521  0.22286  1.0000
  H   H4644     1.0  0.69136  0.55610  0.36660  1.0000
  H   H4645     1.0  0.71173  0.98327  0.28250  1.0000
  C   C2622     1.0  0.70346  0.49677  0.42565  1.0000
  H   H4646     1.0  0.66577  0.50212  0.29148  1.0000
  H   H4647     1.0  0.75634  0.88783  0.29312  1.0000
  H   H4648     1.0  0.68759  0.48629  0.28442  1.0000
  H   H4649     1.0  0.63172  0.56700  0.40786  1.0000
  C   C2623     1.0  0.68775  0.56970  0.40059  1.0000
  H   H4650     1.0  0.63116  0.54882  0.39617  1.0000
  C   C2624     1.0  0.68969  0.54096  0.37071  1.0000
  H   H4651     1.0  0.66778  0.52479  0.38637  1.0000
  H   H4652     1.0  0.73555  0.55258  0.17455  1.0000
  H   H4653     1.0  0.69170  0.88115  0.35897  1.0000
  H   H4654     1.0  0.61560  0.93217  0.19630  1.0000
  C   C2625     1.0  0.66272  0.80164  0.99571  1.0000
  H   H4655     1.0  0.66685  0.66282  0.36388  1.0000
  H   H4656     1.0  0.77726  0.76693  0.06429  1.0000
  H   H4657     1.0  0.68129  0.95444  0.12555  1.0000
  H   H4658     1.0  0.67741  0.50486  0.31946  1.0000
  C   C2626     1.0  0.59843  0.88509  0.14363  1.0000
  H   H4659     1.0  0.77733  0.56655  0.17939  1.0000
  N   N143      1.0  0.76626  0.54646  0.17114  1.0000
  Fe  Fe307     1.0  0.75886  0.72528  0.08551  1.0000
  C   C2627     1.0  0.74726  0.56028  0.17155  1.0000
  C   C2628     1.0  0.74495  0.57606  0.15320  1.0000
  C   C2629     1.0  0.74171  0.93126  0.20486  1.0000
  H   H4660     1.0  0.68219  0.91568  0.35965  1.0000
  H   H4661     1.0  0.61525  0.85962  0.01716  1.0000
  C   C2630     1.0  0.66745  0.52041  0.25627  1.0000
  C   C2631     1.0  0.72478  0.58824  0.15523  1.0000
  C   C2632     1.0  0.61402  0.54719  0.42421  1.0000
  H   H4662     1.0  0.69070  0.83352  0.02708  1.0000
  H   H4663     1.0  0.63997  0.95424  0.10432  1.0000
  H   H4664     1.0  0.76897  0.77687  0.37787  1.0000
  H   H4665     1.0  0.61504  0.65649  0.36781  1.0000
  N   N144      1.0  0.68985  0.51606  0.27906  1.0000
  H   H4666     1.0  0.62797  0.50289  0.35867  1.0000
  C   C2633     1.0  0.68383  0.77677  0.42745  1.0000
  H   H4667     1.0  0.60816  0.82503  0.24059  1.0000
  S   S609      1.0  0.66705  0.68321  0.39126  1.0000
  H   H4668     1.0  0.67237  0.56880  0.29645  1.0000
  C   C2634     1.0  0.68444  0.53007  0.41427  1.0000
  H   H4669     1.0  0.74775  0.56961  0.14067  1.0000
  S   S610      1.0  0.69787  0.75101  0.40401  1.0000
  H   H4670     1.0  0.75459  0.58613  0.15028  1.0000
  H   H4671     1.0  0.74416  0.56768  0.18355  1.0000
  C   C2635     1.0  0.68567  0.78949  0.43751  1.0000
  Fe  Fe308     1.0  0.62995  0.73880  0.42088  1.0000
  Fe  Fe309     1.0  0.78919  0.94957  0.30016  1.0000
  H   H4672     1.0  0.78377  0.69273  0.25495  1.0000
  H   H4673     1.0  0.77211  0.53746  0.19974  1.0000
  H   H4674     1.0  0.78363  0.67244  0.28240  1.0000
  H   H4675     1.0  0.67309  0.84909  0.42535  1.0000
  H   H4676     1.0  0.70589  0.84414  0.99530  1.0000
  H   H4677     1.0  0.77185  0.75003  0.45960  1.0000
  H   H4678     1.0  0.78104  0.83759  0.35313  1.0000
  S   S611      1.0  0.63855  0.96648  0.18136  1.0000
  H   H4679     1.0  0.61323  0.53191  0.42632  1.0000
  H   H4680     1.0  0.62004  0.78575  0.34113  1.0000
  H   H4681     1.0  0.76873  0.69330  0.18832  1.0000
  H   H4682     1.0  0.76242  0.87470  0.46989  1.0000
  H   H4683     1.0  0.71676  0.50027  0.41586  1.0000
  H   H4684     1.0  0.75097  0.75557  0.37329  1.0000
  C   C2636     1.0  0.66044  0.83709  0.40982  1.0000
  H   H4685     1.0  0.70398  0.53635  0.34238  1.0000
  C   C2637     1.0  0.61535  0.72639  0.29904  1.0000
  S   S612      1.0  0.60424  0.75964  0.41132  1.0000
  N   N145      1.0  0.63681  0.85535  0.17359  1.0000
  C   C2638     1.0  0.62009  0.87020  0.16742  1.0000
  C   C2639     1.0  0.63683  0.85615  0.19361  1.0000
  C   C2640     1.0  0.65484  0.85980  0.16005  1.0000
  C   C2641     1.0  0.63534  0.83540  0.17345  1.0000
  H   H4686     1.0  0.77673  0.70483  0.16377  1.0000
  C   C2642     1.0  0.61616  0.87024  0.14807  1.0000
  C   C2643     1.0  0.67346  0.84569  0.16430  1.0000
  C   C2644     1.0  0.64318  0.87386  0.19556  1.0000
  C   C2645     1.0  0.63758  0.87641  0.21610  1.0000
  S   S613      1.0  0.77899  0.82740  0.45403  1.0000
  H   H4687     1.0  0.67175  0.55475  0.26160  1.0000
  C   C2646     1.0  0.69092  0.85319  0.15178  1.0000
  H   H4688     1.0  0.62205  0.88488  0.16619  1.0000
  H   H4689     1.0  0.61748  0.74704  0.37047  1.0000
  H   H4690     1.0  0.62236  0.85602  0.20267  1.0000
  H   H4691     1.0  0.64606  0.84304  0.20045  1.0000
  H   H4692     1.0  0.65605  0.87469  0.15925  1.0000
  H   H4693     1.0  0.65458  0.85961  0.14530  1.0000
  H   H4694     1.0  0.63771  0.83363  0.15857  1.0000
  H   H4695     1.0  0.64687  0.82452  0.17952  1.0000
  H   H4696     1.0  0.62676  0.54326  0.29381  1.0000
  H   H4697     1.0  0.76441  0.77593  0.15166  1.0000
  H   H4698     1.0  0.62809  0.87406  0.13657  1.0000
  H   H4699     1.0  0.61423  0.85603  0.14772  1.0000
  H   H4700     1.0  0.67424  0.83160  0.16115  1.0000
  H   H4701     1.0  0.67442  0.84331  0.17937  1.0000
  H   H4702     1.0  0.65885  0.87211  0.19099  1.0000
  H   H4703     1.0  0.63679  0.88738  0.18667  1.0000
  H   H4704     1.0  0.64347  0.86317  0.22582  1.0000
  H   H4705     1.0  0.64326  0.88852  0.21708  1.0000
  H   H4706     1.0  0.62187  0.87995  0.22060  1.0000
  N   N146      1.0  0.77973  0.91298  0.23728  1.0000
  H   H4707     1.0  0.62616  0.98285  0.14257  1.0000
  H   H4708     1.0  0.76462  0.68917  0.05100  1.0000
  H   H4709     1.0  0.69843  0.48701  0.31319  1.0000
  C   C2647     1.0  0.75549  0.91632  0.21610  1.0000
  H   H4710     1.0  0.77924  0.90441  0.26757  1.0000
  H   H4711     1.0  0.69031  0.85638  0.13647  1.0000
  H   H4712     1.0  0.69184  0.86640  0.15560  1.0000
  H   H4713     1.0  0.70396  0.84216  0.15401  1.0000
  H   H4714     1.0  0.72697  0.70325  0.25434  1.0000
  C   C2648     1.0  0.75570  0.80284  0.11710  1.0000
  C   C2649     1.0  0.76642  0.77159  0.13792  1.0000
  H   H4715     1.0  0.66464  0.53258  0.29387  1.0000
  C   C2650     1.0  0.76025  0.82132  0.10247  1.0000
  H   H4716     1.0  0.64922  0.52360  0.41728  1.0000
  C   C2651     1.0  0.74763  0.76580  0.13900  1.0000
  C   C2652     1.0  0.74452  0.74830  0.15512  1.0000
  C   C2653     1.0  0.74268  0.83359  0.09499  1.0000
  C   C2654     1.0  0.72108  0.79461  0.00435  1.0000
  H   H4717     1.0  0.74718  0.80739  0.13046  1.0000
  H   H4718     1.0  0.74583  0.79730  0.11205  1.0000
  C   C2655     1.0  0.76656  0.53214  0.19007  1.0000
  H   H4719     1.0  0.75561  0.51286  0.16782  1.0000
  H   H4720     1.0  0.74337  0.69794  0.27009  1.0000
  C   C2656     1.0  0.77252  0.77739  0.09004  1.0000
  H   H4721     1.0  0.73425  0.92392  0.19876  1.0000
  H   H4722     1.0  0.76594  0.69471  0.33565  1.0000
  H   H4723     1.0  0.59477  0.97416  0.15966  1.0000
  H   H4724     1.0  0.77129  0.77794  0.35309  1.0000
  S   S614      1.0  0.78102  0.65644  0.07786  1.0000
  C   C2657     1.0  0.59381  0.83988  0.13208  1.0000
  C   C2658     1.0  0.78011  0.70021  0.17816  1.0000
  N   N147      1.0  0.64444  0.97596  0.11638  1.0000
  C   C2659     1.0  0.76665  0.75104  0.37165  1.0000
  H   H4725     1.0  0.59691  0.67330  0.30266  1.0000
  H   H4726     1.0  0.59795  0.56091  0.35003  1.0000
  C   C2660     1.0  0.76339  0.51494  0.13779  1.0000
  Fe  Fe310     1.0  0.65397  0.98185  0.19287  1.0000
  H   H4727     1.0  0.59581  0.68366  0.43044  1.0000
  H   H4728     1.0  0.69522  0.96138  0.14875  1.0000
  C   C2661     1.0  0.77926  0.69935  0.33466  1.0000
  H   H4729     1.0  0.59612  0.60084  0.40638  1.0000
  H   H4730     1.0  0.77767  0.75830  0.13848  1.0000
  H   H4731     1.0  0.76464  0.52593  0.12423  1.0000
  H   H4732     1.0  0.77765  0.80379  0.13887  1.0000
  H   H4733     1.0  0.78597  0.64348  0.15923  1.0000
  C   C2662     1.0  0.78112  0.55813  0.16807  1.0000
  H   H4734     1.0  0.77389  0.54624  0.14107  1.0000
  H   H4735     1.0  0.78096  0.73475  0.99948  1.0000
  C   C2663     1.0  0.66017  0.98164  0.12157  1.0000
  H   H4736     1.0  0.60330  0.98007  0.12407  1.0000
  H   H4737     1.0  0.69601  0.98038  0.12759  1.0000
  C   C2664     1.0  0.78747  0.89358  0.23205  1.0000
  H   H4738     1.0  0.78169  0.56882  0.15433  1.0000
  H   H4739     1.0  0.77732  0.50484  0.13836  1.0000
  H   H4740     1.0  0.77694  0.71527  0.33015  1.0000
  H   H4741     1.0  0.78436  0.73272  0.02310  1.0000
  C   C2665     1.0  0.78382  0.77908  0.10403  1.0000
  C   C2666     1.0  0.78575  0.79593  0.12740  1.0000
  C   C2667     1.0  0.59313  0.85006  0.25237  1.0000
  H   H4742     1.0  0.76979  0.74176  0.38539  1.0000
  H   H4743     1.0  0.78270  0.69500  0.34904  1.0000
  C   C2668     1.0  0.78573  0.76814  0.07397  1.0000
  H   H4744     1.0  0.78331  0.80204  0.35713  1.0000
  C   C2669     1.0  0.77544  0.76878  0.36635  1.0000
  H   H4745     1.0  0.59295  0.84175  0.26722  1.0000
  H   H4746     1.0  0.60284  0.93026  0.26097  1.0000
  S   S615      1.0  0.78730  0.70924  0.07269  1.0000
  S   S616      1.0  0.78676  0.68078  0.11492  1.0000
  H   H4747     1.0  0.59466  0.54310  0.38301  1.0000
  H   H4748     1.0  0.78738  0.83009  0.37626  1.0000
  H   H4749     1.0  0.59199  0.81043  0.35040  1.0000
  H   H4750     1.0  0.59059  0.72422  0.42941  1.0000
  C   C2670     1.0  0.59097  0.66987  0.43698  1.0000
  H   H4751     1.0  0.59047  0.89587  0.23954  1.0000
  H   H4752     1.0  0.59033  0.57348  0.28806  1.0000
  H   H4753     1.0  0.59143  0.80518  0.32829  1.0000
  C   C2671     1.0  0.59051  0.79925  0.34380  1.0000
  C   C2672     1.0  0.63087  0.98390  0.26984  1.0000
  Fe  Fe311     1.0  0.64190  0.60146  0.73401  1.0000
  S   S617      1.0  0.66141  0.59319  0.70750  1.0000
  Fe  Fe312     1.0  0.67388  0.58964  0.75618  1.0000
  S   S618      1.0  0.69565  0.58117  0.73118  1.0000
  S   S619      1.0  0.68392  0.57960  0.78396  1.0000
  Fe  Fe313     1.0  0.68098  0.60801  0.71382  1.0000
  S   S620      1.0  0.69795  0.62853  0.69247  1.0000
  Fe  Fe314     1.0  0.67411  0.56712  0.72740  1.0000
  S   S621      1.0  0.68403  0.53579  0.72608  1.0000
  S   S622      1.0  0.66077  0.61795  0.73921  1.0000
  S   S623      1.0  0.65302  0.57411  0.75337  1.0000
  C   C2673     1.0  0.60399  0.91254  0.90565  1.0000
  H   H4754     1.0  0.76485  0.71361  0.54890  1.0000
  H   H4755     1.0  0.62940  0.73299  0.55600  1.0000
  H   H4756     1.0  0.76676  0.86934  0.67019  1.0000
  H   H4757     1.0  0.69514  0.70540  0.87314  1.0000
  H   H4758     1.0  0.61464  0.65570  0.70394  1.0000
  H   H4759     1.0  0.61848  0.81084  0.90213  1.0000
  Fe  Fe315     1.0  0.64640  0.73947  0.60805  1.0000
  S   S624      1.0  0.64626  0.71900  0.59080  1.0000
  S   S625      1.0  0.61976  0.75752  0.62203  1.0000
  Fe  Fe316     1.0  0.68941  0.73269  0.59959  1.0000
  S   S626      1.0  0.69287  0.71155  0.58141  1.0000
  S   S627      1.0  0.71597  0.73848  0.60424  1.0000
  Fe  Fe317     1.0  0.66889  0.73228  0.56907  1.0000
  S   S628      1.0  0.66747  0.74388  0.53781  1.0000
  Fe  Fe318     1.0  0.67000  0.69992  0.60467  1.0000
  S   S629      1.0  0.66939  0.66833  0.61545  1.0000
  S   S630      1.0  0.66739  0.75443  0.58536  1.0000
  S   S631      1.0  0.66826  0.71944  0.62375  1.0000
  S   S632      1.0  0.65950  0.96754  0.80420  1.0000
  H   H4760     1.0  0.59249  0.76054  0.71418  1.0000
  Fe  Fe319     1.0  0.65190  0.94565  0.79350  1.0000
  S   S633      1.0  0.67201  0.93029  0.77142  1.0000
  Fe  Fe320     1.0  0.66696  0.84790  0.91494  1.0000
  S   S634      1.0  0.69189  0.86096  0.89793  1.0000
  S   S635      1.0  0.65778  0.82557  0.90620  1.0000
  Fe  Fe321     1.0  0.74177  0.61768  0.82811  1.0000
  S   S636      1.0  0.74529  0.59151  0.85178  1.0000
  S   S637      1.0  0.71469  0.63265  0.81778  1.0000
  S   S638      1.0  0.75843  0.60690  0.89254  1.0000
  S   S639      1.0  0.75552  0.63474  0.83924  1.0000
  C   C2674     1.0  0.64185  0.66113  0.68755  1.0000
  S   S640      1.0  0.75634  0.68574  0.91193  1.0000
  C   C2675     1.0  0.59984  0.49539  0.69304  1.0000
  H   H4761     1.0  0.61108  0.73399  0.57644  1.0000
  C   C2676     1.0  0.62518  0.91515  0.96555  1.0000
  C   C2677     1.0  0.60532  0.83644  0.88440  1.0000
  Fe  Fe322     1.0  0.76043  0.95882  0.71108  1.0000
  S   S641      1.0  0.64362  0.92792  0.82263  1.0000
  H   H4762     1.0  0.62858  0.70319  0.55074  1.0000
  H   H4763     1.0  0.71201  0.68223  0.92750  1.0000
  S   S642      1.0  0.75727  0.93517  0.69938  1.0000
  H   H4764     1.0  0.76368  0.91082  0.76854  1.0000
  H   H4765     1.0  0.71303  0.84851  0.96383  1.0000
  H   H4766     1.0  0.73443  0.81745  0.97085  1.0000
  S   S643      1.0  0.75027  0.80929  0.50937  1.0000
  H   H4767     1.0  0.69875  0.92730  0.87043  1.0000
  Fe  Fe323     1.0  0.74485  0.82747  0.61607  1.0000
  Fe  Fe324     1.0  0.62835  0.84212  0.91539  1.0000
  S   S644      1.0  0.71705  0.81836  0.62024  1.0000
  Fe  Fe325     1.0  0.75854  0.86504  0.60935  1.0000
  S   S645      1.0  0.66664  0.83190  0.94523  1.0000
  S   S646      1.0  0.74836  0.89728  0.60434  1.0000
  H   H4768     1.0  0.76182  0.67830  0.84280  1.0000
  Fe  Fe326     1.0  0.63646  0.84767  0.95125  1.0000
  C   C2678     1.0  0.62150  0.88835  0.86211  1.0000
  S   S647      1.0  0.75054  0.85088  0.59039  1.0000
  S   S648      1.0  0.75017  0.84314  0.63559  1.0000
  C   C2679     1.0  0.76370  0.81573  0.52194  1.0000
  C   C2680     1.0  0.75661  0.81534  0.54139  1.0000
  C   C2681     1.0  0.76689  0.81999  0.55213  1.0000
  C   C2682     1.0  0.71608  0.52478  0.77518  1.0000
  C   C2683     1.0  0.69195  0.75387  0.96379  1.0000
  H   H4769     1.0  0.69577  0.88282  0.94565  1.0000
  H   H4770     1.0  0.74302  0.81158  0.54824  1.0000
  H   H4771     1.0  0.76134  0.81943  0.56718  1.0000
  C   C2684     1.0  0.60695  0.73278  0.53214  1.0000
  H   H4772     1.0  0.65073  0.51088  0.76010  1.0000
  S   S649      1.0  0.73654  0.97648  0.72841  1.0000
  H   H4773     1.0  0.61334  0.65912  0.64619  1.0000
  H   H4774     1.0  0.66672  0.49444  0.81499  1.0000
  C   C2685     1.0  0.75303  0.91252  0.61638  1.0000
  C   C2686     1.0  0.75073  0.93209  0.60781  1.0000
  C   C2687     1.0  0.61171  0.81660  0.89002  1.0000
  H   H4775     1.0  0.70005  0.88909  0.54302  1.0000
  H   H4776     1.0  0.66113  0.71914  0.85698  1.0000
  H   H4777     1.0  0.74674  0.93720  0.59409  1.0000
  H   H4778     1.0  0.59716  0.82131  0.70727  1.0000
  H   H4779     1.0  0.70042  0.50672  0.67130  1.0000
  C   C2688     1.0  0.75884  0.62844  0.89813  1.0000
  C   C2689     1.0  0.75478  0.62996  0.91721  1.0000
  C   C2690     1.0  0.75468  0.64730  0.92176  1.0000
  C   C2691     1.0  0.75839  0.66318  0.90718  1.0000
  C   C2692     1.0  0.76293  0.66146  0.88819  1.0000
  C   C2693     1.0  0.76342  0.64406  0.88371  1.0000
  H   H4780     1.0  0.75119  0.64854  0.93647  1.0000
  H   H4781     1.0  0.60899  0.93360  0.92913  1.0000
  H   H4782     1.0  0.76723  0.64278  0.86908  1.0000
  C   C2694     1.0  0.69966  0.78399  0.94443  1.0000
  C   C2695     1.0  0.71829  0.77761  0.94745  1.0000
  H   H4783     1.0  0.69559  0.79792  0.93545  1.0000
  H   H4784     1.0  0.72857  0.78666  0.94085  1.0000
  C   C2696     1.0  0.68987  0.94312  0.75927  1.0000
  C   C2697     1.0  0.70828  0.93324  0.75297  1.0000
  C   C2698     1.0  0.72274  0.94344  0.74350  1.0000
  C   C2699     1.0  0.71869  0.96352  0.74013  1.0000
  H   H4785     1.0  0.71144  0.91769  0.75582  1.0000
  H   H4786     1.0  0.73707  0.93575  0.73917  1.0000
  C   C2700     1.0  0.67329  0.92244  0.86579  1.0000
  C   C2701     1.0  0.66229  0.90885  0.86837  1.0000
  C   C2702     1.0  0.66797  0.88983  0.87815  1.0000
  C   C2703     1.0  0.68493  0.88429  0.88478  1.0000
  H   H4787     1.0  0.64909  0.91318  0.86345  1.0000
  H   H4788     1.0  0.65925  0.87945  0.88056  1.0000
  C   C2704     1.0  0.71585  0.76075  0.60878  1.0000
  C   C2705     1.0  0.73280  0.76411  0.61079  1.0000
  C   C2706     1.0  0.73347  0.78188  0.61383  1.0000
  C   C2707     1.0  0.71700  0.79625  0.61542  1.0000
  C   C2708     1.0  0.69997  0.79282  0.61360  1.0000
  C   C2709     1.0  0.69941  0.77518  0.61014  1.0000
  H   H4789     1.0  0.74542  0.75284  0.61019  1.0000
  H   H4790     1.0  0.74658  0.78427  0.61545  1.0000
  H   H4791     1.0  0.68717  0.80386  0.61489  1.0000
  H   H4792     1.0  0.68625  0.77270  0.60871  1.0000
  C   C2710     1.0  0.65931  0.52572  0.68846  1.0000
  H   H4793     1.0  0.71888  0.80458  0.96826  1.0000
  H   H4794     1.0  0.69510  0.72804  0.49342  1.0000
  H   H4795     1.0  0.60953  0.76600  0.58062  1.0000
  H   H4796     1.0  0.77183  0.90337  0.53642  1.0000
  H   H4797     1.0  0.71132  0.84944  0.93130  1.0000
  H   H4798     1.0  0.71798  0.78477  0.48836  1.0000
  C   C2711     1.0  0.65460  0.71281  0.49831  1.0000
  C   C2712     1.0  0.65889  0.70248  0.51602  1.0000
  C   C2713     1.0  0.66274  0.71179  0.52837  1.0000
  C   C2714     1.0  0.66198  0.73160  0.52323  1.0000
  C   C2715     1.0  0.65727  0.74200  0.50571  1.0000
  C   C2716     1.0  0.65380  0.73264  0.49323  1.0000
  H   H4799     1.0  0.65948  0.68715  0.52009  1.0000
  H   H4800     1.0  0.66641  0.70361  0.54179  1.0000
  H   H4801     1.0  0.65638  0.75738  0.50167  1.0000
  H   H4802     1.0  0.67931  0.78749  0.51634  1.0000
  C   C2717     1.0  0.69188  0.59482  0.79329  1.0000
  C   C2718     1.0  0.68640  0.61485  0.78829  1.0000
  C   C2719     1.0  0.69307  0.62644  0.79622  1.0000
  C   C2720     1.0  0.70561  0.61804  0.80874  1.0000
  C   C2721     1.0  0.71103  0.59803  0.81370  1.0000
  C   C2722     1.0  0.70394  0.58647  0.80623  1.0000
  H   H4803     1.0  0.67691  0.62137  0.77850  1.0000
  H   H4804     1.0  0.68878  0.64193  0.79241  1.0000
  H   H4805     1.0  0.72059  0.59143  0.82342  1.0000
  H   H4806     1.0  0.70810  0.57098  0.81026  1.0000
  C   C2723     1.0  0.69035  0.63924  0.67086  1.0000
  C   C2724     1.0  0.69352  0.65759  0.66115  1.0000
  C   C2725     1.0  0.68726  0.66658  0.64407  1.0000
  C   C2726     1.0  0.67808  0.65711  0.63643  1.0000
  C   C2727     1.0  0.67544  0.63849  0.64585  1.0000
  C   C2728     1.0  0.68139  0.62965  0.66312  1.0000
  H   H4807     1.0  0.70062  0.66501  0.66697  1.0000
  H   H4808     1.0  0.68971  0.68076  0.63675  1.0000
  H   H4809     1.0  0.66856  0.63100  0.63988  1.0000
  H   H4810     1.0  0.67922  0.61535  0.67034  1.0000
  C   C2729     1.0  0.66500  0.53546  0.69912  1.0000
  C   C2730     1.0  0.67269  0.52510  0.71502  1.0000
  H   H4811     1.0  0.65410  0.53360  0.67570  1.0000
  H   H4812     1.0  0.66441  0.55078  0.69445  1.0000
  C   C2731     1.0  0.71742  0.83562  0.94009  1.0000
  C   C2732     1.0  0.69919  0.65727  0.87646  1.0000
  H   H4813     1.0  0.76715  0.77244  0.86952  1.0000
  H   H4814     1.0  0.69202  0.50764  0.83108  1.0000
  H   H4815     1.0  0.62580  0.56214  0.70932  1.0000
  H   H4816     1.0  0.71103  0.93559  0.62856  1.0000
  H   H4817     1.0  0.60181  0.92952  0.79309  1.0000
  H   H4818     1.0  0.69945  0.97695  0.78513  1.0000
  C   C2733     1.0  0.71913  0.81705  0.97380  1.0000
  C   C2734     1.0  0.72405  0.96571  0.79720  1.0000
  C   C2735     1.0  0.75376  0.70180  0.57799  1.0000
  C   C2736     1.0  0.73073  0.94811  0.78821  1.0000
  C   C2737     1.0  0.61765  0.69340  0.62950  1.0000
  H   H4819     1.0  0.73185  0.49879  0.72204  1.0000
  S   S650      1.0  0.59301  0.79597  0.85480  1.0000
  H   H4820     1.0  0.63327  0.68793  0.65152  1.0000
  H   H4821     1.0  0.68931  0.91036  0.50214  1.0000
  H   H4822     1.0  0.63238  0.95440  0.91430  1.0000
  H   H4823     1.0  0.61705  0.90834  0.93654  1.0000
  C   C2738     1.0  0.68609  0.88649  0.93558  1.0000
  H   H4824     1.0  0.71552  0.96122  0.81166  1.0000
  H   H4825     1.0  0.73684  0.96972  0.79863  1.0000
  H   H4826     1.0  0.62261  0.93228  0.89540  1.0000
  H   H4827     1.0  0.76311  0.84073  0.73768  1.0000
  C   C2739     1.0  0.75381  0.51064  0.72539  1.0000
  H   H4828     1.0  0.71834  0.94321  0.78691  1.0000
  H   H4829     1.0  0.73989  0.95155  0.77386  1.0000
  H   H4830     1.0  0.73905  0.93617  0.79729  1.0000
  C   C2740     1.0  0.75341  0.94517  0.61685  1.0000
  C   C2741     1.0  0.61372  0.73733  0.56069  1.0000
  C   C2742     1.0  0.68649  0.77208  0.95256  1.0000
  Fe  Fe327     1.0  0.77259  0.94984  0.67161  1.0000
  C   C2743     1.0  0.70761  0.50698  0.78673  1.0000
  S   S651      1.0  0.77718  0.66470  0.96041  1.0000
  H   H4831     1.0  0.71031  0.53735  0.78191  1.0000
  C   C2744     1.0  0.71206  0.63755  0.88312  1.0000
  H   H4832     1.0  0.70321  0.62170  0.86730  1.0000
  H   H4833     1.0  0.72291  0.70595  0.84763  1.0000
  H   H4834     1.0  0.75464  0.72444  0.47904  1.0000
  C   C2745     1.0  0.61697  0.49870  0.75227  1.0000
  H   H4835     1.0  0.72143  0.82498  0.57522  1.0000
  H   H4836     1.0  0.63384  0.59097  0.66089  1.0000
  H   H4837     1.0  0.64852  0.64640  0.69433  1.0000
  C   C2746     1.0  0.65468  0.52193  0.78272  1.0000
  H   H4838     1.0  0.66686  0.68352  0.86918  1.0000
  H   H4839     1.0  0.77085  0.87436  0.52576  1.0000
  H   H4840     1.0  0.71293  0.70683  0.51475  1.0000
  H   H4841     1.0  0.60657  0.88683  0.86461  1.0000
  Fe  Fe328     1.0  0.76129  0.68739  0.94000  1.0000
  S   S652      1.0  0.61062  0.61106  0.73348  1.0000
  H   H4842     1.0  0.71296  0.52905  0.76066  1.0000
  H   H4843     1.0  0.63747  0.67200  0.71314  1.0000
  H   H4844     1.0  0.76011  0.66270  0.75519  1.0000
  N   N148      1.0  0.72948  0.87558  0.53366  1.0000
  C   C2747     1.0  0.70390  0.62096  0.88221  1.0000
  C   C2748     1.0  0.60966  0.73762  0.70057  1.0000
  Fe  Fe329     1.0  0.61445  0.94588  0.82165  1.0000
  H   H4845     1.0  0.63087  0.50065  0.74261  1.0000
  C   C2749     1.0  0.72587  0.71255  0.51277  1.0000
  H   H4846     1.0  0.74416  0.50724  0.76709  1.0000
  H   H4847     1.0  0.72150  0.97871  0.67551  1.0000
  C   C2750     1.0  0.73677  0.52278  0.69778  1.0000
  H   H4848     1.0  0.77431  0.50359  0.87905  1.0000
  C   C2751     1.0  0.73045  0.75441  0.90163  1.0000
  C   C2752     1.0  0.75985  0.75675  0.90867  1.0000
  H   H4849     1.0  0.71328  0.63566  0.89807  1.0000
  C   C2753     1.0  0.73303  0.69303  0.85329  1.0000
  C   C2754     1.0  0.72611  0.73679  0.91779  1.0000
  H   H4850     1.0  0.66567  0.96557  0.88572  1.0000
  C   C2755     1.0  0.71059  0.74744  0.96669  1.0000
  H   H4851     1.0  0.74754  0.66161  0.77960  1.0000
  H   H4852     1.0  0.68536  0.65713  0.88661  1.0000
  C   C2756     1.0  0.70514  0.73586  0.92202  1.0000
  H   H4853     1.0  0.74024  0.75831  0.48140  1.0000
  H   H4854     1.0  0.71312  0.65670  0.93152  1.0000
  H   H4855     1.0  0.76567  0.72478  0.89910  1.0000
  H   H4856     1.0  0.75028  0.73012  0.88307  1.0000
  H   H4857     1.0  0.72312  0.75520  0.89011  1.0000
  H   H4858     1.0  0.72315  0.76718  0.90792  1.0000
  H   H4859     1.0  0.75182  0.76950  0.91465  1.0000
  H   H4860     1.0  0.75836  0.74453  0.92104  1.0000
  C   C2757     1.0  0.74871  0.50973  0.83012  1.0000
  H   H4861     1.0  0.74901  0.69047  0.57428  1.0000
  C   C2758     1.0  0.61605  0.76946  0.56522  1.0000
  H   H4862     1.0  0.74761  0.68843  0.82484  1.0000
  H   H4863     1.0  0.72953  0.73773  0.93103  1.0000
  H   H4864     1.0  0.73436  0.72298  0.91423  1.0000
  H   H4865     1.0  0.73719  0.69580  0.86536  1.0000
  H   H4866     1.0  0.75365  0.85361  0.48399  1.0000
  H   H4867     1.0  0.66742  0.68660  0.89204  1.0000
  H   H4868     1.0  0.62239  0.90342  0.85485  1.0000
  H   H4869     1.0  0.61250  0.78529  0.55997  1.0000
  C   C2759     1.0  0.67355  0.50525  0.72089  1.0000
  H   H4870     1.0  0.62644  0.53333  0.73478  1.0000
  H   H4871     1.0  0.72055  0.74982  0.56448  1.0000
  H   H4872     1.0  0.74120  0.51719  0.78749  1.0000
  H   H4873     1.0  0.62231  0.49410  0.71885  1.0000
  H   H4874     1.0  0.70168  0.73250  0.90985  1.0000
  H   H4875     1.0  0.70206  0.72438  0.93486  1.0000
  H   H4876     1.0  0.69592  0.74973  0.92475  1.0000
  H   H4877     1.0  0.61832  0.70881  0.62588  1.0000
  C   C2760     1.0  0.72381  0.75922  0.95838  1.0000
  H   H4878     1.0  0.60438  0.91176  0.89089  1.0000
  H   H4879     1.0  0.75427  0.49352  0.70622  1.0000
  H   H4880     1.0  0.62382  0.66805  0.59678  1.0000
  C   C2761     1.0  0.59827  0.50842  0.70639  1.0000
  H   H4881     1.0  0.71335  0.82387  0.93639  1.0000
  H   H4882     1.0  0.73268  0.74008  0.51055  1.0000
  H   H4883     1.0  0.70944  0.89347  0.88643  1.0000
  N   N149      1.0  0.71591  0.74511  0.48915  1.0000
  H   H4884     1.0  0.68796  0.75946  0.50132  1.0000
  H   H4885     1.0  0.72649  0.63600  0.87411  1.0000
  C   C2762     1.0  0.78489  0.74154  0.52252  1.0000
  H   H4886     1.0  0.59295  0.53403  0.74864  1.0000
  H   H4887     1.0  0.64777  0.93854  0.89984  1.0000
  C   C2763     1.0  0.71546  0.53591  0.67531  1.0000
  C   C2764     1.0  0.76185  0.87717  0.53959  1.0000
  C   C2765     1.0  0.60072  0.72095  0.52139  1.0000
  C   C2766     1.0  0.74008  0.86509  0.51798  1.0000
  C   C2767     1.0  0.72041  0.55614  0.66998  1.0000
  H   H4888     1.0  0.71211  0.91755  0.52755  1.0000
  H   H4889     1.0  0.68506  0.96619  0.70059  1.0000
  H   H4890     1.0  0.59930  0.74794  0.52817  1.0000
  H   H4891     1.0  0.74220  0.51847  0.65159  1.0000
  C   C2768     1.0  0.70299  0.57195  0.66644  1.0000
  H   H4892     1.0  0.74964  0.50192  0.88623  1.0000
  H   H4893     1.0  0.63035  0.52752  0.77003  1.0000
  H   H4894     1.0  0.74771  0.53180  0.69232  1.0000
  H   H4895     1.0  0.60623  0.51987  0.69827  1.0000
  H   H4896     1.0  0.70257  0.53619  0.68686  1.0000
  H   H4897     1.0  0.71108  0.53434  0.66274  1.0000
  C   C2769     1.0  0.78526  0.81955  0.79952  1.0000
  H   H4898     1.0  0.75366  0.53079  0.66087  1.0000
  H   H4899     1.0  0.77211  0.49869  0.63698  1.0000
  H   H4900     1.0  0.77983  0.77499  0.92283  1.0000
  N   N150      1.0  0.63906  0.92489  0.92950  1.0000
  H   H4901     1.0  0.59151  0.64555  0.67110  1.0000
  H   H4902     1.0  0.73154  0.55764  0.65676  1.0000
  H   H4903     1.0  0.72549  0.55891  0.68149  1.0000
  H   H4904     1.0  0.67630  0.91594  0.93770  1.0000
  C   C2770     1.0  0.70978  0.83573  0.96122  1.0000
  H   H4905     1.0  0.62402  0.94410  0.94849  1.0000
  H   H4906     1.0  0.64836  0.89395  0.93333  1.0000
  S   S653      1.0  0.60585  0.85216  0.89800  1.0000
  N   N151      1.0  0.60385  0.72608  0.55358  1.0000
  H   H4907     1.0  0.76302  0.89190  0.56085  1.0000
  C   C2771     1.0  0.61103  0.72413  0.71996  1.0000
  H   H4908     1.0  0.76994  0.64539  0.77439  1.0000
  Fe  Fe330     1.0  0.62923  0.98305  0.80499  1.0000
  H   H4909     1.0  0.69160  0.57143  0.67952  1.0000
  H   H4910     1.0  0.70687  0.58626  0.66257  1.0000
  H   H4911     1.0  0.69748  0.57032  0.65462  1.0000
  H   H4912     1.0  0.64231  0.63174  0.67457  1.0000
  H   H4913     1.0  0.69468  0.77469  0.55229  1.0000
  C   C2772     1.0  0.69022  0.91684  0.87242  1.0000
  C   C2773     1.0  0.74535  0.80758  0.86280  1.0000
  C   C2774     1.0  0.62168  0.66253  0.65478  1.0000
  H   H4914     1.0  0.60976  0.91751  0.96590  1.0000
  C   C2775     1.0  0.63626  0.76991  0.66811  1.0000
  S   S654      1.0  0.65485  0.49352  0.67982  1.0000
  C   C2776     1.0  0.65046  0.76417  0.65061  1.0000
  H   H4915     1.0  0.66185  0.95083  0.92898  1.0000
  H   H4916     1.0  0.61561  0.75645  0.66372  1.0000
  H   H4917     1.0  0.62347  0.73427  0.69066  1.0000
  H   H4918     1.0  0.63761  0.78440  0.66850  1.0000
  H   H4919     1.0  0.64053  0.75957  0.68087  1.0000
  H   H4920     1.0  0.72391  0.49750  0.65892  1.0000
  H   H4921     1.0  0.76216  0.78135  0.57333  1.0000
  H   H4922     1.0  0.66506  0.76434  0.65145  1.0000
  H   H4923     1.0  0.65016  0.74944  0.64984  1.0000
  H   H4924     1.0  0.64711  0.77437  0.63735  1.0000
  N   N152      1.0  0.75029  0.60918  0.75283  1.0000
  C   C2777     1.0  0.76129  0.60141  0.73547  1.0000
  C   C2778     1.0  0.72965  0.61547  0.75162  1.0000
  C   C2779     1.0  0.75822  0.62578  0.75346  1.0000
  C   C2780     1.0  0.75202  0.59409  0.77089  1.0000
  C   C2781     1.0  0.74647  0.57487  0.77214  1.0000
  C   C2782     1.0  0.74605  0.63838  0.76779  1.0000
  C   C2783     1.0  0.72505  0.63171  0.73427  1.0000
  C   C2784     1.0  0.70363  0.63889  0.73622  1.0000
  C   C2785     1.0  0.75113  0.56023  0.79000  1.0000
  H   H4925     1.0  0.76134  0.61322  0.72249  1.0000
  H   H4926     1.0  0.75411  0.59114  0.73295  1.0000
  H   H4927     1.0  0.72402  0.60320  0.75089  1.0000
  H   H4928     1.0  0.72101  0.61998  0.76486  1.0000
  H   H4929     1.0  0.76074  0.63552  0.73916  1.0000
  C   C2786     1.0  0.71129  0.84812  0.55251  1.0000
  H   H4930     1.0  0.74283  0.59966  0.78342  1.0000
  H   H4931     1.0  0.75417  0.56837  0.75977  1.0000
  H   H4932     1.0  0.73101  0.57710  0.77293  1.0000
  H   H4933     1.0  0.74238  0.62949  0.78222  1.0000
  H   H4934     1.0  0.73259  0.64659  0.76336  1.0000
  H   H4935     1.0  0.73132  0.64422  0.73274  1.0000
  H   H4936     1.0  0.73052  0.62625  0.72094  1.0000
  H   H4937     1.0  0.69744  0.64530  0.74894  1.0000
  H   H4938     1.0  0.70056  0.65000  0.72337  1.0000
  H   H4939     1.0  0.69681  0.62682  0.73750  1.0000
  H   H4940     1.0  0.76675  0.55593  0.78886  1.0000
  H   H4941     1.0  0.78829  0.74357  0.87072  1.0000
  H   H4942     1.0  0.74549  0.54723  0.79185  1.0000
  N   N153      1.0  0.70204  0.92706  0.69553  1.0000
  C   C2787     1.0  0.68574  0.92636  0.71254  1.0000
  C   C2788     1.0  0.71060  0.94398  0.69386  1.0000
  C   C2789     1.0  0.69470  0.92888  0.67798  1.0000
  C   C2790     1.0  0.71736  0.90903  0.69773  1.0000
  C   C2791     1.0  0.72346  0.90225  0.71725  1.0000
  C   C2792     1.0  0.67563  0.90932  0.71691  1.0000
  C   C2793     1.0  0.70926  0.93185  0.65880  1.0000
  C   C2794     1.0  0.69784  0.96419  0.68910  1.0000
  H   H4943     1.0  0.70461  0.88056  0.52181  1.0000
  H   H4944     1.0  0.69728  0.85698  0.55007  1.0000
  C   C2795     1.0  0.66176  0.90814  0.73615  1.0000
  C   C2796     1.0  0.70031  0.93346  0.64207  1.0000
  H   H4945     1.0  0.67446  0.93956  0.71057  1.0000
  H   H4946     1.0  0.69038  0.92648  0.72554  1.0000
  H   H4947     1.0  0.71462  0.94314  0.70743  1.0000
  H   H4948     1.0  0.72407  0.94361  0.68294  1.0000
  H   H4949     1.0  0.68195  0.94072  0.67706  1.0000
  H   H4950     1.0  0.68970  0.91566  0.67889  1.0000
  H   H4951     1.0  0.71309  0.89678  0.69507  1.0000
  H   H4952     1.0  0.73042  0.91108  0.68663  1.0000
  H   H4953     1.0  0.71193  0.89692  0.72869  1.0000
  H   H4954     1.0  0.72697  0.91406  0.72124  1.0000
  H   H4955     1.0  0.66735  0.91133  0.70589  1.0000
  H   H4956     1.0  0.68581  0.89533  0.71727  1.0000
  H   H4957     1.0  0.72145  0.91944  0.65866  1.0000
  H   H4958     1.0  0.71473  0.94513  0.65618  1.0000
  C   C2797     1.0  0.74407  0.50500  0.71272  1.0000
  H   H4959     1.0  0.69140  0.93329  0.50460  1.0000
  C   C2798     1.0  0.60009  0.73163  0.50082  1.0000
  Fe  Fe331     1.0  0.78639  0.92123  0.70471  1.0000
  C   C2799     1.0  0.63420  0.92999  0.94875  1.0000
  C   C2800     1.0  0.76064  0.91933  0.64349  1.0000
  H   H4960     1.0  0.61412  0.73506  0.49314  1.0000
  C   C2801     1.0  0.76068  0.73598  0.88704  1.0000
  H   H4961     1.0  0.66959  0.90439  0.74786  1.0000
  H   H4962     1.0  0.68815  0.94592  0.64125  1.0000
  C   C2802     1.0  0.59984  0.66299  0.74734  1.0000
  H   H4963     1.0  0.69542  0.92007  0.64346  1.0000
  H   H4964     1.0  0.73775  0.82179  0.86612  1.0000
  C   C2803     1.0  0.68009  0.52540  0.80631  1.0000
  S   S655      1.0  0.73482  0.49281  0.83264  1.0000
  C   C2804     1.0  0.59181  0.90588  0.78982  1.0000
  C   C2805     1.0  0.70024  0.97338  0.74619  1.0000
  H   H4965     1.0  0.68035  0.53232  0.76903  1.0000
  C   C2806     1.0  0.69153  0.52226  0.82186  1.0000
  N   N154      1.0  0.73083  0.51908  0.68137  1.0000
  H   H4966     1.0  0.75699  0.70384  0.83352  1.0000
  H   H4967     1.0  0.76166  0.76610  0.52107  1.0000
  H   H4968     1.0  0.74717  0.70835  0.52924  1.0000
  C   C2807     1.0  0.68268  0.53687  0.83450  1.0000
  H   H4969     1.0  0.71782  0.68752  0.89170  1.0000
  H   H4970     1.0  0.66494  0.52598  0.81363  1.0000
  H   H4971     1.0  0.68032  0.54014  0.79742  1.0000
  C   C2808     1.0  0.64133  0.80970  0.82689  1.0000
  C   C2809     1.0  0.75797  0.90608  0.63430  1.0000
  C   C2810     1.0  0.61568  0.77016  0.66709  1.0000
  N   N155      1.0  0.68642  0.51069  0.79404  1.0000
  C   C2811     1.0  0.67000  0.90330  0.94014  1.0000
  S   S656      1.0  0.61849  0.96818  0.83505  1.0000
  H   H4972     1.0  0.77214  0.82962  0.80453  1.0000
  C   C2812     1.0  0.77081  0.53628  0.82795  1.0000
  H   H4973     1.0  0.61322  0.67769  0.68745  1.0000
  H   H4974     1.0  0.70629  0.52415  0.81530  1.0000
  H   H4975     1.0  0.77344  0.85969  0.48915  1.0000
  H   H4976     1.0  0.64787  0.79861  0.81825  1.0000
  H   H4977     1.0  0.67767  0.97144  0.90073  1.0000
  C   C2813     1.0  0.60484  0.75903  0.70208  1.0000
  C   C2814     1.0  0.67673  0.51829  0.77734  1.0000
  S   S657      1.0  0.77456  0.80978  0.61118  1.0000
  H   H4978     1.0  0.72168  0.67218  0.84635  1.0000
  H   H4979     1.0  0.62253  0.63796  0.74783  1.0000
  H   H4980     1.0  0.63163  0.90018  0.96397  1.0000
  C   C2815     1.0  0.72084  0.73491  0.50838  1.0000
  H   H4981     1.0  0.78772  0.88931  0.67256  1.0000
  H   H4982     1.0  0.66811  0.53512  0.84219  1.0000
  H   H4983     1.0  0.69146  0.53466  0.84514  1.0000
  H   H4984     1.0  0.63670  0.65643  0.64878  1.0000
  H   H4985     1.0  0.59866  0.73409  0.69538  1.0000
  H   H4986     1.0  0.64739  0.80543  0.83989  1.0000
  N   N156      1.0  0.64105  0.86475  0.81753  1.0000
  C   C2816     1.0  0.62941  0.87794  0.83073  1.0000
  C   C2817     1.0  0.63327  0.87194  0.79950  1.0000
  C   C2818     1.0  0.63750  0.84483  0.82718  1.0000
  C   C2819     1.0  0.66189  0.86461  0.81423  1.0000
  C   C2820     1.0  0.66787  0.88415  0.80413  1.0000
  C   C2821     1.0  0.63488  0.87432  0.85027  1.0000
  C   C2822     1.0  0.64500  0.82929  0.81511  1.0000
  C   C2823     1.0  0.64647  0.86679  0.78085  1.0000
  C   C2824     1.0  0.63489  0.86705  0.76661  1.0000
  C   C2825     1.0  0.68161  0.88848  0.81369  1.0000
  S   S658      1.0  0.66346  0.77923  0.94814  1.0000
  H   H4987     1.0  0.61415  0.87715  0.83369  1.0000
  H   H4988     1.0  0.62948  0.89328  0.82383  1.0000
  H   H4989     1.0  0.61963  0.86722  0.80192  1.0000
  H   H4990     1.0  0.62914  0.88794  0.79608  1.0000
  H   H4991     1.0  0.62198  0.84540  0.83225  1.0000
  H   H4992     1.0  0.64382  0.83915  0.84006  1.0000
  H   H4993     1.0  0.66689  0.85880  0.82787  1.0000
  H   H4994     1.0  0.67058  0.85412  0.80554  1.0000
  H   H4995     1.0  0.65566  0.89641  0.80315  1.0000
  H   H4996     1.0  0.67534  0.88367  0.78921  1.0000
  C   C2826     1.0  0.74228  0.79177  0.88073  1.0000
  H   H4997     1.0  0.64944  0.87645  0.84849  1.0000
  H   H4998     1.0  0.66051  0.82760  0.80950  1.0000
  H   H4999     1.0  0.65545  0.87763  0.77406  1.0000
  H   H5000     1.0  0.65619  0.85263  0.78305  1.0000
  H   H5001     1.0  0.64456  0.86383  0.75322  1.0000
  C   C2827     1.0  0.66731  0.49566  0.71060  1.0000
  N   N157      1.0  0.60121  0.50617  0.74121  1.0000
  H   H5002     1.0  0.68607  0.90214  0.80554  1.0000
  H   H5003     1.0  0.67470  0.89019  0.82843  1.0000
  H   H5004     1.0  0.69447  0.87678  0.81405  1.0000
  H   H5005     1.0  0.74496  0.88129  0.73094  1.0000
  H   H5006     1.0  0.60813  0.69214  0.65928  1.0000
  C   C2828     1.0  0.78561  0.73577  0.50409  1.0000
  H   H5007     1.0  0.61564  0.70338  0.58743  1.0000
  H   H5008     1.0  0.64331  0.71186  0.87745  1.0000
  H   H5009     1.0  0.75891  0.48659  0.67114  1.0000
  H   H5010     1.0  0.73318  0.88469  0.49183  1.0000
  H   H5011     1.0  0.62548  0.88140  0.76327  1.0000
  H   H5012     1.0  0.71705  0.83923  0.54164  1.0000
  H   H5013     1.0  0.65223  0.97897  0.90373  1.0000
  H   H5014     1.0  0.77058  0.86149  0.75429  1.0000
  Fe  Fe332     1.0  0.65485  0.81099  0.93716  1.0000
  H   H5015     1.0  0.62453  0.62612  0.65196  1.0000
  H   H5016     1.0  0.60841  0.61638  0.67295  1.0000
  C   C2829     1.0  0.76383  0.50035  0.66693  1.0000
  C   C2830     1.0  0.62112  0.92143  0.92629  1.0000
  H   H5017     1.0  0.62586  0.81016  0.83105  1.0000
  C   C2831     1.0  0.71066  0.88778  0.52948  1.0000
  C   C2832     1.0  0.62679  0.63231  0.67859  1.0000
  H   H5018     1.0  0.71509  0.49973  0.79870  1.0000
  H   H5019     1.0  0.72672  0.79294  0.88572  1.0000
  H   H5020     1.0  0.65034  0.74080  0.47973  1.0000
  H   H5021     1.0  0.70866  0.73850  0.52017  1.0000
  H   H5022     1.0  0.61485  0.48813  0.68869  1.0000
  H   H5023     1.0  0.63174  0.76485  0.56337  1.0000
  S   S659      1.0  0.64976  0.70056  0.48324  1.0000
  H   H5024     1.0  0.74369  0.53251  0.76395  1.0000
  H   H5025     1.0  0.72180  0.91004  0.50538  1.0000
  H   H5026     1.0  0.76226  0.86326  0.54989  1.0000
  H   H5027     1.0  0.72014  0.98453  0.76997  1.0000
  C   C2833     1.0  0.66455  0.96725  0.90036  1.0000
  H   H5028     1.0  0.67155  0.97086  0.76053  1.0000
  S   S660      1.0  0.66580  0.94667  0.85522  1.0000
  C   C2834     1.0  0.77111  0.88935  0.54662  1.0000
  C   C2835     1.0  0.60011  0.74659  0.63244  1.0000
  C   C2836     1.0  0.63669  0.59980  0.66934  1.0000
  H   H5029     1.0  0.74057  0.72415  0.55758  1.0000
  S   S661      1.0  0.74751  0.75070  0.96063  1.0000
  C   C2837     1.0  0.70376  0.67118  0.92897  1.0000
  H   H5030     1.0  0.74322  0.90017  0.52531  1.0000
  H   H5031     1.0  0.63932  0.69012  0.69111  1.0000
  H   H5032     1.0  0.64682  0.93222  0.95240  1.0000
  C   C2838     1.0  0.76750  0.50752  0.81995  1.0000
  C   C2839     1.0  0.77623  0.76331  0.55231  1.0000
  C   C2840     1.0  0.64480  0.67500  0.69792  1.0000
  H   H5033     1.0  0.61257  0.78136  0.65428  1.0000
  S   S662      1.0  0.62241  0.96231  0.79156  1.0000
  H   H5034     1.0  0.68803  0.66298  0.91329  1.0000
  C   C2841     1.0  0.77851  0.86276  0.67796  1.0000
  C   C2842     1.0  0.59947  0.63407  0.73795  1.0000
  H   H5035     1.0  0.68947  0.62132  0.89139  1.0000
  H   H5036     1.0  0.72368  0.66223  0.89633  1.0000
  H   H5037     1.0  0.69838  0.82498  0.57194  1.0000
  H   H5038     1.0  0.69190  0.67206  0.94156  1.0000
  N   N158      1.0  0.70662  0.67493  0.87496  1.0000
  H   H5039     1.0  0.68586  0.68867  0.90993  1.0000
  H   H5040     1.0  0.74465  0.56634  0.80287  1.0000
  H   H5041     1.0  0.73814  0.87341  0.71326  1.0000
  H   H5042     1.0  0.62597  0.85602  0.77252  1.0000
  H   H5043     1.0  0.65027  0.53632  0.75413  1.0000
  C   C2843     1.0  0.71196  0.98249  0.78499  1.0000
  C   C2844     1.0  0.78119  0.82094  0.51321  1.0000
  H   H5044     1.0  0.72634  0.75831  0.53912  1.0000
  H   H5045     1.0  0.66084  0.86469  0.96826  1.0000
  H   H5046     1.0  0.63750  0.83295  0.80317  1.0000
  C   C2845     1.0  0.62013  0.68463  0.64995  1.0000
  C   C2846     1.0  0.59973  0.79344  0.68719  1.0000
  C   C2847     1.0  0.68122  0.49196  0.80594  1.0000
  H   H5047     1.0  0.61111  0.70712  0.52074  1.0000
  H   H5048     1.0  0.68208  0.55176  0.82579  1.0000
  C   C2848     1.0  0.75477  0.71898  0.56110  1.0000
  H   H5049     1.0  0.69503  0.80416  0.50960  1.0000
  H   H5050     1.0  0.75917  0.89104  0.64116  1.0000
  C   C2849     1.0  0.77855  0.50001  0.64829  1.0000
  H   H5051     1.0  0.60708  0.69638  0.55207  1.0000
  C   C2850     1.0  0.62046  0.66238  0.68898  1.0000
  H   H5052     1.0  0.60698  0.67079  0.75267  1.0000
  H   H5053     1.0  0.66150  0.72222  0.88018  1.0000
  C   C2851     1.0  0.65854  0.71271  0.87251  1.0000
  H   H5054     1.0  0.71740  0.71903  0.48012  1.0000
  H   H5055     1.0  0.59306  0.76483  0.55563  1.0000
  H   H5056     1.0  0.62236  0.72650  0.72567  1.0000
  H   H5057     1.0  0.73968  0.80535  0.85138  1.0000
  H   H5058     1.0  0.59739  0.69250  0.58565  1.0000
  H   H5059     1.0  0.73384  0.89364  0.54996  1.0000
  C   C2852     1.0  0.76163  0.73505  0.56553  1.0000
  N   N159      1.0  0.75121  0.75475  0.89335  1.0000
  C   C2853     1.0  0.61685  0.53554  0.72492  1.0000
  C   C2854     1.0  0.61200  0.69497  0.57921  1.0000
  H   H5060     1.0  0.78959  0.77962  0.58584  1.0000
  H   H5061     1.0  0.74799  0.79489  0.89162  1.0000
  H   H5062     1.0  0.78432  0.76894  0.89034  1.0000
  H   H5063     1.0  0.70101  0.84246  0.58337  1.0000
  C   C2855     1.0  0.71410  0.49658  0.67300  1.0000
  H   H5064     1.0  0.78361  0.57883  0.74764  1.0000
  C   C2856     1.0  0.61330  0.70506  0.55794  1.0000
  H   H5065     1.0  0.68181  0.74461  0.97002  1.0000
  H   H5066     1.0  0.69407  0.69702  0.85330  1.0000
  H   H5067     1.0  0.69329  0.96661  0.67549  1.0000
  H   H5068     1.0  0.78496  0.57395  0.71551  1.0000
  S   S663      1.0  0.77868  0.70901  0.93698  1.0000
  H   H5069     1.0  0.77713  0.77658  0.54087  1.0000
  C   C2857     1.0  0.78750  0.71595  0.86720  1.0000
  C   C2858     1.0  0.62293  0.61931  0.66735  1.0000
  C   C2859     1.0  0.61235  0.55708  0.71632  1.0000
  H   H5070     1.0  0.77357  0.49567  0.81282  1.0000
  H   H5071     1.0  0.65163  0.60162  0.66402  1.0000
  H   H5072     1.0  0.71937  0.86791  0.56424  1.0000
  C   C2860     1.0  0.75092  0.69072  0.83765  1.0000
  C   C2861     1.0  0.78123  0.75738  0.90302  1.0000
  Fe  Fe333     1.0  0.76158  0.60767  0.86129  1.0000
  C   C2862     1.0  0.70725  0.73261  0.48229  1.0000
  H   H5073     1.0  0.64904  0.53530  0.78830  1.0000
  H   H5074     1.0  0.62550  0.88530  0.87611  1.0000
  H   H5075     1.0  0.68225  0.50873  0.76696  1.0000
  H   H5076     1.0  0.61124  0.72927  0.65697  1.0000
  H   H5077     1.0  0.65364  0.89686  0.73828  1.0000
  H   H5078     1.0  0.65153  0.92205  0.73684  1.0000
  C   C2863     1.0  0.68584  0.96319  0.75589  1.0000
  C   C2864     1.0  0.65455  0.90704  0.92831  1.0000
  C   C2865     1.0  0.69625  0.89773  0.88147  1.0000
  H   H5079     1.0  0.73586  0.66266  0.86379  1.0000
  H   H5080     1.0  0.62388  0.62525  0.69398  1.0000
  Fe  Fe334     1.0  0.64843  0.95133  0.83332  1.0000
  S   S664      1.0  0.78816  0.94335  0.71943  1.0000
  H   H5081     1.0  0.72640  0.52721  0.84690  1.0000
  C   C2866     1.0  0.59462  0.91776  0.80029  1.0000
  H   H5082     1.0  0.66382  0.89957  0.95557  1.0000
  H   H5083     1.0  0.76412  0.91450  0.65743  1.0000
  H   H5084     1.0  0.77248  0.62038  0.75719  1.0000
  H   H5085     1.0  0.76667  0.59077  0.77354  1.0000
  C   C2867     1.0  0.71035  0.90888  0.51828  1.0000
  S   S665      1.0  0.63777  0.86570  0.92169  1.0000
  Fe  Fe335     1.0  0.77306  0.58209  0.83254  1.0000
  S   S666      1.0  0.76845  0.60725  0.80812  1.0000
  H   H5086     1.0  0.75455  0.74379  0.52917  1.0000
  H   H5087     1.0  0.66023  0.67312  0.69723  1.0000
  H   H5088     1.0  0.74579  0.55071  0.84475  1.0000
  H   H5089     1.0  0.68784  0.80468  0.97436  1.0000
  C   C2868     1.0  0.69586  0.67450  0.91113  1.0000
  H   H5090     1.0  0.71012  0.79163  0.54279  1.0000
  C   C2869     1.0  0.72433  0.76208  0.55296  1.0000
  C   C2870     1.0  0.70722  0.77884  0.55418  1.0000
  C   C2871     1.0  0.75663  0.65289  0.76924  1.0000
  C   C2872     1.0  0.77405  0.76882  0.57156  1.0000
  H   H5091     1.0  0.59462  0.50402  0.68004  1.0000
  H   H5092     1.0  0.71325  0.60708  0.88731  1.0000
  H   H5093     1.0  0.69635  0.65747  0.86243  1.0000
  C   C2873     1.0  0.59511  0.65260  0.68071  1.0000
  S   S667      1.0  0.77333  0.97487  0.68273  1.0000
  H   H5094     1.0  0.73561  0.68843  0.53447  1.0000
  H   H5095     1.0  0.75321  0.89089  0.70609  1.0000
  H   H5096     1.0  0.63397  0.85960  0.85867  1.0000
  C   C2874     1.0  0.77795  0.83892  0.73913  1.0000
  C   C2875     1.0  0.59860  0.52781  0.73569  1.0000
  C   C2876     1.0  0.75191  0.53868  0.83789  1.0000
  C   C2877     1.0  0.72437  0.67473  0.85941  1.0000
  C   C2878     1.0  0.69236  0.69307  0.86911  1.0000
  H   H5097     1.0  0.75148  0.61780  0.92847  1.0000
  H   H5098     1.0  0.71080  0.50260  0.70060  1.0000
  C   C2879     1.0  0.74094  0.52537  0.83904  1.0000
  C   C2880     1.0  0.67094  0.69258  0.87656  1.0000
  H   H5099     1.0  0.74297  0.78190  0.54584  1.0000
  H   H5100     1.0  0.64946  0.66441  0.67253  1.0000
  S   S668      1.0  0.62441  0.82548  0.94556  1.0000
  C   C2881     1.0  0.78236  0.59155  0.73568  1.0000
  H   H5101     1.0  0.71318  0.77079  0.51222  1.0000
  H   H5102     1.0  0.75324  0.73755  0.57972  1.0000
  H   H5103     1.0  0.70380  0.78268  0.56829  1.0000
  C   C2882     1.0  0.59879  0.81155  0.86544  1.0000
  H   H5104     1.0  0.77277  0.86234  0.69335  1.0000
  C   C2883     1.0  0.64605  0.52425  0.76565  1.0000
  C   C2884     1.0  0.71197  0.67470  0.89319  1.0000
  C   C2885     1.0  0.72524  0.86078  0.55188  1.0000
  H   H5105     1.0  0.78440  0.51331  0.64353  1.0000
  C   C2886     1.0  0.60825  0.80412  0.88063  1.0000
  C   C2887     1.0  0.60869  0.64437  0.74459  1.0000
  C   C2888     1.0  0.74215  0.76754  0.55527  1.0000
  S   S669      1.0  0.73806  0.69906  0.96262  1.0000
  S   S670      1.0  0.76093  0.95660  0.64515  1.0000
  C   C2889     1.0  0.70120  0.76322  0.49167  1.0000
  H   H5106     1.0  0.72454  0.53136  0.70633  1.0000
  C   C2890     1.0  0.75223  0.77160  0.87653  1.0000
  C   C2891     1.0  0.60863  0.75951  0.55400  1.0000
  C   C2892     1.0  0.69024  0.79366  0.50467  1.0000
  H   H5107     1.0  0.67973  0.49711  0.73302  1.0000
  H   H5108     1.0  0.68041  0.87361  0.93686  1.0000
  H   H5109     1.0  0.73313  0.83376  0.93646  1.0000
  C   C2893     1.0  0.70785  0.83434  0.57192  1.0000
  C   C2894     1.0  0.73338  0.70436  0.53108  1.0000
  C   C2895     1.0  0.70717  0.77779  0.49939  1.0000
  C   C2896     1.0  0.74593  0.87776  0.49807  1.0000
  C   C2897     1.0  0.66240  0.94840  0.91482  1.0000
  H   H5110     1.0  0.62269  0.66609  0.57353  1.0000
  H   H5111     1.0  0.73149  0.85586  0.51594  1.0000
  C   C2898     1.0  0.66066  0.50574  0.69407  1.0000
  H   H5112     1.0  0.75043  0.49995  0.91980  1.0000
  H   H5113     1.0  0.75152  0.96027  0.60999  1.0000
  H   H5114     1.0  0.67530  0.93749  0.91086  1.0000
  H   H5115     1.0  0.74338  0.70613  0.59059  1.0000
  H   H5116     1.0  0.64057  0.67714  0.57622  1.0000
  H   H5117     1.0  0.61468  0.50719  0.76324  1.0000
  Fe  Fe336     1.0  0.75679  0.71894  0.96122  1.0000
  H   H5118     1.0  0.76613  0.67362  0.87691  1.0000
  H   H5119     1.0  0.73892  0.76957  0.57010  1.0000
  H   H5120     1.0  0.76070  0.80781  0.85763  1.0000
  H   H5121     1.0  0.61670  0.76168  0.70681  1.0000
  C   C2899     1.0  0.62187  0.91864  0.90620  1.0000
  H   H5122     1.0  0.69713  0.77139  0.47794  1.0000
  H   H5123     1.0  0.66176  0.90700  0.91319  1.0000
  C   C2900     1.0  0.62560  0.67536  0.58149  1.0000
  H   H5124     1.0  0.63475  0.59199  0.68447  1.0000
  C   C2901     1.0  0.76455  0.75169  0.53077  1.0000
  H   H5125     1.0  0.77219  0.74405  0.85637  1.0000
  C   C2902     1.0  0.74134  0.88755  0.53716  1.0000
  H   H5126     1.0  0.73839  0.85061  0.55503  1.0000
  H   H5127     1.0  0.71292  0.97855  0.70060  1.0000
  C   C2903     1.0  0.74724  0.51791  0.66454  1.0000
  N   N160      1.0  0.76099  0.75392  0.55104  1.0000
  C   C2904     1.0  0.59909  0.73392  0.65031  1.0000
  H   H5128     1.0  0.64944  0.51001  0.79376  1.0000
  C   C2905     1.0  0.73762  0.52013  0.77328  1.0000
  C   C2906     1.0  0.74100  0.88593  0.71679  1.0000
  C   C2907     1.0  0.69143  0.91807  0.51208  1.0000
  H   H5129     1.0  0.69439  0.89038  0.92092  1.0000
  C   C2908     1.0  0.75840  0.93894  0.63464  1.0000
  H   H5130     1.0  0.62222  0.73283  0.52593  1.0000
  H   H5131     1.0  0.75300  0.85495  0.52204  1.0000
  H   H5132     1.0  0.62472  0.52793  0.71338  1.0000
  N   N161      1.0  0.61601  0.65297  0.67549  1.0000
  H   H5133     1.0  0.67945  0.91775  0.52464  1.0000
  H   H5134     1.0  0.75300  0.88896  0.49867  1.0000
  H   H5135     1.0  0.69417  0.83750  0.96406  1.0000
  H   H5136     1.0  0.61444  0.70894  0.71852  1.0000
  H   H5137     1.0  0.77122  0.50119  0.67768  1.0000
  H   H5138     1.0  0.76789  0.69566  0.58177  1.0000
  H   H5139     1.0  0.61253  0.78873  0.88540  1.0000
  H   H5140     1.0  0.72302  0.70979  0.54316  1.0000
  H   H5141     1.0  0.71193  0.49663  0.77719  1.0000
  H   H5142     1.0  0.63436  0.90749  0.90201  1.0000
  C   C2909     1.0  0.59667  0.84385  0.86868  1.0000
  H   H5143     1.0  0.74392  0.52196  0.73251  1.0000
  H   H5144     1.0  0.61310  0.79380  0.69093  1.0000
  H   H5145     1.0  0.73675  0.70692  0.50119  1.0000
  H   H5146     1.0  0.59900  0.80436  0.67362  1.0000
  C   C2910     1.0  0.64456  0.94182  0.91421  1.0000
  C   C2911     1.0  0.60663  0.49693  0.72420  1.0000
  H   H5147     1.0  0.74588  0.76949  0.86547  1.0000
  H   H5148     1.0  0.77655  0.72514  0.50682  1.0000
  H   H5149     1.0  0.77637  0.72862  0.56777  1.0000
  Fe  Fe337     1.0  0.78052  0.83438  0.58652  1.0000
  H   H5150     1.0  0.62910  0.68601  0.61942  1.0000
  H   H5151     1.0  0.68383  0.80139  0.49211  1.0000
  C   C2912     1.0  0.70860  0.97984  0.68708  1.0000
  Fe  Fe338     1.0  0.78057  0.82746  0.62848  1.0000
  C   C2913     1.0  0.72244  0.50127  0.68781  1.0000
  H   H5152     1.0  0.71472  0.73332  0.97529  1.0000
  H   H5153     1.0  0.59274  0.80859  0.93371  1.0000
  H   H5154     1.0  0.59160  0.64373  0.69535  1.0000
  H   H5155     1.0  0.76045  0.89676  0.79263  1.0000
  H   H5156     1.0  0.75280  0.89033  0.77443  1.0000
  H   H5157     1.0  0.73290  0.48831  0.69272  1.0000
  H   H5158     1.0  0.61540  0.76387  0.53875  1.0000
  C   C2914     1.0  0.76355  0.49706  0.89059  1.0000
  C   C2915     1.0  0.78429  0.82532  0.54348  1.0000
  C   C2916     1.0  0.77752  0.73633  0.86957  1.0000
  C   C2917     1.0  0.75969  0.86565  0.48450  1.0000
  H   H5159     1.0  0.59727  0.72646  0.73026  1.0000
  N   N162      1.0  0.60054  0.77373  0.68442  1.0000
  H   H5160     1.0  0.60363  0.56013  0.70545  1.0000
  H   H5161     1.0  0.77127  0.75670  0.58374  1.0000
  H   H5162     1.0  0.59107  0.92317  0.91019  1.0000
  C   C2918     1.0  0.76387  0.89602  0.77738  1.0000
  H   H5163     1.0  0.78508  0.58109  0.92325  1.0000
  H   H5164     1.0  0.77097  0.85860  0.78745  1.0000
  H   H5165     1.0  0.77534  0.50128  0.91266  1.0000
  H   H5166     1.0  0.59690  0.90855  0.77454  1.0000
  H   H5167     1.0  0.76933  0.83820  0.76908  1.0000
  H   H5168     1.0  0.75759  0.52123  0.90404  1.0000
  H   H5169     1.0  0.60468  0.56525  0.72759  1.0000
  H   H5170     1.0  0.60363  0.69228  0.62785  1.0000
  C   C2919     1.0  0.76163  0.50528  0.90790  1.0000
  H   H5171     1.0  0.77721  0.70754  0.86705  1.0000
  H   H5172     1.0  0.60307  0.89815  0.91505  1.0000
  C   C2920     1.0  0.77795  0.84615  0.75651  1.0000
  H   H5173     1.0  0.78645  0.88329  0.75697  1.0000
  C   C2921     1.0  0.59355  0.83143  0.85915  1.0000
  H   H5174     1.0  0.78628  0.86340  0.79916  1.0000
  H   H5175     1.0  0.77581  0.79567  0.82118  1.0000
  S   S671      1.0  0.59319  0.82001  0.80081  1.0000
  C   C2922     1.0  0.78348  0.88334  0.77233  1.0000
  H   H5176     1.0  0.59191  0.85922  0.86417  1.0000
  H   H5177     1.0  0.78071  0.74863  0.49335  1.0000
  Fe  Fe339     1.0  0.75596  0.81587  0.47719  1.0000
  H   H5178     1.0  0.78125  0.48751  0.85698  1.0000
  H   H5179     1.0  0.59654  0.72241  0.49325  1.0000
  H   H5180     1.0  0.78682  0.82120  0.49823  1.0000
  H   H5181     1.0  0.78578  0.88158  0.54802  1.0000
  H   H5182     1.0  0.76673  0.51603  0.71688  1.0000
  H   H5183     1.0  0.78426  0.84773  0.67612  1.0000
  S   S672      1.0  0.78921  0.85049  0.60334  1.0000
  C   C2923     1.0  0.78794  0.76110  0.91913  1.0000
  H   H5184     1.0  0.71409  0.48688  0.87534  1.0000
  C   C2924     1.0  0.77854  0.52064  0.81904  1.0000
  C   C2925     1.0  0.78489  0.86261  0.78488  1.0000
  Fe  Fe340     1.0  0.78263  0.62221  0.82126  1.0000
  S   S673      1.0  0.78533  0.55231  0.82638  1.0000
  H   H5185     1.0  0.78321  0.81373  0.78813  1.0000
  H   H5186     1.0  0.78482  0.82344  0.74066  1.0000
  H   H5187     1.0  0.78556  0.84732  0.72595  1.0000
  C   C2926     1.0  0.78835  0.80252  0.81626  1.0000
  H   H5188     1.0  0.78615  0.74935  0.93200  1.0000
  H   H5189     1.0  0.75812  0.49786  0.73645  1.0000
  H   H5190     1.0  0.78869  0.64978  0.84004  1.0000
  S   S674      1.0  0.78979  0.59611  0.84402  1.0000
  S   S675      1.0  0.59052  0.92962  0.83351  1.0000
  H   H5191     1.0  0.78984  0.74334  0.90012  1.0000
  H   H5192     1.0  0.79011  0.72851  0.53287  1.0000
  H   H5193     1.0  0.83702  0.18821  0.26965  1.0000
  H   H5194     1.0  0.83729  0.41034  0.26343  1.0000
  H   H5195     1.0  0.81061  0.42316  0.12459  1.0000
  C   C2927     1.0  0.84216  0.22314  0.42918  1.0000
  Fe  Fe341     1.0  0.89468  0.30756  0.19622  1.0000
  S   S676      1.0  0.90441  0.32474  0.16686  1.0000
  S   S677      1.0  0.89698  0.27555  0.20515  1.0000
  Fe  Fe342     1.0  0.88055  0.34207  0.21368  1.0000
  S   S678      1.0  0.88866  0.36272  0.18633  1.0000
  S   S679      1.0  0.86728  0.34931  0.24212  1.0000
  Fe  Fe343     1.0  0.87682  0.34555  0.17322  1.0000
  S   S680      1.0  0.85671  0.36158  0.15349  1.0000
  Fe  Fe344     1.0  0.91565  0.34055  0.18208  1.0000
  S   S681      1.0  0.94326  0.35065  0.16900  1.0000
  S   S682      1.0  0.86612  0.32706  0.20115  1.0000
  S   S683      1.0  0.90850  0.32137  0.21077  1.0000
  H   H5196     1.0  0.85151  0.12947  0.37482  1.0000
  H   H5197     1.0  0.84100  0.20513  0.29053  1.0000
  H   H5198     1.0  0.82981  0.22599  0.42249  1.0000
  H   H5199     1.0  0.82383  0.30253  0.25317  1.0000
  C   C2928     1.0  0.81426  0.29889  0.16999  1.0000
  H   H5200     1.0  0.84715  0.14313  0.39300  1.0000
  H   H5201     1.0  0.82982  0.29815  0.16563  1.0000
  H   H5202     1.0  0.82569  0.16922  0.37722  1.0000
  Fe  Fe345     1.0  0.88200  0.22391  0.31030  1.0000
  S   S684      1.0  0.90264  0.20071  0.29703  1.0000
  S   S685      1.0  0.86801  0.25237  0.29423  1.0000
  Fe  Fe346     1.0  0.88318  0.20034  0.35046  1.0000
  S   S686      1.0  0.90402  0.17531  0.34023  1.0000
  S   S687      1.0  0.87155  0.19734  0.38186  1.0000
  Fe  Fe347     1.0  0.91854  0.19802  0.31966  1.0000
  S   S688      1.0  0.95009  0.19658  0.31166  1.0000
  Fe  Fe348     1.0  0.88582  0.18050  0.31889  1.0000
  S   S689      1.0  0.87819  0.15612  0.31117  1.0000
  S   S690      1.0  0.89906  0.22277  0.33143  1.0000
  S   S691      1.0  0.86404  0.20405  0.33067  1.0000
  H   H5203     1.0  0.84796  0.42523  0.24192  1.0000
  H   H5204     1.0  0.91525  0.39703  0.12032  1.0000
  H   H5205     1.0  0.86942  0.23204  0.42094  1.0000
  H   H5206     1.0  0.85906  0.30378  0.13125  1.0000
  C   C2929     1.0  0.82446  0.10686  0.35037  1.0000
  C   C2930     1.0  0.86695  0.39868  0.25265  1.0000
  H   H5207     1.0  0.83203  0.11980  0.40872  1.0000
  H   H5208     1.0  0.83035  0.15963  0.35690  1.0000
  H   H5209     1.0  0.81890  0.38833  0.18120  1.0000
  C   C2931     1.0  0.86368  0.15438  0.36623  1.0000
  H   H5210     1.0  0.84964  0.22308  0.45492  1.0000
  C   C2932     1.0  0.88120  0.39696  0.23348  1.0000
  H   H5211     1.0  0.84934  0.20778  0.43048  1.0000
  H   H5212     1.0  0.89535  0.40463  0.19472  1.0000
  H   H5213     1.0  0.86028  0.23059  0.40143  1.0000
  C   C2933     1.0  0.85401  0.15795  0.31161  1.0000
  C   C2934     1.0  0.84834  0.14433  0.30546  1.0000
  C   C2935     1.0  0.82904  0.14605  0.30551  1.0000
  C   C2936     1.0  0.81549  0.16152  0.31155  1.0000
  C   C2937     1.0  0.82120  0.17500  0.31765  1.0000
  C   C2938     1.0  0.84028  0.17307  0.31788  1.0000
  H   H5214     1.0  0.85887  0.13250  0.30062  1.0000
  H   H5215     1.0  0.82470  0.13561  0.30069  1.0000
  H   H5216     1.0  0.79798  0.16171  0.35777  1.0000
  H   H5217     1.0  0.84424  0.18340  0.32291  1.0000
  C   C2939     1.0  0.97515  0.21728  0.35035  1.0000
  H   H5218     1.0  0.92492  0.43532  0.23980  1.0000
  C   C2940     1.0  0.97725  0.20942  0.32019  1.0000
  C   C2941     1.0  0.95922  0.20492  0.32665  1.0000
  C   C2942     1.0  0.94907  0.20669  0.34498  1.0000
  C   C2943     1.0  0.95706  0.21281  0.35685  1.0000
  H   H5219     1.0  0.97879  0.36264  0.15981  1.0000
  H   H5220     1.0  0.90575  0.37801  0.13838  1.0000
  H   H5221     1.0  0.93517  0.20312  0.35012  1.0000
  H   H5222     1.0  0.94920  0.21420  0.37101  1.0000
  C   C2944     1.0  0.85629  0.23481  0.41540  1.0000
  H   H5223     1.0  0.80003  0.39988  0.07069  1.0000
  C   C2945     1.0  0.81643  0.22146  0.38013  1.0000
  C   C2946     1.0  0.83635  0.21702  0.37515  1.0000
  C   C2947     1.0  0.84666  0.20226  0.38700  1.0000
  C   C2948     1.0  0.83703  0.19161  0.40348  1.0000
  C   C2949     1.0  0.81716  0.19596  0.40834  1.0000
  H   H5224     1.0  0.83769  0.09859  0.35527  1.0000
  H   H5225     1.0  0.84374  0.22539  0.36244  1.0000
  H   H5226     1.0  0.84500  0.18006  0.41254  1.0000
  H   H5227     1.0  0.81029  0.15517  0.40683  1.0000
  H   H5228     1.0  0.88960  0.40074  0.15936  1.0000
  C   C2950     1.0  0.88813  0.26876  0.22973  1.0000
  C   C2951     1.0  0.89305  0.24964  0.23936  1.0000
  C   C2952     1.0  0.88668  0.24436  0.25915  1.0000
  C   C2953     1.0  0.87513  0.25808  0.26931  1.0000
  C   C2954     1.0  0.86947  0.27694  0.25952  1.0000
  C   C2955     1.0  0.87629  0.28237  0.23988  1.0000
  H   H5229     1.0  0.90220  0.23905  0.23157  1.0000
  H   H5230     1.0  0.89092  0.22973  0.26654  1.0000
  H   H5231     1.0  0.86017  0.28754  0.26720  1.0000
  H   H5232     1.0  0.87241  0.29714  0.23267  1.0000
  C   C2956     1.0  0.84886  0.34779  0.14224  1.0000
  C   C2957     1.0  0.85818  0.32885  0.14137  1.0000
  C   C2958     1.0  0.85164  0.31834  0.13212  1.0000
  H   H5233     1.0  0.84385  0.25441  0.19784  1.0000
  C   C2959     1.0  0.82589  0.34525  0.12552  1.0000
  C   C2960     1.0  0.83284  0.35599  0.13409  1.0000
  H   H5234     1.0  0.87058  0.32239  0.14756  1.0000
  H   H5235     1.0  0.80614  0.18789  0.45980  1.0000
  H   H5236     1.0  0.84037  0.19464  0.47109  1.0000
  H   H5237     1.0  0.82549  0.37055  0.13482  1.0000
  H   H5238     1.0  0.82691  0.24249  0.25020  1.0000
  H   H5239     1.0  0.85282  0.40234  0.16473  1.0000
  C   C2961     1.0  0.80637  0.30559  0.18876  1.0000
  H   H5240     1.0  0.94907  0.15154  0.35054  1.0000
  H   H5241     1.0  0.82774  0.42355  0.10224  1.0000
  C   C2962     1.0  0.96584  0.34566  0.21459  1.0000
  C   C2963     1.0  0.95361  0.34506  0.20337  1.0000
  C   C2964     1.0  0.95824  0.35117  0.18357  1.0000
  C   C2965     1.0  0.97510  0.35794  0.17513  1.0000
  H   H5242     1.0  0.80235  0.35907  0.06303  1.0000
  H   H5243     1.0  0.96250  0.34059  0.22985  1.0000
  H   H5244     1.0  0.94067  0.33982  0.20998  1.0000
  H   H5245     1.0  0.80794  0.20846  0.28161  1.0000
  C   C2966     1.0  0.84768  0.14408  0.37777  1.0000
  C   C2967     1.0  0.79524  0.24825  0.44745  1.0000
  H   H5246     1.0  0.85114  0.43521  0.11336  1.0000
  C   C2968     1.0  0.83177  0.36359  0.26047  1.0000
  C   C2969     1.0  0.84384  0.36203  0.24286  1.0000
  C   C2970     1.0  0.83722  0.37095  0.22604  1.0000
  C   C2971     1.0  0.85124  0.41255  0.19639  1.0000
  H   H5247     1.0  0.81992  0.35448  0.20127  1.0000
  H   H5248     1.0  0.83684  0.35659  0.27348  1.0000
  H   H5249     1.0  0.84642  0.36947  0.21241  1.0000
  N   N163      1.0  0.81181  0.14565  0.38125  1.0000
  H   H5250     1.0  0.82681  0.10776  0.33483  1.0000
  H   H5251     1.0  0.85181  0.40041  0.11984  1.0000
  N   N164      1.0  0.93070  0.26941  0.28521  1.0000
  C   C2972     1.0  0.90966  0.27629  0.28559  1.0000
  C   C2973     1.0  0.93717  0.24872  0.28308  1.0000
  C   C2974     1.0  0.93382  0.27019  0.30419  1.0000
  C   C2975     1.0  0.94240  0.28205  0.26973  1.0000
  C   C2976     1.0  0.94017  0.28452  0.24910  1.0000
  C   C2977     1.0  0.90065  0.29649  0.29011  1.0000
  C   C2978     1.0  0.95434  0.26215  0.30768  1.0000
  C   C2979     1.0  0.92739  0.24241  0.27048  1.0000
  C   C2980     1.0  0.93943  0.22470  0.26306  1.0000
  C   C2981     1.0  0.95178  0.29868  0.23517  1.0000
  C   C2982     1.0  0.88092  0.30416  0.28546  1.0000
  C   C2983     1.0  0.95530  0.26325  0.32757  1.0000
  H   H5252     1.0  0.90170  0.26592  0.29646  1.0000
  H   H5253     1.0  0.90620  0.27647  0.27199  1.0000
  H   H5254     1.0  0.95281  0.24525  0.27780  1.0000
  H   H5255     1.0  0.93461  0.23864  0.29723  1.0000
  H   H5256     1.0  0.92419  0.26220  0.31602  1.0000
  H   H5257     1.0  0.93011  0.28527  0.30606  1.0000
  H   H5258     1.0  0.93979  0.29654  0.27281  1.0000
  H   H5259     1.0  0.95772  0.27613  0.26947  1.0000
  H   H5260     1.0  0.92518  0.29008  0.24763  1.0000
  H   H5261     1.0  0.94570  0.27065  0.24452  1.0000
  H   H5262     1.0  0.89906  0.29574  0.30551  1.0000
  H   H5263     1.0  0.90939  0.30714  0.28182  1.0000
  H   H5264     1.0  0.96442  0.27059  0.29738  1.0000
  H   H5265     1.0  0.95930  0.24692  0.30650  1.0000
  H   H5266     1.0  0.91376  0.23884  0.27930  1.0000
  H   H5267     1.0  0.92409  0.25367  0.25795  1.0000
  H   H5268     1.0  0.94239  0.21242  0.27500  1.0000
  H   H5269     1.0  0.93163  0.22049  0.25456  1.0000
  H   H5270     1.0  0.95307  0.22785  0.25380  1.0000
  H   H5271     1.0  0.95007  0.30010  0.22046  1.0000
  H   H5272     1.0  0.94677  0.31305  0.23873  1.0000
  H   H5273     1.0  0.96710  0.29360  0.23548  1.0000
  H   H5274     1.0  0.87457  0.31818  0.28966  1.0000
  H   H5275     1.0  0.88187  0.30650  0.26991  1.0000
  H   H5276     1.0  0.87145  0.29394  0.29334  1.0000
  H   H5277     1.0  0.94609  0.25431  0.33866  1.0000
  H   H5278     1.0  0.95080  0.27834  0.32940  1.0000
  N   N165      1.0  0.90200  0.39039  0.23441  1.0000
  C   C2984     1.0  0.91289  0.38686  0.21506  1.0000
  C   C2985     1.0  0.90419  0.37158  0.24885  1.0000
  C   C2986     1.0  0.90807  0.40559  0.24027  1.0000
  C   C2987     1.0  0.92927  0.40725  0.23313  1.0000
  C   C2988     1.0  0.90923  0.40391  0.19802  1.0000
  C   C2989     1.0  0.92432  0.36255  0.25279  1.0000
  C   C2990     1.0  0.92528  0.34210  0.26482  1.0000
  C   C2991     1.0  0.93405  0.42074  0.24269  1.0000
  H   H5279     1.0  0.92446  0.38809  0.17597  1.0000
  H   H5280     1.0  0.90935  0.37425  0.21224  1.0000
  H   H5281     1.0  0.92841  0.38267  0.21442  1.0000
  H   H5282     1.0  0.89515  0.37315  0.26301  1.0000
  H   H5283     1.0  0.89924  0.36080  0.24443  1.0000
  H   H5284     1.0  0.87684  0.38709  0.22722  1.0000
  H   H5285     1.0  0.89971  0.42017  0.23519  1.0000
  H   H5286     1.0  0.90467  0.40340  0.25608  1.0000
  H   H5287     1.0  0.93235  0.41318  0.21755  1.0000
  H   H5288     1.0  0.93919  0.39324  0.23585  1.0000
  H   H5289     1.0  0.90880  0.41783  0.20126  1.0000
  H   H5290     1.0  0.86508  0.38416  0.26116  1.0000
  H   H5291     1.0  0.93499  0.36177  0.23947  1.0000
  H   H5292     1.0  0.92819  0.37111  0.26081  1.0000
  H   H5293     1.0  0.91531  0.34212  0.27883  1.0000
  H   H5294     1.0  0.92157  0.33296  0.25729  1.0000
  H   H5295     1.0  0.93993  0.33588  0.26727  1.0000
  C   C2992     1.0  0.80542  0.38789  0.17780  1.0000
  N   N166      1.0  0.82008  0.22084  0.46294  1.0000
  C   C2993     1.0  0.83030  0.16536  0.46479  1.0000
  H   H5296     1.0  0.80292  0.06236  0.36852  1.0000
  H   H5297     1.0  0.81163  0.28434  0.17171  1.0000
  H   H5298     1.0  0.80614  0.18049  0.26972  1.0000
  H   H5299     1.0  0.83667  0.45770  0.15222  1.0000
  C   C2994     1.0  0.80241  0.22640  0.45474  1.0000
  H   H5300     1.0  0.93875  0.40061  0.18251  1.0000
  C   C2995     1.0  0.84732  0.41015  0.24949  1.0000
  H   H5301     1.0  0.80231  0.33520  0.17459  1.0000
  N   N167      1.0  0.80182  0.33469  0.20411  1.0000
  H   H5302     1.0  0.94913  0.42199  0.23699  1.0000
  H   H5303     1.0  0.80728  0.30884  0.15853  1.0000
  H   H5304     1.0  0.84995  0.43984  0.17703  1.0000
  H   H5305     1.0  0.97855  0.30957  0.29629  1.0000
  H   H5306     1.0  0.79138  0.39337  0.09602  1.0000
  H   H5307     1.0  0.88213  0.41525  0.11850  1.0000
  H   H5308     1.0  0.87719  0.14665  0.37083  1.0000
  H   H5309     1.0  0.86047  0.16930  0.36828  1.0000
  H   H5310     1.0  0.82712  0.11614  0.38136  1.0000
  H   H5311     1.0  0.80995  0.11207  0.41443  1.0000
  H   H5312     1.0  0.80993  0.18789  0.42117  1.0000
  H   H5313     1.0  0.83603  0.41195  0.19965  1.0000
  H   H5314     1.0  0.82680  0.15670  0.45661  1.0000
  H   H5315     1.0  0.83480  0.42325  0.16382  1.0000
  H   H5316     1.0  0.97650  0.16491  0.33124  1.0000
  C   C2996     1.0  0.80937  0.32961  0.23753  1.0000
  N   N168      1.0  0.85955  0.42551  0.14067  1.0000
  H   H5317     1.0  0.81745  0.30370  0.99755  1.0000
  C   C2997     1.0  0.84081  0.25489  0.21313  1.0000
  H   H5318     1.0  0.93211  0.41501  0.25832  1.0000
  C   C2998     1.0  0.81307  0.37403  0.26130  1.0000
  C   C2999     1.0  0.91022  0.39188  0.13584  1.0000
  H   H5319     1.0  0.80674  0.13488  0.34798  1.0000
  C   C3000     1.0  0.98251  0.35272  0.20619  1.0000
  H   H5320     1.0  0.85996  0.39775  0.19754  1.0000
  C   C3001     1.0  0.80532  0.35490  0.19973  1.0000
  H   H5321     1.0  0.79790  0.03061  0.31312  1.0000
  H   H5322     1.0  0.81340  0.35168  0.11955  1.0000
  H   H5323     1.0  0.80034  0.27023  0.08310  1.0000
  C   C3002     1.0  0.81515  0.12658  0.37578  1.0000
  H   H5324     1.0  0.86561  0.15481  0.35088  1.0000
  H   H5325     1.0  0.83152  0.13409  0.34648  1.0000
  C   C3003     1.0  0.81938  0.12712  0.35415  1.0000
  N   N169      1.0  0.83378  0.30757  0.04533  1.0000
  C   C3004     1.0  0.82762  0.28893  0.05610  1.0000
  C   C3005     1.0  0.85474  0.30481  0.04439  1.0000
  C   C3006     1.0  0.82241  0.32324  0.05571  1.0000
  C   C3007     1.0  0.83022  0.31327  0.02537  1.0000
  C   C3008     1.0  0.84031  0.29848  0.01267  1.0000
  H   H5326     1.0  0.82155  0.35055  0.07583  1.0000
  C   C3009     1.0  0.82826  0.34308  0.04808  1.0000
  C   C3010     1.0  0.86044  0.30192  0.06373  1.0000
  C   C3011     1.0  0.88197  0.29846  0.06129  1.0000
  C   C3012     1.0  0.83282  0.30394  0.99430  1.0000
  C   C3013     1.0  0.83974  0.40977  0.12754  1.0000
  C   C3014     1.0  0.81794  0.35663  0.06155  1.0000
  H   H5327     1.0  0.82712  0.28682  0.07159  1.0000
  H   H5328     1.0  0.83822  0.27632  0.05173  1.0000
  H   H5329     1.0  0.86269  0.29199  0.03842  1.0000
  H   H5330     1.0  0.86055  0.31703  0.03422  1.0000
  H   H5331     1.0  0.82280  0.31858  0.07114  1.0000
  H   H5332     1.0  0.80716  0.32602  0.05513  1.0000
  H   H5333     1.0  0.81467  0.31672  0.02566  1.0000
  H   H5334     1.0  0.83509  0.32682  0.01760  1.0000
  H   H5335     1.0  0.83825  0.28375  0.01996  1.0000
  H   H5336     1.0  0.85582  0.29813  0.00869  1.0000
  H   H5337     1.0  0.84988  0.25043  0.41305  1.0000
  H   H5338     1.0  0.82458  0.32629  0.18118  1.0000
  H   H5339     1.0  0.82450  0.35000  0.03399  1.0000
  H   H5340     1.0  0.84366  0.34187  0.04661  1.0000
  H   H5341     1.0  0.85420  0.31475  0.07007  1.0000
  H   H5342     1.0  0.85559  0.28935  0.07411  1.0000
  H   H5343     1.0  0.88557  0.29657  0.07531  1.0000
  H   H5344     1.0  0.88903  0.28525  0.05572  1.0000
  H   H5345     1.0  0.88749  0.31094  0.05141  1.0000
  H   H5346     1.0  0.80434  0.21953  0.44264  1.0000
  H   H5347     1.0  0.83490  0.31852  0.98619  1.0000
  H   H5348     1.0  0.84053  0.29346  0.98520  1.0000
  H   H5349     1.0  0.82036  0.40156  0.11544  1.0000
  H   H5350     1.0  0.81010  0.30761  0.22354  1.0000
  C   C3015     1.0  0.81869  0.38203  0.22689  1.0000
  H   H5351     1.0  0.83548  0.23389  0.31243  1.0000
  H   H5352     1.0  0.81016  0.34491  0.23470  1.0000
  C   C3016     1.0  0.82274  0.23363  0.30760  1.0000
  H   H5353     1.0  0.80850  0.23313  0.37113  1.0000
  H   H5354     1.0  0.79834  0.18753  0.37246  1.0000
  H   H5355     1.0  0.80836  0.28576  0.03967  1.0000
  H   H5356     1.0  0.83498  0.40149  0.14209  1.0000
  H   H5357     1.0  0.84168  0.40342  0.24109  1.0000
  H   H5358     1.0  0.83717  0.22565  0.22257  1.0000
  H   H5359     1.0  0.98441  0.24129  0.25790  1.0000
  H   H5360     1.0  0.95943  0.14096  0.33012  1.0000
  C   C3017     1.0  0.80711  0.14309  0.40273  1.0000
  H   H5361     1.0  0.89928  0.41997  0.14187  1.0000
  H   H5362     1.0  0.83178  0.24930  0.27920  1.0000
  Fe  Fe349     1.0  0.79601  0.32162  0.11236  1.0000
  C   C3018     1.0  0.96182  0.14199  0.34388  1.0000
  C   C3019     1.0  0.83537  0.32644  0.12434  1.0000
  C   C3020     1.0  0.81664  0.12385  0.41450  1.0000
  C   C3021     1.0  0.87683  0.41090  0.13416  1.0000
  C   C3022     1.0  0.85686  0.42466  0.17655  1.0000
  H   H5363     1.0  0.98508  0.20839  0.30596  1.0000
  C   C3023     1.0  0.82718  0.23543  0.28605  1.0000
  H   H5364     1.0  0.83390  0.24433  0.44670  1.0000
  C   C3024     1.0  0.98521  0.21550  0.33200  1.0000
  H   H5365     1.0  0.87196  0.40587  0.26112  1.0000
  H   H5366     1.0  0.98815  0.18838  0.28410  1.0000
  H   H5367     1.0  0.87313  0.44839  0.12219  1.0000
  H   H5368     1.0  0.81213  0.25599  0.06532  1.0000
  C   C3025     1.0  0.80660  0.38352  0.24452  1.0000
  C   C3026     1.0  0.92444  0.40143  0.18011  1.0000
  H   H5369     1.0  0.90106  0.16751  0.26971  1.0000
  H   H5370     1.0  0.81137  0.24592  0.31145  1.0000
  H   H5371     1.0  0.92230  0.38917  0.14295  1.0000
  H   H5372     1.0  0.82074  0.32320  0.26305  1.0000
  H   H5373     1.0  0.81781  0.22008  0.31516  1.0000
  H   H5374     1.0  0.87308  0.39667  0.13668  1.0000
  H   H5375     1.0  0.85356  0.41915  0.20706  1.0000
  C   C3027     1.0  0.89380  0.40681  0.14395  1.0000
  H   H5376     1.0  0.89700  0.17599  0.24579  1.0000
  H   H5377     1.0  0.83203  0.43807  0.13326  1.0000
  C   C3028     1.0  0.84550  0.42819  0.12832  1.0000
  C   C3029     1.0  0.81419  0.12482  0.43523  1.0000
  C   C3030     1.0  0.85054  0.41836  0.16127  1.0000
  H   H5378     1.0  0.81075  0.18691  0.32243  1.0000
  H   H5379     1.0  0.90387  0.19140  0.25691  1.0000
  C   C3031     1.0  0.82164  0.18658  0.45814  1.0000
  H   H5380     1.0  0.96347  0.12752  0.35349  1.0000
  C   C3032     1.0  0.86505  0.44465  0.13710  1.0000
  H   H5381     1.0  0.83849  0.32022  0.24189  1.0000
  C   C3033     1.0  0.82846  0.15541  0.37264  1.0000
  H   H5382     1.0  0.87875  0.41135  0.22379  1.0000
  H   H5383     1.0  0.83652  0.19895  0.24553  1.0000
  H   H5384     1.0  0.87236  0.42360  0.17371  1.0000
  H   H5385     1.0  0.80653  0.22371  0.25820  1.0000
  H   H5386     1.0  0.82078  0.13632  0.43611  1.0000
  C   C3034     1.0  0.83344  0.20234  0.25983  1.0000
  N   N170      1.0  0.84569  0.21560  0.26002  1.0000
  C   C3035     1.0  0.84183  0.23483  0.24647  1.0000
  C   C3036     1.0  0.84319  0.21858  0.27991  1.0000
  C   C3037     1.0  0.86613  0.20605  0.25347  1.0000
  S   S692      1.0  0.82721  0.31293  0.11306  1.0000
  H   H5387     1.0  0.97011  0.25776  0.32969  1.0000
  C   C3038     1.0  0.84577  0.23456  0.22505  1.0000
  C   C3039     1.0  0.87448  0.18794  0.26743  1.0000
  C   C3040     1.0  0.83657  0.22839  0.44896  1.0000
  H   H5388     1.0  0.84192  0.46733  0.12713  1.0000
  H   H5389     1.0  0.81397  0.29511  0.19942  1.0000
  C   C3041     1.0  0.89539  0.18031  0.25937  1.0000
  H   H5390     1.0  0.85062  0.24431  0.24786  1.0000
  C   C3042     1.0  0.82401  0.31811  0.24960  1.0000
  C   C3043     1.0  0.98721  0.35874  0.18639  1.0000
  H   H5391     1.0  0.85640  0.22162  0.28174  1.0000
  H   H5392     1.0  0.87550  0.21648  0.25016  1.0000
  H   H5393     1.0  0.86798  0.20143  0.23996  1.0000
  C   C3044     1.0  0.80680  0.21105  0.39686  1.0000
  H   H5394     1.0  0.81631  0.36127  0.16915  1.0000
  H   H5395     1.0  0.82851  0.32055  0.21256  1.0000
  H   H5396     1.0  0.87510  0.44403  0.14595  1.0000
  H   H5397     1.0  0.86103  0.22893  0.21964  1.0000
  H   H5398     1.0  0.84953  0.26424  0.21477  1.0000
  H   H5399     1.0  0.86684  0.17617  0.27003  1.0000
  H   H5400     1.0  0.87371  0.19119  0.28130  1.0000
  H   H5401     1.0  0.81358  0.38912  0.21398  1.0000
  H   H5402     1.0  0.82771  0.19089  0.44290  1.0000
  H   H5403     1.0  0.81272  0.09917  0.35772  1.0000
  H   H5404     1.0  0.82116  0.11088  0.44318  1.0000
  H   H5405     1.0  0.92147  0.41381  0.16819  1.0000
  H   H5406     1.0  0.86554  0.48364  0.13135  1.0000
  H   H5407     1.0  0.80249  0.11996  0.38249  1.0000
  H   H5408     1.0  0.80639  0.25457  0.43631  1.0000
  S   S693      1.0  0.81605  0.47474  0.18853  1.0000
  C   C3045     1.0  0.97930  0.15051  0.34057  1.0000
  C   C3046     1.0  0.82361  0.41489  0.11680  1.0000
  C   C3047     1.0  0.80117  0.19560  0.26247  1.0000
  H   H5409     1.0  0.80521  0.39606  0.16298  1.0000
  H   H5410     1.0  0.82228  0.37071  0.05577  1.0000
  H   H5411     1.0  0.81377  0.23632  0.28190  1.0000
  H   H5412     1.0  0.79306  0.39481  0.18746  1.0000
  H   H5413     1.0  0.79890  0.12764  0.44212  1.0000
  C   C3048     1.0  0.80912  0.32625  0.18652  1.0000
  H   H5414     1.0  0.82551  0.26124  0.21747  1.0000
  H   H5415     1.0  0.79544  0.36317  0.21020  1.0000
  C   C3049     1.0  0.81174  0.20901  0.26606  1.0000
  S   S694      1.0  0.79134  0.16523  0.31137  1.0000
  C   C3050     1.0  0.81304  0.32235  0.21889  1.0000
  C   C3051     1.0  0.84816  0.46190  0.14006  1.0000
  C   C3052     1.0  0.79483  0.15849  0.37362  1.0000
  S   S695      1.0  0.98497  0.22558  0.36486  1.0000
  C   C3053     1.0  0.80414  0.36725  0.17947  1.0000
  H   H5416     1.0  0.79509  0.32797  0.24625  1.0000
  Fe  Fe350     1.0  0.79132  0.45971  0.19888  1.0000
  H   H5417     1.0  0.98046  0.15194  0.35464  1.0000
  H   H5418     1.0  0.80338  0.19639  0.24698  1.0000
  C   C3054     1.0  0.80801  0.28703  0.05426  1.0000
  H   H5419     1.0  0.84600  0.16310  0.46236  1.0000
  H   H5420     1.0  0.86007  0.47395  0.15682  1.0000
  C   C3055     1.0  0.85445  0.47853  0.14353  1.0000
  S   S696      1.0  0.79833  0.42960  0.19436  1.0000
  H   H5421     1.0  0.80369  0.37506  0.27497  1.0000
  C   C3056     1.0  0.82520  0.19923  0.46985  1.0000
  H   H5422     1.0  0.98968  0.30420  0.26386  1.0000
  H   H5423     1.0  0.79707  0.29971  0.05729  1.0000
  C   C3057     1.0  0.80176  0.26930  0.06814  1.0000
  H   H5424     1.0  0.79088  0.25600  0.45924  1.0000
  H   H5425     1.0  0.79059  0.22075  0.46558  1.0000
  H   H5426     1.0  0.79160  0.14394  0.40828  1.0000
  H   H5427     1.0  0.79093  0.07563  0.34955  1.0000
  H   H5428     1.0  0.81309  0.24573  0.47566  1.0000
  H   H5429     1.0  0.79108  0.30502  0.19301  1.0000
  H   H5430     1.0  0.79099  0.36755  0.17513  1.0000
  H   H5431     1.0  0.81737  0.35606  0.73708  1.0000
  H   H5432     1.0  0.89435  0.33286  0.71705  1.0000
  H   H5433     1.0  0.79143  0.19799  0.54670  1.0000
  S   S697      1.0  0.81184  0.42636  0.80608  1.0000
  H   H5434     1.0  0.80545  0.18767  0.70438  1.0000
  C   C3058     1.0  0.83842  0.18577  0.76519  1.0000
  C   C3059     1.0  0.81440  0.03910  0.65470  1.0000
  H   H5435     1.0  0.96399  0.19180  0.84268  1.0000
  C   C3060     1.0  0.92817  0.32098  0.86188  1.0000
  H   H5436     1.0  0.87145  0.32689  0.90269  1.0000
  C   C3061     1.0  0.92683  0.28824  0.85822  1.0000
  H   H5437     1.0  0.79094  0.01764  0.68023  1.0000
  H   H5438     1.0  0.89417  0.35909  0.87630  1.0000
  H   H5439     1.0  0.87245  0.34914  0.90783  1.0000
  Fe  Fe351     1.0  0.88420  0.33753  0.78205  1.0000
  S   S698      1.0  0.89263  0.33978  0.80797  1.0000
  S   S699      1.0  0.85948  0.35590  0.76900  1.0000
  Fe  Fe352     1.0  0.91385  0.30079  0.77789  1.0000
  S   S700      1.0  0.92466  0.29946  0.80373  1.0000
  S   S701      1.0  0.92568  0.28082  0.75768  1.0000
  Fe  Fe353     1.0  0.89367  0.30806  0.81718  1.0000
  S   S702      1.0  0.87937  0.29301  0.84594  1.0000
  Fe  Fe354     1.0  0.92278  0.33122  0.79244  1.0000
  S   S703      1.0  0.94561  0.34762  0.78896  1.0000
  S   S704      1.0  0.88337  0.30626  0.79222  1.0000
  S   S705      1.0  0.91415  0.33192  0.76553  1.0000
  S   S706      1.0  0.82404  0.34210  0.90415  1.0000
  C   C3062     1.0  0.80520  0.00227  0.72653  1.0000
  C   C3063     1.0  0.79240  0.34113  0.86209  1.0000
  H   H5440     1.0  0.97468  0.35384  0.75067  1.0000
  H   H5441     1.0  0.90049  0.30986  0.73273  1.0000
  H   H5442     1.0  0.88953  0.33952  0.87029  1.0000
  C   C3064     1.0  0.90012  0.34378  0.87554  1.0000
  H   H5443     1.0  0.82182  0.24947  0.50426  1.0000
  H   H5444     1.0  0.79499  0.24201  0.95454  1.0000
  H   H5445     1.0  0.97707  0.24841  0.79529  1.0000
  S   S707      1.0  0.82589  0.21154  0.60776  1.0000
  Fe  Fe355     1.0  0.79063  0.10665  0.72257  1.0000
  N   N171      1.0  0.79516  0.35637  0.84402  1.0000
  H   H5446     1.0  0.91828  0.30684  0.68211  1.0000
  C   C3065     1.0  0.80182  0.37754  0.86336  1.0000
  C   C3066     1.0  0.91580  0.30883  0.85845  1.0000
  H   H5447     1.0  0.97629  0.18880  0.71216  1.0000
  Fe  Fe356     1.0  0.87974  0.22058  0.72494  1.0000
  S   S708      1.0  0.90515  0.19697  0.71980  1.0000
  S   S709      1.0  0.87073  0.23144  0.75223  1.0000
  Fe  Fe357     1.0  0.86846  0.22313  0.68763  1.0000
  S   S710      1.0  0.89320  0.19984  0.67914  1.0000
  S   S711      1.0  0.84335  0.23903  0.67398  1.0000
  Fe  Fe358     1.0  0.88617  0.18441  0.70974  1.0000
  S   S712      1.0  0.88465  0.15315  0.72167  1.0000
  Fe  Fe359     1.0  0.91019  0.21440  0.68986  1.0000
  S   S713      1.0  0.86030  0.20661  0.71747  1.0000
  S   S714      1.0  0.88601  0.23911  0.69569  1.0000
  H   H5448     1.0  0.80114  0.13084  0.58721  1.0000
  H   H5449     1.0  0.83265  0.12570  0.73511  1.0000
  H   H5450     1.0  0.84445  0.22785  0.48385  1.0000
  H   H5451     1.0  0.95144  0.35609  0.83939  1.0000
  Fe  Fe360     1.0  0.82724  0.09891  0.69384  1.0000
  S   S715      1.0  0.85255  0.11154  0.67670  1.0000
  H   H5452     1.0  0.93463  0.34285  0.88214  1.0000
  H   H5453     1.0  0.95036  0.17590  0.70897  1.0000
  H   H5454     1.0  0.84416  0.27463  0.70220  1.0000
  C   C3067     1.0  0.87689  0.14128  0.70849  1.0000
  C   C3068     1.0  0.87524  0.14943  0.68961  1.0000
  C   C3069     1.0  0.86797  0.14009  0.67986  1.0000
  C   C3070     1.0  0.86200  0.12278  0.68904  1.0000
  C   C3071     1.0  0.86401  0.11445  0.70778  1.0000
  C   C3072     1.0  0.87177  0.12352  0.71735  1.0000
  H   H5455     1.0  0.87953  0.16293  0.68253  1.0000
  H   H5456     1.0  0.86660  0.14651  0.66533  1.0000
  H   H5457     1.0  0.85984  0.10087  0.71482  1.0000
  H   H5458     1.0  0.87349  0.11691  0.73179  1.0000
  H   H5459     1.0  0.82445  0.16023  0.48015  1.0000
  C   C3073     1.0  0.95485  0.23249  0.71680  1.0000
  C   C3074     1.0  0.94457  0.22734  0.70639  1.0000
  C   C3075     1.0  0.95247  0.22569  0.68760  1.0000
  H   H5460     1.0  0.94846  0.23424  0.73115  1.0000
  H   H5461     1.0  0.93049  0.22469  0.71288  1.0000
  C   C3076     1.0  0.83050  0.21924  0.62626  1.0000
  C   C3077     1.0  0.81651  0.23151  0.63654  1.0000
  C   C3078     1.0  0.82068  0.23756  0.65105  1.0000
  C   C3079     1.0  0.83873  0.23112  0.65563  1.0000
  C   C3080     1.0  0.85262  0.21858  0.64555  1.0000
  C   C3081     1.0  0.84856  0.21284  0.63079  1.0000
  H   H5462     1.0  0.80257  0.23657  0.63313  1.0000
  H   H5463     1.0  0.80987  0.24726  0.65878  1.0000
  H   H5464     1.0  0.86658  0.21359  0.64891  1.0000
  H   H5465     1.0  0.85952  0.20356  0.62275  1.0000
  H   H5466     1.0  0.80821  0.14270  0.76925  1.0000
  H   H5467     1.0  0.83522  0.20067  0.75665  1.0000
  H   H5468     1.0  0.96474  0.26564  0.77842  1.0000
  H   H5469     1.0  0.82359  0.16877  0.56743  1.0000
  H   H5470     1.0  0.82431  0.08880  0.64117  1.0000
  H   H5471     1.0  0.92477  0.35977  0.68920  1.0000
  H   H5472     1.0  0.98864  0.29451  0.67981  1.0000
  H   H5473     1.0  0.84082  0.00690  0.67806  1.0000
  H   H5474     1.0  0.81311  0.31562  0.85483  1.0000
  C   C3082     1.0  0.96086  0.35111  0.72998  1.0000
  H   H5475     1.0  0.95716  0.27539  0.71409  1.0000
  H   H5476     1.0  0.80458  0.17273  0.67375  1.0000
  H   H5477     1.0  0.92617  0.32494  0.69693  1.0000
  H   H5478     1.0  0.93959  0.28811  0.84646  1.0000
  C   C3083     1.0  0.91051  0.26672  0.75677  1.0000
  C   C3084     1.0  0.89628  0.26153  0.77243  1.0000
  C   C3085     1.0  0.88434  0.25022  0.77119  1.0000
  C   C3086     1.0  0.88651  0.24432  0.75426  1.0000
  C   C3087     1.0  0.90092  0.24928  0.73879  1.0000
  C   C3088     1.0  0.91302  0.26027  0.74013  1.0000
  H   H5479     1.0  0.89453  0.26609  0.78550  1.0000
  H   H5480     1.0  0.87333  0.24617  0.78329  1.0000
  H   H5481     1.0  0.90265  0.24470  0.72576  1.0000
  H   H5482     1.0  0.92431  0.26385  0.72821  1.0000
  C   C3089     1.0  0.86302  0.30708  0.86129  1.0000
  C   C3090     1.0  0.86233  0.32676  0.85828  1.0000
  C   C3091     1.0  0.85007  0.33741  0.87137  1.0000
  C   C3092     1.0  0.83812  0.32856  0.88736  1.0000
  C   C3093     1.0  0.83835  0.30901  0.89009  1.0000
  C   C3094     1.0  0.85089  0.29828  0.87717  1.0000
  H   H5483     1.0  0.87158  0.33370  0.84617  1.0000
  H   H5484     1.0  0.84998  0.35252  0.86921  1.0000
  H   H5485     1.0  0.82932  0.30203  0.90249  1.0000
  H   H5486     1.0  0.85135  0.28305  0.87961  1.0000
  H   H5487     1.0  0.81149  0.22930  0.51871  1.0000
  H   H5488     1.0  0.93126  0.28125  0.87200  1.0000
  C   C3095     1.0  0.94506  0.28572  0.68249  1.0000
  H   H5489     1.0  0.92849  0.34759  0.83100  1.0000
  H   H5490     1.0  0.94639  0.28802  0.66689  1.0000
  H   H5491     1.0  0.84527  0.08698  0.65010  1.0000
  C   C3096     1.0  0.96515  0.32191  0.81544  1.0000
  C   C3097     1.0  0.96382  0.33934  0.80204  1.0000
  H   H5492     1.0  0.90227  0.39847  0.81575  1.0000
  C   C3098     1.0  0.81953  0.18409  0.70831  1.0000
  H   H5493     1.0  0.81908  0.15388  0.71581  1.0000
  H   H5494     1.0  0.95508  0.31294  0.81768  1.0000
  H   H5495     1.0  0.79595  0.17268  0.52871  1.0000
  C   C3099     1.0  0.93210  0.35064  0.86773  1.0000
  C   C3100     1.0  0.87974  0.33389  0.90819  1.0000
  C   C3101     1.0  0.82467  0.40667  0.79581  1.0000
  C   C3102     1.0  0.81781  0.40072  0.78308  1.0000
  C   C3103     1.0  0.82861  0.38516  0.77486  1.0000
  C   C3104     1.0  0.84624  0.37543  0.77941  1.0000
  C   C3105     1.0  0.85302  0.38136  0.79220  1.0000
  C   C3106     1.0  0.84229  0.39695  0.80033  1.0000
  C   C3107     1.0  0.79752  0.32002  0.85978  1.0000
  H   H5496     1.0  0.82337  0.38079  0.76483  1.0000
  H   H5497     1.0  0.86671  0.37424  0.79552  1.0000
  H   H5498     1.0  0.84774  0.40161  0.81003  1.0000
  H   H5499     1.0  0.82072  0.19577  0.71436  1.0000
  H   H5500     1.0  0.84325  0.13493  0.74884  1.0000
  C   C3108     1.0  0.83177  0.10986  0.76380  1.0000
  H   H5501     1.0  0.94642  0.35559  0.73844  1.0000
  H   H5502     1.0  0.83586  0.22923  0.51765  1.0000
  S   S716      1.0  0.93966  0.21924  0.67441  1.0000
  H   H5503     1.0  0.82633  0.26094  0.71548  1.0000
  N   N172      1.0  0.95210  0.22744  0.79135  1.0000
  C   C3109     1.0  0.93873  0.24266  0.80135  1.0000
  C   C3110     1.0  0.96737  0.23604  0.77614  1.0000
  C   C3111     1.0  0.94059  0.22049  0.78161  1.0000
  C   C3112     1.0  0.96073  0.21033  0.80507  1.0000
  C   C3113     1.0  0.97162  0.21441  0.81808  1.0000
  C   C3114     1.0  0.92175  0.23622  0.81681  1.0000
  C   C3115     1.0  0.95189  0.20647  0.76836  1.0000
  H   H5504     1.0  0.79492  0.18121  0.65250  1.0000
  N   N173      1.0  0.95828  0.29556  0.68686  1.0000
  C   C3116     1.0  0.91068  0.37413  0.83799  1.0000
  C   C3117     1.0  0.91014  0.25251  0.82670  1.0000
  C   C3118     1.0  0.93848  0.20025  0.75986  1.0000
  H   H5505     1.0  0.93274  0.25492  0.79072  1.0000
  H   H5506     1.0  0.94625  0.24905  0.80825  1.0000
  C   C3119     1.0  0.96302  0.36240  0.85985  1.0000
  H   H5507     1.0  0.96198  0.24324  0.76278  1.0000
  H   H5508     1.0  0.93238  0.23299  0.77286  1.0000
  H   H5509     1.0  0.92992  0.21292  0.79225  1.0000
  H   H5510     1.0  0.94966  0.20232  0.81423  1.0000
  H   H5511     1.0  0.97114  0.19987  0.79720  1.0000
  H   H5512     1.0  0.96310  0.22584  0.82570  1.0000
  H   H5513     1.0  0.81709  0.18672  0.65277  1.0000
  H   H5514     1.0  0.91191  0.23218  0.81042  1.0000
  H   H5515     1.0  0.92672  0.22387  0.82790  1.0000
  H   H5516     1.0  0.95993  0.19321  0.77621  1.0000
  H   H5517     1.0  0.96207  0.21333  0.75642  1.0000
  H   H5518     1.0  0.83378  0.20799  0.49822  1.0000
  C   C3120     1.0  0.90537  0.38252  0.81852  1.0000
  Fe  Fe361     1.0  0.79036  0.09541  0.68640  1.0000
  C   C3121     1.0  0.95669  0.29103  0.70817  1.0000
  H   H5519     1.0  0.79739  0.34461  0.74920  1.0000
  C   C3122     1.0  0.98129  0.23390  0.68991  1.0000
  H   H5520     1.0  0.84541  0.09987  0.75973  1.0000
  H   H5521     1.0  0.81123  0.46199  0.81880  1.0000
  H   H5522     1.0  0.90419  0.26505  0.81629  1.0000
  H   H5523     1.0  0.89811  0.24760  0.83772  1.0000
  H   H5524     1.0  0.91903  0.25712  0.83378  1.0000
  H   H5525     1.0  0.92936  0.19142  0.77119  1.0000
  H   H5526     1.0  0.92918  0.21292  0.75259  1.0000
  H   H5527     1.0  0.94687  0.19154  0.74925  1.0000
  C   C3123     1.0  0.97695  0.19641  0.83316  1.0000
  C   C3124     1.0  0.83101  0.12895  0.74921  1.0000
  C   C3125     1.0  0.93499  0.35069  0.67971  1.0000
  N   N174      1.0  0.83758  0.14424  0.62122  1.0000
  C   C3126     1.0  0.82295  0.15987  0.62952  1.0000
  C   C3127     1.0  0.83709  0.14722  0.60048  1.0000
  C   C3128     1.0  0.83173  0.12533  0.63140  1.0000
  C   C3129     1.0  0.85738  0.14319  0.62363  1.0000
  C   C3130     1.0  0.86257  0.16236  0.62333  1.0000
  C   C3131     1.0  0.81923  0.15709  0.65145  1.0000
  C   C3132     1.0  0.84347  0.10752  0.62326  1.0000
  C   C3133     1.0  0.84158  0.16627  0.58717  1.0000
  C   C3134     1.0  0.83868  0.16818  0.56713  1.0000
  C   C3135     1.0  0.88384  0.15973  0.62212  1.0000
  C   C3136     1.0  0.80827  0.17561  0.65795  1.0000
  C   C3137     1.0  0.83976  0.08881  0.63712  1.0000
  H   H5528     1.0  0.80906  0.16146  0.62570  1.0000
  H   H5529     1.0  0.82687  0.17396  0.62325  1.0000
  H   H5530     1.0  0.84758  0.13573  0.59404  1.0000
  H   H5531     1.0  0.82287  0.14610  0.59927  1.0000
  H   H5532     1.0  0.81652  0.12631  0.63151  1.0000
  H   H5533     1.0  0.83267  0.12196  0.64663  1.0000
  H   H5534     1.0  0.85996  0.13350  0.63743  1.0000
  H   H5535     1.0  0.86817  0.13641  0.61258  1.0000
  H   H5536     1.0  0.85501  0.16752  0.63653  1.0000
  H   H5537     1.0  0.85867  0.17401  0.61127  1.0000
  H   H5538     1.0  0.81051  0.14612  0.65824  1.0000
  H   H5539     1.0  0.83259  0.15211  0.65685  1.0000
  H   H5540     1.0  0.85893  0.10710  0.62029  1.0000
  H   H5541     1.0  0.83941  0.10781  0.60986  1.0000
  H   H5542     1.0  0.83223  0.17890  0.59240  1.0000
  H   H5543     1.0  0.85665  0.16666  0.58573  1.0000
  H   H5544     1.0  0.84250  0.18174  0.55785  1.0000
  H   H5545     1.0  0.84784  0.15595  0.56089  1.0000
  H   H5546     1.0  0.88849  0.14820  0.63405  1.0000
  H   H5547     1.0  0.89208  0.15602  0.60838  1.0000
  H   H5548     1.0  0.88695  0.17333  0.62302  1.0000
  H   H5549     1.0  0.83049  0.19708  0.67911  1.0000
  H   H5550     1.0  0.79319  0.43892  0.88294  1.0000
  H   H5551     1.0  0.82931  0.18499  0.77968  1.0000
  H   H5552     1.0  0.80212  0.22639  0.48970  1.0000
  H   H5553     1.0  0.84725  0.07640  0.63041  1.0000
  H   H5554     1.0  0.81677  0.19473  0.48447  1.0000
  H   H5555     1.0  0.79638  0.36995  0.87808  1.0000
  C   C3138     1.0  0.81552  0.35285  0.83322  1.0000
  C   C3139     1.0  0.82059  0.33980  0.81863  1.0000
  H   H5556     1.0  0.96041  0.34028  0.72241  1.0000
  C   C3140     1.0  0.84165  0.33067  0.81511  1.0000
  H   H5557     1.0  0.97745  0.36138  0.85056  1.0000
  N   N175      1.0  0.91909  0.34180  0.86183  1.0000
  H   H5558     1.0  0.81980  0.36665  0.82499  1.0000
  H   H5559     1.0  0.82521  0.34677  0.84347  1.0000
  H   H5560     1.0  0.81720  0.34846  0.80480  1.0000
  H   H5561     1.0  0.81290  0.32791  0.82314  1.0000
  C   C3141     1.0  0.91231  0.27883  0.68775  1.0000
  H   H5562     1.0  0.97979  0.29649  0.74108  1.0000
  H   H5563     1.0  0.83829  0.15696  0.76507  1.0000
  H   H5564     1.0  0.85037  0.34168  0.81177  1.0000
  H   H5565     1.0  0.84519  0.31960  0.82780  1.0000
  H   H5566     1.0  0.84507  0.32372  0.80287  1.0000
  H   H5567     1.0  0.92029  0.29245  0.70554  1.0000
  H   H5568     1.0  0.90631  0.31695  0.89719  1.0000
  H   H5569     1.0  0.98515  0.19959  0.84200  1.0000
  C   C3142     1.0  0.97944  0.31622  0.82617  1.0000
  H   H5570     1.0  0.92528  0.36567  0.86916  1.0000
  H   H5571     1.0  0.90806  0.33835  0.90324  1.0000
  H   H5572     1.0  0.97604  0.36437  0.78887  1.0000
  H   H5573     1.0  0.90280  0.30807  0.86981  1.0000
  H   H5574     1.0  0.97963  0.22446  0.77211  1.0000
  H   H5575     1.0  0.95494  0.30561  0.74050  1.0000
  H   H5576     1.0  0.85352  0.18245  0.76644  1.0000
  H   H5577     1.0  0.91406  0.27906  0.67242  1.0000
  H   H5578     1.0  0.94270  0.29799  0.71562  1.0000
  H   H5579     1.0  0.92843  0.35127  0.66775  1.0000
  H   H5580     1.0  0.91720  0.26383  0.69526  1.0000
  C   C3143     1.0  0.95212  0.35041  0.85461  1.0000
  H   H5581     1.0  0.80437  0.40832  0.77929  1.0000
  H   H5582     1.0  0.89844  0.37937  0.84880  1.0000
  C   C3144     1.0  0.95434  0.31692  0.67837  1.0000
  C   C3145     1.0  0.81556  0.22979  0.48005  1.0000
  H   H5583     1.0  0.94531  0.33042  0.70313  1.0000
  H   H5584     1.0  0.79564  0.00068  0.74030  1.0000
  H   H5585     1.0  0.80150  0.21706  0.95306  1.0000
  C   C3146     1.0  0.93962  0.33003  0.69097  1.0000
  C   C3147     1.0  0.92355  0.29225  0.69024  1.0000
  H   H5586     1.0  0.96062  0.33549  0.85624  1.0000
  C   C3148     1.0  0.83444  0.18391  0.68986  1.0000
  C   C3149     1.0  0.83530  0.17132  0.75557  1.0000
  H   H5587     1.0  0.80554  0.17530  0.76706  1.0000
  H   H5588     1.0  0.83744  0.15951  0.72280  1.0000
  H   H5589     1.0  0.81720  0.37151  0.85921  1.0000
  C   C3150     1.0  0.90002  0.33244  0.89639  1.0000
  H   H5590     1.0  0.96460  0.35694  0.87489  1.0000
  H   H5591     1.0  0.83416  0.03161  0.69724  1.0000
  H   H5592     1.0  0.89252  0.37791  0.81804  1.0000
  H   H5593     1.0  0.84574  0.17165  0.74190  1.0000
  H   H5594     1.0  0.89698  0.28345  0.69378  1.0000
  H   H5595     1.0  0.84969  0.25356  0.72060  1.0000
  C   C3151     1.0  0.82688  0.01975  0.70228  1.0000
  H   H5596     1.0  0.79951  0.30690  0.88935  1.0000
  S   S717      1.0  0.80883  0.03542  0.73365  1.0000
  N   N176      1.0  0.80994  0.16354  0.74229  1.0000
  H   H5597     1.0  0.95563  0.37775  0.85770  1.0000
  H   H5598     1.0  0.81954  0.04311  0.66548  1.0000
  C   C3152     1.0  0.97325  0.23555  0.70875  1.0000
  H   H5599     1.0  0.79415  0.44624  0.85003  1.0000
  H   H5600     1.0  0.84849  0.18379  0.69235  1.0000
  H   H5601     1.0  0.83541  0.17126  0.68405  1.0000
  S   S718      1.0  0.79394  0.30383  0.94326  1.0000
  C   C3153     1.0  0.81467  0.17612  0.75258  1.0000
  C   C3154     1.0  0.82458  0.23357  0.50922  1.0000
  S   S719      1.0  0.81874  0.07542  0.68601  1.0000
  H   H5602     1.0  0.81996  0.10309  0.76422  1.0000
  C   C3155     1.0  0.96765  0.29458  0.73636  1.0000
  H   H5603     1.0  0.91765  0.27976  0.85597  1.0000
  C   C3156     1.0  0.82212  0.16429  0.72246  1.0000
  N   N177      1.0  0.84508  0.29821  0.74776  1.0000
  C   C3157     1.0  0.86338  0.30377  0.74709  1.0000
  C   C3158     1.0  0.83917  0.28479  0.76660  1.0000
  C   C3159     1.0  0.84887  0.28737  0.73213  1.0000
  C   C3160     1.0  0.82936  0.31556  0.74418  1.0000
  C   C3161     1.0  0.82418  0.32948  0.75787  1.0000
  C   C3162     1.0  0.87134  0.31742  0.72855  1.0000
  C   C3163     1.0  0.83233  0.27861  0.73138  1.0000
  C   C3164     1.0  0.84374  0.28793  0.78456  1.0000
  C   C3165     1.0  0.83426  0.27562  0.80277  1.0000
  C   C3166     1.0  0.81046  0.34792  0.75089  1.0000
  C   C3167     1.0  0.88910  0.32285  0.73032  1.0000
  C   C3168     1.0  0.83857  0.26625  0.71647  1.0000
  H   H5604     1.0  0.87465  0.29059  0.74935  1.0000
  H   H5605     1.0  0.86201  0.31086  0.75887  1.0000
  H   H5606     1.0  0.82367  0.28513  0.76951  1.0000
  H   H5607     1.0  0.84626  0.26959  0.76595  1.0000
  H   H5608     1.0  0.86158  0.27543  0.73332  1.0000
  H   H5609     1.0  0.85233  0.29684  0.71786  1.0000
  H   H5610     1.0  0.83266  0.32391  0.72928  1.0000
  H   H5611     1.0  0.81598  0.31101  0.74526  1.0000
  H   H5612     1.0  0.83682  0.33376  0.75922  1.0000
  H   H5613     1.0  0.81688  0.32264  0.77212  1.0000
  H   H5614     1.0  0.87546  0.31045  0.71621  1.0000
  H   H5615     1.0  0.86078  0.33097  0.72551  1.0000
  H   H5616     1.0  0.82020  0.29014  0.72742  1.0000
  H   H5617     1.0  0.82725  0.26927  0.74522  1.0000
  H   H5618     1.0  0.85926  0.28370  0.78386  1.0000
  H   H5619     1.0  0.83917  0.30306  0.78591  1.0000
  H   H5620     1.0  0.81856  0.27982  0.80469  1.0000
  H   H5621     1.0  0.83892  0.26014  0.80229  1.0000
  H   H5622     1.0  0.83836  0.27774  0.81523  1.0000
  H   H5623     1.0  0.80139  0.13599  0.75137  1.0000
  H   H5624     1.0  0.96355  0.15886  0.72566  1.0000
  C   C3169     1.0  0.81410  0.01805  0.71984  1.0000
  C   C3170     1.0  0.97708  0.35078  0.79911  1.0000
  Fe  Fe362     1.0  0.80820  0.06607  0.71744  1.0000
  H   H5625     1.0  0.91727  0.37788  0.80706  1.0000
  C   C3171     1.0  0.97236  0.29620  0.71487  1.0000
  C   C3172     1.0  0.81179  0.14301  0.75372  1.0000
  S   S720      1.0  0.81916  0.08791  0.72549  1.0000
  H   H5626     1.0  0.80143  0.34136  0.87172  1.0000
  H   H5627     1.0  0.91147  0.31500  0.84455  1.0000
  H   H5628     1.0  0.94912  0.26986  0.68777  1.0000
  H   H5629     1.0  0.96941  0.33052  0.75410  1.0000
  H   H5630     1.0  0.88578  0.33022  0.74232  1.0000
  H   H5631     1.0  0.93318  0.31367  0.87536  1.0000
  C   C3173     1.0  0.79110  0.46216  0.84576  1.0000
  C   C3174     1.0  0.83094  0.22373  0.49233  1.0000
  C   C3175     1.0  0.91587  0.35182  0.84206  1.0000
  H   H5632     1.0  0.79311  0.38721  0.83648  1.0000
  C   C3176     1.0  0.97082  0.22912  0.67930  1.0000
  H   H5633     1.0  0.97455  0.31092  0.70761  1.0000
  H   H5634     1.0  0.94127  0.31990  0.85059  1.0000
  H   H5635     1.0  0.88002  0.32643  0.92323  1.0000
  H   H5636     1.0  0.96497  0.36396  0.71944  1.0000
  H   H5637     1.0  0.92291  0.38005  0.83796  1.0000
  H   H5638     1.0  0.83087  0.11207  0.77819  1.0000
  C   C3177     1.0  0.97483  0.34259  0.74330  1.0000
  H   H5639     1.0  0.80633  0.35719  0.76144  1.0000
  H   H5640     1.0  0.80560  0.40678  0.84965  1.0000
  H   H5641     1.0  0.81977  0.02350  0.65500  1.0000
  H   H5642     1.0  0.90419  0.34706  0.83913  1.0000
  H   H5643     1.0  0.96497  0.28005  0.74374  1.0000
  C   C3178     1.0  0.83063  0.00575  0.69145  1.0000
  H   H5644     1.0  0.80708  0.39954  0.87441  1.0000
  H   H5645     1.0  0.98510  0.21853  0.80949  1.0000
  H   H5646     1.0  0.94969  0.31967  0.66468  1.0000
  H   H5647     1.0  0.96690  0.15523  0.70179  1.0000
  H   H5648     1.0  0.97928  0.18546  0.68852  1.0000
  C   C3179     1.0  0.80864  0.46801  0.83160  1.0000
  C   C3180     1.0  0.79949  0.39860  0.86384  1.0000
  H   H5649     1.0  0.82020  0.04730  0.64043  1.0000
  H   H5650     1.0  0.94805  0.35671  0.67397  1.0000
  H   H5651     1.0  0.97571  0.27669  0.65386  1.0000
  H   H5652     1.0  0.79104  0.10977  0.81536  1.0000
  S   S721      1.0  0.79950  0.11952  0.69177  1.0000
  Fe  Fe363     1.0  0.79805  0.33236  0.92413  1.0000
  H   H5653     1.0  0.81135  0.19151  0.74530  1.0000
  C   C3181     1.0  0.98242  0.28730  0.65639  1.0000
  H   H5654     1.0  0.79923  0.47043  0.86788  1.0000
  H   H5655     1.0  0.97694  0.30180  0.64826  1.0000
  H   H5656     1.0  0.96761  0.32263  0.67447  1.0000
  C   C3182     1.0  0.96430  0.16613  0.71043  1.0000
  H   H5657     1.0  0.82137  0.46235  0.83807  1.0000
  C   C3183     1.0  0.82093  0.99057  0.69768  1.0000
  H   H5658     1.0  0.97698  0.22792  0.66470  1.0000
  C   C3184     1.0  0.97987  0.17782  0.70346  1.0000
  C   C3185     1.0  0.97837  0.28692  0.67799  1.0000
  C   C3186     1.0  0.97506  0.25168  0.78053  1.0000
  H   H5659     1.0  0.79590  0.29120  0.87654  1.0000
  H   H5660     1.0  0.79494  0.15676  0.58349  1.0000
  H   H5661     1.0  0.98031  0.30284  0.83671  1.0000
  H   H5662     1.0  0.98252  0.27172  0.68548  1.0000
  C   C3187     1.0  0.79196  0.30618  0.87865  1.0000
  H   H5663     1.0  0.79456  0.37543  0.80656  1.0000
  H   H5664     1.0  0.98597  0.28593  0.71162  1.0000
  Fe  Fe364     1.0  0.79578  0.21848  0.60329  1.0000
  S   S722      1.0  0.98546  0.24157  0.72280  1.0000
  C   C3188     1.0  0.80815  0.98890  0.71524  1.0000
  C   C3189     1.0  0.79275  0.04390  0.65848  1.0000
  H   H5665     1.0  0.80658  0.48390  0.82699  1.0000
  H   H5666     1.0  0.98590  0.18447  0.82635  1.0000
  H   H5667     1.0  0.98995  0.17571  0.73906  1.0000
  H   H5668     1.0  0.79125  0.40646  0.90688  1.0000
  C   C3190     1.0  0.79053  0.37564  0.84945  1.0000
  H   H5669     1.0  0.90976  0.75514  0.32338  1.0000
  H   H5670     1.0  0.84207  0.49064  0.14526  1.0000
  C   C3191     1.0  0.80312  0.50066  0.21245  1.0000
  S   S723      1.0  0.82383  0.54398  0.21915  1.0000
  H   H5671     1.0  0.82581  0.79070  0.32953  1.0000
  C   C3192     1.0  0.96554  0.84218  0.25952  1.0000
  H   H5672     1.0  0.82266  0.76754  0.33110  1.0000
  H   H5673     1.0  0.82092  0.87051  0.34994  1.0000
  H   H5674     1.0  0.79096  0.67130  0.16121  1.0000
  C   C3193     1.0  0.84998  0.69465  0.99166  1.0000
  S   S724      1.0  0.96801  0.75825  0.20937  1.0000
  C   C3194     1.0  0.83557  0.67692  0.05526  1.0000
  Fe  Fe365     1.0  0.85779  0.73577  0.22611  1.0000
  S   S725      1.0  0.87887  0.70817  0.23258  1.0000
  S   S726      1.0  0.84808  0.76163  0.23967  1.0000
  Fe  Fe366     1.0  0.85054  0.72573  0.19181  1.0000
  S   S727      1.0  0.87146  0.69752  0.19483  1.0000
  S   S728      1.0  0.82838  0.73778  0.17363  1.0000
  Fe  Fe367     1.0  0.85878  0.69396  0.22603  1.0000
  S   S729      1.0  0.85344  0.66481  0.24310  1.0000
  Fe  Fe368     1.0  0.89019  0.71367  0.20099  1.0000
  S   S730      1.0  0.92208  0.70726  0.19045  1.0000
  S   S731      1.0  0.83657  0.72101  0.22282  1.0000
  S   S732      1.0  0.87049  0.74236  0.19479  1.0000
  H   H5675     1.0  0.80790  0.91762  0.27679  1.0000
  C   C3195     1.0  0.93877  0.76477  0.14323  1.0000
  H   H5676     1.0  0.80311  0.75143  0.35644  1.0000
  C   C3196     1.0  0.80288  0.78139  0.13478  1.0000
  H   H5677     1.0  0.82580  0.67067  0.30298  1.0000
  S   S733      1.0  0.82484  0.71109  0.10098  1.0000
  C   C3197     1.0  0.80446  0.66307  0.23033  1.0000
  C   C3198     1.0  0.83591  0.51602  0.19868  1.0000
  H   H5678     1.0  0.83560  0.78350  0.35779  1.0000
  H   H5679     1.0  0.94611  0.74269  0.29481  1.0000
  H   H5680     1.0  0.85421  0.87553  0.34337  1.0000
  H   H5681     1.0  0.81790  0.63565  0.00396  1.0000
  H   H5682     1.0  0.85521  0.68143  0.98582  1.0000
  H   H5683     1.0  0.79628  0.77704  0.06556  1.0000
  C   C3199     1.0  0.97480  0.86381  0.21226  1.0000
  H   H5684     1.0  0.96277  0.86915  0.20473  1.0000
  Fe  Fe369     1.0  0.87468  0.79410  0.31495  1.0000
  S   S734      1.0  0.89186  0.79594  0.33483  1.0000
  S   S735      1.0  0.86742  0.76592  0.31595  1.0000
  Fe  Fe370     1.0  0.87133  0.83648  0.29554  1.0000
  S   S736      1.0  0.88872  0.84193  0.31311  1.0000
  S   S737      1.0  0.85655  0.85887  0.27400  1.0000
  Fe  Fe371     1.0  0.90774  0.81352  0.30894  1.0000
  S   S738      1.0  0.93980  0.80686  0.29935  1.0000
  Fe  Fe372     1.0  0.87142  0.82400  0.33739  1.0000
  S   S739      1.0  0.85684  0.83579  0.36355  1.0000
  S   S740      1.0  0.89186  0.80969  0.28884  1.0000
  S   S741      1.0  0.85275  0.82047  0.32003  1.0000
  H   H5685     1.0  0.85425  0.75122  0.38495  1.0000
  H   H5686     1.0  0.86096  0.71980  0.98997  1.0000
  S   S742      1.0  0.82121  0.94058  0.29467  1.0000
  H   H5687     1.0  0.92756  0.72917  0.30645  1.0000
  H   H5688     1.0  0.81674  0.69292  0.25509  1.0000
  C   C3200     1.0  0.80968  0.69730  0.02563  1.0000
  C   C3201     1.0  0.84673  0.88131  0.28030  1.0000
  C   C3202     1.0  0.82916  0.89158  0.27608  1.0000
  C   C3203     1.0  0.82128  0.90978  0.28034  1.0000
  C   C3204     1.0  0.83102  0.91796  0.28868  1.0000
  C   C3205     1.0  0.84890  0.90797  0.29233  1.0000
  C   C3206     1.0  0.85657  0.88949  0.28857  1.0000
  H   H5689     1.0  0.82955  0.55085  0.16752  1.0000
  H   H5690     1.0  0.79333  0.75347  0.07978  1.0000
  H   H5691     1.0  0.85681  0.91456  0.29808  1.0000
  H   H5692     1.0  0.87027  0.88181  0.29164  1.0000
  C   C3207     1.0  0.97898  0.82477  0.32664  1.0000
  C   C3208     1.0  0.79879  0.66721  0.17302  1.0000
  C   C3209     1.0  0.97424  0.81040  0.30300  1.0000
  C   C3210     1.0  0.95457  0.81366  0.31030  1.0000
  C   C3211     1.0  0.94713  0.82241  0.32589  1.0000
  C   C3212     1.0  0.95934  0.82776  0.33415  1.0000
  C   C3213     1.0  0.80637  0.85927  0.23895  1.0000
  H   H5693     1.0  0.98009  0.80351  0.29105  1.0000
  H   H5694     1.0  0.93199  0.82496  0.33165  1.0000
  H   H5695     1.0  0.95351  0.83440  0.34629  1.0000
  H   H5696     1.0  0.80752  0.54110  0.15431  1.0000
  C   C3214     1.0  0.82396  0.83094  0.38921  1.0000
  C   C3215     1.0  0.84177  0.82181  0.38044  1.0000
  C   C3216     1.0  0.84735  0.80180  0.38543  1.0000
  H   H5697     1.0  0.81941  0.84629  0.38492  1.0000
  H   H5698     1.0  0.86117  0.79468  0.37880  1.0000
  C   C3217     1.0  0.80317  0.64374  0.23746  1.0000
  H   H5699     1.0  0.83153  0.87579  0.37279  1.0000
  H   H5700     1.0  0.80643  0.62824  0.28750  1.0000
  C   C3218     1.0  0.85366  0.76230  0.26093  1.0000
  C   C3219     1.0  0.85318  0.78019  0.26439  1.0000
  C   C3220     1.0  0.85756  0.78138  0.28117  1.0000
  C   C3221     1.0  0.86169  0.76470  0.29495  1.0000
  C   C3222     1.0  0.86150  0.74683  0.29185  1.0000
  C   C3223     1.0  0.85790  0.74559  0.27466  1.0000
  H   H5701     1.0  0.84970  0.79319  0.25388  1.0000
  H   H5702     1.0  0.85750  0.79524  0.28350  1.0000
  H   H5703     1.0  0.86456  0.73390  0.30256  1.0000
  H   H5704     1.0  0.85811  0.73184  0.27204  1.0000
  C   C3224     1.0  0.82807  0.72850  0.15436  1.0000
  C   C3225     1.0  0.84466  0.72001  0.14310  1.0000
  C   C3226     1.0  0.84364  0.71458  0.12672  1.0000
  C   C3227     1.0  0.82602  0.71717  0.12188  1.0000
  C   C3228     1.0  0.80949  0.72498  0.13360  1.0000
  C   C3229     1.0  0.81055  0.73088  0.14957  1.0000
  H   H5705     1.0  0.85826  0.71826  0.14663  1.0000
  H   H5706     1.0  0.85652  0.70854  0.11770  1.0000
  H   H5707     1.0  0.81897  0.66309  0.08175  1.0000
  C   C3230     1.0  0.79948  0.78964  0.32302  1.0000
  C   C3231     1.0  0.83518  0.79105  0.39944  1.0000
  C   C3232     1.0  0.82108  0.52416  0.21192  1.0000
  H   H5708     1.0  0.79789  0.82741  0.40951  1.0000
  H   H5709     1.0  0.89474  0.87174  0.26500  1.0000
  C   C3233     1.0  0.80449  0.88736  0.38827  1.0000
  N   N178      1.0  0.80508  0.68582  0.28536  1.0000
  C   C3234     1.0  0.96862  0.77967  0.15133  1.0000
  H   H5710     1.0  0.79588  0.72675  0.13025  1.0000
  H   H5711     1.0  0.79436  0.78792  0.09519  1.0000
  C   C3235     1.0  0.97535  0.72152  0.25429  1.0000
  C   C3236     1.0  0.95579  0.74336  0.20441  1.0000
  C   C3237     1.0  0.93621  0.74971  0.20526  1.0000
  C   C3238     1.0  0.92567  0.73836  0.20174  1.0000
  C   C3239     1.0  0.93477  0.72076  0.19676  1.0000
  C   C3240     1.0  0.95440  0.71435  0.19587  1.0000
  C   C3241     1.0  0.96489  0.72552  0.19994  1.0000
  H   H5712     1.0  0.92920  0.76357  0.20850  1.0000
  H   H5713     1.0  0.91058  0.74347  0.20234  1.0000
  H   H5714     1.0  0.96148  0.70071  0.19205  1.0000
  H   H5715     1.0  0.97996  0.72042  0.19944  1.0000
  H   H5716     1.0  0.81009  0.56461  0.18156  1.0000
  C   C3242     1.0  0.80976  0.95066  0.23394  1.0000
  C   C3243     1.0  0.83327  0.63733  0.24707  1.0000
  C   C3244     1.0  0.83472  0.65663  0.23962  1.0000
  C   C3245     1.0  0.82050  0.66937  0.23076  1.0000
  H   H5717     1.0  0.82155  0.88530  0.26973  1.0000
  H   H5718     1.0  0.84170  0.75007  0.34928  1.0000
  H   H5719     1.0  0.84425  0.62740  0.25392  1.0000
  H   H5720     1.0  0.82157  0.68421  0.22478  1.0000
  H   H5721     1.0  0.83782  0.70329  0.98526  1.0000
  H   H5722     1.0  0.87650  0.89379  0.31889  1.0000
  H   H5723     1.0  0.79708  0.69134  0.03425  1.0000
  H   H5724     1.0  0.82367  0.67707  0.99578  1.0000
  C   C3246     1.0  0.81205  0.90218  0.34537  1.0000
  C   C3247     1.0  0.80834  0.79366  0.30174  1.0000
  H   H5725     1.0  0.79601  0.60802  0.16352  1.0000
  H   H5726     1.0  0.80985  0.88488  0.41628  1.0000
  H   H5727     1.0  0.79338  0.52219  0.22961  1.0000
  C   C3248     1.0  0.82597  0.77321  0.36479  1.0000
  H   H5728     1.0  0.81014  0.69343  0.16682  1.0000
  C   C3249     1.0  0.81861  0.88324  0.33820  1.0000
  H   H5729     1.0  0.83190  0.88365  0.32724  1.0000
  H   H5730     1.0  0.82271  0.80085  0.12480  1.0000
  H   H5731     1.0  0.83685  0.65691  0.00904  1.0000
  C   C3250     1.0  0.80078  0.63729  0.15297  1.0000
  C   C3251     1.0  0.80182  0.54660  0.16760  1.0000
  H   H5732     1.0  0.79699  0.90318  0.35318  1.0000
  H   H5733     1.0  0.79494  0.89555  0.21680  1.0000
  H   H5734     1.0  0.84701  0.62424  0.21165  1.0000
  C   C3252     1.0  0.97994  0.76630  0.12199  1.0000
  H   H5735     1.0  0.81523  0.61098  0.14287  1.0000
  H   H5736     1.0  0.79039  0.80332  0.32634  1.0000
  H   H5737     1.0  0.80732  0.62812  0.18087  1.0000
  C   C3253     1.0  0.79821  0.65173  0.30248  1.0000
  H   H5738     1.0  0.91091  0.76189  0.14196  1.0000
  C   C3254     1.0  0.96298  0.78597  0.25027  1.0000
  H   H5739     1.0  0.95753  0.80222  0.41262  1.0000
  H   H5740     1.0  0.80861  0.69438  0.32088  1.0000
  H   H5741     1.0  0.86750  0.65308  0.11253  1.0000
  H   H5742     1.0  0.81193  0.94250  0.33419  1.0000
  H   H5743     1.0  0.81491  0.66450  0.04984  1.0000
  H   H5744     1.0  0.87870  0.69763  0.99018  1.0000
  H   H5745     1.0  0.80362  0.70434  0.99674  1.0000
  H   H5746     1.0  0.79302  0.67319  0.22437  1.0000
  H   H5747     1.0  0.86529  0.76057  0.36060  1.0000
  C   C3255     1.0  0.98641  0.81608  0.31100  1.0000
  H   H5748     1.0  0.81703  0.78021  0.29742  1.0000
  C   C3256     1.0  0.79172  0.94291  0.23773  1.0000
  C   C3257     1.0  0.83399  0.66414  0.07528  1.0000
  H   H5749     1.0  0.97501  0.77342  0.25122  1.0000
  C   C3258     1.0  0.80548  0.64786  0.00437  1.0000
  H   H5750     1.0  0.79772  0.73711  0.15847  1.0000
  H   H5751     1.0  0.95686  0.78643  0.23806  1.0000
  H   H5752     1.0  0.81901  0.67390  0.14003  1.0000
  H   H5753     1.0  0.84276  0.64949  0.07490  1.0000
  C   C3259     1.0  0.85691  0.74984  0.36997  1.0000
  C   C3260     1.0  0.97383  0.84334  0.22466  1.0000
  H   H5754     1.0  0.85721  0.67799  0.01784  1.0000
  S   S743      1.0  0.79417  0.59610  0.20777  1.0000
  C   C3261     1.0  0.81746  0.94275  0.34645  1.0000
  C   C3262     1.0  0.82870  0.66845  0.04188  1.0000
  H   H5755     1.0  0.97134  0.78046  0.11616  1.0000
  H   H5756     1.0  0.83903  0.67051  0.08446  1.0000
  H   H5757     1.0  0.86548  0.73526  0.36884  1.0000
  H   H5758     1.0  0.80919  0.71295  0.26597  1.0000
  C   C3263     1.0  0.80467  0.51637  0.21895  1.0000
  C   C3264     1.0  0.83818  0.75273  0.36382  1.0000
  C   C3265     1.0  0.98996  0.74792  0.15274  1.0000
  H   H5759     1.0  0.81918  0.94162  0.24376  1.0000
  H   H5760     1.0  0.81471  0.57179  0.15581  1.0000
  C   C3266     1.0  0.82518  0.67956  0.28850  1.0000
  C   C3267     1.0  0.80411  0.71168  0.00766  1.0000
  H   H5761     1.0  0.95883  0.87360  0.25717  1.0000
  C   C3268     1.0  0.81478  0.55931  0.16812  1.0000
  H   H5762     1.0  0.80943  0.86765  0.32259  1.0000
  C   C3269     1.0  0.83589  0.69596  0.28521  1.0000
  N   N179      1.0  0.80846  0.77897  0.35630  1.0000
  H   H5763     1.0  0.82183  0.77381  0.38012  1.0000
  H   H5764     1.0  0.95216  0.78405  0.26371  1.0000
  H   H5765     1.0  0.85222  0.63887  0.14479  1.0000
  C   C3270     1.0  0.85413  0.68845  0.29296  1.0000
  H   H5766     1.0  0.79909  0.75619  0.37947  1.0000
  H   H5767     1.0  0.83388  0.66982  0.27892  1.0000
  N   N180      1.0  0.97434  0.76166  0.14351  1.0000
  H   H5768     1.0  0.81756  0.95106  0.21898  1.0000
  C   C3271     1.0  0.79559  0.68992  0.32064  1.0000
  H   H5769     1.0  0.79259  0.76455  0.10848  1.0000
  H   H5770     1.0  0.80271  0.53419  0.17980  1.0000
  H   H5771     1.0  0.80843  0.97382  0.34136  1.0000
  C   C3272     1.0  0.86573  0.70614  0.98489  1.0000
  H   H5772     1.0  0.92029  0.74563  0.16165  1.0000
  H   H5773     1.0  0.79310  0.87127  0.41620  1.0000
  H   H5774     1.0  0.84004  0.70201  0.26970  1.0000
  S   S744      1.0  0.80154  0.78655  0.42438  1.0000
  H   H5775     1.0  0.80291  0.68362  0.19169  1.0000
  H   H5776     1.0  0.80566  0.91347  0.24504  1.0000
  H   H5777     1.0  0.94159  0.77200  0.12795  1.0000
  H   H5778     1.0  0.81188  0.64721  0.30725  1.0000
  H   H5779     1.0  0.84823  0.62329  0.17855  1.0000
  C   C3273     1.0  0.79159  0.69619  0.30020  1.0000
  N   N181      1.0  0.82671  0.68122  0.02255  1.0000
  C   C3274     1.0  0.80656  0.87587  0.40832  1.0000
  H   H5780     1.0  0.80497  0.64676  0.13898  1.0000
  C   C3275     1.0  0.85737  0.66258  0.12163  1.0000
  H   H5781     1.0  0.86379  0.67717  0.28560  1.0000
  H   H5782     1.0  0.86157  0.70036  0.29043  1.0000
  H   H5783     1.0  0.85090  0.68241  0.30852  1.0000
  H   H5784     1.0  0.81682  0.84936  0.24726  1.0000
  H   H5785     1.0  0.96379  0.81805  0.15346  1.0000
  H   H5786     1.0  0.95378  0.74748  0.16521  1.0000
  H   H5787     1.0  0.81926  0.64386  0.19748  1.0000
  C   C3276     1.0  0.82881  0.66424  0.14928  1.0000
  H   H5788     1.0  0.88842  0.87533  0.33559  1.0000
  H   H5789     1.0  0.80568  0.65093  0.03203  1.0000
  H   H5790     1.0  0.85635  0.64608  0.20341  1.0000
  H   H5791     1.0  0.88366  0.90008  0.33744  1.0000
  C   C3277     1.0  0.80670  0.96116  0.35331  1.0000
  H   H5792     1.0  0.97852  0.83093  0.26121  1.0000
  H   H5793     1.0  0.83255  0.89340  0.38426  1.0000
  H   H5794     1.0  0.79439  0.90105  0.38991  1.0000
  H   H5795     1.0  0.98817  0.81685  0.15381  1.0000
  H   H5796     1.0  0.83029  0.66384  0.18586  1.0000
  H   H5797     1.0  0.81802  0.86280  0.40788  1.0000
  H   H5798     1.0  0.84868  0.52180  0.19335  1.0000
  H   H5799     1.0  0.86556  0.66822  0.12859  1.0000
  H   H5800     1.0  0.82830  0.78080  0.14396  1.0000
  H   H5801     1.0  0.84409  0.91294  0.33112  1.0000
  H   H5802     1.0  0.81440  0.72131  0.00148  1.0000
  H   H5803     1.0  0.83637  0.64540  0.12889  1.0000
  C   C3278     1.0  0.81772  0.63078  0.24563  1.0000
  C   C3279     1.0  0.85594  0.63264  0.19964  1.0000
  H   H5804     1.0  0.79289  0.79502  0.37790  1.0000
  C   C3280     1.0  0.84819  0.63721  0.18154  1.0000
  H   H5805     1.0  0.98801  0.83655  0.22821  1.0000
  C   C3281     1.0  0.95730  0.75229  0.14946  1.0000
  Fe  Fe373     1.0  0.79576  0.70848  0.09973  1.0000
  H   H5806     1.0  0.97235  0.83515  0.21474  1.0000
  H   H5807     1.0  0.98092  0.80785  0.38197  1.0000
  H   H5808     1.0  0.96398  0.77589  0.16716  1.0000
  H   H5809     1.0  0.81748  0.80437  0.29822  1.0000
  C   C3282     1.0  0.82812  0.65025  0.18382  1.0000
  H   H5810     1.0  0.92953  0.74131  0.13786  1.0000
  C   C3283     1.0  0.79305  0.83291  0.36064  1.0000
  C   C3284     1.0  0.97836  0.81741  0.39198  1.0000
  H   H5811     1.0  0.86176  0.88093  0.36187  1.0000
  H   H5812     1.0  0.81674  0.61586  0.25131  1.0000
  H   H5813     1.0  0.81157  0.91384  0.33237  1.0000
  N   N182      1.0  0.92136  0.74522  0.26850  1.0000
  C   C3285     1.0  0.91344  0.72721  0.27679  1.0000
  C   C3286     1.0  0.91979  0.75506  0.28434  1.0000
  C   C3287     1.0  0.90888  0.75872  0.25530  1.0000
  C   C3288     1.0  0.94155  0.74128  0.25740  1.0000
  C   C3289     1.0  0.95466  0.72189  0.26458  1.0000
  C   C3290     1.0  0.91073  0.71730  0.26204  1.0000
  C   C3291     1.0  0.91409  0.77862  0.24555  1.0000
  C   C3292     1.0  0.93062  0.74373  0.30036  1.0000
  C   C3293     1.0  0.92509  0.75418  0.31676  1.0000
  C   C3294     1.0  0.87801  0.88924  0.33394  1.0000
  C   C3295     1.0  0.90898  0.69643  0.27083  1.0000
  C   C3296     1.0  0.90054  0.79065  0.23248  1.0000
  H   H5814     1.0  0.89938  0.73043  0.28643  1.0000
  H   H5815     1.0  0.92236  0.71638  0.28608  1.0000
  H   H5816     1.0  0.92528  0.76852  0.27870  1.0000
  H   H5817     1.0  0.90455  0.75948  0.29105  1.0000
  H   H5818     1.0  0.89382  0.76127  0.26305  1.0000
  H   H5819     1.0  0.90916  0.75216  0.24342  1.0000
  H   H5820     1.0  0.94166  0.74132  0.24249  1.0000
  H   H5821     1.0  0.94862  0.75314  0.25629  1.0000
  H   H5822     1.0  0.95036  0.70980  0.26176  1.0000
  H   H5823     1.0  0.89746  0.72500  0.25688  1.0000
  H   H5824     1.0  0.92270  0.71748  0.24949  1.0000
  H   H5825     1.0  0.92874  0.77681  0.23682  1.0000
  H   H5826     1.0  0.91300  0.78719  0.25603  1.0000
  H   H5827     1.0  0.93346  0.74620  0.32782  1.0000
  H   H5828     1.0  0.92803  0.76891  0.31161  1.0000
  N   N183      1.0  0.82397  0.90532  0.35732  1.0000
  C   C3297     1.0  0.84412  0.90593  0.34634  1.0000
  H   H5829     1.0  0.90637  0.69001  0.26013  1.0000
  H   H5830     1.0  0.92233  0.68785  0.27530  1.0000
  H   H5831     1.0  0.89698  0.69567  0.28333  1.0000
  H   H5832     1.0  0.88598  0.79436  0.24100  1.0000
  H   H5833     1.0  0.90531  0.80423  0.22471  1.0000
  H   H5834     1.0  0.90008  0.78277  0.22191  1.0000
  C   C3298     1.0  0.79935  0.68631  0.17758  1.0000
  C   C3299     1.0  0.97001  0.80439  0.24727  1.0000
  C   C3300     1.0  0.92405  0.75260  0.14636  1.0000
  C   C3301     1.0  0.79733  0.76308  0.36457  1.0000
  H   H5835     1.0  0.81234  0.96263  0.36510  1.0000
  C   C3302     1.0  0.81404  0.63551  0.16653  1.0000
  H   H5836     1.0  0.85032  0.91502  0.35182  1.0000
  C   C3303     1.0  0.81502  0.78148  0.33497  1.0000
  C   C3304     1.0  0.83413  0.50082  0.19183  1.0000
  H   H5837     1.0  0.90222  0.87214  0.23996  1.0000
  H   H5838     1.0  0.82736  0.62530  0.16231  1.0000
  H   H5839     1.0  0.85817  0.64476  0.16994  1.0000
  H   H5840     1.0  0.81196  0.70623  0.03431  1.0000
  H   H5841     1.0  0.94792  0.82172  0.39498  1.0000
  H   H5842     1.0  0.83620  0.67410  0.15223  1.0000
  H   H5843     1.0  0.83056  0.74154  0.37342  1.0000
  N   N184      1.0  0.81784  0.65419  0.16776  1.0000
  C   C3305     1.0  0.97082  0.86119  0.25914  1.0000
  H   H5844     1.0  0.84950  0.67478  0.11241  1.0000
  H   H5845     1.0  0.95623  0.78956  0.14593  1.0000
  H   H5846     1.0  0.96443  0.85749  0.29013  1.0000
  H   H5847     1.0  0.98909  0.84888  0.27982  1.0000
  H   H5848     1.0  0.82096  0.92597  0.37440  1.0000
  C   C3306     1.0  0.80621  0.66020  0.01754  1.0000
  H   H5849     1.0  0.83963  0.77563  0.40364  1.0000
  C   C3307     1.0  0.97699  0.80831  0.15733  1.0000
  C   C3308     1.0  0.79843  0.66841  0.28468  1.0000
  C   C3309     1.0  0.84467  0.68898  0.01376  1.0000
  H   H5850     1.0  0.93217  0.77584  0.15188  1.0000
  H   H5851     1.0  0.81933  0.81238  0.36068  1.0000
  H   H5852     1.0  0.96057  0.73906  0.14377  1.0000
  H   H5853     1.0  0.91098  0.88676  0.25040  1.0000
  H   H5854     1.0  0.81514  0.88392  0.24057  1.0000
  H   H5855     1.0  0.79772  0.67417  0.32602  1.0000
  C   C3310     1.0  0.97627  0.86034  0.27778  1.0000
  H   H5856     1.0  0.81077  0.81834  0.33896  1.0000
  H   H5857     1.0  0.85067  0.67805  0.04977  1.0000
  H   H5858     1.0  0.84412  0.70158  0.01957  1.0000
  H   H5859     1.0  0.98608  0.74657  0.16846  1.0000
  H   H5860     1.0  0.80527  0.65663  0.98972  1.0000
  H   H5861     1.0  0.83257  0.94389  0.34122  1.0000
  H   H5862     1.0  0.81104  0.77230  0.12445  1.0000
  N   N185      1.0  0.95845  0.84153  0.24258  1.0000
  C   C3311     1.0  0.94076  0.85674  0.23984  1.0000
  C   C3312     1.0  0.95847  0.81701  0.40428  1.0000
  C   C3313     1.0  0.95331  0.82218  0.24623  1.0000
  H   H5863     1.0  0.87062  0.62391  0.19740  1.0000
  H   H5864     1.0  0.80089  0.89331  0.31693  1.0000
  C   C3314     1.0  0.92346  0.85605  0.25688  1.0000
  H   H5865     1.0  0.79951  0.92593  0.36817  1.0000
  H   H5866     1.0  0.79338  0.67185  0.01755  1.0000
  C   C3315     1.0  0.81171  0.82021  0.40299  1.0000
  C   C3316     1.0  0.81508  0.92461  0.36266  1.0000
  C   C3317     1.0  0.90692  0.87275  0.25269  1.0000
  H   H5867     1.0  0.98340  0.86360  0.24764  1.0000
  H   H5868     1.0  0.93603  0.85579  0.22720  1.0000
  H   H5869     1.0  0.94366  0.87139  0.23656  1.0000
  H   H5870     1.0  0.83881  0.65458  0.04028  1.0000
  H   H5871     1.0  0.95410  0.71894  0.28001  1.0000
  H   H5872     1.0  0.94609  0.82192  0.23499  1.0000
  H   H5873     1.0  0.94299  0.81952  0.25992  1.0000
  H   H5874     1.0  0.95506  0.83855  0.27290  1.0000
  H   H5875     1.0  0.97824  0.83231  0.38354  1.0000
  C   C3318     1.0  0.84363  0.65126  0.13657  1.0000
  H   H5876     1.0  0.79793  0.77185  0.14853  1.0000
  H   H5877     1.0  0.91814  0.84264  0.25980  1.0000
  H   H5878     1.0  0.92713  0.85709  0.27000  1.0000
  H   H5879     1.0  0.97673  0.80278  0.25935  1.0000
  C   C3319     1.0  0.81725  0.80021  0.40802  1.0000
  H   H5880     1.0  0.98103  0.80536  0.23399  1.0000
  H   H5881     1.0  0.81277  0.86026  0.22356  1.0000
  C   C3320     1.0  0.85898  0.88663  0.34724  1.0000
  C   C3321     1.0  0.82413  0.89020  0.37559  1.0000
  C   C3322     1.0  0.79649  0.92198  0.23479  1.0000
  C   C3323     1.0  0.82424  0.66891  0.01050  1.0000
  H   H5882     1.0  0.82716  0.69141  0.05667  1.0000
  H   H5883     1.0  0.97959  0.87426  0.27739  1.0000
  H   H5884     1.0  0.98590  0.79911  0.13093  1.0000
  H   H5885     1.0  0.98935  0.81944  0.41553  1.0000
  H   H5886     1.0  0.82689  0.70778  0.29213  1.0000
  H   H5887     1.0  0.95482  0.82693  0.41416  1.0000
  C   C3324     1.0  0.81772  0.49316  0.19855  1.0000
  H   H5888     1.0  0.80909  0.80063  0.14891  1.0000
  C   C3325     1.0  0.81652  0.79167  0.13827  1.0000
  H   H5889     1.0  0.97397  0.87430  0.22073  1.0000
  H   H5890     1.0  0.79802  0.87934  0.38188  1.0000
  C   C3326     1.0  0.80390  0.88072  0.32865  1.0000
  H   H5891     1.0  0.79232  0.64200  0.00965  1.0000
  C   C3327     1.0  0.80655  0.81501  0.35471  1.0000
  H   H5892     1.0  0.80591  0.96551  0.23643  1.0000
  H   H5893     1.0  0.80085  0.84475  0.35691  1.0000
  C   C3328     1.0  0.80539  0.69932  0.26601  1.0000
  H   H5894     1.0  0.98404  0.71906  0.15847  1.0000
  H   H5895     1.0  0.97425  0.80228  0.17293  1.0000
  Fe  Fe374     1.0  0.79775  0.56641  0.22647  1.0000
  C   C3329     1.0  0.79447  0.63403  0.29832  1.0000
  H   H5896     1.0  0.80562  0.92188  0.22031  1.0000
  C   C3330     1.0  0.79692  0.79743  0.36204  1.0000
  H   H5897     1.0  0.98442  0.70765  0.25986  1.0000
  H   H5898     1.0  0.79781  0.71584  0.22868  1.0000
  H   H5899     1.0  0.79109  0.73381  0.24302  1.0000
  C   C3331     1.0  0.80155  0.87905  0.24382  1.0000
  C   C3332     1.0  0.98365  0.79219  0.14632  1.0000
  H   H5900     1.0  0.98050  0.73339  0.25655  1.0000
  H   H5901     1.0  0.97640  0.75574  0.11595  1.0000
  H   H5902     1.0  0.79345  0.85312  0.24262  1.0000
  H   H5903     1.0  0.97686  0.72293  0.23878  1.0000
  C   C3333     1.0  0.80082  0.61769  0.14977  1.0000
  H   H5904     1.0  0.79553  0.87715  0.25933  1.0000
  H   H5905     1.0  0.84554  0.49502  0.18125  1.0000
  H   H5906     1.0  0.79698  0.79952  0.29338  1.0000
  H   H5907     1.0  0.79138  0.71192  0.29582  1.0000
  H   H5908     1.0  0.80734  0.66241  0.27224  1.0000
  H   H5909     1.0  0.79129  0.96115  0.35824  1.0000
  H   H5910     1.0  0.79314  0.62261  0.31153  1.0000
  H   H5911     1.0  0.79085  0.61953  0.14036  1.0000
  H   H5912     1.0  0.79070  0.49440  0.21808  1.0000
  H   H5913     1.0  0.79176  0.80686  0.11540  1.0000
  H   H5914     1.0  0.79059  0.77895  0.32551  1.0000
  H   H5915     1.0  0.79045  0.87915  0.33914  1.0000
  C   C3334     1.0  0.81744  0.88186  0.71263  1.0000
  H   H5916     1.0  0.95117  0.88846  0.71739  1.0000
  C   C3335     1.0  0.87557  0.61599  0.89194  1.0000
  S   S745      1.0  0.80180  0.93440  0.67594  1.0000
  H   H5917     1.0  0.95698  0.88483  0.63625  1.0000
  C   C3336     1.0  0.80983  0.64522  0.90440  1.0000
  H   H5918     1.0  0.83358  0.66207  0.79203  1.0000
  H   H5919     1.0  0.80402  0.76158  0.57297  1.0000
  H   H5920     1.0  0.88633  0.75483  0.87753  1.0000
  Fe  Fe375     1.0  0.84793  0.70816  0.83852  1.0000
  S   S746      1.0  0.83109  0.73754  0.84205  1.0000
  S   S747      1.0  0.83188  0.68396  0.84941  1.0000
  Fe  Fe376     1.0  0.88597  0.72127  0.82727  1.0000
  S   S748      1.0  0.87190  0.75142  0.83010  1.0000
  S   S749      1.0  0.91796  0.71193  0.81874  1.0000
  Fe  Fe377     1.0  0.85358  0.73781  0.85663  1.0000
  S   S750      1.0  0.84733  0.74794  0.88384  1.0000
  Fe  Fe378     1.0  0.85089  0.74822  0.81511  1.0000
  S   S751      1.0  0.84119  0.77363  0.79260  1.0000
  S   S752      1.0  0.86921  0.70781  0.85512  1.0000
  S   S753      1.0  0.86620  0.71873  0.81026  1.0000
  C   C3337     1.0  0.91646  0.68318  0.86881  1.0000
  Fe  Fe379     1.0  0.90308  0.79435  0.69770  1.0000
  S   S754      1.0  0.91886  0.79766  0.66739  1.0000
  S   S755      1.0  0.89914  0.76531  0.71528  1.0000
  Fe  Fe380     1.0  0.89374  0.83704  0.69591  1.0000
  S   S756      1.0  0.90875  0.84387  0.66543  1.0000
  S   S757      1.0  0.88089  0.86168  0.71052  1.0000
  Fe  Fe381     1.0  0.89458  0.82236  0.66145  1.0000
  S   S758      1.0  0.88103  0.82771  0.63619  1.0000
  Fe  Fe382     1.0  0.93135  0.81873  0.67454  1.0000
  S   S759      1.0  0.96253  0.81904  0.66448  1.0000
  S   S760      1.0  0.87790  0.81737  0.69137  1.0000
  S   S761      1.0  0.91734  0.81348  0.70547  1.0000
  H   H5921     1.0  0.85090  0.59639  0.89087  1.0000
  C   C3338     1.0  0.85731  0.82520  0.64063  1.0000
  C   C3339     1.0  0.84998  0.82332  0.62587  1.0000
  C   C3340     1.0  0.83115  0.82104  0.62924  1.0000
  C   C3341     1.0  0.81970  0.82030  0.64748  1.0000
  C   C3342     1.0  0.82690  0.82258  0.66211  1.0000
  C   C3343     1.0  0.84553  0.82529  0.65861  1.0000
  H   H5922     1.0  0.85893  0.82350  0.61182  1.0000
  H   H5923     1.0  0.82566  0.81941  0.61783  1.0000
  H   H5924     1.0  0.81789  0.82261  0.67609  1.0000
  H   H5925     1.0  0.85067  0.82765  0.66980  1.0000
  C   C3344     1.0  0.85653  0.86941  0.71113  1.0000
  C   C3345     1.0  0.84784  0.88858  0.71159  1.0000
  C   C3346     1.0  0.82830  0.89484  0.71221  1.0000
  H   H5926     1.0  0.85730  0.63133  0.87247  1.0000
  C   C3347     1.0  0.82616  0.86276  0.71200  1.0000
  C   C3348     1.0  0.84564  0.85650  0.71150  1.0000
  H   H5927     1.0  0.85622  0.89861  0.71138  1.0000
  H   H5928     1.0  0.88837  0.68402  0.88684  1.0000
  H   H5929     1.0  0.85207  0.84158  0.71195  1.0000
  H   H5930     1.0  0.92005  0.91252  0.70972  1.0000
  H   H5931     1.0  0.82231  0.81550  0.71829  1.0000
  C   C3349     1.0  0.93892  0.87452  0.66345  1.0000
  C   C3350     1.0  0.97387  0.82535  0.67914  1.0000
  C   C3351     1.0  0.96366  0.83123  0.69595  1.0000
  C   C3352     1.0  0.97298  0.83669  0.70711  1.0000
  H   H5932     1.0  0.92802  0.74106  0.74411  1.0000
  C   C3353     1.0  0.89149  0.67142  0.93042  1.0000
  H   H5933     1.0  0.94859  0.83175  0.70024  1.0000
  H   H5934     1.0  0.96512  0.84142  0.71998  1.0000
  C   C3354     1.0  0.88250  0.76786  0.73636  1.0000
  C   C3355     1.0  0.87598  0.75181  0.74848  1.0000
  C   C3356     1.0  0.86302  0.75361  0.76564  1.0000
  C   C3357     1.0  0.85647  0.77150  0.77063  1.0000
  C   C3358     1.0  0.86260  0.78767  0.75824  1.0000
  C   C3359     1.0  0.87580  0.78582  0.74120  1.0000
  H   H5935     1.0  0.88093  0.73798  0.74462  1.0000
  H   H5936     1.0  0.85788  0.74119  0.77486  1.0000
  H   H5937     1.0  0.85767  0.80149  0.76209  1.0000
  H   H5938     1.0  0.88092  0.79826  0.73197  1.0000
  C   C3360     1.0  0.95431  0.73440  0.84531  1.0000
  C   C3361     1.0  0.93524  0.74339  0.84549  1.0000
  C   C3362     1.0  0.92407  0.73673  0.83722  1.0000
  C   C3363     1.0  0.93196  0.72111  0.82846  1.0000
  C   C3364     1.0  0.95121  0.71242  0.82775  1.0000
  C   C3365     1.0  0.96241  0.71907  0.83613  1.0000
  H   H5939     1.0  0.92909  0.75556  0.85212  1.0000
  H   H5940     1.0  0.90932  0.74362  0.83779  1.0000
  H   H5941     1.0  0.95736  0.70021  0.82114  1.0000
  C   C3366     1.0  0.83086  0.70173  0.93603  1.0000
  C   C3367     1.0  0.83598  0.71788  0.93804  1.0000
  C   C3368     1.0  0.84071  0.73219  0.92196  1.0000
  C   C3369     1.0  0.84076  0.73017  0.90381  1.0000
  C   C3370     1.0  0.83581  0.71393  0.90178  1.0000
  C   C3371     1.0  0.83073  0.69979  0.91792  1.0000
  H   H5942     1.0  0.79045  0.48746  0.65045  1.0000
  H   H5943     1.0  0.95405  0.71974  0.78454  1.0000
  H   H5944     1.0  0.83553  0.71242  0.88783  1.0000
  H   H5945     1.0  0.82664  0.68739  0.91639  1.0000
  H   H5946     1.0  0.97111  0.71929  0.76285  1.0000
  C   C3372     1.0  0.92714  0.87381  0.70652  1.0000
  C   C3373     1.0  0.82596  0.66353  0.80624  1.0000
  C   C3374     1.0  0.83220  0.67362  0.81621  1.0000
  C   C3375     1.0  0.82270  0.67500  0.83482  1.0000
  C   C3376     1.0  0.80658  0.66698  0.84303  1.0000
  H   H5947     1.0  0.85644  0.72394  0.73989  1.0000
  N   N186      1.0  0.90386  0.69575  0.90015  1.0000
  H   H5948     1.0  0.84473  0.67967  0.80979  1.0000
  C   C3377     1.0  0.81039  0.65464  0.81494  1.0000
  C   C3378     1.0  0.93290  0.75470  0.77424  1.0000
  H   H5949     1.0  0.91732  0.65406  0.86655  1.0000
  C   C3379     1.0  0.84690  0.72050  0.73266  1.0000
  C   C3380     1.0  0.88024  0.67052  0.95085  1.0000
  H   H5950     1.0  0.95348  0.93111  0.70281  1.0000
  H   H5951     1.0  0.79526  0.61117  0.89994  1.0000
  H   H5952     1.0  0.82022  0.63887  0.91378  1.0000
  H   H5953     1.0  0.88979  0.75715  0.64816  1.0000
  H   H5954     1.0  0.81878  0.78626  0.68437  1.0000
  H   H5955     1.0  0.83954  0.77301  0.73306  1.0000
  H   H5956     1.0  0.93152  0.67915  0.87012  1.0000
  H   H5957     1.0  0.79042  0.75361  0.54983  1.0000
  C   C3381     1.0  0.88962  0.77069  0.65206  1.0000
  H   H5958     1.0  0.84195  0.79799  0.69267  1.0000
  C   C3382     1.0  0.85573  0.62503  0.88790  1.0000
  C   C3383     1.0  0.84263  0.61010  0.89503  1.0000
  H   H5959     1.0  0.79887  0.66857  0.85714  1.0000
  H   H5960     1.0  0.84457  0.59603  0.83684  1.0000
  H   H5961     1.0  0.84027  0.60681  0.91087  1.0000
  H   H5962     1.0  0.82163  0.90965  0.71266  1.0000
  H   H5963     1.0  0.95865  0.79156  0.71801  1.0000
  H   H5964     1.0  0.81135  0.57910  0.89496  1.0000
  C   C3384     1.0  0.83096  0.80378  0.72726  1.0000
  H   H5965     1.0  0.89717  0.90310  0.69922  1.0000
  H   H5966     1.0  0.89110  0.78984  0.77539  1.0000
  C   C3385     1.0  0.79213  0.58460  0.71727  1.0000
  C   C3386     1.0  0.97346  0.78610  0.82795  1.0000
  H   H5967     1.0  0.94010  0.76322  0.77926  1.0000
  H   H5968     1.0  0.96284  0.68001  0.89258  1.0000
  C   C3387     1.0  0.89417  0.73176  0.90134  1.0000
  C   C3388     1.0  0.80065  0.65655  0.83329  1.0000
  N   N187      1.0  0.84435  0.76817  0.69309  1.0000
  C   C3389     1.0  0.82423  0.77091  0.69074  1.0000
  C   C3390     1.0  0.84540  0.78370  0.70221  1.0000
  C   C3391     1.0  0.85171  0.74846  0.70439  1.0000
  C   C3392     1.0  0.83708  0.73880  0.72065  1.0000
  H   H5969     1.0  0.88631  0.67769  0.95846  1.0000
  C   C3393     1.0  0.83285  0.78450  0.72228  1.0000
  H   H5970     1.0  0.80325  0.76164  0.91458  1.0000
  C   C3394     1.0  0.95125  0.80890  0.75944  1.0000
  S   S762      1.0  0.79287  0.88925  0.71470  1.0000
  C   C3395     1.0  0.91774  0.70672  0.75927  1.0000
  H   H5971     1.0  0.79507  0.70845  0.87900  1.0000
  H   H5972     1.0  0.86010  0.78218  0.70395  1.0000
  H   H5973     1.0  0.85734  0.75921  0.66639  1.0000
  H   H5974     1.0  0.85819  0.73808  0.69488  1.0000
  H   H5975     1.0  0.86354  0.74899  0.71066  1.0000
  H   H5976     1.0  0.88434  0.71781  0.88492  1.0000
  H   H5977     1.0  0.80293  0.64076  0.87989  1.0000
  C   C3396     1.0  0.95792  0.69505  0.89452  1.0000
  H   H5978     1.0  0.93383  0.70759  0.77860  1.0000
  H   H5979     1.0  0.79190  0.59689  0.70477  1.0000
  H   H5980     1.0  0.80448  0.86802  0.68015  1.0000
  H   H5981     1.0  0.82700  0.73467  0.71464  1.0000
  H   H5982     1.0  0.92954  0.69663  0.75216  1.0000
  H   H5983     1.0  0.92222  0.69502  0.91880  1.0000
  C   C3397     1.0  0.80952  0.60585  0.90364  1.0000
  H   H5984     1.0  0.90655  0.66469  0.93097  1.0000
  H   H5985     1.0  0.89898  0.67229  0.85645  1.0000
  H   H5986     1.0  0.82694  0.76493  0.66275  1.0000
  N   N188      1.0  0.80091  0.84759  0.77709  1.0000
  H   H5987     1.0  0.79480  0.75150  0.51904  1.0000
  C   C3398     1.0  0.80270  0.82916  0.79214  1.0000
  C   C3399     1.0  0.81911  0.85477  0.77308  1.0000
  C   C3400     1.0  0.79853  0.84407  0.75888  1.0000
  H   H5988     1.0  0.80716  0.57758  0.71778  1.0000
  C   C3401     1.0  0.95074  0.90165  0.70592  1.0000
  C   C3402     1.0  0.83779  0.84075  0.76646  1.0000
  H   H5989     1.0  0.94133  0.92040  0.72620  1.0000
  H   H5990     1.0  0.82285  0.95049  0.61446  1.0000
  H   H5991     1.0  0.79752  0.67384  0.88995  1.0000
  C   C3403     1.0  0.90799  0.89928  0.68663  1.0000
  C   C3404     1.0  0.85489  0.85026  0.76131  1.0000
  H   H5992     1.0  0.98970  0.83335  0.78864  1.0000
  H   H5993     1.0  0.79613  0.78580  0.56026  1.0000
  H   H5994     1.0  0.81443  0.81785  0.78672  1.0000
  H   H5995     1.0  0.80654  0.83162  0.80465  1.0000
  H   H5996     1.0  0.82055  0.85881  0.78593  1.0000
  H   H5997     1.0  0.81883  0.86810  0.76162  1.0000
  H   H5998     1.0  0.80478  0.85432  0.74643  1.0000
  H   H5999     1.0  0.80677  0.82959  0.75681  1.0000
  C   C3405     1.0  0.92333  0.69190  0.90469  1.0000
  H   H6000     1.0  0.82910  0.74365  0.68153  1.0000
  S   S763      1.0  0.79643  0.81643  0.65261  1.0000
  H   H6001     1.0  0.82137  0.67123  0.89296  1.0000
  H   H6002     1.0  0.83711  0.83603  0.75376  1.0000
  H   H6003     1.0  0.84063  0.82791  0.77797  1.0000
  Fe  Fe383     1.0  0.80100  0.95803  0.69003  1.0000
  H   H6004     1.0  0.98544  0.71088  0.79691  1.0000
  H   H6005     1.0  0.86929  0.70974  0.96907  1.0000
  H   H6006     1.0  0.97266  0.74807  0.73971  1.0000
  Fe  Fe384     1.0  0.79254  0.68750  0.95920  1.0000
  C   C3406     1.0  0.89488  0.75169  0.88858  1.0000
  H   H6007     1.0  0.84510  0.80721  0.72503  1.0000
  H   H6008     1.0  0.79938  0.90920  0.62851  1.0000
  H   H6009     1.0  0.88440  0.93555  0.65457  1.0000
  H   H6010     1.0  0.94159  0.81720  0.76991  1.0000
  H   H6011     1.0  0.90814  0.71991  0.87625  1.0000
  H   H6012     1.0  0.85276  0.86386  0.75048  1.0000
  H   H6013     1.0  0.85723  0.85343  0.77415  1.0000
  H   H6014     1.0  0.86783  0.84044  0.75534  1.0000
  C   C3407     1.0  0.82144  0.75881  0.67799  1.0000
  H   H6015     1.0  0.83608  0.71357  0.74377  1.0000
  H   H6016     1.0  0.80794  0.60937  0.91765  1.0000
  C   C3408     1.0  0.95313  0.91764  0.71395  1.0000
  H   H6017     1.0  0.80500  0.82980  0.51726  1.0000
  H   H6018     1.0  0.79887  0.75087  0.67034  1.0000
  C   C3409     1.0  0.80043  0.75910  0.68010  1.0000
  H   H6019     1.0  0.83077  0.59401  0.87207  1.0000
  H   H6020     1.0  0.90978  0.75260  0.88163  1.0000
  H   H6021     1.0  0.87985  0.73249  0.91075  1.0000
  C   C3410     1.0  0.81363  0.58360  0.90710  1.0000
  H   H6022     1.0  0.91316  0.72678  0.77692  1.0000
  H   H6023     1.0  0.96775  0.78917  0.77860  1.0000
  H   H6024     1.0  0.96883  0.86424  0.65163  1.0000
  S   S764      1.0  0.82461  0.97413  0.68314  1.0000
  C   C3411     1.0  0.79147  0.82575  0.52399  1.0000
  H   H6025     1.0  0.91104  0.84617  0.73494  1.0000
  H   H6026     1.0  0.88379  0.78318  0.64150  1.0000
  C   C3412     1.0  0.97045  0.79993  0.76513  1.0000
  H   H6027     1.0  0.92168  0.78097  0.75494  1.0000
  S   S765      1.0  0.82381  0.68445  0.95625  1.0000
  C   C3413     1.0  0.79207  0.77427  0.57265  1.0000
  H   H6028     1.0  0.94177  0.86647  0.70824  1.0000
  H   H6029     1.0  0.83579  0.71960  0.95202  1.0000
  H   H6030     1.0  0.88258  0.60433  0.88407  1.0000
  H   H6031     1.0  0.93072  0.85002  0.74240  1.0000
  H   H6032     1.0  0.90338  0.88763  0.68325  1.0000
  C   C3414     1.0  0.93770  0.73158  0.75346  1.0000
  H   H6033     1.0  0.96375  0.80786  0.80510  1.0000
  H   H6034     1.0  0.88085  0.65529  0.95853  1.0000
  C   C3415     1.0  0.90207  0.77838  0.78171  1.0000
  H   H6035     1.0  0.87869  0.78493  0.67524  1.0000
  H   H6036     1.0  0.81436  0.76790  0.70464  1.0000
  H   H6037     1.0  0.96872  0.82540  0.77532  1.0000
  H   H6038     1.0  0.88909  0.76276  0.89731  1.0000
  H   H6039     1.0  0.96445  0.74403  0.79236  1.0000
  H   H6040     1.0  0.88588  0.66268  0.92400  1.0000
  H   H6041     1.0  0.94872  0.72263  0.74429  1.0000
  C   C3416     1.0  0.88938  0.69241  0.91857  1.0000
  H   H6042     1.0  0.80244  0.91022  0.65074  1.0000
  H   H6043     1.0  0.79035  0.80734  0.82835  1.0000
  H   H6044     1.0  0.93871  0.70344  0.87549  1.0000
  S   S766      1.0  0.96688  0.74175  0.85810  1.0000
  H   H6045     1.0  0.97622  0.77255  0.70841  1.0000
  H   H6046     1.0  0.96801  0.70368  0.88442  1.0000
  C   C3417     1.0  0.97715  0.80208  0.81038  1.0000
  H   H6047     1.0  0.96133  0.79174  0.83869  1.0000
  C   C3418     1.0  0.82582  0.60982  0.87032  1.0000
  H   H6048     1.0  0.92581  0.88077  0.65771  1.0000
  H   H6049     1.0  0.97710  0.71197  0.83601  1.0000
  H   H6050     1.0  0.84433  0.74484  0.92356  1.0000
  C   C3419     1.0  0.90318  0.68202  0.88868  1.0000
  H   H6051     1.0  0.87497  0.92530  0.67901  1.0000
  C   C3420     1.0  0.81583  0.63717  0.88600  1.0000
  C   C3421     1.0  0.83950  0.61183  0.83510  1.0000
  C   C3422     1.0  0.91497  0.87583  0.72656  1.0000
  C   C3423     1.0  0.93797  0.70337  0.89049  1.0000
  H   H6052     1.0  0.82870  0.74840  0.73033  1.0000
  H   H6053     1.0  0.87470  0.69694  0.91573  1.0000
  N   N189      1.0  0.82391  0.61587  0.88865  1.0000
  H   H6054     1.0  0.84983  0.63716  0.89528  1.0000
  H   H6055     1.0  0.81784  0.85272  0.71217  1.0000
  C   C3424     1.0  0.92550  0.71821  0.76864  1.0000
  C   C3425     1.0  0.96078  0.77881  0.71191  1.0000
  H   H6056     1.0  0.90447  0.77132  0.65146  1.0000
  H   H6057     1.0  0.88437  0.75905  0.68227  1.0000
  C   C3426     1.0  0.83998  0.61828  0.85277  1.0000
  H   H6058     1.0  0.91600  0.91471  0.65677  1.0000
  H   H6059     1.0  0.88438  0.62711  0.88716  1.0000
  H   H6060     1.0  0.90465  0.72838  0.91052  1.0000
  H   H6061     1.0  0.91353  0.69778  0.85984  1.0000
  H   H6062     1.0  0.93415  0.71861  0.89179  1.0000
  C   C3427     1.0  0.91379  0.66910  0.85847  1.0000
  H   H6063     1.0  0.81162  0.61336  0.86644  1.0000
  C   C3428     1.0  0.96124  0.72914  0.77187  1.0000
  H   H6064     1.0  0.90968  0.71645  0.74857  1.0000
  H   H6065     1.0  0.82573  0.64561  0.87536  1.0000
  H   H6066     1.0  0.94438  0.79749  0.75898  1.0000
  H   H6067     1.0  0.86514  0.67764  0.95095  1.0000
  H   H6068     1.0  0.83669  0.63418  0.84953  1.0000
  C   C3429     1.0  0.93199  0.90741  0.69846  1.0000
  H   H6069     1.0  0.87479  0.61007  0.90744  1.0000
  H   H6070     1.0  0.95816  0.69547  0.90923  1.0000
  C   C3430     1.0  0.87780  0.77138  0.67211  1.0000
  N   N190      1.0  0.81944  0.88500  0.64053  1.0000
  C   C3431     1.0  0.82967  0.87877  0.62212  1.0000
  C   C3432     1.0  0.83280  0.87993  0.65413  1.0000
  C   C3433     1.0  0.80368  0.87394  0.64955  1.0000
  C   C3434     1.0  0.81037  0.90610  0.63712  1.0000
  C   C3435     1.0  0.82391  0.92023  0.62752  1.0000
  C   C3436     1.0  0.81788  0.88373  0.60650  1.0000
  H   H6071     1.0  0.93762  0.86031  0.67294  1.0000
  C   C3437     1.0  0.85386  0.88135  0.64551  1.0000
  C   C3438     1.0  0.86462  0.87875  0.66112  1.0000
  C   C3439     1.0  0.81283  0.94062  0.62122  1.0000
  C   C3440     1.0  0.82898  0.87456  0.58967  1.0000
  S   S767      1.0  0.79700  0.83149  0.55694  1.0000
  H   H6072     1.0  0.83533  0.86296  0.62516  1.0000
  H   H6073     1.0  0.84233  0.88519  0.61531  1.0000
  H   H6074     1.0  0.82710  0.88872  0.66522  1.0000
  H   H6075     1.0  0.83370  0.86465  0.66195  1.0000
  H   H6076     1.0  0.80900  0.85859  0.64880  1.0000
  S   S768      1.0  0.80371  0.64051  0.80311  1.0000
  H   H6077     1.0  0.79595  0.64178  0.91265  1.0000
  H   H6078     1.0  0.93336  0.92037  0.68679  1.0000
  H   H6079     1.0  0.83393  0.91609  0.61471  1.0000
  H   H6080     1.0  0.83200  0.92076  0.63785  1.0000
  H   H6081     1.0  0.80443  0.87854  0.61194  1.0000
  H   H6082     1.0  0.81442  0.89953  0.60101  1.0000
  H   H6083     1.0  0.90713  0.66687  0.89634  1.0000
  H   H6084     1.0  0.80302  0.94588  0.63363  1.0000
  H   H6085     1.0  0.86102  0.86973  0.63759  1.0000
  H   H6086     1.0  0.85535  0.89525  0.63557  1.0000
  H   H6087     1.0  0.85808  0.88998  0.66960  1.0000
  H   H6088     1.0  0.86459  0.86431  0.67069  1.0000
  H   H6089     1.0  0.87957  0.87994  0.65458  1.0000
  H   H6090     1.0  0.97904  0.75013  0.76913  1.0000
  H   H6091     1.0  0.96673  0.91325  0.71896  1.0000
  H   H6092     1.0  0.82393  0.80303  0.74247  1.0000
  H   H6093     1.0  0.84243  0.87976  0.58322  1.0000
  H   H6094     1.0  0.83230  0.85863  0.59434  1.0000
  H   H6095     1.0  0.82030  0.87840  0.57864  1.0000
  C   C3441     1.0  0.91632  0.76919  0.76614  1.0000
  H   H6096     1.0  0.81824  0.78279  0.72362  1.0000
  H   H6097     1.0  0.80160  0.67257  0.91304  1.0000
  H   H6098     1.0  0.92992  0.67630  0.90623  1.0000
  C   C3442     1.0  0.80006  0.57517  0.92481  1.0000
  H   H6099     1.0  0.85469  0.61293  0.85512  1.0000
  H   H6100     1.0  0.80105  0.79153  0.81189  1.0000
  C   C3443     1.0  0.85684  0.77094  0.67335  1.0000
  N   N191      1.0  0.94703  0.74313  0.76085  1.0000
  H   H6101     1.0  0.82487  0.61573  0.83247  1.0000
  C   C3444     1.0  0.95788  0.75594  0.74440  1.0000
  H   H6102     1.0  0.97965  0.79256  0.75377  1.0000
  H   H6103     1.0  0.85530  0.71013  0.72365  1.0000
  H   H6104     1.0  0.90854  0.76214  0.76019  1.0000
  H   H6105     1.0  0.92681  0.74498  0.78742  1.0000
  H   H6106     1.0  0.90806  0.69825  0.77031  1.0000
  C   C3445     1.0  0.95000  0.76392  0.72583  1.0000
  H   H6107     1.0  0.88302  0.91054  0.66145  1.0000
  C   C3446     1.0  0.94256  0.88795  0.67429  1.0000
  H   H6108     1.0  0.92339  0.67045  0.84418  1.0000
  H   H6109     1.0  0.94510  0.90151  0.66393  1.0000
  H   H6110     1.0  0.89488  0.76741  0.79240  1.0000
  H   H6111     1.0  0.84878  0.61906  0.82242  1.0000
  H   H6112     1.0  0.95952  0.76839  0.74906  1.0000
  H   H6113     1.0  0.95545  0.78365  0.69845  1.0000
  C   C3447     1.0  0.90583  0.91722  0.67012  1.0000
  H   H6114     1.0  0.79309  0.51882  0.81118  1.0000
  H   H6115     1.0  0.82841  0.57725  0.90901  1.0000
  C   C3448     1.0  0.89778  0.71616  0.88965  1.0000
  H   H6116     1.0  0.90921  0.78494  0.78892  1.0000
  C   C3449     1.0  0.80748  0.66705  0.89976  1.0000
  H   H6117     1.0  0.85074  0.78452  0.66405  1.0000
  H   H6118     1.0  0.88982  0.70156  0.92805  1.0000
  H   H6119     1.0  0.96321  0.89904  0.69421  1.0000
  H   H6120     1.0  0.98061  0.81349  0.81518  1.0000
  H   H6121     1.0  0.95177  0.75206  0.71856  1.0000
  H   H6122     1.0  0.93474  0.77076  0.72856  1.0000
  N   N192      1.0  0.92741  0.89215  0.69146  1.0000
  C   C3450     1.0  0.97975  0.81551  0.76718  1.0000
  H   H6123     1.0  0.80288  0.55930  0.92668  1.0000
  H   H6124     1.0  0.89985  0.88205  0.72599  1.0000
  C   C3451     1.0  0.91595  0.85623  0.74038  1.0000
  C   C3452     1.0  0.97329  0.73825  0.77981  1.0000
  H   H6125     1.0  0.80203  0.57851  0.93774  1.0000
  H   H6126     1.0  0.90663  0.85790  0.75440  1.0000
  H   H6127     1.0  0.80045  0.72916  0.49815  1.0000
  H   H6128     1.0  0.95246  0.86124  0.63929  1.0000
  H   H6129     1.0  0.96990  0.77412  0.82415  1.0000
  H   H6130     1.0  0.90815  0.92989  0.67382  1.0000
  H   H6131     1.0  0.79421  0.75244  0.69492  1.0000
  H   H6132     1.0  0.98320  0.82450  0.75261  1.0000
  H   H6133     1.0  0.79244  0.77412  0.67630  1.0000
  H   H6134     1.0  0.92176  0.86345  0.70194  1.0000
  H   H6135     1.0  0.95318  0.81846  0.74510  1.0000
  C   C3453     1.0  0.95534  0.87110  0.64663  1.0000
  H   H6136     1.0  0.92004  0.88515  0.73274  1.0000
  C   C3454     1.0  0.88582  0.92241  0.66610  1.0000
  H   H6137     1.0  0.95641  0.88090  0.67856  1.0000
  C   C3455     1.0  0.79414  0.87442  0.67072  1.0000
  H   H6138     1.0  0.79210  0.87915  0.64149  1.0000
  H   H6139     1.0  0.79411  0.89020  0.77452  1.0000
  H   H6140     1.0  0.98612  0.78056  0.83455  1.0000
  H   H6141     1.0  0.80077  0.97714  0.72030  1.0000
  H   H6142     1.0  0.79809  0.71654  0.85356  1.0000
  H   H6143     1.0  0.80446  0.94105  0.61074  1.0000
  C   C3456     1.0  0.99021  0.72336  0.78628  1.0000
  H   H6144     1.0  0.79030  0.60170  0.73705  1.0000
