data_image0
_chemical_formula_structural       H2FeS2FeS2FeHFeS3FeS2FeSHFeSFeS3C2HCH2C6H4C6H7CH2C2H3CHC4H3SH3C2H5C3HCH2CH5NH10C2HC3NC9H8C2H4CHCH3CHC5H2C2H3C4H3CH7CHC3H4CNC5HC4HCH10CH11CH9CH5NHCSCH5CH2CH3NCHSH2CHCH2FeS2H5S2HFeS2FeCFeHS2CNCHCH3C6H7CS2CH2CH5C2H5CH3CNCH2C2HCHCH2C2H4FeC3H9CH5SH3CHCH3CH2C2H3FeHCH2CH10FeS2FeSHFeSFeS3FeSHFeS2FeSFeS4HC2H3C6H4C6H7CHC2HC4H2CHC4H8CH3NH5FeHC2HCNC2HC2HC3H2CH4C2H4CH3CHCH5CHSH2C4HCHCHSCHSHC3H4CHNC11H24C2H2CHSCH3CH10N2H5CHCH2C2H2CH2CH3CH5CHC3H5CH2C3HCH2NSHCHC2H2CHCH2C2H2CH2CFe2S2FeSHFeSFeS3FeS2FeS2FeSFeS3HC7H4C6H5CHC2H6CHCHC3HCNC4HCHC2H8CH2CH2CH9CH2CSH2C3H10NC7H18SCHCH2CHC3H3C2NHCH2CH7CHCHC2HCH3NH4C2NCH2C3H4CH3CH7CHCH3CH6CHC2HCHCH3CHCHSH2CNH4CH3C2H2SHSCFeS2HFeSC2SHFeSHSH2CH2CHCHC4H2CH5C6H8FeC4H5NCH2CH2CH3CH4CH4C2HC2H3CH4CH4CH6C2HCH3CH7CNHC3FeC2FeHSH2CH2CSFeSFeHC2H6C2FeS2FeS2FeSFeHS2FeS2FeS2FeSFeS3H3CH2C4H2C6H5C6H4C3HC2H2C6H4CHNC10HCH10NH11CH5NC6H2C2H5C2H3C4H3CSC2HSH7CH2CH8C2H6SHCH4SHCH2CHCH3CHCHC2H16CH3CH5NC2H5C4HC2FeSCFeS2FeSFeCS2FeS2FeS2FeSFeS3CH2C4H3C6H5CHC7H4CNH5C5H3C3HCHCNC9HCH12SH14CH2NC12H4C2H6CH12CHCH3C2HCNC2HC3HC4H11CH2CH4CH7CH7CH5CH4CH6CH4C2H4CH6CH4CHC3SHNH4C2H3CH3CH2CH3CHCH5CSH3FeS2H5SFeSCFeSFeSHSHC6H12SCH2CHSCH2CH2C2HCFeHCHNC2HFeH10NH4CHCHCHCHCHCH3CHCHFeC2H2CHCHCH2CHCH2CH5CH4CSC2HCHS2CFeSHFeS2FeHFeS3FeS2FeS2FeSFeS3H2C2H2C2H6CHC6H4C7H6C2HCHNC7HCH12CSH8FeHCSHC2HSH2C2HCH3CH4CHCHCSCHC2HC2HCH2CH2CNHC3H2CH9CH2NC12H25CHCHCH6CHCH3CH6CHC3H2CHCHC3HCNHCHCH14CHCH3SFeS2FeS2FeSFeS3FeS2FeS2FeSFeS5HC3H3CH3C6H7NHC3HC7H6CHC3H4CHC2H3CHC2H2CH3NHFeHCH2CHCHCH2CHCH2CH4CH2CH3CHNC10H18CH6CHNC10HCHCH8CH11C3HCH4CH7CH3C2H3CH5C2H4SCHCHCH6CH6CHCH2CH4CSCHSH2SCFeSHSFeS2HFeHFeCS2H2CH2C2H2CH2C8H5NH2C2H4CH2CH3CHCNC3HCH5CHFeH4CH6SCHCH2CH2C4HCH4C2H4CH7CHCH6Fe2CH7CS2FeS2FeS2FeSFeS3FeS2FeS2FeCFeS3HSCH4CH4C6H3C6H4C6H5C2H2NC12H28CHCH3C3H2CHCHCHCHCHCHNC2H3CHC2HC2H2CH2NC2NC3HCH3CH4SH6CHCNCH5CHCH7CH3CH10C2H2CH2CHCH4C2HCHCHCH3C2H3NHCHCH4CH3C3HCHCH10C2
_chemical_formula_sum              "H1536 Fe96 S192 C864 N48"
_cell_length_a       47.0902
_cell_length_b       46.8959
_cell_length_c       47.5409
_cell_angle_alpha    86.2918
_cell_angle_beta     86.5744
_cell_angle_gamma    86.4846

_space_group_name_H-M_alt    "P 1"
_space_group_IT_number       1

loop_
  _space_group_symop_operation_xyz
  'x, y, z'

loop_
  _atom_site_type_symbol
  _atom_site_label
  _atom_site_symmetry_multiplicity
  _atom_site_fract_x
  _atom_site_fract_y
  _atom_site_fract_z
  _atom_site_occupancy
  H   H1        1.0  0.47797  0.12920  0.19322  1.0000
  H   H2        1.0  0.27824  0.23917  0.23204  1.0000
  Fe  Fe1       1.0  0.15445  0.30385  0.26813  1.0000
  S   S1        1.0  0.17728  0.31668  0.30515  1.0000
  S   S2        1.0  0.10772  0.29669  0.28046  1.0000
  Fe  Fe2       1.0  0.20945  0.30640  0.22999  1.0000
  S   S3        1.0  0.23448  0.32116  0.26439  1.0000
  S   S4        1.0  0.23160  0.29557  0.18773  1.0000
  Fe  Fe3       1.0  0.21327  0.28638  0.29120  1.0000
  H   H3        1.0  0.05422  0.32411  0.19603  1.0000
  Fe  Fe4       1.0  0.19583  0.35010  0.27453  1.0000
  S   S5        1.0  0.19400  0.39482  0.29115  1.0000
  S   S6        1.0  0.18929  0.27069  0.25662  1.0000
  S   S7        1.0  0.17195  0.33815  0.23790  1.0000
  Fe  Fe5       1.0  0.38991  0.23888  0.15782  1.0000
  S   S8        1.0  0.36674  0.21074  0.13195  1.0000
  S   S9        1.0  0.36701  0.27616  0.17911  1.0000
  Fe  Fe6       1.0  0.44673  0.20234  0.15132  1.0000
  S   S10       1.0  0.42650  0.17192  0.12490  1.0000
  H   H4        1.0  0.00221  0.42226  0.25963  1.0000
  Fe  Fe7       1.0  0.40617  0.21116  0.10257  1.0000
  S   S11       1.0  0.41035  0.22673  0.05597  1.0000
  Fe  Fe8       1.0  0.38936  0.17490  0.15715  1.0000
  S   S12       1.0  0.36699  0.13702  0.17859  1.0000
  S   S13       1.0  0.42848  0.24150  0.12759  1.0000
  S   S14       1.0  0.41059  0.20317  0.18440  1.0000
  C   C1        1.0  0.19062  0.42778  0.27100  1.0000
  C   C2        1.0  0.18340  0.45297  0.28499  1.0000
  H   H5        1.0  0.46983  0.19551  0.26965  1.0000
  C   C3        1.0  0.19595  0.42962  0.24173  1.0000
  H   H6        1.0  0.17931  0.45171  0.30767  1.0000
  H   H7        1.0  0.20172  0.41039  0.23078  1.0000
  C   C4        1.0  0.26921  0.28954  0.18597  1.0000
  C   C5        1.0  0.28615  0.30219  0.20430  1.0000
  C   C6        1.0  0.31600  0.29782  0.20198  1.0000
  C   C7        1.0  0.32930  0.28024  0.18173  1.0000
  C   C8        1.0  0.31241  0.26728  0.16352  1.0000
  C   C9        1.0  0.28252  0.27230  0.16535  1.0000
  H   H8        1.0  0.27639  0.31609  0.21977  1.0000
  H   H9        1.0  0.32884  0.30816  0.21600  1.0000
  H   H10       1.0  0.32236  0.25384  0.14775  1.0000
  H   H11       1.0  0.26962  0.26255  0.15097  1.0000
  C   C10       1.0  0.36576  0.12276  0.27548  1.0000
  C   C11       1.0  0.36047  0.10038  0.25873  1.0000
  C   C12       1.0  0.36024  0.10511  0.22911  1.0000
  C   C13       1.0  0.36536  0.13217  0.21599  1.0000
  C   C14       1.0  0.36940  0.15474  0.23289  1.0000
  C   C15       1.0  0.36999  0.14997  0.26240  1.0000
  H   H12       1.0  0.35729  0.07926  0.26854  1.0000
  H   H13       1.0  0.35672  0.08754  0.21630  1.0000
  H   H14       1.0  0.37209  0.17594  0.22329  1.0000
  H   H15       1.0  0.37386  0.16747  0.27518  1.0000
  H   H16       1.0  0.25789  0.16888  0.28024  1.0000
  H   H17       1.0  0.01486  0.27211  0.30371  1.0000
  H   H18       1.0  0.08391  0.19859  0.26479  1.0000
  C   C16       1.0  0.19458  0.45649  0.22669  1.0000
  H   H19       1.0  0.32731  0.20027  0.25613  1.0000
  H   H20       1.0  0.00557  0.32178  0.27532  1.0000
  C   C17       1.0  0.39566  0.21591  0.02514  1.0000
  C   C18       1.0  0.37842  0.19267  0.02564  1.0000
  H   H21       1.0  0.42147  0.10195  0.18499  1.0000
  H   H22       1.0  0.37368  0.18064  0.04537  1.0000
  H   H23       1.0  0.45652  0.08381  0.18510  1.0000
  C   C19       1.0  0.24072  0.22037  0.32543  1.0000
  H   H24       1.0  0.05452  0.24412  0.25698  1.0000
  C   C20       1.0  0.05333  0.32147  0.21884  1.0000
  C   C21       1.0  0.07868  0.31506  0.23289  1.0000
  C   C22       1.0  0.07755  0.31010  0.26223  1.0000
  C   C23       1.0  0.05115  0.31330  0.27746  1.0000
  H   H25       1.0  0.09886  0.31259  0.22093  1.0000
  H   H26       1.0  0.05023  0.30990  0.30021  1.0000
  H   H27       1.0  0.23508  0.19543  0.24874  1.0000
  S   S15       1.0  0.37054  0.11689  0.31213  1.0000
  H   H28       1.0  0.19926  0.45778  0.20410  1.0000
  H   H29       1.0  0.35410  0.16680  0.00101  1.0000
  H   H30       1.0  0.12621  0.45371  0.24725  1.0000
  C   C24       1.0  0.02675  0.32316  0.23398  1.0000
  C   C25       1.0  0.36748  0.18481  0.00045  1.0000
  H   H31       1.0  0.45440  0.17909  0.22261  1.0000
  H   H32       1.0  0.02125  0.21770  0.23319  1.0000
  H   H33       1.0  0.43398  0.16340  0.00707  1.0000
  H   H34       1.0  0.27370  0.21892  0.26446  1.0000
  H   H35       1.0  0.48199  0.16666  0.04770  1.0000
  C   C26       1.0  0.04392  0.40040  0.25112  1.0000
  C   C27       1.0  0.33328  0.26768  0.01125  1.0000
  C   C28       1.0  0.44766  0.09262  0.32032  1.0000
  H   H36       1.0  0.11056  0.36423  0.27072  1.0000
  C   C29       1.0  0.99891  0.24887  0.20680  1.0000
  H   H37       1.0  0.07949  0.37506  0.29274  1.0000
  H   H38       1.0  0.14609  0.39706  0.23490  1.0000
  C   C30       1.0  0.40210  0.23098  0.99921  1.0000
  H   H39       1.0  0.13131  0.41170  0.27726  1.0000
  H   H40       1.0  0.05388  0.37891  0.25647  1.0000
  H   H41       1.0  0.46316  0.13502  0.04215  1.0000
  H   H42       1.0  0.31027  0.16107  0.23835  1.0000
  H   H43       1.0  0.44580  0.22948  0.23437  1.0000
  N   N1        1.0  0.27716  0.19359  0.22766  1.0000
  H   H44       1.0  0.99828  0.17906  0.32374  1.0000
  H   H45       1.0  0.11398  0.34424  0.31940  1.0000
  H   H46       1.0  0.25996  0.44963  0.22724  1.0000
  H   H47       1.0  0.45731  0.09807  0.23452  1.0000
  H   H48       1.0  0.09410  0.46376  0.23015  1.0000
  H   H49       1.0  0.14069  0.36992  0.31161  1.0000
  H   H50       1.0  0.07164  0.47422  0.28098  1.0000
  H   H51       1.0  0.31289  0.23935  0.28786  1.0000
  H   H52       1.0  0.04268  0.40262  0.22779  1.0000
  H   H53       1.0  0.32882  0.22575  0.22620  1.0000
  C   C31       1.0  0.05626  0.23459  0.27883  1.0000
  C   C32       1.0  0.21543  0.20654  0.32362  1.0000
  H   H54       1.0  0.08764  0.20692  0.30110  1.0000
  C   C33       1.0  0.45488  0.17106  0.01177  1.0000
  C   C34       1.0  0.46168  0.15879  0.04133  1.0000
  C   C35       1.0  0.13255  0.40688  0.21818  1.0000
  N   N2        1.0  0.45915  0.14054  0.25013  1.0000
  C   C36       1.0  0.44852  0.12027  0.23021  1.0000
  C   C37       1.0  0.45017  0.13138  0.28034  1.0000
  C   C38       1.0  0.44528  0.16988  0.24314  1.0000
  C   C39       1.0  0.10256  0.45373  0.25010  1.0000
  C   C40       1.0  0.10787  0.40973  0.28017  1.0000
  C   C41       1.0  0.44742  0.19273  0.26509  1.0000
  C   C42       1.0  0.44961  0.09874  0.28830  1.0000
  C   C43       1.0  0.27362  0.41799  0.25899  1.0000
  C   C44       1.0  0.00042  0.23003  0.23420  1.0000
  H   H55       1.0  0.25209  0.41468  0.26904  1.0000
  H   H56       1.0  0.42497  0.11904  0.23380  1.0000
  H   H57       1.0  0.98757  0.44440  0.17286  1.0000
  H   H58       1.0  0.46357  0.14114  0.29525  1.0000
  H   H59       1.0  0.42784  0.13959  0.28554  1.0000
  H   H60       1.0  0.42227  0.16828  0.24021  1.0000
  H   H61       1.0  0.45284  0.19467  0.01260  1.0000
  H   H62       1.0  0.99102  0.46964  0.23067  1.0000
  C   C45       1.0  0.28029  0.16215  0.27436  1.0000
  C   C46       1.0  0.01344  0.40110  0.26418  1.0000
  H   H63       1.0  0.35586  0.27305  0.01146  1.0000
  H   H64       1.0  0.31351  0.26515  0.25788  1.0000
  H   H65       1.0  0.43560  0.18670  0.28529  1.0000
  H   H66       1.0  0.43054  0.09027  0.27973  1.0000
  C   C47       1.0  0.26600  0.47139  0.26572  1.0000
  H   H67       1.0  0.43606  0.23778  0.27030  1.0000
  C   C48       1.0  0.45481  0.12764  0.19828  1.0000
  H   H68       1.0  0.10138  0.42132  0.29941  1.0000
  H   H69       1.0  0.34599  0.24586  0.26797  1.0000
  H   H70       1.0  0.33220  0.24415  0.01484  1.0000
  C   C49       1.0  0.44462  0.10462  0.18056  1.0000
  H   H71       1.0  0.00147  0.38443  0.25521  1.0000
  C   C50       1.0  0.02585  0.31999  0.26344  1.0000
  C   C51       1.0  0.06086  0.42507  0.26113  1.0000
  C   C52       1.0  0.09455  0.47428  0.27411  1.0000
  C   C53       1.0  0.32273  0.24419  0.26637  1.0000
  C   C54       1.0  0.10245  0.37793  0.28796  1.0000
  H   H72       1.0  0.25840  0.17691  0.17480  1.0000
  H   H73       1.0  0.28877  0.16334  0.13416  1.0000
  C   C55       1.0  0.28534  0.13108  0.28534  1.0000
  C   C56       1.0  0.29126  0.19543  0.19834  1.0000
  H   H74       1.0  0.03066  0.19784  0.27545  1.0000
  H   H75       1.0  0.09457  0.38549  0.23110  1.0000
  H   H76       1.0  0.28824  0.21741  0.18849  1.0000
  C   C57       1.0  0.24511  0.19458  0.22699  1.0000
  C   C58       1.0  0.29687  0.17811  0.14875  1.0000
  C   C59       1.0  0.00064  0.25467  0.31066  1.0000
  C   C60       1.0  0.23127  0.22044  0.20974  1.0000
  H   H77       1.0  0.23797  0.17452  0.21908  1.0000
  H   H78       1.0  0.01965  0.46695  0.20397  1.0000
  H   H79       1.0  0.27724  0.14744  0.23266  1.0000
  C   C61       1.0  0.28524  0.21862  0.24329  1.0000
  H   H80       1.0  0.31480  0.19164  0.19921  1.0000
  H   H81       1.0  0.41150  0.22026  0.25049  1.0000
  H   H82       1.0  0.23340  0.24038  0.22053  1.0000
  H   H83       1.0  0.29317  0.20046  0.13992  1.0000
  H   H84       1.0  0.26867  0.11774  0.27843  1.0000
  H   H85       1.0  0.32009  0.17307  0.15024  1.0000
  H   H86       1.0  0.44355  0.14813  0.19152  1.0000
  C   C62       1.0  0.99681  0.24843  0.26030  1.0000
  H   H87       1.0  0.29438  0.17532  0.28542  1.0000
  C   C63       1.0  0.28158  0.17399  0.17781  1.0000
  C   C64       1.0  0.19952  0.21692  0.20703  1.0000
  C   C65       1.0  0.43441  0.22179  0.25432  1.0000
  H   H88       1.0  0.24112  0.22323  0.18808  1.0000
  H   H89       1.0  0.19634  0.19829  0.19453  1.0000
  H   H90       1.0  0.18840  0.21387  0.22819  1.0000
  H   H91       1.0  0.18988  0.23649  0.19606  1.0000
  C   C66       1.0  0.28693  0.16541  0.24208  1.0000
  N   N3        1.0  0.32297  0.27788  0.06396  1.0000
  C   C67       1.0  0.31461  0.28379  0.03389  1.0000
  C   C68       1.0  0.29986  0.29060  0.08350  1.0000
  C   C69       1.0  0.35115  0.29080  0.06697  1.0000
  C   C70       1.0  0.32642  0.24619  0.07150  1.0000
  C   C71       1.0  0.30009  0.22873  0.06773  1.0000
  H   H92       1.0  0.13061  0.36707  0.19700  1.0000
  C   C72       1.0  0.36105  0.29126  0.09752  1.0000
  C   C73       1.0  0.29525  0.32367  0.08103  1.0000
  C   C74       1.0  0.27329  0.33396  0.10374  1.0000
  C   C75       1.0  0.30770  0.19658  0.07090  1.0000
  H   H93       1.0  0.29199  0.27904  0.03177  1.0000
  C   C76       1.0  0.38952  0.30517  0.09769  1.0000
  H   H94       1.0  0.31545  0.30705  0.02770  1.0000
  H   H95       1.0  0.30656  0.12223  0.27779  1.0000
  H   H96       1.0  0.27895  0.28210  0.07974  1.0000
  H   H97       1.0  0.30374  0.28379  0.10584  1.0000
  H   H98       1.0  0.35100  0.31308  0.05733  1.0000
  H   H99       1.0  0.36849  0.27889  0.05485  1.0000
  H   H100      1.0  0.34528  0.23640  0.05969  1.0000
  H   H101      1.0  0.33117  0.24239  0.09402  1.0000
  H   H102      1.0  0.29131  0.23325  0.04670  1.0000
  H   H103      1.0  0.28306  0.23382  0.08412  1.0000
  C   C77       1.0  0.10069  0.40804  0.22858  1.0000
  H   H104      1.0  0.12570  0.39931  0.17435  1.0000
  H   H105      1.0  0.36407  0.26929  0.10721  1.0000
  H   H106      1.0  0.34552  0.30348  0.11126  1.0000
  H   H107      1.0  0.31519  0.33434  0.08371  1.0000
  H   H108      1.0  0.28727  0.33095  0.06011  1.0000
  H   H109      1.0  0.26989  0.35762  0.10138  1.0000
  H   H110      1.0  0.25254  0.32436  0.10183  1.0000
  H   H111      1.0  0.28088  0.32809  0.12518  1.0000
  H   H112      1.0  0.28800  0.18464  0.07159  1.0000
  H   H113      1.0  0.32164  0.18982  0.05259  1.0000
  H   H114      1.0  0.31885  0.19088  0.09060  1.0000
  C   C78       1.0  0.31755  0.22056  0.24693  1.0000
  H   H115      1.0  0.29666  0.45016  0.23500  1.0000
  H   H116      1.0  0.40626  0.29309  0.08505  1.0000
  H   H117      1.0  0.38758  0.32773  0.08902  1.0000
  H   H118      1.0  0.39617  0.30502  0.11975  1.0000
  H   H119      1.0  0.28651  0.15159  0.18586  1.0000
  H   H120      1.0  0.24268  0.46918  0.26997  1.0000
  H   H121      1.0  0.01652  0.26374  0.20478  1.0000
  H   H122      1.0  0.41547  0.24899  0.99860  1.0000
  H   H123      1.0  0.08838  0.41821  0.21090  1.0000
  C   C79       1.0  0.99625  0.47034  0.20760  1.0000
  H   H124      1.0  0.05092  0.44487  0.25068  1.0000
  H   H125      1.0  0.13973  0.42854  0.21175  1.0000
  H   H126      1.0  0.05560  0.42689  0.28415  1.0000
  H   H127      1.0  0.16065  0.38786  0.18578  1.0000
  H   H128      1.0  0.03452  0.20752  0.31017  1.0000
  N   N4        1.0  0.09294  0.42353  0.25512  1.0000
  H   H129      1.0  0.44437  0.16579  0.05674  1.0000
  C   C80       1.0  0.13756  0.38918  0.19225  1.0000
  S   S16       1.0  0.99531  0.32792  0.21514  1.0000
  C   C81       1.0  0.08412  0.21613  0.27938  1.0000
  H   H130      1.0  0.44823  0.11103  0.15778  1.0000
  H   H131      1.0  0.46858  0.08643  0.27976  1.0000
  H   H132      1.0  0.05809  0.25213  0.29307  1.0000
  H   H133      1.0  0.27577  0.46509  0.28615  1.0000
  H   H134      1.0  0.28956  0.41460  0.27536  1.0000
  C   C82       1.0  0.03033  0.21671  0.28853  1.0000
  H   H135      1.0  0.19660  0.21863  0.31654  1.0000
  H   H136      1.0  0.99155  0.42460  0.20627  1.0000
  C   C83       1.0  0.18772  0.48170  0.24071  1.0000
  H   H137      1.0  0.01352  0.39652  0.28740  1.0000
  H   H138      1.0  0.00093  0.23528  0.18842  1.0000
  H   H139      1.0  0.44513  0.06942  0.32535  1.0000
  N   N5        1.0  0.00160  0.23285  0.28857  1.0000
  C   C84       1.0  0.11745  0.36730  0.31460  1.0000
  H   H140      1.0  0.32788  0.47068  0.25825  1.0000
  S   S17       1.0  0.24317  0.25760  0.31782  1.0000
  H   H141      1.0  0.10726  0.46799  0.29270  1.0000
  H   H142      1.0  0.10220  0.22960  0.27250  1.0000
  C   C85       1.0  0.18179  0.47983  0.26991  1.0000
  H   H143      1.0  0.28456  0.12984  0.30870  1.0000
  C   C86       1.0  0.27489  0.44804  0.24462  1.0000
  H   H144      1.0  0.01107  0.26644  0.25655  1.0000
  H   H145      1.0  0.27830  0.40173  0.24310  1.0000
  Fe  Fe9       1.0  0.27375  0.10467  0.61139  1.0000
  S   S18       1.0  0.24405  0.07811  0.63974  1.0000
  S   S19       1.0  0.26124  0.10408  0.56566  1.0000
  H   H146      1.0  0.26236  0.13566  0.44292  1.0000
  H   H147      1.0  0.29297  0.03487  0.60575  1.0000
  H   H148      1.0  0.24304  0.27759  0.40012  1.0000
  H   H149      1.0  0.23061  0.10334  0.41057  1.0000
  H   H150      1.0  0.22284  0.10248  0.44830  1.0000
  S   S20       1.0  0.31366  0.08613  0.63097  1.0000
  S   S21       1.0  0.26985  0.14207  0.63955  1.0000
  H   H151      1.0  0.27955  0.20774  0.59180  1.0000
  Fe  Fe10      1.0  0.32051  0.08307  0.40610  1.0000
  S   S22       1.0  0.28139  0.06137  0.39627  1.0000
  S   S23       1.0  0.33525  0.09006  0.44995  1.0000
  Fe  Fe11      1.0  0.31025  0.03804  0.36444  1.0000
  C   C87       1.0  0.33528  0.02142  0.59141  1.0000
  Fe  Fe12      1.0  0.27704  0.09659  0.36135  1.0000
  H   H152      1.0  0.30509  0.00095  0.55245  1.0000
  S   S24       1.0  0.34974  0.05863  0.37585  1.0000
  S   S25       1.0  0.31438  0.11927  0.37355  1.0000
  C   C88       1.0  0.28850  0.18377  0.43927  1.0000
  N   N6        1.0  0.25675  0.18182  0.43727  1.0000
  C   C89       1.0  0.24496  0.20345  0.41551  1.0000
  H   H153      1.0  0.29951  0.17276  0.39535  1.0000
  C   C90       1.0  0.33796  0.18098  0.41454  1.0000
  H   H154      1.0  0.21153  0.15500  0.40724  1.0000
  H   H155      1.0  0.27176  0.29013  0.63990  1.0000
  H   H156      1.0  0.34580  0.19556  0.42948  1.0000
  C   C91       1.0  0.28252  0.09862  0.53417  1.0000
  C   C92       1.0  0.31222  0.09890  0.53308  1.0000
  C   C93       1.0  0.32804  0.09595  0.50717  1.0000
  C   C94       1.0  0.31441  0.09236  0.48219  1.0000
  C   C95       1.0  0.28476  0.09124  0.48346  1.0000
  C   C96       1.0  0.26893  0.09452  0.50929  1.0000
  H   H157      1.0  0.32299  0.10199  0.55204  1.0000
  H   H158      1.0  0.35099  0.09673  0.50641  1.0000
  H   H159      1.0  0.27409  0.08805  0.46450  1.0000
  H   H160      1.0  0.24595  0.09413  0.50996  1.0000
  H   H161      1.0  0.26180  0.14852  0.40745  1.0000
  H   H162      1.0  0.00937  0.24519  0.33065  1.0000
  H   H163      1.0  0.24490  0.19269  0.52411  1.0000
  C   C97       1.0  0.30342  0.01662  0.59458  1.0000
  S   S26       1.0  0.23669  0.12419  0.35171  1.0000
  S   S27       1.0  0.30183  0.07086  0.32849  1.0000
  C   C98       1.0  0.25107  0.02288  0.48389  1.0000
  H   H164      1.0  0.27008  0.23889  0.42748  1.0000
  H   H165      1.0  0.21884  0.19158  0.46407  1.0000
  C   C99       1.0  0.26488  0.20447  0.33481  1.0000
  H   H166      1.0  0.28286  0.16336  0.34906  1.0000
  H   H167      1.0  0.19441  0.10860  0.42441  1.0000
  H   H168      1.0  0.25436  0.19915  0.39412  1.0000
  H   H169      1.0  0.23796  0.15608  0.53443  1.0000
  H   H170      1.0  0.21123  0.17857  0.51691  1.0000
  C   C100      1.0  0.24256  0.25485  0.39502  1.0000
  C   C101      1.0  0.21050  0.01233  0.59148  1.0000
  H   H171      1.0  0.20408  0.02080  0.63610  1.0000
  H   H172      1.0  0.19462  0.05093  0.61197  1.0000
  H   H173      1.0  0.17188  0.02130  0.61744  1.0000
  H   H174      1.0  0.23294  0.24181  0.43850  1.0000
  H   H175      1.0  0.31021  0.21716  0.63172  1.0000
  C   C102      1.0  0.24834  0.01913  0.53768  1.0000
  H   H176      1.0  0.28637  0.02703  0.50944  1.0000
  H   H177      1.0  0.22133  0.25144  0.38718  1.0000
  H   H178      1.0  0.24420  0.04278  0.53838  1.0000
  C   C103      1.0  0.24838  0.23523  0.42120  1.0000
  N   N7        1.0  0.26022  0.00675  0.56506  1.0000
  C   C104      1.0  0.23453  0.17358  0.51791  1.0000
  H   H179      1.0  0.29259  0.03736  0.55540  1.0000
  H   H180      1.0  0.23719  0.14426  0.48506  1.0000
  C   C105      1.0  0.29066  0.01530  0.56540  1.0000
  C   C106      1.0  0.26359  0.22432  0.59952  1.0000
  H   H181      1.0  0.27049  0.15887  0.49169  1.0000
  C   C107      1.0  0.24738  0.16406  0.48951  1.0000
  H   H182      1.0  0.26075  0.20565  0.64150  1.0000
  C   C108      1.0  0.32908  0.98865  0.44302  1.0000
  H   H183      1.0  0.34216  0.15841  0.42259  1.0000
  H   H184      1.0  0.25919  0.25070  0.37798  1.0000
  C   C109      1.0  0.30614  0.18727  0.41076  1.0000
  C   C110      1.0  0.24225  0.01974  0.58891  1.0000
  H   H185      1.0  0.30311  0.20947  0.40138  1.0000
  H   H186      1.0  0.23322  0.00876  0.48225  1.0000
  H   H187      1.0  0.35464  0.22537  0.64079  1.0000
  H   H188      1.0  0.27473  0.99132  0.50900  1.0000
  Fe  Fe13      1.0  0.33930  0.09275  0.34200  1.0000
  C   C111      1.0  0.21995  0.14520  0.42722  1.0000
  C   C112      1.0  0.24225  0.18762  0.46567  1.0000
  C   C113      1.0  0.26731  0.01407  0.51028  1.0000
  H   H189      1.0  0.10932  0.31972  0.63865  1.0000
  H   H190      1.0  0.24305  0.04353  0.58685  1.0000
  H   H191      1.0  0.19954  0.01926  0.57200  1.0000
  H   H192      1.0  0.25953  0.98582  0.35554  1.0000
  H   H193      1.0  0.22172  0.20130  0.41391  1.0000
  H   H194      1.0  0.19783  0.22733  0.64618  1.0000
  H   H195      1.0  0.19464  0.16660  0.33071  1.0000
  H   H196      1.0  0.01567  0.27397  0.65071  1.0000
  H   H197      1.0  0.34706  0.00328  0.58113  1.0000
  C   C114      1.0  0.29525  0.23509  0.63841  1.0000
  H   H198      1.0  0.25084  0.01338  0.60975  1.0000
  H   H199      1.0  0.24205  0.21789  0.59513  1.0000
  H   H200      1.0  0.34357  0.02292  0.61263  1.0000
  H   H201      1.0  0.30053  0.99692  0.60817  1.0000
  H   H202      1.0  0.33915  0.04170  0.57872  1.0000
  S   S28       1.0  0.32076  0.98989  0.36239  1.0000
  H   H203      1.0  0.22735  0.01045  0.53464  1.0000
  H   H204      1.0  0.24938  0.20789  0.47316  1.0000
  H   H205      1.0  0.29759  0.16435  0.45111  1.0000
  C   C115      1.0  0.23860  0.16118  0.34130  1.0000
  H   H206      1.0  0.24242  0.04542  0.48442  1.0000
  C   C116      1.0  0.21434  0.17709  0.33179  1.0000
  H   H207      1.0  0.10888  0.37928  0.33295  1.0000
  H   H208      1.0  0.20883  0.17480  0.64953  1.0000
  H   H209      1.0  0.20624  0.15330  0.44501  1.0000
  C   C117      1.0  0.25162  0.15219  0.42873  1.0000
  H   H210      1.0  0.29329  0.20187  0.45192  1.0000
  H   H211      1.0  0.34996  0.18414  0.39384  1.0000
  C   C118      1.0  0.21686  0.11291  0.42768  1.0000
  C   C119      1.0  0.19439  0.02731  0.61576  1.0000
  H   H212      1.0  0.09471  0.21803  0.65639  1.0000
  H   H213      1.0  0.34106  0.98911  0.42215  1.0000
  H   H214      1.0  0.13684  0.18369  0.65023  1.0000
  Fe  Fe14      1.0  0.28377  0.06081  0.65999  1.0000
  H   H215      1.0  0.34420  0.98350  0.45992  1.0000
  C   C120      1.0  0.26389  0.17510  0.34245  1.0000
  H   H216      1.0  0.31891  0.01036  0.44592  1.0000
  H   H217      1.0  0.30121  0.25387  0.62424  1.0000
  C   C121      1.0  0.26532  0.22685  0.63125  1.0000
  H   H218      1.0  0.10021  0.26949  0.65194  1.0000
  H   H219      1.0  0.26566  0.02108  0.46476  1.0000
  H   H220      1.0  0.28457  0.21492  0.33616  1.0000
  H   H221      1.0  0.26731  0.24517  0.58783  1.0000
  H   H222      1.0  0.20865  0.98895  0.59582  1.0000
  H   H223      1.0  0.33166  0.27054  0.65617  1.0000
  H   H224      1.0  0.24847  0.24296  0.63792  1.0000
  H   H225      1.0  0.38544  0.26198  0.65684  1.0000
  H   H226      1.0  0.42894  0.10465  0.33006  1.0000
  H   H227      1.0  0.46728  0.09870  0.32971  1.0000
  Fe  Fe15      1.0  0.17966  0.35812  0.73977  1.0000
  S   S29       1.0  0.16331  0.34889  0.78457  1.0000
  S   S30       1.0  0.19245  0.40132  0.72014  1.0000
  Fe  Fe16      1.0  0.17516  0.29602  0.72456  1.0000
  S   S31       1.0  0.15824  0.28245  0.76808  1.0000
  H   H228      1.0  0.33096  0.25830  0.69245  1.0000
  Fe  Fe17      1.0  0.13083  0.32357  0.76562  1.0000
  S   S32       1.0  0.08479  0.32595  0.78354  1.0000
  Fe  Fe18      1.0  0.19222  0.30879  0.78295  1.0000
  S   S33       1.0  0.21700  0.28974  0.81992  1.0000
  S   S34       1.0  0.14533  0.33535  0.72089  1.0000
  S   S35       1.0  0.21095  0.31974  0.73942  1.0000
  Fe  Fe19      1.0  0.42674  0.20473  0.85561  1.0000
  S   S36       1.0  0.40103  0.16814  0.87347  1.0000
  H   H229      1.0  0.45455  0.21323  0.96890  1.0000
  Fe  Fe20      1.0  0.37246  0.24221  0.84547  1.0000
  S   S37       1.0  0.34403  0.20838  0.86357  1.0000
  S   S38       1.0  0.35218  0.28284  0.82477  1.0000
  Fe  Fe21      1.0  0.37523  0.20106  0.89778  1.0000
  S   S39       1.0  0.36037  0.18848  0.94332  1.0000
  Fe  Fe22      1.0  0.37243  0.17879  0.83764  1.0000
  S   S40       1.0  0.35104  0.14531  0.81480  1.0000
  S   S41       1.0  0.40198  0.23742  0.88171  1.0000
  S   S42       1.0  0.39983  0.21282  0.81779  1.0000
  S   S43       1.0  0.27957  0.09356  0.69241  1.0000
  H   H230      1.0  0.46766  0.25877  0.90280  1.0000
  C   C122      1.0  0.37406  0.19976  0.97448  1.0000
  C   C123      1.0  0.39150  0.22289  0.97398  1.0000
  H   H231      1.0  0.09536  0.46421  0.78374  1.0000
  H   H232      1.0  0.39667  0.23462  0.95416  1.0000
  H   H233      1.0  0.08740  0.20127  0.71100  1.0000
  C   C124      1.0  0.34873  0.14618  0.77765  1.0000
  C   C125      1.0  0.36504  0.16375  0.75894  1.0000
  C   C126      1.0  0.36244  0.16330  0.72950  1.0000
  C   C127      1.0  0.34327  0.14559  0.71854  1.0000
  C   C128      1.0  0.32682  0.12845  0.73745  1.0000
  C   C129      1.0  0.32981  0.12840  0.76668  1.0000
  H   H234      1.0  0.37986  0.17745  0.76711  1.0000
  H   H235      1.0  0.37545  0.17662  0.71521  1.0000
  H   H236      1.0  0.31167  0.11523  0.72967  1.0000
  H   H237      1.0  0.31704  0.11482  0.78094  1.0000
  C   C130      1.0  0.25452  0.28973  0.82125  1.0000
  C   C131      1.0  0.26744  0.27608  0.84478  1.0000
  C   C132      1.0  0.29726  0.27398  0.84606  1.0000
  C   C133      1.0  0.31453  0.28591  0.82397  1.0000
  C   C134      1.0  0.30160  0.30047  0.80083  1.0000
  C   C135      1.0  0.27171  0.30215  0.79932  1.0000
  H   H238      1.0  0.25431  0.26684  0.86205  1.0000
  H   H239      1.0  0.30690  0.26335  0.86429  1.0000
  H   H240      1.0  0.31481  0.31001  0.78380  1.0000
  H   H241      1.0  0.26202  0.31295  0.78120  1.0000
  H   H242      1.0  0.44943  0.21192  0.91721  1.0000
  H   H243      1.0  0.39402  0.13433  0.96312  1.0000
  H   H244      1.0  0.45180  0.25885  0.93825  1.0000
  C   C136      1.0  0.34658  0.99809  0.75412  1.0000
  H   H245      1.0  0.10144  0.42151  0.67835  1.0000
  C   C137      1.0  0.44026  0.12960  0.95668  1.0000
  C   C138      1.0  0.25282  0.45222  0.77790  1.0000
  H   H246      1.0  0.08879  0.39081  0.72143  1.0000
  C   C139      1.0  0.18348  0.45986  0.71904  1.0000
  C   C140      1.0  0.18047  0.43380  0.73499  1.0000
  C   C141      1.0  0.16772  0.43410  0.76226  1.0000
  C   C142      1.0  0.15708  0.46009  0.77308  1.0000
  H   H247      1.0  0.25959  0.31849  0.69619  1.0000
  H   H248      1.0  0.16604  0.41424  0.77496  1.0000
  C   C143      1.0  0.46991  0.24989  0.92486  1.0000
  H   H249      1.0  0.10229  0.32923  0.67463  1.0000
  C   C144      1.0  0.02919  0.33902  0.72073  1.0000
  C   C145      1.0  0.05447  0.33691  0.73533  1.0000
  C   C146      1.0  0.05359  0.32927  0.76425  1.0000
  C   C147      1.0  0.02714  0.32437  0.77850  1.0000
  H   H250      1.0  0.25555  0.25645  0.68025  1.0000
  H   H251      1.0  0.03010  0.34461  0.69826  1.0000
  H   H252      1.0  0.07462  0.34107  0.72420  1.0000
  H   H253      1.0  0.02623  0.31865  0.80094  1.0000
  H   H254      1.0  0.24641  0.42019  0.81281  1.0000
  H   H255      1.0  0.25794  0.40581  0.77950  1.0000
  H   H256      1.0  0.14709  0.46010  0.79417  1.0000
  H   H257      1.0  0.06001  0.45820  0.79546  1.0000
  C   C148      1.0  0.38218  0.24158  0.66950  1.0000
  H   H258      1.0  0.19356  0.45980  0.69798  1.0000
  H   H259      1.0  0.18889  0.17319  0.73893  1.0000
  H   H260      1.0  0.01488  0.26039  0.71493  1.0000
  N   N8        1.0  0.47334  0.17157  0.95917  1.0000
  H   H261      1.0  0.32408  0.04380  0.71093  1.0000
  H   H262      1.0  0.05765  0.24485  0.66633  1.0000
  H   H263      1.0  0.25115  0.20751  0.68605  1.0000
  H   H264      1.0  0.02770  0.42355  0.79939  1.0000
  H   H265      1.0  0.48196  0.25092  0.83740  1.0000
  Fe  Fe23      1.0  0.24306  0.11419  0.66898  1.0000
  H   H266      1.0  0.10744  0.36457  0.82269  1.0000
  C   C149      1.0  0.99822  0.40827  0.77216  1.0000
  C   C150      1.0  0.05200  0.24384  0.68931  1.0000
  H   H267      1.0  0.27381  0.15988  0.69919  1.0000
  C   C151      1.0  0.44516  0.16194  0.95088  1.0000
  N   N9        1.0  0.32926  0.02629  0.75396  1.0000
  C   C152      1.0  0.24766  0.04009  0.74499  1.0000
  C   C153      1.0  0.33245  0.03989  0.78147  1.0000
  H   H268      1.0  0.29764  0.30293  0.66184  1.0000
  C   C154      1.0  0.33727  0.04656  0.72906  1.0000
  C   C155      1.0  0.11832  0.41180  0.69189  1.0000
  H   H269      1.0  0.37305  0.02467  0.70556  1.0000
  C   C156      1.0  0.27616  0.04532  0.75703  1.0000
  C   C157      1.0  0.36247  0.04944  0.78671  1.0000
  C   C158      1.0  0.36322  0.06064  0.81614  1.0000
  H   H270      1.0  0.05179  0.39447  0.75706  1.0000
  H   H271      1.0  0.38468  0.06825  0.81904  1.0000
  C   C159      1.0  0.27765  0.26361  0.67941  1.0000
  H   H272      1.0  0.38417  0.04436  0.73350  1.0000
  H   H273      1.0  0.28596  0.17344  0.73075  1.0000
  H   H274      1.0  0.31836  0.05970  0.78293  1.0000
  H   H275      1.0  0.12700  0.39157  0.68291  1.0000
  C   C160      1.0  0.19117  0.18505  0.71871  1.0000
  C   C161      1.0  0.26916  0.17586  0.71530  1.0000
  H   H276      1.0  0.36972  0.00131  0.75380  1.0000
  H   H277      1.0  0.33209  0.06901  0.73448  1.0000
  H   H278      1.0  0.31131  0.21360  0.70553  1.0000
  H   H279      1.0  0.23872  0.02037  0.75525  1.0000
  C   C162      1.0  0.04958  0.41828  0.75712  1.0000
  H   H280      1.0  0.44245  0.12260  0.97919  1.0000
  H   H281      1.0  0.28388  0.06552  0.74691  1.0000
  H   H282      1.0  0.27217  0.04831  0.77997  1.0000
  C   C163      1.0  0.07452  0.45861  0.77625  1.0000
  H   H283      1.0  0.36815  0.06733  0.77136  1.0000
  C   C164      1.0  0.47279  0.20381  0.95600  1.0000
  H   H284      1.0  0.34740  0.07900  0.81878  1.0000
  H   H285      1.0  0.25039  0.03782  0.72183  1.0000
  H   H286      1.0  0.23295  0.30512  0.67519  1.0000
  H   H287      1.0  0.22169  0.41952  0.78513  1.0000
  H   H288      1.0  0.30543  0.19481  0.67541  1.0000
  C   C165      1.0  0.24410  0.42271  0.78965  1.0000
  H   H289      1.0  0.21199  0.47564  0.78143  1.0000
  S   S44       1.0  0.34052  0.14512  0.68135  1.0000
  H   H290      1.0  0.03425  0.28781  0.69562  1.0000
  H   H291      1.0  0.45570  0.11653  0.94360  1.0000
  C   C166      1.0  0.41030  0.12290  0.94942  1.0000
  C   C167      1.0  0.07965  0.40250  0.81289  1.0000
  C   C168      1.0  0.09270  0.27417  0.69801  1.0000
  C   C169      1.0  0.09563  0.43343  0.73612  1.0000
  H   H292      1.0  0.11480  0.44535  0.73926  1.0000
  C   C170      1.0  0.10626  0.40552  0.72207  1.0000
  H   H293      1.0  0.42717  0.17442  0.96128  1.0000
  C   C171      1.0  0.02668  0.26605  0.69458  1.0000
  H   H294      1.0  0.10254  0.26831  0.75364  1.0000
  S   S45       1.0  0.47403  0.19101  0.85723  1.0000
  C   C172      1.0  0.24470  0.12354  0.77514  1.0000
  H   H295      1.0  0.11533  0.41659  0.78574  1.0000
  S   S46       1.0  0.18156  0.26787  0.68730  1.0000
  H   H296      1.0  0.35942  0.07099  0.67866  1.0000
  C   C173      1.0  0.00185  0.32629  0.76386  1.0000
  C   C174      1.0  0.29829  0.01983  0.75266  1.0000
  C   C175      1.0  0.02320  0.42644  0.77680  1.0000
  H   H297      1.0  0.25123  0.45278  0.75463  1.0000
  H   H298      1.0  0.40758  0.09956  0.95285  1.0000
  H   H299      1.0  0.06095  0.38948  0.81127  1.0000
  H   H300      1.0  0.08946  0.38021  0.85292  1.0000
  C   C176      1.0  0.18586  0.21500  0.71700  1.0000
  H   H301      1.0  0.22961  0.14209  0.81371  1.0000
  N   N10       1.0  0.26413  0.19050  0.81473  1.0000
  C   C177      1.0  0.26929  0.17498  0.84302  1.0000
  C   C178      1.0  0.26187  0.16960  0.79199  1.0000
  C   C179      1.0  0.28986  0.20766  0.80661  1.0000
  C   C180      1.0  0.23809  0.21081  0.81615  1.0000
  C   C181      1.0  0.20963  0.19694  0.82457  1.0000
  C   C182      1.0  0.26811  0.19382  0.86885  1.0000
  C   C183      1.0  0.28904  0.22556  0.77800  1.0000
  C   C184      1.0  0.24998  0.14003  0.80091  1.0000
  C   C185      1.0  0.18549  0.21976  0.82914  1.0000
  C   C186      1.0  0.27730  0.17624  0.89532  1.0000
  C   C187      1.0  0.31871  0.23428  0.76735  1.0000
  H   H302      1.0  0.29031  0.16259  0.84188  1.0000
  H   H303      1.0  0.25333  0.15890  0.84875  1.0000
  H   H304      1.0  0.24870  0.17965  0.77494  1.0000
  H   H305      1.0  0.28319  0.16443  0.78152  1.0000
  H   H306      1.0  0.30957  0.19321  0.80619  1.0000
  H   H307      1.0  0.29317  0.22314  0.82250  1.0000
  H   H308      1.0  0.24098  0.22787  0.83071  1.0000
  H   H309      1.0  0.23505  0.22254  0.79533  1.0000
  H   H310      1.0  0.21095  0.18317  0.84434  1.0000
  H   H311      1.0  0.20373  0.18391  0.80737  1.0000
  H   H312      1.0  0.28204  0.21198  0.86552  1.0000
  H   H313      1.0  0.24604  0.20274  0.87337  1.0000
  H   H314      1.0  0.27519  0.24535  0.78054  1.0000
  H   H315      1.0  0.28053  0.21365  0.76144  1.0000
  H   H316      1.0  0.26572  0.12692  0.81354  1.0000
  H   H317      1.0  0.18994  0.23310  0.84669  1.0000
  H   H318      1.0  0.18298  0.23389  0.80966  1.0000
  H   H319      1.0  0.16515  0.20940  0.83458  1.0000
  H   H320      1.0  0.26290  0.15857  0.90071  1.0000
  H   H321      1.0  0.29953  0.16712  0.89213  1.0000
  H   H322      1.0  0.27650  0.19022  0.91339  1.0000
  H   H323      1.0  0.33206  0.21527  0.76085  1.0000
  H   H324      1.0  0.31700  0.24989  0.74888  1.0000
  H   H325      1.0  0.32940  0.24434  0.78403  1.0000
  C   C188      1.0  0.20001  0.17044  0.69448  1.0000
  C   C189      1.0  0.10028  0.38513  0.83193  1.0000
  H   H326      1.0  0.07288  0.42226  0.82360  1.0000
  H   H327      1.0  0.35866  0.04348  0.83272  1.0000
  C   C190      1.0  0.32335  0.27567  0.98160  1.0000
  H   H328      1.0  0.12374  0.39454  0.73407  1.0000
  S   S47       1.0  0.20702  0.13290  0.69725  1.0000
  C   C191      1.0  0.18840  0.23038  0.69084  1.0000
  H   H329      1.0  0.24849  0.17132  0.72643  1.0000
  H   H330      1.0  0.27539  0.45426  0.78256  1.0000
  H   H331      1.0  0.39659  0.06696  0.68610  1.0000
  C   C192      1.0  0.06763  0.24685  0.73691  1.0000
  H   H332      1.0  0.17955  0.22611  0.73582  1.0000
  H   H333      1.0  0.22967  0.47062  0.81347  1.0000
  H   H334      1.0  0.22784  0.13495  0.76260  1.0000
  H   H335      1.0  0.29459  0.01148  0.73185  1.0000
  H   H336      1.0  0.10628  0.22978  0.75833  1.0000
  H   H337      1.0  0.09743  0.38767  0.77404  1.0000
  H   H338      1.0  0.09450  0.25242  0.80330  1.0000
  H   H339      1.0  0.23225  0.05853  0.74875  1.0000
  H   H340      1.0  0.05254  0.26564  0.74065  1.0000
  H   H341      1.0  0.06736  0.22922  0.79498  1.0000
  N   N11       1.0  0.07780  0.24691  0.70608  1.0000
  N   N12       1.0  0.07769  0.42982  0.76346  1.0000
  H   H342      1.0  0.25380  0.33430  0.66134  1.0000
  H   H343      1.0  0.04355  0.42540  0.73535  1.0000
  H   H344      1.0  0.23749  0.10199  0.78214  1.0000
  H   H345      1.0  0.04357  0.22223  0.69403  1.0000
  H   H346      1.0  0.33696  0.26361  0.96597  1.0000
  C   C193      1.0  0.00280  0.33339  0.73482  1.0000
  H   H347      1.0  0.05556  0.22747  0.74309  1.0000
  C   C194      1.0  0.09804  0.22094  0.70265  1.0000
  H   H348      1.0  0.06148  0.26767  0.79029  1.0000
  H   H349      1.0  0.11922  0.39739  0.83491  1.0000
  C   C195      1.0  0.07763  0.24950  0.78854  1.0000
  C   C196      1.0  0.09087  0.24861  0.75842  1.0000
  H   H350      1.0  0.11700  0.22215  0.71526  1.0000
  H   H351      1.0  0.29256  0.00239  0.76870  1.0000
  C   C197      1.0  0.36866  0.04453  0.71691  1.0000
  H   H352      1.0  0.32545  0.02515  0.79958  1.0000
  H   H353      1.0  0.11541  0.27159  0.70371  1.0000
  C   C198      1.0  0.37462  0.06970  0.69577  1.0000
  H   H354      1.0  0.37277  0.09010  0.70654  1.0000
  H   H355      1.0  0.08360  0.44681  0.72012  1.0000
  H   H356      1.0  0.32508  0.29892  0.97617  1.0000
  C   C199      1.0  0.09382  0.40895  0.78312  1.0000
  H   H357      1.0  0.01615  0.44923  0.77239  1.0000
  H   H358      1.0  0.08326  0.29188  0.71061  1.0000
  H   H359      1.0  0.00347  0.38551  0.77880  1.0000
  H   H360      1.0  0.26449  0.12088  0.76143  1.0000
  H   H361      1.0  0.44267  0.16659  0.92785  1.0000
  C   C200      1.0  0.29723  0.21342  0.68747  1.0000
  H   H362      1.0  0.34058  0.99116  0.70929  1.0000
  C   C201      1.0  0.11085  0.21592  0.67247  1.0000
  C   C202      1.0  0.27699  0.29279  0.66199  1.0000
  C   C203      1.0  0.26780  0.20614  0.70140  1.0000
  H   H363      1.0  0.37889  0.03157  0.78507  1.0000
  H   H364      1.0  0.26102  0.22127  0.71786  1.0000
  H   H365      1.0  0.98730  0.28237  0.67647  1.0000
  H   H366      1.0  0.35222  0.20907  0.67602  1.0000
  H   H367      1.0  0.13595  0.42655  0.69167  1.0000
  C   C204      1.0  0.25101  0.98597  0.67099  1.0000
  H   H368      1.0  0.28164  0.26767  0.70167  1.0000
  H   H369      1.0  0.40663  0.12938  0.92699  1.0000
  C   C205      1.0  0.23313  0.47654  0.79052  1.0000
  C   C206      1.0  0.32842  0.25139  0.67075  1.0000
  C   C207      1.0  0.46974  0.21729  0.92565  1.0000
  H   H370      1.0  0.38287  0.24526  0.69231  1.0000
  C   C208      1.0  0.19630  0.21564  0.66653  1.0000
  H   H371      1.0  0.30095  0.27004  0.98001  1.0000
  H   H372      1.0  0.14057  0.18164  0.68778  1.0000
  N   N13       1.0  0.29896  0.24077  0.66882  1.0000
  S   S48       1.0  0.30058  0.01508  0.66927  1.0000
  H   H373      1.0  0.10896  0.16947  0.67376  1.0000
  C   C209      1.0  0.25441  0.31386  0.67452  1.0000
  H   H374      1.0  0.99310  0.40969  0.74962  1.0000
  C   C210      1.0  0.47871  0.16225  0.98951  1.0000
  C   C211      1.0  0.20253  0.18588  0.66838  1.0000
  H   H375      1.0  0.23949  0.00652  0.67254  1.0000
  H   H376      1.0  0.04569  0.47902  0.74479  1.0000
  C   C212      1.0  0.28078  0.98436  0.66895  1.0000
  H   H377      1.0  0.48310  0.13866  0.99201  1.0000
  C   C213      1.0  0.12514  0.18585  0.67105  1.0000
  H   H378      1.0  0.12749  0.23141  0.66668  1.0000
  H   H379      1.0  0.13293  0.30573  0.66525  1.0000
  C   C214      1.0  0.00544  0.26689  0.67144  1.0000
  C   C215      1.0  0.09218  0.28580  0.66667  1.0000
  H   H380      1.0  0.99695  0.24547  0.67002  1.0000
  H   H381      1.0  0.34198  0.98524  0.77426  1.0000
  C   C216      1.0  0.35378  0.22974  0.66350  1.0000
  H   H382      1.0  0.39989  0.22587  0.66383  1.0000
  H   H383      1.0  0.07019  0.29292  0.66121  1.0000
  C   C217      1.0  0.11031  0.31170  0.66109  1.0000
  Fe  Fe24      1.0  0.30664  0.12027  0.66252  1.0000
  Fe  Fe25      1.0  0.35911  0.69222  0.13557  1.0000
  S   S49       1.0  0.34070  0.73563  0.12145  1.0000
  S   S50       1.0  0.33347  0.65283  0.14663  1.0000
  Fe  Fe26      1.0  0.42081  0.71239  0.13062  1.0000
  S   S51       1.0  0.40594  0.75735  0.11735  1.0000
  H   H384      1.0  0.46377  0.75777  0.08644  1.0000
  Fe  Fe27      1.0  0.37070  0.75184  0.15121  1.0000
  S   S52       1.0  0.35259  0.78745  0.17858  1.0000
  Fe  Fe28      1.0  0.37749  0.73695  0.08907  1.0000
  S   S53       1.0  0.37369  0.75575  0.04402  1.0000
  S   S54       1.0  0.38766  0.70815  0.16687  1.0000
  S   S55       1.0  0.39371  0.69223  0.10071  1.0000
  Fe  Fe29      1.0  0.12749  0.60136  0.25018  1.0000
  S   S56       1.0  0.15451  0.57114  0.27788  1.0000
  S   S57       1.0  0.08047  0.59638  0.26330  1.0000
  Fe  Fe30      1.0  0.18095  0.62172  0.21523  1.0000
  S   S58       1.0  0.21020  0.59213  0.24022  1.0000
  S   S59       1.0  0.20022  0.65250  0.18111  1.0000
  Fe  Fe31      1.0  0.17780  0.55918  0.23750  1.0000
  S   S60       1.0  0.18818  0.51498  0.22096  1.0000
  Fe  Fe32      1.0  0.18384  0.60744  0.27794  1.0000
  S   S61       1.0  0.14991  0.58789  0.20962  1.0000
  S   S62       1.0  0.15545  0.63845  0.25317  1.0000
  S   S63       1.0  0.34511  0.78036  0.31248  1.0000
  H   H385      1.0  0.07131  0.63427  0.21271  1.0000
  C   C218      1.0  0.28502  0.68430  0.99890  1.0000
  C   C219      1.0  0.34867  0.78131  0.21571  1.0000
  C   C220      1.0  0.37095  0.76828  0.23095  1.0000
  C   C221      1.0  0.36916  0.76741  0.26064  1.0000
  C   C222      1.0  0.34481  0.77884  0.27541  1.0000
  C   C223      1.0  0.32185  0.79048  0.26024  1.0000
  C   C224      1.0  0.32400  0.79217  0.23047  1.0000
  H   H386      1.0  0.39010  0.76000  0.21983  1.0000
  H   H387      1.0  0.38697  0.75829  0.27223  1.0000
  H   H388      1.0  0.30290  0.79911  0.27140  1.0000
  H   H389      1.0  0.30666  0.80225  0.21882  1.0000
  C   C225      1.0  0.29640  0.65338  0.15605  1.0000
  C   C226      1.0  0.27787  0.67684  0.14877  1.0000
  C   C227      1.0  0.24845  0.67610  0.15625  1.0000
  C   C228      1.0  0.23730  0.65218  0.17150  1.0000
  C   C229      1.0  0.25586  0.62876  0.17875  1.0000
  C   C230      1.0  0.28516  0.62927  0.17081  1.0000
  H   H390      1.0  0.28616  0.69552  0.13736  1.0000
  H   H391      1.0  0.23428  0.69432  0.15053  1.0000
  H   H392      1.0  0.24759  0.61014  0.19020  1.0000
  H   H393      1.0  0.29928  0.61098  0.17641  1.0000
  H   H394      1.0  0.35839  0.83803  0.25532  1.0000
  C   C231      1.0  0.45838  0.71598  0.04892  1.0000
  H   H395      1.0  0.37588  0.89085  0.30919  1.0000
  C   C232      1.0  0.18464  0.67490  0.31917  1.0000
  C   C233      1.0  0.02566  0.63704  0.20842  1.0000
  H   H396      1.0  0.27237  0.56299  0.17239  1.0000
  H   H397      1.0  0.02836  0.70937  0.27846  1.0000
  H   H398      1.0  0.26993  0.75548  0.05303  1.0000
  H   H399      1.0  0.38979  0.69557  0.03651  1.0000
  H   H400      1.0  0.30331  0.53295  0.26134  1.0000
  H   H401      1.0  0.32501  0.87597  0.31341  1.0000
  C   C234      1.0  0.27221  0.63955  0.08664  1.0000
  H   H402      1.0  0.16036  0.71262  0.25473  1.0000
  C   C235      1.0  0.24574  0.51596  0.30403  1.0000
  H   H403      1.0  0.27608  0.60224  0.24600  1.0000
  C   C236      1.0  0.02289  0.60095  0.25729  1.0000
  C   C237      1.0  0.04959  0.60951  0.24609  1.0000
  C   C238      1.0  0.05090  0.62754  0.22151  1.0000
  H   H404      1.0  0.02173  0.58702  0.27632  1.0000
  C   C239      1.0  0.29026  0.75093  0.06361  1.0000
  N   N14       1.0  0.99618  0.52591  0.20319  1.0000
  C   C240      1.0  0.99074  0.52723  0.23467  1.0000
  C   C241      1.0  0.02790  0.52590  0.19636  1.0000
  C   C242      1.0  0.46404  0.66209  0.06120  1.0000
  C   C243      1.0  0.37475  0.73457  0.01447  1.0000
  H   H405      1.0  0.08585  0.53371  0.19779  1.0000
  C   C244      1.0  0.34049  0.86568  0.29824  1.0000
  H   H406      1.0  0.43473  0.77001  0.04311  1.0000
  C   C245      1.0  0.04257  0.55257  0.20479  1.0000
  C   C246      1.0  0.07297  0.55353  0.19172  1.0000
  H   H407      1.0  0.46804  0.71562  0.06963  1.0000
  H   H408      1.0  0.44398  0.66300  0.07465  1.0000
  H   H409      1.0  0.20239  0.53522  0.30734  1.0000
  H   H410      1.0  0.99666  0.54824  0.24145  1.0000
  H   H411      1.0  0.00475  0.51107  0.24621  1.0000
  H   H412      1.0  0.03909  0.50739  0.20759  1.0000
  H   H413      1.0  0.03289  0.52288  0.17352  1.0000
  H   H414      1.0  0.98852  0.53858  0.14486  1.0000
  C   C247      1.0  0.10108  0.50510  0.26459  1.0000
  H   H415      1.0  0.30169  0.93238  0.27431  1.0000
  H   H416      1.0  0.48347  0.68348  0.02436  1.0000
  C   C248      1.0  0.33523  0.95920  0.28172  1.0000
  H   H417      1.0  0.28839  0.74271  0.30787  1.0000
  H   H418      1.0  0.46661  0.64079  0.05213  1.0000
  C   C249      1.0  0.02204  0.68765  0.27440  1.0000
  H   H419      1.0  0.31667  0.65133  0.00990  1.0000
  H   H420      1.0  0.01150  0.56516  0.15453  1.0000
  H   H421      1.0  0.03087  0.57283  0.19806  1.0000
  H   H422      1.0  0.04385  0.55179  0.22808  1.0000
  H   H423      1.0  0.27617  0.70559  0.00506  1.0000
  H   H424      1.0  0.07282  0.55626  0.16835  1.0000
  H   H425      1.0  0.08329  0.57203  0.19941  1.0000
  H   H426      1.0  0.33578  0.84258  0.30013  1.0000
  H   H427      1.0  0.02647  0.67272  0.29293  1.0000
  C   C250      1.0  0.37039  0.86816  0.30958  1.0000
  H   H428      1.0  0.25497  0.54431  0.26780  1.0000
  H   H429      1.0  0.12386  0.50648  0.25729  1.0000
  C   C251      1.0  0.98948  0.55781  0.15705  1.0000
  S   S64       1.0  0.46726  0.69486  0.12942  1.0000
  H   H430      1.0  0.43121  0.73966  0.00535  1.0000
  H   H431      1.0  0.35641  0.95797  0.29099  1.0000
  C   C252      1.0  0.32889  0.66192  0.06418  1.0000
  C   C253      1.0  0.34277  0.63151  0.05980  1.0000
  C   C254      1.0  0.37135  0.62714  0.07354  1.0000
  H   H432      1.0  0.32539  0.66430  0.08727  1.0000
  H   H433      1.0  0.34530  0.67731  0.05725  1.0000
  H   H434      1.0  0.99090  0.49762  0.16993  1.0000
  H   H435      1.0  0.32671  0.72134  0.06278  1.0000
  H   H436      1.0  0.34684  0.62786  0.03708  1.0000
  H   H437      1.0  0.32887  0.61482  0.06941  1.0000
  H   H438      1.0  0.38033  0.60497  0.07085  1.0000
  H   H439      1.0  0.38675  0.64224  0.06347  1.0000
  H   H440      1.0  0.36861  0.63040  0.09651  1.0000
  H   H441      1.0  0.02680  0.65127  0.18958  1.0000
  N   N15       1.0  0.26020  0.69046  0.24641  1.0000
  C   C255      1.0  0.28341  0.69284  0.22330  1.0000
  C   C256      1.0  0.25676  0.65915  0.25472  1.0000
  C   C257      1.0  0.23266  0.70237  0.23421  1.0000
  C   C258      1.0  0.28546  0.72281  0.20793  1.0000
  C   C259      1.0  0.28320  0.64163  0.26587  1.0000
  C   C260      1.0  0.27883  0.60951  0.26741  1.0000
  C   C261      1.0  0.31387  0.72525  0.19127  1.0000
  H   H442      1.0  0.28030  0.67759  0.20701  1.0000
  H   H443      1.0  0.30466  0.68624  0.23108  1.0000
  H   H444      1.0  0.24935  0.64829  0.23652  1.0000
  H   H445      1.0  0.22892  0.69172  0.21462  1.0000
  H   H446      1.0  0.23382  0.72555  0.22796  1.0000
  H   H447      1.0  0.30828  0.72340  0.26272  1.0000
  H   H448      1.0  0.26843  0.72644  0.19265  1.0000
  H   H449      1.0  0.28305  0.74005  0.22298  1.0000
  H   H450      1.0  0.30272  0.64489  0.25222  1.0000
  H   H451      1.0  0.25984  0.60445  0.28136  1.0000
  H   H452      1.0  0.29774  0.59758  0.27618  1.0000
  H   H453      1.0  0.31813  0.70715  0.17743  1.0000
  H   H454      1.0  0.31308  0.74546  0.17789  1.0000
  H   H455      1.0  0.33147  0.72539  0.20579  1.0000
  H   H456      1.0  0.18249  0.73794  0.23523  1.0000
  H   H457      1.0  0.28573  0.74838  0.08681  1.0000
  H   H458      1.0  0.43506  0.71945  0.05413  1.0000
  H   H459      1.0  0.25858  0.55419  0.22261  1.0000
  S   S65       1.0  0.20857  0.61970  0.31469  1.0000
  C   C262      1.0  0.28213  0.87447  0.28292  1.0000
  H   H460      1.0  0.25686  0.72946  0.26906  1.0000
  C   C263      1.0  0.45477  0.73865  0.00159  1.0000
  H   H461      1.0  0.26746  0.66946  0.00014  1.0000
  H   H462      1.0  0.23308  0.61940  0.07896  1.0000
  C   C264      1.0  0.30929  0.67245  0.01785  1.0000
  H   H463      1.0  0.22858  0.52000  0.26271  1.0000
  C   C265      1.0  0.22330  0.53729  0.31639  1.0000
  C   C266      1.0  0.29728  0.70893  0.27869  1.0000
  C   C267      1.0  0.46325  0.68563  0.03746  1.0000
  H   H464      1.0  0.28671  0.64761  0.28757  1.0000
  H   H465      1.0  0.28856  0.62669  0.04513  1.0000
  H   H466      1.0  0.32065  0.97359  0.29441  1.0000
  C   C268      1.0  0.30606  0.72407  0.05268  1.0000
  C   C269      1.0  0.17950  0.71479  0.24009  1.0000
  N   N16       1.0  0.30182  0.66962  0.04921  1.0000
  H   H467      1.0  0.44557  0.68168  0.02397  1.0000
  C   C270      1.0  0.20548  0.70026  0.25399  1.0000
  H   H468      1.0  0.20063  0.67767  0.25917  1.0000
  H   H469      1.0  0.32219  0.72295  0.31153  1.0000
  C   C271      1.0  0.26570  0.70690  0.27167  1.0000
  H   H470      1.0  0.23994  0.65656  0.27188  1.0000
  H   H471      1.0  0.23622  0.87268  0.28779  1.0000
  H   H472      1.0  0.17575  0.70449  0.22033  1.0000
  H   H473      1.0  0.28119  0.89470  0.29367  1.0000
  H   H474      1.0  0.28562  0.69552  0.08329  1.0000
  H   H475      1.0  0.20818  0.71091  0.27369  1.0000
  H   H476      1.0  0.33714  0.96864  0.25970  1.0000
  C   C272      1.0  0.27347  0.53823  0.21256  1.0000
  H   H477      1.0  0.25392  0.69776  0.29077  1.0000
  C   C273      1.0  0.26848  0.54090  0.18100  1.0000
  H   H478      1.0  0.17641  0.49907  0.28093  1.0000
  C   C274      1.0  0.28864  0.69731  0.05985  1.0000
  C   C275      1.0  0.28066  0.64679  0.05500  1.0000
  H   H479      1.0  0.26042  0.65338  0.04483  1.0000
  C   C276      1.0  0.24980  0.52149  0.27146  1.0000
  H   H480      1.0  0.29110  0.63376  0.09908  1.0000
  H   H481      1.0  0.30924  0.68791  0.27905  1.0000
  H   H482      1.0  0.37985  0.86802  0.25215  1.0000
  N   N17       1.0  0.33649  0.87755  0.26834  1.0000
  H   H483      1.0  0.30630  0.85018  0.25276  1.0000
  H   H484      1.0  0.33477  0.85285  0.21211  1.0000
  H   H485      1.0  0.46341  0.80643  0.10136  1.0000
  H   H486      1.0  0.24885  0.88963  0.25465  1.0000
  C   C277      1.0  0.38388  0.70562  0.01644  1.0000
  C   C278      1.0  0.46943  0.77461  0.07004  1.0000
  N   N18       1.0  0.46880  0.74019  0.02924  1.0000
  C   C279      1.0  0.25291  0.61441  0.09030  1.0000
  H   H487      1.0  0.26683  0.70183  0.05220  1.0000
  H   H488      1.0  0.24691  0.61021  0.11310  1.0000
  C   C280      1.0  0.35793  0.86146  0.24933  1.0000
  C   C281      1.0  0.99775  0.60995  0.24387  1.0000
  C   C282      1.0  0.99053  0.68833  0.26819  1.0000
  H   H489      1.0  0.38500  0.83032  0.20756  1.0000
  H   H490      1.0  0.46501  0.78661  0.02674  1.0000
  H   H491      1.0  0.30111  0.88685  0.24133  1.0000
  H   H492      1.0  0.26023  0.65809  0.09597  1.0000
  C   C283      1.0  0.35329  0.86479  0.21714  1.0000
  H   H493      1.0  0.38700  0.85592  0.29703  1.0000
  H   H494      1.0  0.25269  0.85100  0.26071  1.0000
  H   H495      1.0  0.39789  0.86590  0.20195  1.0000
  C   C284      1.0  0.37935  0.85277  0.20007  1.0000
  H   H496      1.0  0.28481  0.85679  0.29933  1.0000
  H   H497      1.0  0.43275  0.80347  0.08103  1.0000
  H   H498      1.0  0.34931  0.88743  0.20960  1.0000
  H   H499      1.0  0.26414  0.59478  0.08227  1.0000
  H   H500      1.0  0.03523  0.67994  0.25593  1.0000
  H   H501      1.0  0.36498  0.91216  0.26799  1.0000
  H   H502      1.0  0.30373  0.76951  0.05902  1.0000
  C   C285      1.0  0.30686  0.87230  0.25984  1.0000
  H   H503      1.0  0.37458  0.85293  0.17745  1.0000
  C   C286      1.0  0.34229  0.90893  0.26445  1.0000
  H   H504      1.0  0.47835  0.75493  0.13621  1.0000
  H   H505      1.0  0.46341  0.82117  0.06536  1.0000
  H   H506      1.0  0.33956  0.91700  0.24225  1.0000
  C   C287      1.0  0.25326  0.87178  0.27059  1.0000
  H   H507      1.0  0.32770  0.68612  0.01324  1.0000
  H   H508      1.0  0.48223  0.66436  0.07459  1.0000
  H   H509      1.0  0.22989  0.55954  0.31196  1.0000
  H   H510      1.0  0.08750  0.51333  0.24723  1.0000
  H   H511      1.0  0.30278  0.50491  0.28792  1.0000
  H   H512      1.0  0.31033  0.72803  0.02962  1.0000
  C   C288      1.0  0.99903  0.62823  0.21947  1.0000
  H   H513      1.0  0.32158  0.92165  0.30492  1.0000
  C   C289      1.0  0.29944  0.72111  0.30740  1.0000
  C   C290      1.0  0.32329  0.92956  0.28260  1.0000
  H   H514      1.0  0.09669  0.51916  0.28248  1.0000
  C   C291      1.0  0.45852  0.76834  0.04117  1.0000
  H   H515      1.0  0.28996  0.70675  0.32441  1.0000
  C   C292      1.0  0.45640  0.80318  0.07996  1.0000
  H   H516      1.0  0.35678  0.50444  0.28093  1.0000
  H   H517      1.0  0.29563  0.54394  0.21524  1.0000
  H   H518      1.0  0.16660  0.66789  0.30896  1.0000
  C   C293      1.0  0.30079  0.50950  0.26487  1.0000
  H   H519      1.0  0.35524  0.52870  0.24972  1.0000
  C   C294      1.0  0.20775  0.65561  0.32467  1.0000
  H   H520      1.0  0.16674  0.71811  0.32258  1.0000
  S   S66       1.0  0.26287  0.80607  0.32577  1.0000
  H   H521      1.0  0.26578  0.51841  0.31447  1.0000
  H   H522      1.0  0.98764  0.70190  0.24845  1.0000
  C   C295      1.0  0.35461  0.50593  0.25772  1.0000
  N   N19       1.0  0.27187  0.50212  0.25649  1.0000
  H   H523      1.0  0.24607  0.53655  0.17741  1.0000
  H   H524      1.0  0.37303  0.49371  0.24768  1.0000
  H   H525      1.0  0.23844  0.49420  0.30984  1.0000
  H   H526      1.0  0.28316  0.52572  0.16940  1.0000
  C   C296      1.0  0.26860  0.50743  0.22513  1.0000
  H   H527      1.0  0.24694  0.50194  0.21994  1.0000
  H   H528      1.0  0.28329  0.49305  0.21274  1.0000
  H   H529      1.0  0.32618  0.49508  0.22717  1.0000
  C   C297      1.0  0.32686  0.49352  0.25047  1.0000
  C   C298      1.0  0.18472  0.70336  0.32702  1.0000
  H   H530      1.0  0.39302  0.66733  0.99391  1.0000
  H   H531      1.0  0.22162  0.91673  0.40709  1.0000
  S   S67       1.0  0.27829  0.78794  0.62569  1.0000
  H   H532      1.0  0.07546  0.71852  0.63467  1.0000
  S   S68       1.0  0.29449  0.85412  0.63497  1.0000
  C   C299      1.0  0.22412  0.71273  0.65435  1.0000
  Fe  Fe33      1.0  0.27146  0.83152  0.60339  1.0000
  S   S69       1.0  0.26858  0.84728  0.55714  1.0000
  S   S70       1.0  0.22876  0.83955  0.62569  1.0000
  H   H533      1.0  0.13259  0.77018  0.62808  1.0000
  Fe  Fe34      1.0  0.26233  0.83657  0.36055  1.0000
  S   S71       1.0  0.30646  0.82302  0.37331  1.0000
  C   C300      1.0  0.23231  0.73857  0.49310  1.0000
  C   C301      1.0  0.30626  0.96671  0.44431  1.0000
  S   S72       1.0  0.28804  0.75652  0.37171  1.0000
  H   H534      1.0  0.27516  0.92595  0.41160  1.0000
  Fe  Fe35      1.0  0.28497  0.79077  0.40317  1.0000
  S   S73       1.0  0.30032  0.77898  0.44720  1.0000
  H   H535      1.0  0.29086  0.97388  0.42807  1.0000
  S   S74       1.0  0.24061  0.80640  0.39263  1.0000
  H   H536      1.0  0.24004  0.66869  0.65137  1.0000
  H   H537      1.0  0.25049  0.74678  0.59638  1.0000
  C   C302      1.0  0.25868  0.97461  0.56577  1.0000
  H   H538      1.0  0.26817  0.75622  0.54348  1.0000
  H   H539      1.0  0.06330  0.74339  0.65951  1.0000
  C   C303      1.0  0.31929  0.93630  0.43835  1.0000
  H   H540      1.0  0.25908  0.96763  0.61239  1.0000
  C   C304      1.0  0.22098  0.90621  0.42873  1.0000
  H   H541      1.0  0.22073  0.53313  0.33964  1.0000
  C   C305      1.0  0.18231  0.82202  0.57348  1.0000
  C   C306      1.0  0.26649  0.91261  0.35571  1.0000
  C   C307      1.0  0.29583  0.90898  0.35865  1.0000
  C   C308      1.0  0.31207  0.93297  0.36026  1.0000
  H   H542      1.0  0.19409  0.81067  0.53143  1.0000
  H   H543      1.0  0.33483  0.92994  0.36236  1.0000
  C   C309      1.0  0.23103  0.69364  0.34596  1.0000
  H   H544      1.0  0.31716  0.87944  0.52861  1.0000
  H   H545      1.0  0.27259  0.96550  0.54850  1.0000
  H   H546      1.0  0.20676  0.88812  0.42916  1.0000
  H   H547      1.0  0.99435  0.68464  0.65104  1.0000
  H   H548      1.0  0.23557  0.76837  0.45595  1.0000
  C   C310      1.0  0.27695  0.82730  0.52716  1.0000
  C   C311      1.0  0.29682  0.80395  0.52763  1.0000
  C   C312      1.0  0.30373  0.78939  0.50291  1.0000
  C   C313      1.0  0.29094  0.79810  0.47755  1.0000
  C   C314      1.0  0.27087  0.82134  0.47714  1.0000
  C   C315      1.0  0.26389  0.83581  0.50191  1.0000
  H   H549      1.0  0.30715  0.79733  0.54691  1.0000
  H   H550      1.0  0.31927  0.77140  0.50336  1.0000
  H   H551      1.0  0.26061  0.82794  0.45783  1.0000
  H   H552      1.0  0.24821  0.85366  0.50158  1.0000
  H   H553      1.0  0.23627  0.78037  0.50837  1.0000
  H   H554      1.0  0.35683  0.85314  0.40613  1.0000
  H   H555      1.0  0.17190  0.74981  0.58621  1.0000
  H   H556      1.0  0.29919  0.86684  0.43991  1.0000
  Fe  Fe36      1.0  0.29704  0.81130  0.65982  1.0000
  C   C316      1.0  0.25354  0.94046  0.35439  1.0000
  C   C317      1.0  0.31987  0.91522  0.49721  1.0000
  C   C318      1.0  0.25081  0.89486  0.43643  1.0000
  C   C319      1.0  0.17016  0.70416  0.58993  1.0000
  H   H557      1.0  0.27617  0.92036  0.48657  1.0000
  H   H558      1.0  0.34108  0.90680  0.48924  1.0000
  H   H559      1.0  0.32059  0.93880  0.49758  1.0000
  H   H560      1.0  0.24555  0.71065  0.58737  1.0000
  H   H561      1.0  0.29195  0.71447  0.60744  1.0000
  N   N20       1.0  0.30038  0.91200  0.44716  1.0000
  C   C320      1.0  0.27196  0.91911  0.43434  1.0000
  H   H562      1.0  0.24160  0.72143  0.64154  1.0000
  H   H563      1.0  0.26069  0.93779  0.44428  1.0000
  C   C321      1.0  0.22550  0.74802  0.46272  1.0000
  H   H564      1.0  0.36658  0.83298  0.34167  1.0000
  H   H565      1.0  0.33890  0.82996  0.43252  1.0000
  C   C322      1.0  0.20813  0.71307  0.33990  1.0000
  H   H566      1.0  0.25581  0.73442  0.49313  1.0000
  H   H567      1.0  0.32489  0.93656  0.41526  1.0000
  H   H568      1.0  0.33163  0.91077  0.54087  1.0000
  C   C323      1.0  0.31528  0.90322  0.52765  1.0000
  H   H569      1.0  0.31492  0.88783  0.41133  1.0000
  H   H570      1.0  0.34065  0.86642  0.46766  1.0000
  H   H571      1.0  0.23682  0.96898  0.56135  1.0000
  H   H572      1.0  0.30592  0.88768  0.35982  1.0000
  C   C324      1.0  0.25641  0.92727  0.59487  1.0000
  H   H573      1.0  0.18455  0.68456  0.58849  1.0000
  H   H574      1.0  0.37476  0.83934  0.43703  1.0000
  H   H575      1.0  0.35866  0.88993  0.44148  1.0000
  H   H576      1.0  0.20064  0.76996  0.50782  1.0000
  C   C325      1.0  0.35388  0.84745  0.42911  1.0000
  C   C326      1.0  0.29548  0.90759  0.47886  1.0000
  H   H577      1.0  0.20212  0.75104  0.46067  1.0000
  C   C327      1.0  0.23075  0.66499  0.33851  1.0000
  C   C328      1.0  0.29911  0.96082  0.35934  1.0000
  H   H578      1.0  0.21194  0.92175  0.44400  1.0000
  H   H579      1.0  0.23407  0.73145  0.44829  1.0000
  H   H580      1.0  0.25786  0.87831  0.42137  1.0000
  C   C329      1.0  0.34262  0.87355  0.44494  1.0000
  H   H581      1.0  0.16250  0.83441  0.56750  1.0000
  H   H582      1.0  0.29057  0.88498  0.48465  1.0000
  H   H583      1.0  0.34016  0.93327  0.44803  1.0000
  H   H584      1.0  0.11051  0.74941  0.60856  1.0000
  C   C330      1.0  0.31321  0.88492  0.43478  1.0000
  H   H585      1.0  0.17866  0.81204  0.59515  1.0000
  H   H586      1.0  0.19964  0.83709  0.57327  1.0000
  H   H587      1.0  0.29389  0.91031  0.53649  1.0000
  H   H588      1.0  0.24925  0.88462  0.45809  1.0000
  C   C331      1.0  0.25726  0.73021  0.58151  1.0000
  H   H589      1.0  0.20920  0.71002  0.54782  1.0000
  H   H590      1.0  0.23553  0.79433  0.55679  1.0000
  H   H591      1.0  0.16064  0.70448  0.61187  1.0000
  H   H592      1.0  0.12674  0.72296  0.65190  1.0000
  H   H593      1.0  0.15278  0.70342  0.57524  1.0000
  H   H594      1.0  0.20295  0.73110  0.59902  1.0000
  C   C332      1.0  0.19012  0.79924  0.55239  1.0000
  C   C333      1.0  0.18686  0.73091  0.58310  1.0000
  H   H595      1.0  0.24880  0.70064  0.35658  1.0000
  C   C334      1.0  0.22243  0.76210  0.51363  1.0000
  H   H596      1.0  0.29673  0.70521  0.57116  1.0000
  H   H597      1.0  0.26558  0.91440  0.61291  1.0000
  H   H598      1.0  0.13221  0.63361  0.62571  1.0000
  C   C335      1.0  0.10877  0.73916  0.65405  1.0000
  H   H599      1.0  0.26247  0.91601  0.57542  1.0000
  H   H600      1.0  0.23283  0.92829  0.59837  1.0000
  H   H601      1.0  0.22184  0.71832  0.49909  1.0000
  H   H602      1.0  0.30163  0.74140  0.58040  1.0000
  H   H603      1.0  0.17155  0.78602  0.55116  1.0000
  H   H604      1.0  0.25719  0.72143  0.53842  1.0000
  H   H605      1.0  0.21569  0.77597  0.58373  1.0000
  C   C336      1.0  0.20025  0.73192  0.55229  1.0000
  N   N21       1.0  0.22255  0.75349  0.54488  1.0000
  H   H606      1.0  0.18198  0.73581  0.53841  1.0000
  C   C337      1.0  0.25197  0.74063  0.55068  1.0000
  C   C338      1.0  0.21710  0.78052  0.56053  1.0000
  C   C339      1.0  0.11162  0.76043  0.62843  1.0000
  Fe  Fe37      1.0  0.30557  0.79027  0.34072  1.0000
  C   C340      1.0  0.28886  0.72235  0.58523  1.0000
  C   C341      1.0  0.10306  0.66390  0.64717  1.0000
  Fe  Fe38      1.0  0.25182  0.86003  0.65814  1.0000
  H   H607      1.0  0.35586  0.86801  0.35401  1.0000
  S   S75       1.0  0.20751  0.74953  0.34807  1.0000
  H   H608      1.0  0.24856  0.65014  0.34323  1.0000
  H   H609      1.0  0.10462  0.68010  0.62922  1.0000
  C   C342      1.0  0.13039  0.64458  0.64580  1.0000
  H   H610      1.0  0.09456  0.77783  0.62951  1.0000
  H   H611      1.0  0.04776  0.68081  0.65166  1.0000
  C   C343      1.0  0.26974  0.96450  0.35638  1.0000
  S   S76       1.0  0.19980  0.76836  0.65572  1.0000
  Fe  Fe39      1.0  0.24513  0.77439  0.35885  1.0000
  S   S77       1.0  0.24533  0.88292  0.35427  1.0000
  Fe  Fe40      1.0  0.23687  0.79755  0.64988  1.0000
  H   H612      1.0  0.23081  0.94344  0.35207  1.0000
  C   C344      1.0  0.26748  0.95738  0.59309  1.0000
  C   C345      1.0  0.37141  0.85596  0.34012  1.0000
  H   H613      1.0  0.29108  0.95501  0.59321  1.0000
  H   H614      1.0  0.08506  0.65034  0.64428  1.0000
  H   H615      1.0  0.29469  0.96690  0.46530  1.0000
  H   H616      1.0  0.30387  0.73032  0.65712  1.0000
  H   H617      1.0  0.14934  0.65740  0.64666  1.0000
  H   H618      1.0  0.39306  0.85770  0.34770  1.0000
  C   C346      1.0  0.07950  0.72553  0.65592  1.0000
  C   C347      1.0  0.22324  0.68287  0.66006  1.0000
  Fe  Fe41      1.0  0.16960  0.61585  0.78423  1.0000
  S   S78       1.0  0.19103  0.58594  0.75377  1.0000
  S   S79       1.0  0.19200  0.63188  0.82063  1.0000
  Fe  Fe42      1.0  0.11380  0.62054  0.75230  1.0000
  S   S80       1.0  0.13215  0.59114  0.71951  1.0000
  S   S81       1.0  0.07064  0.64438  0.74750  1.0000
  Fe  Fe43      1.0  0.14960  0.56418  0.75640  1.0000
  S   S82       1.0  0.14321  0.51752  0.77074  1.0000
  Fe  Fe44      1.0  0.17164  0.61618  0.72040  1.0000
  H   H619      1.0  0.44705  0.69279  0.89969  1.0000
  S   S83       1.0  0.12898  0.59269  0.78915  1.0000
  S   S84       1.0  0.15227  0.64700  0.75095  1.0000
  Fe  Fe45      1.0  0.37552  0.69276  0.88945  1.0000
  S   S85       1.0  0.39058  0.65477  0.86470  1.0000
  S   S86       1.0  0.38188  0.68135  0.93625  1.0000
  Fe  Fe46      1.0  0.36117  0.72799  0.83477  1.0000
  S   S87       1.0  0.37612  0.69244  0.80744  1.0000
  S   S88       1.0  0.34217  0.76934  0.81383  1.0000
  Fe  Fe47      1.0  0.35201  0.66454  0.83938  1.0000
  S   S89       1.0  0.32731  0.63024  0.82150  1.0000
  Fe  Fe48      1.0  0.41313  0.68634  0.83538  1.0000
  S   S90       1.0  0.45807  0.67436  0.81815  1.0000
  S   S91       1.0  0.33507  0.70032  0.86600  1.0000
  S   S92       1.0  0.40010  0.72402  0.86092  1.0000
  H   H620      1.0  0.32307  0.53245  0.80622  1.0000
  H   H621      1.0  0.40174  0.77913  0.81997  1.0000
  H   H622      1.0  0.39180  0.82571  0.67780  1.0000
  C   C348      1.0  0.20077  0.67129  0.67703  1.0000
  H   H623      1.0  0.28926  0.50017  0.78854  1.0000
  H   H624      1.0  0.26534  0.49671  0.74598  1.0000
  C   C349      1.0  0.44700  0.75717  0.95109  1.0000
  C   C350      1.0  0.42353  0.78684  0.82013  1.0000
  C   C351      1.0  0.37889  0.70259  0.96580  1.0000
  C   C352      1.0  0.36977  0.73154  0.96380  1.0000
  H   H625      1.0  0.45383  0.81073  0.72110  1.0000
  H   H626      1.0  0.36426  0.74164  0.94358  1.0000
  C   C353      1.0  0.33948  0.77412  0.77669  1.0000
  C   C354      1.0  0.35464  0.75596  0.75816  1.0000
  C   C355      1.0  0.35303  0.76106  0.72877  1.0000
  C   C356      1.0  0.33597  0.78411  0.71751  1.0000
  C   C357      1.0  0.32006  0.80176  0.73599  1.0000
  C   C358      1.0  0.32202  0.79691  0.76542  1.0000
  H   H627      1.0  0.36807  0.73833  0.76641  1.0000
  H   H628      1.0  0.36505  0.74708  0.71462  1.0000
  H   H629      1.0  0.30687  0.81965  0.72761  1.0000
  H   H630      1.0  0.31007  0.81102  0.77953  1.0000
  H   H631      1.0  0.17459  0.50581  0.71715  1.0000
  C   C359      1.0  0.28968  0.63131  0.82161  1.0000
  C   C360      1.0  0.27689  0.61488  0.80276  1.0000
  C   C361      1.0  0.24703  0.61457  0.80251  1.0000
  C   C362      1.0  0.22964  0.63109  0.82084  1.0000
  C   C363      1.0  0.24243  0.64731  0.83993  1.0000
  C   C364      1.0  0.27232  0.64736  0.84039  1.0000
  H   H632      1.0  0.29024  0.60252  0.78814  1.0000
  H   H633      1.0  0.23748  0.60190  0.78788  1.0000
  H   H634      1.0  0.22915  0.65986  0.85446  1.0000
  H   H635      1.0  0.28191  0.65949  0.85553  1.0000
  C   C365      1.0  0.17282  0.48594  0.72986  1.0000
  C   C366      1.0  0.24917  0.51252  0.75469  1.0000
  C   C367      1.0  0.47938  0.76264  0.74674  1.0000
  H   H636      1.0  0.44432  0.65574  0.91101  1.0000
  C   C368      1.0  0.46203  0.76191  0.97793  1.0000
  C   C369      1.0  0.41382  0.82207  0.68504  1.0000
  H   H637      1.0  0.17169  0.55239  0.82345  1.0000
  H   H638      1.0  0.22419  0.51445  0.84149  1.0000
  C   C370      1.0  0.25971  0.54772  0.71307  1.0000
  C   C371      1.0  0.01588  0.54014  0.69586  1.0000
  C   C372      1.0  0.00990  0.58559  0.75581  1.0000
  C   C373      1.0  0.03641  0.59810  0.75488  1.0000
  C   C374      1.0  0.03799  0.62746  0.74825  1.0000
  C   C375      1.0  0.01294  0.64407  0.74226  1.0000
  H   H639      1.0  0.03743  0.50739  0.78734  1.0000
  H   H640      1.0  0.05552  0.58520  0.75980  1.0000
  H   H641      1.0  0.01393  0.66686  0.73751  1.0000
  H   H642      1.0  0.40760  0.77799  0.69623  1.0000
  C   C376      1.0  0.45958  0.67229  0.90405  1.0000
  H   H643      1.0  0.44396  0.75005  0.80142  1.0000
  N   N22       1.0  0.26117  0.71157  0.74310  1.0000
  C   C377      1.0  0.28285  0.73144  0.72959  1.0000
  C   C378      1.0  0.26630  0.70516  0.77414  1.0000
  C   C379      1.0  0.26558  0.68391  0.72849  1.0000
  C   C380      1.0  0.23089  0.72309  0.73952  1.0000
  C   C381      1.0  0.22271  0.75295  0.75058  1.0000
  C   C382      1.0  0.28153  0.73869  0.69723  1.0000
  C   C383      1.0  0.24620  0.65966  0.73961  1.0000
  C   C384      1.0  0.27821  0.72937  0.79001  1.0000
  C   C385      1.0  0.27666  0.72256  0.82183  1.0000
  C   C386      1.0  0.19272  0.76346  0.74258  1.0000
  H   H644      1.0  0.30285  0.69935  0.68140  1.0000
  C   C387      1.0  0.25731  0.63118  0.72802  1.0000
  H   H645      1.0  0.30478  0.72265  0.73408  1.0000
  H   H646      1.0  0.28129  0.75229  0.73944  1.0000
  H   H647      1.0  0.24641  0.69841  0.78596  1.0000
  H   H648      1.0  0.28199  0.68651  0.77712  1.0000
  H   H649      1.0  0.28825  0.67563  0.72966  1.0000
  H   H650      1.0  0.26158  0.68738  0.70570  1.0000
  H   H651      1.0  0.22558  0.72351  0.71712  1.0000
  H   H652      1.0  0.21569  0.70831  0.75063  1.0000
  H   H653      1.0  0.23741  0.76922  0.74171  1.0000
  H   H654      1.0  0.22259  0.75174  0.77396  1.0000
  N   N23       1.0  0.24355  0.50647  0.78608  1.0000
  H   H655      1.0  0.11968  0.68600  0.68026  1.0000
  H   H656      1.0  0.22418  0.66443  0.73279  1.0000
  H   H657      1.0  0.24509  0.65708  0.76287  1.0000
  H   H658      1.0  0.30098  0.73145  0.78327  1.0000
  H   H659      1.0  0.26682  0.75040  0.78587  1.0000
  H   H660      1.0  0.28973  0.70264  0.82682  1.0000
  H   H661      1.0  0.28532  0.74024  0.83255  1.0000
  H   H662      1.0  0.25431  0.71993  0.82996  1.0000
  H   H663      1.0  0.19200  0.76694  0.71930  1.0000
  H   H664      1.0  0.17689  0.74776  0.75043  1.0000
  H   H665      1.0  0.18677  0.78418  0.75205  1.0000
  C   C388      1.0  0.36779  0.74746  0.98806  1.0000
  H   H666      1.0  0.11102  0.75126  0.67297  1.0000
  H   H667      1.0  0.23730  0.54892  0.70674  1.0000
  H   H668      1.0  0.27847  0.62446  0.73616  1.0000
  H   H669      1.0  0.24233  0.61444  0.73477  1.0000
  H   H670      1.0  0.25909  0.63297  0.70457  1.0000
  N   N24       1.0  0.44808  0.76896  0.74229  1.0000
  C   C389      1.0  0.43529  0.74174  0.73522  1.0000
  C   C390      1.0  0.44555  0.78981  0.71678  1.0000
  C   C391      1.0  0.43199  0.78203  0.76733  1.0000
  C   C392      1.0  0.41492  0.79652  0.70667  1.0000
  C   C393      1.0  0.43730  0.71611  0.75728  1.0000
  C   C394      1.0  0.42571  0.68952  0.74610  1.0000
  H   H671      1.0  0.26898  0.56853  0.70661  1.0000
  H   H672      1.0  0.41222  0.74562  0.73204  1.0000
  C   C395      1.0  0.15912  0.48603  0.75676  1.0000
  C   C396      1.0  0.20717  0.52043  0.82670  1.0000
  H   H673      1.0  0.46692  0.68145  0.94642  1.0000
  H   H674      1.0  0.40908  0.77719  0.76792  1.0000
  H   H675      1.0  0.39957  0.80150  0.72456  1.0000
  H   H676      1.0  0.19292  0.50235  0.82702  1.0000
  H   H677      1.0  0.42413  0.72105  0.77661  1.0000
  C   C397      1.0  0.05641  0.51079  0.77275  1.0000
  C   C398      1.0  0.36442  0.95458  0.72724  1.0000
  H   H678      1.0  0.22932  0.51001  0.74356  1.0000
  H   H679      1.0  0.16219  0.68138  0.70156  1.0000
  H   H680      1.0  0.30489  0.66695  0.96037  1.0000
  C   C399      1.0  0.44292  0.77346  0.79704  1.0000
  C   C400      1.0  0.48013  0.67534  0.92732  1.0000
  C   C401      1.0  0.17937  0.68988  0.68831  1.0000
  C   C402      1.0  0.07315  0.71254  0.70747  1.0000
  H   H681      1.0  0.45371  0.77295  0.93392  1.0000
  H   H682      1.0  0.27823  0.69566  0.95465  1.0000
  H   H683      1.0  0.02026  0.72653  0.66271  1.0000
  C   C403      1.0  0.30504  0.72278  0.67966  1.0000
  S   S93       1.0  0.25565  0.81872  0.68511  1.0000
  C   C404      1.0  0.10098  0.71282  0.72336  1.0000
  C   C405      1.0  0.09570  0.72721  0.75127  1.0000
  H   H684      1.0  0.27212  0.53060  0.70178  1.0000
  S   S94       1.0  0.19929  0.63367  0.68306  1.0000
  H   H685      1.0  0.09518  0.66060  0.69251  1.0000
  H   H686      1.0  0.26071  0.73527  0.68901  1.0000
  H   H687      1.0  0.06278  0.73455  0.70705  1.0000
  H   H688      1.0  0.05887  0.69939  0.72186  1.0000
  H   H689      1.0  0.02703  0.54064  0.71569  1.0000
  H   H690      1.0  0.42237  0.81056  0.81707  1.0000
  H   H691      1.0  0.35943  0.94079  0.71024  1.0000
  C   C406      1.0  0.17969  0.71950  0.68176  1.0000
  H   H692      1.0  0.38552  0.96343  0.72170  1.0000
  H   H693      1.0  0.48532  0.76148  0.97264  1.0000
  C   C407      1.0  0.27039  0.50788  0.80180  1.0000
  H   H694      1.0  0.43202  0.78067  0.84110  1.0000
  H   H695      1.0  0.01773  0.71494  0.69958  1.0000
  H   H696      1.0  0.00185  0.55997  0.69322  1.0000
  H   H697      1.0  0.10937  0.69059  0.72850  1.0000
  H   H698      1.0  0.11774  0.72407  0.71075  1.0000
  H   H699      1.0  0.08801  0.74993  0.74752  1.0000
  H   H700      1.0  0.07976  0.71570  0.76517  1.0000
  H   H701      1.0  0.11590  0.72655  0.76231  1.0000
  C   C408      1.0  0.34130  0.97872  0.72985  1.0000
  C   C409      1.0  0.25090  0.93383  0.67020  1.0000
  H   H702      1.0  0.98765  0.50998  0.74061  1.0000
  H   H703      1.0  0.36090  0.76992  0.98633  1.0000
  H   H704      1.0  0.31282  0.70345  0.96538  1.0000
  H   H705      1.0  0.32636  0.72731  0.68645  1.0000
  H   H706      1.0  0.44518  0.73443  0.71481  1.0000
  H   H707      1.0  0.31859  0.95612  0.66594  1.0000
  S   S95       1.0  0.23150  0.90260  0.67170  1.0000
  H   H708      1.0  0.48260  0.74853  0.76611  1.0000
  C   C410      1.0  0.99849  0.51361  0.69642  1.0000
  H   H709      1.0  0.43189  0.80584  0.76514  1.0000
  H   H710      1.0  0.04554  0.66838  0.68789  1.0000
  H   H711      1.0  0.40302  0.69364  0.74108  1.0000
  H   H712      1.0  0.42701  0.67154  0.76248  1.0000
  S   S96       1.0  0.33645  0.79102  0.68038  1.0000
  H   H713      1.0  0.42353  0.76014  0.95497  1.0000
  C   C411      1.0  0.27676  0.53748  0.81217  1.0000
  H   H714      1.0  0.48528  0.80596  0.76067  1.0000
  H   H715      1.0  0.05153  0.52936  0.75784  1.0000
  C   C412      1.0  0.20197  0.73113  0.66479  1.0000
  H   H716      1.0  0.16275  0.73365  0.69014  1.0000
  C   C413      1.0  0.30658  0.53711  0.82326  1.0000
  H   H717      1.0  0.03212  0.53982  0.67794  1.0000
  H   H718      1.0  0.31018  0.55847  0.83087  1.0000
  H   H719      1.0  0.00867  0.56302  0.76160  1.0000
  C   C414      1.0  0.21969  0.52695  0.79621  1.0000
  H   H720      1.0  0.99230  0.67224  0.68791  1.0000
  C   C415      1.0  0.29598  0.68774  0.96799  1.0000
  H   H721      1.0  0.30892  0.52085  0.84115  1.0000
  C   C416      1.0  0.26077  0.54200  0.74503  1.0000
  C   C417      1.0  0.18933  0.54622  0.83754  1.0000
  H   H722      1.0  0.27534  0.55456  0.79520  1.0000
  H   H723      1.0  0.22625  0.54929  0.79469  1.0000
  H   H724      1.0  0.46366  0.72801  0.84449  1.0000
  H   H725      1.0  0.26134  0.54366  0.82961  1.0000
  H   H726      1.0  0.20156  0.52720  0.78216  1.0000
  H   H727      1.0  0.08180  0.48991  0.74057  1.0000
  H   H728      1.0  0.36537  0.94116  0.74733  1.0000
  H   H729      1.0  0.24849  0.55991  0.75489  1.0000
  H   H730      1.0  0.28339  0.54234  0.75034  1.0000
  H   H731      1.0  0.17995  0.54077  0.85905  1.0000
  H   H732      1.0  0.20272  0.56481  0.83858  1.0000
  H   H733      1.0  0.28442  0.76189  0.69306  1.0000
  H   H734      1.0  0.07454  0.51610  0.78505  1.0000
  H   H735      1.0  0.45211  0.73532  0.94390  1.0000
  H   H736      1.0  0.43844  0.68296  0.72694  1.0000
  H   H737      1.0  0.45902  0.78184  0.69849  1.0000
  C   C418      1.0  0.09891  0.67804  0.67588  1.0000
  H   H738      1.0  0.32057  0.96865  0.73397  1.0000
  H   H739      1.0  0.46453  0.78097  0.79908  1.0000
  H   H740      1.0  0.45467  0.78362  0.98414  1.0000
  C   C419      1.0  0.23613  0.96073  0.67181  1.0000
  H   H741      1.0  0.46047  0.71783  0.99220  1.0000
  H   H742      1.0  0.41962  0.84176  0.69458  1.0000
  H   H743      1.0  0.27000  0.49298  0.82104  1.0000
  H   H744      1.0  0.01347  0.49448  0.69896  1.0000
  H   H745      1.0  0.21309  0.96199  0.67378  1.0000
  N   N25       1.0  0.07544  0.70136  0.67812  1.0000
  C   C420      1.0  0.04780  0.68801  0.67349  1.0000
  C   C421      1.0  0.02018  0.70750  0.67783  1.0000
  H   H746      1.0  0.13033  0.62805  0.66362  1.0000
  H   H747      1.0  0.42847  0.81787  0.66639  1.0000
  H   H748      1.0  0.47105  0.66582  0.88420  1.0000
  H   H749      1.0  0.45956  0.71038  0.76272  1.0000
  H   H750      1.0  0.98930  0.51325  0.67560  1.0000
  C   C422      1.0  0.38593  0.68974  0.99222  1.0000
  C   C423      1.0  0.99375  0.69143  0.67303  1.0000
  C   C424      1.0  0.06432  0.48421  0.75632  1.0000
  C   C425      1.0  0.48426  0.72097  0.83535  1.0000
  H   H751      1.0  0.29226  0.91178  0.66671  1.0000
  C   C426      1.0  0.28069  0.93236  0.66781  1.0000
  C   C427      1.0  0.29554  0.95752  0.66742  1.0000
  Fe  Fe49      1.0  0.94968  0.32578  0.23374  1.0000
  S   S97       1.0  0.93401  0.33579  0.27767  1.0000
  C   C428      1.0  0.82215  0.46088  0.22121  1.0000
  Fe  Fe50      1.0  0.88901  0.31752  0.21598  1.0000
  S   S98       1.0  0.86905  0.32759  0.25844  1.0000
  S   S99       1.0  0.86588  0.30318  0.17918  1.0000
  Fe  Fe51      1.0  0.89948  0.36317  0.25663  1.0000
  S   S100      1.0  0.88626  0.40666  0.27346  1.0000
  Fe  Fe52      1.0  0.90520  0.29930  0.27549  1.0000
  C   C429      1.0  0.81868  0.18807  0.24080  1.0000
  S   S101      1.0  0.91668  0.35528  0.21266  1.0000
  S   S102      1.0  0.92357  0.28708  0.23310  1.0000
  Fe  Fe53      1.0  0.69855  0.20047  0.17329  1.0000
  S   S103      1.0  0.67971  0.24279  0.18643  1.0000
  S   S104      1.0  0.71056  0.16223  0.20285  1.0000
  Fe  Fe54      1.0  0.69767  0.21936  0.11047  1.0000
  S   S105      1.0  0.67923  0.26352  0.11914  1.0000
  S   S106      1.0  0.70869  0.20093  0.06775  1.0000
  Fe  Fe55      1.0  0.71046  0.26195  0.15355  1.0000
  S   S107      1.0  0.73243  0.30053  0.16678  1.0000
  Fe  Fe56      1.0  0.65007  0.24073  0.15134  1.0000
  S   S108      1.0  0.60362  0.25675  0.15774  1.0000
  S   S109      1.0  0.73129  0.21947  0.14241  1.0000
  S   S110      1.0  0.66654  0.19673  0.14055  1.0000
  C   C430      1.0  0.84642  0.23030  0.23076  1.0000
  H   H752      1.0  0.77008  0.08441  0.23186  1.0000
  H   H753      1.0  0.86388  0.22157  0.24404  1.0000
  C   C431      1.0  0.57295  0.23727  0.15517  1.0000
  C   C432      1.0  0.57466  0.20766  0.15272  1.0000
  C   C433      1.0  0.54959  0.19259  0.15413  1.0000
  C   C434      1.0  0.54599  0.25184  0.15723  1.0000
  H   H754      1.0  0.59528  0.19627  0.15066  1.0000
  H   H755      1.0  0.55108  0.16954  0.15339  1.0000
  H   H756      1.0  0.54448  0.27479  0.15897  1.0000
  C   C435      1.0  0.71344  0.16417  0.23960  1.0000
  C   C436      1.0  0.70455  0.18865  0.25378  1.0000
  C   C437      1.0  0.70809  0.18931  0.28299  1.0000
  C   C438      1.0  0.72056  0.16549  0.29814  1.0000
  C   C439      1.0  0.72843  0.14073  0.28406  1.0000
  C   C440      1.0  0.72489  0.14015  0.25498  1.0000
  H   H757      1.0  0.69514  0.20704  0.24224  1.0000
  H   H758      1.0  0.70155  0.20843  0.29381  1.0000
  H   H759      1.0  0.73704  0.12193  0.29564  1.0000
  H   H760      1.0  0.73132  0.12112  0.24421  1.0000
  H   H761      1.0  0.82821  0.45179  0.24226  1.0000
  C   C441      1.0  0.58599  0.21983  0.01636  1.0000
  H   H762      1.0  0.90600  0.42184  0.21532  1.0000
  C   C442      1.0  0.49095  0.14320  0.24641  1.0000
  C   C443      1.0  0.82867  0.30056  0.17796  1.0000
  C   C444      1.0  0.81832  0.28556  0.15644  1.0000
  C   C445      1.0  0.78885  0.28410  0.15378  1.0000
  C   C446      1.0  0.76944  0.29864  0.17195  1.0000
  C   C447      1.0  0.77977  0.31350  0.19363  1.0000
  C   C448      1.0  0.80928  0.31391  0.19704  1.0000
  H   H763      1.0  0.83321  0.27519  0.14158  1.0000
  H   H764      1.0  0.78117  0.27275  0.13691  1.0000
  H   H765      1.0  0.76485  0.32473  0.20782  1.0000
  H   H766      1.0  0.81703  0.32520  0.21388  1.0000
  C   C449      1.0  0.52262  0.20710  0.15697  1.0000
  N   N26       1.0  0.81831  0.22012  0.24335  1.0000
  H   H767      1.0  0.73559  0.09190  0.19477  1.0000
  H   H768      1.0  0.81208  0.18336  0.21954  1.0000
  H   H769      1.0  0.78051  0.44323  0.22037  1.0000
  H   H770      1.0  0.50049  0.21380  0.23024  1.0000
  H   H771      1.0  0.82741  0.39076  0.29035  1.0000
  C   C450      1.0  0.69743  0.19781  0.01211  1.0000
  C   C451      1.0  0.90180  0.46808  0.21070  1.0000
  C   C452      1.0  0.67668  0.23966  0.03445  1.0000
  C   C453      1.0  0.69300  0.21377  0.03619  1.0000
  C   C454      1.0  0.52090  0.23688  0.15780  1.0000
  H   H772      1.0  0.67329  0.25219  0.05280  1.0000
  H   H773      1.0  0.75993  0.24654  0.06949  1.0000
  H   H774      1.0  0.65497  0.13231  0.20232  1.0000
  C   C455      1.0  0.79491  0.23530  0.22684  1.0000
  C   C456      1.0  0.89044  0.43987  0.25416  1.0000
  C   C457      1.0  0.90012  0.44132  0.22576  1.0000
  H   H775      1.0  0.54420  0.19246  0.25461  1.0000
  C   C458      1.0  0.97091  0.26917  0.31818  1.0000
  H   H776      1.0  0.80305  0.27310  0.26696  1.0000
  C   C459      1.0  0.88294  0.46543  0.26743  1.0000
  N   N27       1.0  0.60019  0.20965  0.24279  1.0000
  C   C460      1.0  0.62330  0.23053  0.23741  1.0000
  C   C461      1.0  0.60493  0.18657  0.22199  1.0000
  C   C462      1.0  0.57225  0.22593  0.23667  1.0000
  C   C463      1.0  0.59854  0.19680  0.27283  1.0000
  C   C464      1.0  0.62701  0.19264  0.28813  1.0000
  C   C465      1.0  0.61900  0.25821  0.25380  1.0000
  C   C466      1.0  0.54587  0.20779  0.23589  1.0000
  C   C467      1.0  0.63255  0.16715  0.22388  1.0000
  C   C468      1.0  0.63474  0.14570  0.20085  1.0000
  H   H777      1.0  0.84178  0.46305  0.20737  1.0000
  C   C469      1.0  0.64681  0.27325  0.25456  1.0000
  H   H778      1.0  0.62496  0.23759  0.21458  1.0000
  H   H779      1.0  0.64452  0.22024  0.24175  1.0000
  H   H780      1.0  0.58749  0.17155  0.22441  1.0000
  H   H781      1.0  0.60461  0.19650  0.20010  1.0000
  H   H782      1.0  0.57422  0.23842  0.21591  1.0000
  H   H783      1.0  0.56683  0.24207  0.25261  1.0000
  H   H784      1.0  0.58396  0.21024  0.28657  1.0000
  H   H785      1.0  0.58869  0.17574  0.27364  1.0000
  H   H786      1.0  0.75695  0.06665  0.28590  1.0000
  H   H787      1.0  0.64464  0.18286  0.27496  1.0000
  H   H788      1.0  0.60339  0.27342  0.24318  1.0000
  H   H789      1.0  0.61057  0.25371  0.27581  1.0000
  S   S111      1.0  0.86050  0.13967  0.31318  1.0000
  H   H790      1.0  0.54727  0.19570  0.21647  1.0000
  H   H791      1.0  0.65169  0.17985  0.22125  1.0000
  H   H792      1.0  0.63252  0.15434  0.24431  1.0000
  H   H793      1.0  0.63473  0.15697  0.17960  1.0000
  H   H794      1.0  0.72708  0.26521  0.00020  1.0000
  H   H795      1.0  0.74722  0.27306  0.22701  1.0000
  H   H796      1.0  0.60941  0.21704  0.01202  1.0000
  H   H797      1.0  0.65498  0.27968  0.23281  1.0000
  H   H798      1.0  0.55365  0.25111  0.99778  1.0000
  H   H799      1.0  0.66322  0.25901  0.26514  1.0000
  H   H800      1.0  0.79678  0.45281  0.18692  1.0000
  H   H801      1.0  0.81001  0.16940  0.28384  1.0000
  H   H802      1.0  0.74349  0.24746  0.20052  1.0000
  H   H803      1.0  0.71004  0.17773  0.01333  1.0000
  C   C470      1.0  0.76106  0.04298  0.28804  1.0000
  H   H804      1.0  0.65398  0.16611  0.08358  1.0000
  H   H805      1.0  0.78672  0.03350  0.21949  1.0000
  N   N28       1.0  0.81157  0.41126  0.20450  1.0000
  C   C471      1.0  0.78779  0.39558  0.19371  1.0000
  C   C472      1.0  0.81982  0.39665  0.23229  1.0000
  C   C473      1.0  0.80125  0.44201  0.20785  1.0000
  C   C474      1.0  0.83750  0.41068  0.18424  1.0000
  C   C475      1.0  0.84871  0.38070  0.17502  1.0000
  C   C476      1.0  0.77892  0.40497  0.16343  1.0000
  C   C477      1.0  0.74612  0.07029  0.19897  1.0000
  C   C478      1.0  0.79720  0.39893  0.25729  1.0000
  C   C479      1.0  0.80751  0.38221  0.28379  1.0000
  C   C480      1.0  0.87430  0.38307  0.15384  1.0000
  C   C481      1.0  0.75667  0.38564  0.15413  1.0000
  C   C482      1.0  0.76288  0.25006  0.02363  1.0000
  H   H806      1.0  0.76814  0.39818  0.20769  1.0000
  H   H807      1.0  0.79322  0.37218  0.19462  1.0000
  H   H808      1.0  0.82486  0.37342  0.22993  1.0000
  H   H809      1.0  0.83990  0.40479  0.23892  1.0000
  C   C483      1.0  0.97864  0.21192  0.29479  1.0000
  C   C484      1.0  0.88770  0.23245  0.31280  1.0000
  H   H810      1.0  0.83366  0.42484  0.16497  1.0000
  H   H811      1.0  0.85565  0.41979  0.19386  1.0000
  H   H812      1.0  0.83227  0.36967  0.16480  1.0000
  H   H813      1.0  0.85565  0.36691  0.19347  1.0000
  H   H814      1.0  0.76941  0.42723  0.16262  1.0000
  H   H815      1.0  0.79725  0.40383  0.14773  1.0000
  C   C485      1.0  0.50043  0.23134  0.08153  1.0000
  H   H816      1.0  0.49827  0.17148  0.99604  1.0000
  H   H817      1.0  0.79273  0.42150  0.26263  1.0000
  H   H818      1.0  0.77696  0.39003  0.25227  1.0000
  H   H819      1.0  0.84335  0.08729  0.28782  1.0000
  H   H820      1.0  0.97827  0.26163  0.20620  1.0000
  H   H821      1.0  0.63171  0.19197  0.04334  1.0000
  H   H822      1.0  0.89171  0.39373  0.16302  1.0000
  H   H823      1.0  0.88250  0.36130  0.14831  1.0000
  H   H824      1.0  0.86803  0.39538  0.13421  1.0000
  H   H825      1.0  0.74990  0.39322  0.13281  1.0000
  H   H826      1.0  0.76572  0.36325  0.15305  1.0000
  H   H827      1.0  0.73757  0.38588  0.16903  1.0000
  C   C486      1.0  0.87160  0.17513  0.31364  1.0000
  H   H828      1.0  0.94965  0.16394  0.31245  1.0000
  C   C487      1.0  0.81596  0.22702  0.27404  1.0000
  H   H829      1.0  0.83229  0.00001  0.24824  1.0000
  H   H830      1.0  0.54360  0.12879  0.21917  1.0000
  H   H831      1.0  0.97992  0.19571  0.27863  1.0000
  C   C488      1.0  0.97957  0.19468  0.32375  1.0000
  C   C489      1.0  0.75216  0.26137  0.05205  1.0000
  H   H832      1.0  0.50028  0.24828  0.16005  1.0000
  C   C490      1.0  0.54114  0.12071  0.24164  1.0000
  N   N29       1.0  0.57868  0.22703  0.04661  1.0000
  C   C491      1.0  0.58969  0.20209  0.06548  1.0000
  C   C492      1.0  0.54645  0.23120  0.05045  1.0000
  H   H833      1.0  0.79104  0.38425  0.30137  1.0000
  C   C493      1.0  0.59264  0.25421  0.05148  1.0000
  C   C494      1.0  0.58965  0.26423  0.08188  1.0000
  C   C495      1.0  0.62251  0.19603  0.06479  1.0000
  H   H834      1.0  0.49698  0.25500  0.07915  1.0000
  C   C496      1.0  0.53227  0.22253  0.07988  1.0000
  C   C497      1.0  0.85463  0.22258  0.19989  1.0000
  C   C498      1.0  0.60680  0.29050  0.08439  1.0000
  C   C499      1.0  0.63040  0.16949  0.08373  1.0000
  H   H835      1.0  0.95713  0.22300  0.29303  1.0000
  H   H836      1.0  0.57987  0.18218  0.06028  1.0000
  H   H837      1.0  0.58322  0.20504  0.08798  1.0000
  H   H838      1.0  0.53940  0.25393  0.04508  1.0000
  H   H839      1.0  0.53589  0.21851  0.03544  1.0000
  H   H840      1.0  0.64299  0.29285  0.26649  1.0000
  H   H841      1.0  0.72230  0.02862  0.27003  1.0000
  H   H842      1.0  0.61570  0.25220  0.04499  1.0000
  H   H843      1.0  0.58379  0.27233  0.03776  1.0000
  H   H844      1.0  0.59763  0.24730  0.09724  1.0000
  H   H845      1.0  0.56708  0.27044  0.08773  1.0000
  C   C500      1.0  0.75027  0.26884  0.99875  1.0000
  H   H846      1.0  0.63302  0.21427  0.07267  1.0000
  H   H847      1.0  0.79744  0.25875  0.22513  1.0000
  C   C501      1.0  0.85155  0.06455  0.28867  1.0000
  H   H848      1.0  0.53436  0.19891  0.08399  1.0000
  H   H849      1.0  0.54213  0.23247  0.09709  1.0000
  H   H850      1.0  0.89973  0.21121  0.20480  1.0000
  H   H851      1.0  0.79672  0.22917  0.20454  1.0000
  C   C502      1.0  0.81258  0.98811  0.25001  1.0000
  H   H852      1.0  0.59936  0.30845  0.06974  1.0000
  H   H853      1.0  0.60404  0.29760  0.10628  1.0000
  H   H854      1.0  0.62984  0.28529  0.07962  1.0000
  H   H855      1.0  0.84687  0.25403  0.23068  1.0000
  H   H856      1.0  0.62209  0.17220  0.10581  1.0000
  H   H857      1.0  0.62167  0.15020  0.07591  1.0000
  H   H858      1.0  0.61671  0.13138  0.20337  1.0000
  C   C503      1.0  0.88615  0.22685  0.19227  1.0000
  H   H859      1.0  0.89260  0.17478  0.27209  1.0000
  H   H860      1.0  0.87540  0.46447  0.28940  1.0000
  H   H861      1.0  0.65244  0.26962  0.00758  1.0000
  H   H862      1.0  0.89161  0.24879  0.19647  1.0000
  H   H863      1.0  0.98320  0.21485  0.23462  1.0000
  H   H864      1.0  0.78645  0.24949  0.02285  1.0000
  H   H865      1.0  0.79616  0.21934  0.28497  1.0000
  C   C504      1.0  0.71091  0.04409  0.31081  1.0000
  H   H866      1.0  0.83323  0.21497  0.28549  1.0000
  H   H867      1.0  0.75396  0.02107  0.23376  1.0000
  H   H868      1.0  0.79984  0.29476  0.00150  1.0000
  H   H869      1.0  0.75895  0.20787  0.23290  1.0000
  H   H870      1.0  0.85105  0.20004  0.19618  1.0000
  C   C505      1.0  0.76405  0.22971  0.23787  1.0000
  H   H871      1.0  0.76050  0.23210  0.26082  1.0000
  H   H872      1.0  0.49807  0.15766  0.26187  1.0000
  H   H873      1.0  0.89092  0.22369  0.16949  1.0000
  H   H874      1.0  0.69058  0.03311  0.31276  1.0000
  C   C506      1.0  0.88709  0.18736  0.29012  1.0000
  H   H875      1.0  0.77831  0.17927  0.26570  1.0000
  H   H876      1.0  0.84181  0.23647  0.18506  1.0000
  H   H877      1.0  0.81448  0.04837  0.31074  1.0000
  H   H878      1.0  0.52020  0.24417  0.21809  1.0000
  H   H879      1.0  0.76010  0.28284  0.05446  1.0000
  H   H880      1.0  0.80421  0.98795  0.22868  1.0000
  C   C507      1.0  0.74270  0.25066  0.22348  1.0000
  H   H881      1.0  0.57735  0.19892  0.01242  1.0000
  H   H882      1.0  0.97495  0.25873  0.26004  1.0000
  H   H883      1.0  0.90890  0.46900  0.18862  1.0000
  H   H884      1.0  0.78660  0.12701  0.26996  1.0000
  C   C508      1.0  0.80047  0.17027  0.26294  1.0000
  C   C509      1.0  0.73214  0.02859  0.29061  1.0000
  H   H885      1.0  0.86575  0.06075  0.26961  1.0000
  H   H886      1.0  0.72088  0.24717  0.23249  1.0000
  H   H887      1.0  0.84079  0.17832  0.24248  1.0000
  H   H888      1.0  0.78979  0.13925  0.23348  1.0000
  C   C510      1.0  0.79962  0.13955  0.25413  1.0000
  H   H889      1.0  0.76486  0.06782  0.18381  1.0000
  H   H890      1.0  0.82147  0.12918  0.25271  1.0000
  H   H891      1.0  0.63405  0.21354  0.29389  1.0000
  H   H892      1.0  0.90651  0.22537  0.27130  1.0000
  H   H893      1.0  0.83628  0.02236  0.29176  1.0000
  H   H894      1.0  0.86426  0.06059  0.30763  1.0000
  C   C511      1.0  0.89489  0.21602  0.28958  1.0000
  H   H895      1.0  0.73597  0.07098  0.24335  1.0000
  H   H896      1.0  0.51334  0.23642  0.25557  1.0000
  H   H897      1.0  0.72851  0.26281  0.05402  1.0000
  H   H898      1.0  0.77019  0.03889  0.30895  1.0000
  C   C512      1.0  0.66490  0.24945  0.00884  1.0000
  H   H899      1.0  0.75628  0.22775  0.02327  1.0000
  C   C513      1.0  0.51834  0.22678  0.23499  1.0000
  C   C514      1.0  0.75536  0.06730  0.22934  1.0000
  C   C515      1.0  0.76976  0.03728  0.23641  1.0000
  S   S112      1.0  0.89700  0.26842  0.31355  1.0000
  H   H900      1.0  0.73071  0.05402  0.19552  1.0000
  N   N30       1.0  0.78211  0.03300  0.26505  1.0000
  H   H901      1.0  0.82200  0.04759  0.24547  1.0000
  H   H902      1.0  0.55438  0.10039  0.24436  1.0000
  H   H903      1.0  0.54908  0.13651  0.25527  1.0000
  H   H904      1.0  0.80155  0.07368  0.26419  1.0000
  C   C516      1.0  0.80805  0.05045  0.26494  1.0000
  C   C517      1.0  0.82690  0.04466  0.29064  1.0000
  H   H905      1.0  0.81150  0.35915  0.27998  1.0000
  H   H906      1.0  0.75152  0.29181  0.00293  1.0000
  H   H907      1.0  0.73519  0.00607  0.29919  1.0000
  C   C518      1.0  0.80920  0.26420  0.31087  1.0000
  H   H908      1.0  0.95942  0.44632  0.20042  1.0000
  H   H909      1.0  0.79647  0.99721  0.29270  1.0000
  H   H910      1.0  0.96062  0.27838  0.29905  1.0000
  C   C519      1.0  0.81755  0.25904  0.27998  1.0000
  H   H911      1.0  0.83967  0.26580  0.27560  1.0000
  H   H912      1.0  0.61818  0.15190  0.31075  1.0000
  C   C520      1.0  0.62371  0.17374  0.31539  1.0000
  H   H913      1.0  0.50352  0.09866  0.23636  1.0000
  H   H914      1.0  0.49082  0.22392  0.10243  1.0000
  H   H915      1.0  0.81217  0.28688  0.31487  1.0000
  C   C521      1.0  0.78966  0.00154  0.27080  1.0000
  H   H916      1.0  0.78651  0.25970  0.31591  1.0000
  C   C522      1.0  0.50993  0.11528  0.24987  1.0000
  H   H917      1.0  0.77051  0.98892  0.26995  1.0000
  H   H918      1.0  0.50892  0.10705  0.27230  1.0000
  H   H919      1.0  0.48929  0.22153  0.06494  1.0000
  H   H920      1.0  0.49672  0.15384  0.22536  1.0000
  H   H921      1.0  0.70644  0.06663  0.30283  1.0000
  C   C523      1.0  0.98285  0.44496  0.19600  1.0000
  S   S113      1.0  0.49199  0.18696  0.16208  1.0000
  H   H922      1.0  0.64422  0.17186  0.32602  1.0000
  H   H923      1.0  0.82275  0.25035  0.32509  1.0000
  H   H924      1.0  0.76786  0.00199  0.56467  1.0000
  Fe  Fe57      1.0  0.75828  0.13123  0.60936  1.0000
  S   S114      1.0  0.80252  0.11401  0.61851  1.0000
  S   S115      1.0  0.74026  0.13804  0.56586  1.0000
  H   H925      1.0  0.71939  0.04394  0.33213  1.0000
  H   H926      1.0  0.80409  0.07065  0.54196  1.0000
  H   H927      1.0  0.74940  0.03047  0.62862  1.0000
  H   H928      1.0  0.87277  0.22242  0.55382  1.0000
  H   H929      1.0  0.95671  0.25350  0.32922  1.0000
  S   S116      1.0  0.75852  0.16669  0.63914  1.0000
  Fe  Fe58      1.0  0.78568  0.07680  0.36612  1.0000
  S   S117      1.0  0.75744  0.10705  0.39202  1.0000
  C   C524      1.0  0.86784  0.16722  0.57353  1.0000
  Fe  Fe59      1.0  0.82462  0.12554  0.34449  1.0000
  S   S118      1.0  0.79905  0.15798  0.36941  1.0000
  Fe  Fe60      1.0  0.79821  0.12366  0.40494  1.0000
  S   S119      1.0  0.81305  0.12911  0.44913  1.0000
  H   H930      1.0  0.83312  0.24389  0.50843  1.0000
  S   S120      1.0  0.82647  0.09193  0.38073  1.0000
  H   H931      1.0  0.74374  0.23811  0.56461  1.0000
  C   C525      1.0  0.76070  0.13519  0.53358  1.0000
  C   C526      1.0  0.74696  0.13865  0.50803  1.0000
  C   C527      1.0  0.76256  0.13650  0.48194  1.0000
  C   C528      1.0  0.79213  0.13119  0.48122  1.0000
  C   C529      1.0  0.80584  0.12769  0.50681  1.0000
  C   C530      1.0  0.79018  0.12941  0.53288  1.0000
  H   H932      1.0  0.72412  0.14306  0.50840  1.0000
  H   H933      1.0  0.75178  0.13930  0.46239  1.0000
  H   H934      1.0  0.82870  0.12347  0.50641  1.0000
  H   H935      1.0  0.80091  0.12623  0.55238  1.0000
  H   H936      1.0  0.71133  0.03971  0.54416  1.0000
  H   H937      1.0  0.76898  0.08089  0.45558  1.0000
  H   H938      1.0  0.88261  0.26306  0.61740  1.0000
  H   H939      1.0  0.73386  0.98642  0.60889  1.0000
  H   H940      1.0  0.74710  0.04289  0.50097  1.0000
  H   H941      1.0  0.80100  0.22238  0.59478  1.0000
  H   H942      1.0  0.87537  0.27783  0.58247  1.0000
  H   H943      1.0  0.71610  0.07669  0.53392  1.0000
  S   S121      1.0  0.72557  0.16691  0.33461  1.0000
  C   C531      1.0  0.80099  0.04733  0.54571  1.0000
  H   H944      1.0  0.82245  0.16373  0.57328  1.0000
  H   H945      1.0  0.75733  0.07850  0.56174  1.0000
  C   C532      1.0  0.77552  0.20231  0.56689  1.0000
  H   H946      1.0  0.93384  0.19274  0.33284  1.0000
  S   S122      1.0  0.76831  0.03216  0.36834  1.0000
  C   C533      1.0  0.76549  0.05323  0.50893  1.0000
  H   H947      1.0  0.89398  0.12949  0.58659  1.0000
  H   H948      1.0  0.74378  0.00594  0.53774  1.0000
  C   C534      1.0  0.83963  0.04566  0.58099  1.0000
  H   H949      1.0  0.79700  0.23403  0.51604  1.0000
  H   H950      1.0  0.77375  0.19842  0.54433  1.0000
  C   C535      1.0  0.80905  0.03864  0.57642  1.0000
  C   C536      1.0  0.79062  0.05183  0.48623  1.0000
  H   H951      1.0  0.74788  0.22173  0.59984  1.0000
  C   C537      1.0  0.69939  0.06866  0.57642  1.0000
  Fe  Fe61      1.0  0.76105  0.13812  0.35386  1.0000
  H   H952      1.0  0.79514  0.05050  0.59191  1.0000
  C   C538      1.0  0.83696  0.18038  0.57802  1.0000
  H   H953      1.0  0.83935  0.20757  0.47181  1.0000
  N   N31       1.0  0.77120  0.04130  0.53854  1.0000
  C   C539      1.0  0.75060  0.05655  0.55900  1.0000
  C   C540      1.0  0.82988  0.20123  0.53026  1.0000
  H   H954      1.0  0.84233  0.06896  0.57689  1.0000
  Fe  Fe62      1.0  0.80092  0.14711  0.65115  1.0000
  H   H955      1.0  0.80741  0.01533  0.58133  1.0000
  H   H956      1.0  0.81732  0.03673  0.53152  1.0000
  H   H957      1.0  0.75097  0.04541  0.58032  1.0000
  H   H958      1.0  0.77910  0.99257  0.50152  1.0000
  H   H959      1.0  0.81018  0.23339  0.46524  1.0000
  H   H960      1.0  0.86828  0.23208  0.35500  1.0000
  H   H961      1.0  0.84563  0.25010  0.55210  1.0000
  H   H962      1.0  0.75903  0.07649  0.50909  1.0000
  H   H963      1.0  0.87344  0.16406  0.55094  1.0000
  H   H964      1.0  0.85755  0.12259  0.58128  1.0000
  N   N32       1.0  0.82997  0.20789  0.56091  1.0000
  H   H965      1.0  0.80635  0.06760  0.49029  1.0000
  H   H966      1.0  0.86196  0.21798  0.60825  1.0000
  H   H967      1.0  0.83272  0.18320  0.60095  1.0000
  H   H968      1.0  0.80300  0.19793  0.47970  1.0000
  C   C541      1.0  0.74754  0.21755  0.57713  1.0000
  H   H969      1.0  0.86637  0.13978  0.61242  1.0000
  C   C542      1.0  0.85632  0.23725  0.59452  1.0000
  H   H970      1.0  0.98264  0.28517  0.35774  1.0000
  C   C543      1.0  0.80126  0.22016  0.57158  1.0000
  H   H971      1.0  0.81725  0.18233  0.52790  1.0000
  C   C544      1.0  0.81103  0.99357  0.34848  1.0000
  H   H972      1.0  0.77761  0.18134  0.57890  1.0000
  C   C545      1.0  0.76604  0.00978  0.54225  1.0000
  H   H973      1.0  0.85176  0.19482  0.52200  1.0000
  C   C546      1.0  0.88029  0.25765  0.59526  1.0000
  H   H974      1.0  0.84453  0.03966  0.60327  1.0000
  H   H975      1.0  0.80207  0.03058  0.48613  1.0000
  H   H976      1.0  0.79869  0.05969  0.44098  1.0000
  C   C547      1.0  0.71889  0.05982  0.55121  1.0000
  H   H977      1.0  0.83676  0.24812  0.60392  1.0000
  C   C548      1.0  0.81286  0.99240  0.42768  1.0000
  H   H978      1.0  0.88344  0.18120  0.58135  1.0000
  Fe  Fe63      1.0  0.78065  0.08588  0.65223  1.0000
  C   C549      1.0  0.81884  0.22584  0.50960  1.0000
  C   C550      1.0  0.87154  0.13800  0.58947  1.0000
  H   H979      1.0  0.67706  0.07181  0.57003  1.0000
  H   H980      1.0  0.85388  0.18216  0.35553  1.0000
  C   C551      1.0  0.75310  0.98548  0.62035  1.0000
  H   H981      1.0  0.70574  0.08909  0.58407  1.0000
  C   C552      1.0  0.81784  0.21548  0.47983  1.0000
  H   H982      1.0  0.70029  0.05184  0.59397  1.0000
  C   C553      1.0  0.78221  0.99875  0.35650  1.0000
  H   H983      1.0  0.90082  0.24747  0.58715  1.0000
  H   H984      1.0  0.72961  0.20379  0.57448  1.0000
  C   C554      1.0  0.85179  0.22958  0.56385  1.0000
  H   H985      1.0  0.79703  0.24230  0.56226  1.0000
  C   C555      1.0  0.78021  0.05937  0.45665  1.0000
  H   H986      1.0  0.98613  0.31042  0.32735  1.0000
  H   H987      1.0  0.76549  0.04342  0.45074  1.0000
  C   C556      1.0  0.78507  0.98948  0.52380  1.0000
  H   H988      1.0  0.79485  0.21883  0.65320  1.0000
  H   H989      1.0  0.95497  0.16411  0.34968  1.0000
  H   H990      1.0  0.95137  0.30300  0.34303  1.0000
  H   H991      1.0  0.81123  0.00764  0.40892  1.0000
  H   H992      1.0  0.80800  0.99292  0.52503  1.0000
  C   C557      1.0  0.86506  0.19145  0.33700  1.0000
  H   H993      1.0  0.85493  0.03348  0.56693  1.0000
  H   H994      1.0  0.82570  0.01029  0.34952  1.0000
  H   H995      1.0  0.60698  0.18322  0.33002  1.0000
  H   H996      1.0  0.79597  0.99873  0.44373  1.0000
  C   C558      1.0  0.76186  0.01046  0.63139  1.0000
  S   S123      1.0  0.73624  0.10135  0.64148  1.0000
  C   C559      1.0  0.78643  0.00936  0.64660  1.0000
  C   C560      1.0  0.87341  0.21976  0.33670  1.0000
  H   H997      1.0  0.98102  0.20874  0.34140  1.0000
  C   C561      1.0  0.97307  0.29341  0.33780  1.0000
  H   H998      1.0  0.83412  0.99400  0.43621  1.0000
  S   S124      1.0  0.78659  0.10700  0.32738  1.0000
  S   S125      1.0  0.83898  0.17236  0.65966  1.0000
  C   C562      1.0  0.95288  0.17785  0.32991  1.0000
  Fe  Fe64      1.0  0.86673  0.32407  0.70989  1.0000
  S   S126      1.0  0.89731  0.29616  0.73532  1.0000
  H   H999      1.0  0.84964  0.44043  0.70263  1.0000
  Fe  Fe65      1.0  0.87591  0.37755  0.74315  1.0000
  S   S127      1.0  0.90620  0.35176  0.77104  1.0000
  S   S128      1.0  0.86835  0.42234  0.75940  1.0000
  Fe  Fe66      1.0  0.92533  0.33380  0.73115  1.0000
  H   H1000     1.0  0.76358  0.18794  0.90709  1.0000
  Fe  Fe67      1.0  0.87470  0.31719  0.77251  1.0000
  S   S129      1.0  0.85575  0.29440  0.81271  1.0000
  S   S130      1.0  0.89593  0.36077  0.70290  1.0000
  S   S131      1.0  0.84371  0.34400  0.74715  1.0000
  Fe  Fe68      1.0  0.62873  0.24808  0.85507  1.0000
  S   S132      1.0  0.63846  0.20837  0.88246  1.0000
  S   S133      1.0  0.58470  0.26318  0.84072  1.0000
  Fe  Fe69      1.0  0.69139  0.26623  0.85428  1.0000
  S   S134      1.0  0.70452  0.22826  0.88252  1.0000
  S   S135      1.0  0.72138  0.29962  0.83560  1.0000
  Fe  Fe70      1.0  0.67883  0.20410  0.85415  1.0000
  S   S136      1.0  0.69821  0.16394  0.83416  1.0000
  Fe  Fe71      1.0  0.66304  0.23677  0.90760  1.0000
  S   S137      1.0  0.65309  0.24665  0.95364  1.0000
  S   S138      1.0  0.66730  0.24207  0.82525  1.0000
  S   S139      1.0  0.65160  0.27671  0.88090  1.0000
  H   H1001     1.0  0.87453  0.34902  0.82704  1.0000
  H   H1002     1.0  0.59846  0.23925  0.71016  1.0000
  C   C563      1.0  0.55358  0.24386  0.84777  1.0000
  C   C564      1.0  0.52707  0.25652  0.84008  1.0000
  H   H1003     1.0  0.83565  0.43714  0.82586  1.0000
  H   H1004     1.0  0.74716  0.36797  0.89534  1.0000
  C   C565      1.0  0.53035  0.19991  0.86178  1.0000
  C   C566      1.0  0.55497  0.21564  0.85922  1.0000
  H   H1005     1.0  0.52578  0.27837  0.83120  1.0000
  H   H1006     1.0  0.53182  0.17775  0.86944  1.0000
  H   H1007     1.0  0.57518  0.20567  0.86527  1.0000
  H   H1008     1.0  0.64764  0.22181  0.69513  1.0000
  H   H1009     1.0  0.71788  0.02313  0.67343  1.0000
  H   H1010     1.0  0.78929  0.22426  0.92912  1.0000
  C   C567      1.0  0.80888  0.47552  0.82211  1.0000
  H   H1011     1.0  0.68854  0.19484  0.96824  1.0000
  C   C568      1.0  0.70169  0.16248  0.79681  1.0000
  C   C569      1.0  0.71915  0.14065  0.78455  1.0000
  C   C570      1.0  0.72137  0.13852  0.75497  1.0000
  C   C571      1.0  0.70574  0.15804  0.73750  1.0000
  C   C572      1.0  0.68898  0.18019  0.74971  1.0000
  C   C573      1.0  0.68694  0.18244  0.77910  1.0000
  H   H1012     1.0  0.73071  0.12508  0.79801  1.0000
  H   H1013     1.0  0.73439  0.12131  0.74581  1.0000
  H   H1014     1.0  0.67753  0.19566  0.73619  1.0000
  H   H1015     1.0  0.67336  0.19920  0.78799  1.0000
  C   C574      1.0  0.86198  0.25024  0.68016  1.0000
  C   C575      1.0  0.81825  0.29175  0.81780  1.0000
  C   C576      1.0  0.80633  0.28288  0.84454  1.0000
  C   C577      1.0  0.77649  0.28303  0.84977  1.0000
  C   C578      1.0  0.75831  0.29212  0.82826  1.0000
  C   C579      1.0  0.77025  0.29973  0.80129  1.0000
  C   C580      1.0  0.79999  0.29921  0.79600  1.0000
  H   H1016     1.0  0.82023  0.27675  0.86148  1.0000
  H   H1017     1.0  0.76754  0.27739  0.87071  1.0000
  H   H1018     1.0  0.75639  0.30676  0.78453  1.0000
  H   H1019     1.0  0.80868  0.30492  0.77507  1.0000
  H   H1020     1.0  0.49769  0.18054  0.79546  1.0000
  H   H1021     1.0  0.61899  0.25777  0.78426  1.0000
  C   C581      1.0  0.85138  0.45918  0.71440  1.0000
  C   C582      1.0  0.86025  0.45606  0.74204  1.0000
  H   H1022     1.0  0.88095  0.25891  0.68712  1.0000
  C   C583      1.0  0.83798  0.26846  0.67505  1.0000
  H   H1023     1.0  0.62541  0.13729  0.82894  1.0000
  N   N33       1.0  0.58949  0.21089  0.76494  1.0000
  C   C584      1.0  0.58139  0.24253  0.76546  1.0000
  C   C585      1.0  0.56314  0.19547  0.76022  1.0000
  C   C586      1.0  0.60183  0.20088  0.79267  1.0000
  C   C587      1.0  0.61163  0.20476  0.74158  1.0000
  C   C588      1.0  0.60389  0.21588  0.71142  1.0000
  C   C589      1.0  0.60937  0.16824  0.79693  1.0000
  C   C590      1.0  0.54001  0.19524  0.78494  1.0000
  H   H1024     1.0  0.72283  0.26045  0.69443  1.0000
  C   C591      1.0  0.61831  0.16032  0.82689  1.0000
  H   H1025     1.0  0.56754  0.24695  0.78466  1.0000
  H   H1026     1.0  0.56813  0.24985  0.74747  1.0000
  H   H1027     1.0  0.55260  0.20533  0.74133  1.0000
  H   H1028     1.0  0.56880  0.17291  0.75513  1.0000
  H   H1029     1.0  0.58734  0.20759  0.81059  1.0000
  H   H1030     1.0  0.61631  0.18128  0.74058  1.0000
  H   H1031     1.0  0.58546  0.20482  0.70477  1.0000
  H   H1032     1.0  0.62751  0.16171  0.78229  1.0000
  H   H1033     1.0  0.59110  0.15537  0.79336  1.0000
  H   H1034     1.0  0.54812  0.18351  0.80411  1.0000
  H   H1035     1.0  0.53292  0.21729  0.79032  1.0000
  H   H1036     1.0  0.80428  0.43014  0.78959  1.0000
  C   C592      1.0  0.77174  0.35863  0.85638  1.0000
  S   S140      1.0  0.97206  0.33433  0.71494  1.0000
  H   H1037     1.0  0.60021  0.16430  0.84246  1.0000
  H   H1038     1.0  0.76040  0.33123  0.89313  1.0000
  H   H1039     1.0  0.63634  0.17301  0.83172  1.0000
  H   H1040     1.0  0.72095  0.22204  0.69725  1.0000
  H   H1041     1.0  0.75207  0.38963  0.80222  1.0000
  H   H1042     1.0  0.83575  0.38987  0.79891  1.0000
  H   H1043     1.0  0.52785  0.19120  0.93135  1.0000
  H   H1044     1.0  0.62095  0.26066  0.74631  1.0000
  Fe  Fe72      1.0  0.74041  0.13539  0.67228  1.0000
  H   H1045     1.0  0.58996  0.26080  0.99177  1.0000
  C   C593      1.0  0.76914  0.36983  0.74748  1.0000
  S   S141      1.0  0.78292  0.11737  0.68575  1.0000
  H   H1046     1.0  0.77384  0.41201  0.76051  1.0000
  C   C594      1.0  0.75684  0.23300  0.96335  1.0000
  C   C595      1.0  0.60642  0.26262  0.76539  1.0000
  H   H1047     1.0  0.83232  0.36073  0.85880  1.0000
  S   S142      1.0  0.70488  0.15508  0.70062  1.0000
  H   H1048     1.0  0.58363  0.30041  0.74660  1.0000
  H   H1049     1.0  0.88109  0.38671  0.82163  1.0000
  C   C596      1.0  0.75725  0.19377  0.92897  1.0000
  C   C597      1.0  0.75010  0.28482  0.94861  1.0000
  H   H1050     1.0  0.63218  0.21344  0.74614  1.0000
  C   C598      1.0  0.62892  0.21014  0.69011  1.0000
  H   H1051     1.0  0.88061  0.20707  0.67943  1.0000
  H   H1052     1.0  0.49864  0.13462  0.94522  1.0000
  H   H1053     1.0  0.48753  0.20969  0.91134  1.0000
  C   C599      1.0  0.50221  0.24101  0.84350  1.0000
  H   H1054     1.0  0.76773  0.21713  0.97813  1.0000
  H   H1055     1.0  0.75563  0.23857  0.91682  1.0000
  H   H1056     1.0  0.70507  0.28629  0.96457  1.0000
  H   H1057     1.0  0.62181  0.21157  0.79534  1.0000
  C   C600      1.0  0.96479  0.46478  0.70840  1.0000
  H   H1058     1.0  0.77265  0.43644  0.81152  1.0000
  C   C601      1.0  0.49672  0.15817  0.94034  1.0000
  H   H1059     1.0  0.68122  0.03123  0.68452  1.0000
  C   C602      1.0  0.51372  0.18048  0.77731  1.0000
  S   S143      1.0  0.83799  0.30580  0.67935  1.0000
  C   C603      1.0  0.57707  0.23004  0.96429  1.0000
  H   H1060     1.0  0.55212  0.12909  0.94022  1.0000
  C   C604      1.0  0.71783  0.28296  0.94457  1.0000
  C   C605      1.0  0.70730  0.30585  0.92268  1.0000
  H   H1061     1.0  0.63515  0.18687  0.69025  1.0000
  C   C606      1.0  0.84031  0.37765  0.84347  1.0000
  C   C607      1.0  0.54983  0.14997  0.92791  1.0000
  H   H1062     1.0  0.59858  0.22008  0.95908  1.0000
  C   C608      1.0  0.77885  0.39001  0.84783  1.0000
  H   H1063     1.0  0.75275  0.30685  0.95501  1.0000
  H   H1064     1.0  0.76158  0.28377  0.92750  1.0000
  C   C609      1.0  0.66923  0.23347  0.98481  1.0000
  H   H1065     1.0  0.76795  0.17806  0.94395  1.0000
  H   H1066     1.0  0.77554  0.35868  0.80108  1.0000
  C   C610      1.0  0.78236  0.38998  0.76639  1.0000
  N   N34       1.0  0.79341  0.39452  0.81887  1.0000
  H   H1067     1.0  0.93947  0.43118  0.73059  1.0000
  C   C611      1.0  0.86178  0.22087  0.67565  1.0000
  C   C612      1.0  0.79468  0.42625  0.81138  1.0000
  C   C613      1.0  0.95858  0.41510  0.69237  1.0000
  H   H1068     1.0  0.92437  0.44670  0.69873  1.0000
  H   H1069     1.0  0.71318  0.26192  0.93710  1.0000
  C   C614      1.0  0.83812  0.29337  0.97490  1.0000
  H   H1070     1.0  0.71217  0.32754  0.92840  1.0000
  H   H1071     1.0  0.71718  0.30172  0.90141  1.0000
  H   H1072     1.0  0.68383  0.30530  0.92182  1.0000
  H   H1073     1.0  0.80568  0.38921  0.76172  1.0000
  H   H1074     1.0  0.73382  0.22961  0.96738  1.0000
  H   H1075     1.0  0.56112  0.21368  0.96387  1.0000
  H   H1076     1.0  0.73379  0.19247  0.93229  1.0000
  H   H1077     1.0  0.58101  0.29738  0.78483  1.0000
  H   H1078     1.0  0.83900  0.39781  0.85436  1.0000
  C   C615      1.0  0.77488  0.38243  0.79812  1.0000
  H   H1079     1.0  0.50388  0.19200  0.75885  1.0000
  H   H1080     1.0  0.80662  0.43999  0.85258  1.0000
  N   N35       1.0  0.78541  0.20722  0.75605  1.0000
  C   C616      1.0  0.79642  0.17638  0.75954  1.0000
  C   C617      1.0  0.76664  0.21442  0.78179  1.0000
  C   C618      1.0  0.76692  0.20975  0.73092  1.0000
  C   C619      1.0  0.80904  0.22764  0.75074  1.0000
  C   C620      1.0  0.83698  0.21994  0.76620  1.0000
  C   C621      1.0  0.81302  0.16456  0.73320  1.0000
  C   C622      1.0  0.74988  0.23877  0.72553  1.0000
  C   C623      1.0  0.78120  0.21384  0.81017  1.0000
  C   C624      1.0  0.75917  0.21493  0.83494  1.0000
  C   C625      1.0  0.85839  0.24272  0.75939  1.0000
  C   C626      1.0  0.82863  0.13571  0.74023  1.0000
  C   C627      1.0  0.73549  0.23983  0.69745  1.0000
  H   H1081     1.0  0.77838  0.16230  0.76503  1.0000
  H   H1082     1.0  0.81036  0.17278  0.77753  1.0000
  H   H1083     1.0  0.75686  0.23653  0.77930  1.0000
  H   H1084     1.0  0.74861  0.19994  0.78433  1.0000
  H   H1085     1.0  0.75129  0.19275  0.73282  1.0000
  H   H1086     1.0  0.78011  0.20611  0.71112  1.0000
  H   H1087     1.0  0.81557  0.22981  0.72780  1.0000
  H   H1088     1.0  0.80113  0.24959  0.75622  1.0000
  H   H1089     1.0  0.84755  0.19949  0.75964  1.0000
  H   H1090     1.0  0.83337  0.21794  0.78934  1.0000
  H   H1091     1.0  0.79797  0.16143  0.71683  1.0000
  H   H1092     1.0  0.82876  0.17954  0.72377  1.0000
  H   H1093     1.0  0.76403  0.25691  0.72505  1.0000
  H   H1094     1.0  0.73252  0.24171  0.74212  1.0000
  H   H1095     1.0  0.79528  0.19441  0.81407  1.0000
  H   H1096     1.0  0.79366  0.23313  0.81055  1.0000
  H   H1097     1.0  0.74310  0.23293  0.83132  1.0000
  H   H1098     1.0  0.74829  0.19456  0.83770  1.0000
  H   H1099     1.0  0.76982  0.21802  0.85464  1.0000
  H   H1100     1.0  0.86686  0.24169  0.73722  1.0000
  H   H1101     1.0  0.84830  0.26437  0.76247  1.0000
  H   H1102     1.0  0.87649  0.23905  0.77340  1.0000
  H   H1103     1.0  0.83960  0.12768  0.72070  1.0000
  H   H1104     1.0  0.84490  0.13795  0.75580  1.0000
  H   H1105     1.0  0.81331  0.11981  0.74884  1.0000
  C   C628      1.0  0.79491  0.26541  0.96776  1.0000
  H   H1106     1.0  0.75163  0.23815  0.67957  1.0000
  C   C629      1.0  0.87181  0.37007  0.83653  1.0000
  H   H1107     1.0  0.88364  0.36866  0.85613  1.0000
  C   C630      1.0  0.82281  0.37959  0.81658  1.0000
  H   H1108     1.0  0.49124  0.16072  0.91775  1.0000
  H   H1109     1.0  0.82176  0.35710  0.81058  1.0000
  H   H1110     1.0  0.57060  0.16015  0.92681  1.0000
  H   H1111     1.0  0.70712  0.02235  0.71057  1.0000
  H   H1112     1.0  0.61359  0.30780  0.76639  1.0000
  H   H1113     1.0  0.80333  0.26447  0.94543  1.0000
  C   C631      1.0  0.59537  0.29394  0.76579  1.0000
  H   H1114     1.0  0.75837  0.40323  0.84925  1.0000
  C   C632      1.0  0.50388  0.21246  0.85400  1.0000
  H   H1115     1.0  0.53257  0.17090  0.96416  1.0000
  H   H1116     1.0  0.78942  0.34336  0.84987  1.0000
  H   H1117     1.0  0.75247  0.35332  0.84582  1.0000
  C   C633      1.0  0.76585  0.22407  0.93308  1.0000
  H   H1118     1.0  0.77784  0.34749  0.75154  1.0000
  H   H1119     1.0  0.96055  0.47132  0.76227  1.0000
  H   H1120     1.0  0.79155  0.39766  0.86440  1.0000
  H   H1121     1.0  0.94427  0.39709  0.69366  1.0000
  H   H1122     1.0  0.74561  0.37058  0.75125  1.0000
  H   H1123     1.0  0.77432  0.37634  0.72496  1.0000
  C   C634      1.0  0.81268  0.44337  0.82979  1.0000
  H   H1124     1.0  0.54447  0.14604  0.90614  1.0000
  C   C635      1.0  0.70061  0.01754  0.68938  1.0000
  C   C636      1.0  0.52684  0.16952  0.94209  1.0000
  C   C637      1.0  0.94457  0.43981  0.70869  1.0000
  H   H1125     1.0  0.78459  0.35800  0.89974  1.0000
  H   H1126     1.0  0.51943  0.15791  0.77251  1.0000
  C   C638      1.0  0.76561  0.35383  0.88818  1.0000
  H   H1127     1.0  0.57236  0.24730  0.94781  1.0000
  C   C639      1.0  0.57581  0.24256  0.99328  1.0000
  H   H1128     1.0  0.79520  0.27088  0.66091  1.0000
  C   C640      1.0  0.77175  0.48040  0.74997  1.0000
  C   C641      1.0  0.81377  0.25691  0.66524  1.0000
  C   C642      1.0  0.68537  0.20748  0.98654  1.0000
  H   H1129     1.0  0.84834  0.27476  0.98690  1.0000
  C   C643      1.0  0.86206  0.48056  0.75715  1.0000
  N   N36       1.0  0.76304  0.26301  0.96965  1.0000
  H   H1130     1.0  0.97904  0.41579  0.78498  1.0000
  C   C644      1.0  0.83756  0.20928  0.66607  1.0000
  H   H1131     1.0  0.92472  0.47005  0.75246  1.0000
  C   C645      1.0  0.69432  0.98597  0.68879  1.0000
  H   H1132     1.0  0.84522  0.29273  0.95222  1.0000
  H   H1133     1.0  0.76570  0.46233  0.76482  1.0000
  H   H1134     1.0  0.96261  0.42193  0.66975  1.0000
  H   H1135     1.0  0.86842  0.47829  0.77868  1.0000
  H   H1136     1.0  0.62278  0.21754  0.66853  1.0000
  H   H1137     1.0  0.81474  0.48026  0.79939  1.0000
  H   H1138     1.0  0.49220  0.21181  0.96438  1.0000
  H   H1139     1.0  0.76401  0.47677  0.72894  1.0000
  H   H1140     1.0  0.97251  0.46899  0.68613  1.0000
  H   H1141     1.0  0.97898  0.40707  0.70142  1.0000
  H   H1142     1.0  0.98170  0.32193  0.77497  1.0000
  H   H1143     1.0  0.79536  0.48079  0.74824  1.0000
  H   H1144     1.0  0.98401  0.45646  0.71961  1.0000
  H   H1145     1.0  0.79661  0.31240  0.96697  1.0000
  C   C646      1.0  0.81348  0.22742  0.66093  1.0000
  H   H1146     1.0  0.49030  0.25660  0.93218  1.0000
  C   C647      1.0  0.80568  0.29307  0.97869  1.0000
  H   H1147     1.0  0.84534  0.31327  0.98296  1.0000
  H   H1148     1.0  0.80578  0.24668  0.97910  1.0000
  H   H1149     1.0  0.91103  0.48256  0.80240  1.0000
  S   S144      1.0  0.79804  0.04005  0.66123  1.0000
  Fe  Fe73      1.0  0.92396  0.62449  0.21304  1.0000
  S   S145      1.0  0.91163  0.59366  0.24904  1.0000
  S   S146      1.0  0.96788  0.64114  0.20261  1.0000
  Fe  Fe74      1.0  0.86274  0.62958  0.19167  1.0000
  S   S147      1.0  0.84674  0.59825  0.22556  1.0000
  S   S148      1.0  0.83513  0.65511  0.16044  1.0000
  Fe  Fe75      1.0  0.87176  0.62302  0.25390  1.0000
  S   S149      1.0  0.85309  0.64018  0.29522  1.0000
  Fe  Fe76      1.0  0.88803  0.57226  0.21707  1.0000
  S   S150      1.0  0.89608  0.52646  0.20356  1.0000
  S   S151      1.0  0.88608  0.65502  0.22011  1.0000
  S   S152      1.0  0.90216  0.60231  0.18073  1.0000
  Fe  Fe77      1.0  0.68120  0.70460  0.13959  1.0000
  S   S153      1.0  0.71116  0.73439  0.11697  1.0000
  S   S154      1.0  0.70028  0.66567  0.16424  1.0000
  Fe  Fe78      1.0  0.62905  0.74375  0.12377  1.0000
  S   S155      1.0  0.65704  0.77608  0.10053  1.0000
  S   S156      1.0  0.58242  0.76053  0.12770  1.0000
  Fe  Fe79      1.0  0.68069  0.73775  0.08232  1.0000
  S   S157      1.0  0.70282  0.73539  0.03850  1.0000
  Fe  Fe80      1.0  0.68467  0.76901  0.13766  1.0000
  S   S158      1.0  0.70800  0.80304  0.15737  1.0000
  S   S159      1.0  0.65161  0.70557  0.10360  1.0000
  S   S160      1.0  0.65570  0.73915  0.16185  1.0000
  S   S161      1.0  0.71140  0.81518  0.28984  1.0000
  S   S162      1.0  0.79246  0.83727  0.29613  1.0000
  H   H1150     1.0  0.63804  0.81915  0.03679  1.0000
  C   C648      1.0  0.55075  0.74173  0.12814  1.0000
  C   C649      1.0  0.52426  0.75698  0.13205  1.0000
  C   C650      1.0  0.55123  0.71232  0.12467  1.0000
  H   H1151     1.0  0.52364  0.77973  0.13478  1.0000
  H   H1152     1.0  0.57141  0.70028  0.12170  1.0000
  H   H1153     1.0  0.55308  0.75490  0.04286  1.0000
  C   C651      1.0  0.65626  0.72409  0.00902  1.0000
  H   H1154     1.0  0.77673  0.72424  0.02890  1.0000
  H   H1155     1.0  0.64451  0.72236  0.02927  1.0000
  H   H1156     1.0  0.52606  0.67561  0.12252  1.0000
  C   C652      1.0  0.71067  0.80401  0.19439  1.0000
  C   C653      1.0  0.69244  0.78912  0.21361  1.0000
  C   C654      1.0  0.69336  0.79244  0.24279  1.0000
  C   C655      1.0  0.71299  0.80996  0.25316  1.0000
  C   C656      1.0  0.73204  0.82393  0.23406  1.0000
  C   C657      1.0  0.73063  0.82122  0.20479  1.0000
  H   H1157     1.0  0.67717  0.77570  0.20594  1.0000
  H   H1158     1.0  0.67885  0.78141  0.25755  1.0000
  H   H1159     1.0  0.74722  0.83755  0.24176  1.0000
  H   H1160     1.0  0.74488  0.83279  0.19012  1.0000
  H   H1161     1.0  0.72918  0.71333  0.21401  1.0000
  H   H1162     1.0  0.70059  0.67646  0.23384  1.0000
  H   H1163     1.0  0.65818  0.84767  0.16477  1.0000
  N   N37       1.0  0.75288  0.70334  0.25145  1.0000
  H   H1164     1.0  0.90733  0.71337  0.21033  1.0000
  C   C658      1.0  0.70710  0.81978  0.01923  1.0000
  C   C659      1.0  0.52546  0.69838  0.12514  1.0000
  C   C660      1.0  0.78612  0.65722  0.25757  1.0000
  H   H1165     1.0  0.96984  0.60121  0.15531  1.0000
  C   C661      1.0  0.63840  0.84350  0.15444  1.0000
  C   C662      1.0  0.79784  0.65836  0.16716  1.0000
  C   C663      1.0  0.78351  0.68507  0.16184  1.0000
  C   C664      1.0  0.75360  0.68767  0.16241  1.0000
  C   C665      1.0  0.73769  0.66343  0.16719  1.0000
  C   C666      1.0  0.75195  0.63685  0.17375  1.0000
  C   C667      1.0  0.78194  0.63433  0.17392  1.0000
  H   H1166     1.0  0.79563  0.70377  0.15682  1.0000
  H   H1167     1.0  0.74298  0.70847  0.15890  1.0000
  H   H1168     1.0  0.73984  0.61801  0.17787  1.0000
  H   H1169     1.0  0.79281  0.61358  0.17785  1.0000
  H   H1170     1.0  0.51246  0.82030  0.17214  1.0000
  H   H1171     1.0  0.78215  0.61634  0.23917  1.0000
  C   C668      1.0  0.72587  0.71364  0.23742  1.0000
  H   H1172     1.0  0.60488  0.81428  0.15829  1.0000
  C   C669      1.0  0.63921  0.79897  0.02587  1.0000
  C   C670      1.0  0.49852  0.74301  0.13273  1.0000
  C   C671      1.0  0.92809  0.72194  0.21424  1.0000
  H   H1173     1.0  0.80183  0.94425  0.26291  1.0000
  H   H1174     1.0  0.69865  0.68919  0.26883  1.0000
  H   H1175     1.0  0.60905  0.77946  0.05662  1.0000
  H   H1176     1.0  0.61042  0.76460  0.02255  1.0000
  C   C672      1.0  0.67163  0.71291  0.23964  1.0000
  H   H1177     1.0  0.65664  0.78457  0.03443  1.0000
  C   C673      1.0  0.68521  0.72925  0.00780  1.0000
  C   C674      1.0  0.98067  0.55146  0.18874  1.0000
  H   H1178     1.0  0.67196  0.72029  0.21703  1.0000
  H   H1179     1.0  0.73902  0.75311  0.28467  1.0000
  H   H1180     1.0  0.98564  0.66642  0.26375  1.0000
  C   C675      1.0  0.82091  0.95717  0.25958  1.0000
  H   H1181     1.0  0.94096  0.67977  0.25073  1.0000
  C   C676      1.0  0.73677  0.80572  0.02388  1.0000
  C   C677      1.0  0.62668  0.89682  0.00175  1.0000
  H   H1182     1.0  0.95238  0.50219  0.24191  1.0000
  H   H1183     1.0  0.78960  0.49042  0.23952  1.0000
  C   C678      1.0  0.94611  0.64055  0.29726  1.0000
  H   H1184     1.0  0.64287  0.81429  0.29008  1.0000
  H   H1185     1.0  0.79028  0.66416  0.27871  1.0000
  H   H1186     1.0  0.82456  0.50414  0.23413  1.0000
  N   N38       1.0  0.93958  0.69614  0.29266  1.0000
  H   H1187     1.0  0.80326  0.50162  0.20429  1.0000
  Fe  Fe81      1.0  0.74865  0.82780  0.31420  1.0000
  H   H1188     1.0  0.78205  0.75567  0.26226  1.0000
  C   C679      1.0  0.77744  0.71888  0.23712  1.0000
  H   H1189     1.0  0.75856  0.66862  0.22327  1.0000
  H   H1190     1.0  0.77902  0.71510  0.21414  1.0000
  C   C680      1.0  0.84554  0.67740  0.29913  1.0000
  H   H1191     1.0  0.79417  0.76364  0.19804  1.0000
  C   C681      1.0  0.77695  0.75156  0.24042  1.0000
  H   H1192     1.0  0.65348  0.69899  0.24432  1.0000
  C   C682      1.0  0.55041  0.73152  0.04291  1.0000
  H   H1193     1.0  0.90673  0.69027  0.26414  1.0000
  H   H1194     1.0  0.75612  0.76246  0.23576  1.0000
  C   C683      1.0  0.75101  0.70673  0.28296  1.0000
  H   H1195     1.0  0.62364  0.86288  0.15475  1.0000
  C   C684      1.0  0.77961  0.70282  0.02017  1.0000
  H   H1196     1.0  0.70942  0.73081  0.28933  1.0000
  H   H1197     1.0  0.51768  0.70169  0.05024  1.0000
  C   C685      1.0  0.79929  0.76558  0.22033  1.0000
  H   H1198     1.0  0.69172  0.63594  0.10534  1.0000
  H   H1199     1.0  0.70871  0.62220  0.07357  1.0000
  H   H1200     1.0  0.51184  0.73324  0.06903  1.0000
  H   H1201     1.0  0.76625  0.61843  0.27473  1.0000
  C   C686      1.0  0.73202  0.73234  0.29406  1.0000
  H   H1202     1.0  0.82086  0.75549  0.22375  1.0000
  H   H1203     1.0  0.74276  0.68722  0.29451  1.0000
  C   C687      1.0  0.52189  0.81917  0.19308  1.0000
  H   H1204     1.0  0.85475  0.69094  0.25563  1.0000
  H   H1205     1.0  0.77275  0.70843  0.29065  1.0000
  H   H1206     1.0  0.66842  0.73165  0.25281  1.0000
  C   C688      1.0  0.51900  0.72528  0.04827  1.0000
  H   H1207     1.0  0.66212  0.85302  0.01712  1.0000
  N   N39       1.0  0.59905  0.80130  0.21805  1.0000
  C   C689      1.0  0.60374  0.77177  0.20706  1.0000
  C   C690      1.0  0.61788  0.82219  0.20130  1.0000
  C   C691      1.0  0.60782  0.79910  0.24823  1.0000
  C   C692      1.0  0.56818  0.81199  0.21804  1.0000
  C   C693      1.0  0.55406  0.81269  0.18939  1.0000
  C   C694      1.0  0.58526  0.74820  0.22172  1.0000
  C   C695      1.0  0.60811  0.82776  0.26289  1.0000
  C   C696      1.0  0.62421  0.81780  0.16939  1.0000
  C   C697      1.0  0.92923  0.69636  0.26320  1.0000
  C   C698      1.0  0.59060  0.72002  0.20725  1.0000
  H   H1208     1.0  0.83562  0.94730  0.24334  1.0000
  H   H1209     1.0  0.62646  0.76423  0.20885  1.0000
  H   H1210     1.0  0.59998  0.77199  0.18427  1.0000
  H   H1211     1.0  0.60898  0.84457  0.20340  1.0000
  H   H1212     1.0  0.63937  0.82151  0.21010  1.0000
  H   H1213     1.0  0.62954  0.78836  0.24935  1.0000
  H   H1214     1.0  0.59346  0.78544  0.26189  1.0000
  H   H1215     1.0  0.55513  0.79923  0.23397  1.0000
  H   H1216     1.0  0.56561  0.83423  0.22502  1.0000
  H   H1217     1.0  0.55733  0.79199  0.17934  1.0000
  H   H1218     1.0  0.56276  0.82989  0.17487  1.0000
  H   H1219     1.0  0.59036  0.74388  0.24412  1.0000
  H   H1220     1.0  0.56221  0.75440  0.22074  1.0000
  H   H1221     1.0  0.58616  0.83754  0.26585  1.0000
  H   H1222     1.0  0.62139  0.84341  0.25056  1.0000
  H   H1223     1.0  0.63924  0.79887  0.16689  1.0000
  H   H1224     1.0  0.80464  0.66232  0.24288  1.0000
  H   H1225     1.0  0.64428  0.83895  0.13213  1.0000
  C   C699      1.0  0.75827  0.67196  0.24626  1.0000
  H   H1226     1.0  0.81589  0.68606  0.04391  1.0000
  H   H1227     1.0  0.69125  0.65778  0.07275  1.0000
  H   H1228     1.0  0.57717  0.70351  0.21807  1.0000
  H   H1229     1.0  0.58496  0.72280  0.18482  1.0000
  H   H1230     1.0  0.61329  0.71221  0.20813  1.0000
  H   H1231     1.0  0.69260  0.81269  0.03715  1.0000
  C   C700      1.0  0.80893  0.49107  0.22497  1.0000
  H   H1232     1.0  0.56294  0.72077  0.06008  1.0000
  N   N40       1.0  0.77784  0.67601  0.06962  1.0000
  C   C701      1.0  0.79364  0.68030  0.04129  1.0000
  C   C702      1.0  0.79591  0.65637  0.08863  1.0000
  C   C703      1.0  0.74973  0.66353  0.06532  1.0000
  C   C704      1.0  0.77190  0.70399  0.08339  1.0000
  C   C705      1.0  0.79795  0.72207  0.08635  1.0000
  C   C706      1.0  0.93036  0.72546  0.24573  1.0000
  C   C707      1.0  0.73203  0.65414  0.09255  1.0000
  C   C708      1.0  0.80158  0.62523  0.07970  1.0000
  C   C709      1.0  0.81869  0.60728  0.10153  1.0000
  C   C710      1.0  0.78874  0.75008  0.09996  1.0000
  H   H1233     1.0  0.50829  0.76024  0.01750  1.0000
  C   C711      1.0  0.70425  0.64175  0.08547  1.0000
  H   H1234     1.0  0.74333  0.81017  0.04516  1.0000
  C   C712      1.0  0.62035  0.82289  0.29200  1.0000
  H   H1235     1.0  0.81720  0.66500  0.09022  1.0000
  H   H1236     1.0  0.78637  0.65549  0.11060  1.0000
  H   H1237     1.0  0.75283  0.64498  0.05177  1.0000
  H   H1238     1.0  0.73568  0.67943  0.05351  1.0000
  H   H1239     1.0  0.75542  0.71763  0.07218  1.0000
  H   H1240     1.0  0.76257  0.69997  0.10513  1.0000
  H   H1241     1.0  0.80874  0.72767  0.06555  1.0000
  H   H1242     1.0  0.81366  0.71033  0.09999  1.0000
  C   C713      1.0  0.69948  0.69602  0.24602  1.0000
  H   H1243     1.0  0.94568  0.70726  0.20608  1.0000
  H   H1244     1.0  0.72624  0.67268  0.10541  1.0000
  H   H1245     1.0  0.74383  0.63756  0.10570  1.0000
  H   H1246     1.0  0.78145  0.61462  0.07780  1.0000
  H   H1247     1.0  0.81408  0.62484  0.05918  1.0000
  H   H1248     1.0  0.82308  0.58521  0.09456  1.0000
  H   H1249     1.0  0.83936  0.61676  0.10417  1.0000
  H   H1250     1.0  0.80655  0.60602  0.12230  1.0000
  H   H1251     1.0  0.80766  0.76267  0.10199  1.0000
  H   H1252     1.0  0.77340  0.76310  0.08683  1.0000
  H   H1253     1.0  0.77860  0.74572  0.12140  1.0000
  C   C714      1.0  0.84902  0.69773  0.27651  1.0000
  C   C715      1.0  0.66056  0.85348  0.99393  1.0000
  C   C716      1.0  0.83868  0.73671  0.30799  1.0000
  H   H1254     1.0  0.79802  0.71022  0.24537  1.0000
  C   C717      1.0  0.84619  0.72717  0.28102  1.0000
  H   H1255     1.0  0.95035  0.73598  0.24862  1.0000
  H   H1256     1.0  0.85094  0.74263  0.26377  1.0000
  H   H1257     1.0  0.74054  0.65953  0.25615  1.0000
  H   H1258     1.0  0.92850  0.74131  0.29694  1.0000
  C   C718      1.0  0.78447  0.62469  0.26021  1.0000
  H   H1259     1.0  0.79940  0.78868  0.22420  1.0000
  H   H1260     1.0  0.91218  0.74010  0.25270  1.0000
  H   H1261     1.0  0.80420  0.61475  0.26918  1.0000
  H   H1262     1.0  0.72014  0.73637  0.24120  1.0000
  H   H1263     1.0  0.55901  0.72347  0.02246  1.0000
  H   H1264     1.0  0.70913  0.84320  0.01981  1.0000
  H   H1265     1.0  0.92953  0.74307  0.20243  1.0000
  C   C719      1.0  0.95616  0.52673  0.27776  1.0000
  H   H1266     1.0  0.87888  0.51174  0.26281  1.0000
  H   H1267     1.0  0.62742  0.89347  0.02506  1.0000
  H   H1268     1.0  0.73690  0.78219  0.02260  1.0000
  C   C720      1.0  0.61117  0.78471  0.03348  1.0000
  C   C721      1.0  0.97118  0.70035  0.29290  1.0000
  H   H1269     1.0  0.83206  0.95643  0.27956  1.0000
  H   H1270     1.0  0.60554  0.90714  0.99684  1.0000
  H   H1271     1.0  0.96143  0.49997  0.19453  1.0000
  C   C722      1.0  0.50082  0.73854  0.02386  1.0000
  H   H1272     1.0  0.89987  0.71877  0.30561  1.0000
  H   H1273     1.0  0.51709  0.84000  0.20274  1.0000
  H   H1274     1.0  0.93353  0.52433  0.28511  1.0000
  H   H1275     1.0  0.79587  0.65985  0.03052  1.0000
  H   H1276     1.0  0.96942  0.63961  0.29980  1.0000
  C   C723      1.0  0.89409  0.49362  0.22390  1.0000
  C   C724      1.0  0.95951  0.52358  0.24595  1.0000
  H   H1277     1.0  0.96957  0.50998  0.28913  1.0000
  H   H1278     1.0  0.94198  0.63874  0.27479  1.0000
  H   H1279     1.0  0.97521  0.72355  0.29256  1.0000
  H   H1280     1.0  0.51179  0.80192  0.20657  1.0000
  S   S163      1.0  0.84321  0.77285  0.31450  1.0000
  C   C725      1.0  0.93204  0.66848  0.30863  1.0000
  H   H1281     1.0  0.95726  0.54878  0.19013  1.0000
  C   C726      1.0  0.96993  0.58141  0.14367  1.0000
  H   H1282     1.0  0.54679  0.67064  0.01065  1.0000
  C   C727      1.0  0.88487  0.49223  0.25242  1.0000
  H   H1283     1.0  0.98310  0.57133  0.19979  1.0000
  H   H1284     1.0  0.81917  0.71351  0.99670  1.0000
  H   H1285     1.0  0.59279  0.79937  0.02752  1.0000
  H   H1286     1.0  0.75262  0.81437  0.00782  1.0000
  H   H1287     1.0  0.50706  0.72550  0.00552  1.0000
  H   H1288     1.0  0.90845  0.66673  0.30978  1.0000
  C   C728      1.0  0.93464  0.61432  0.31394  1.0000
  H   H1289     1.0  0.96225  0.54822  0.28295  1.0000
  H   H1290     1.0  0.97959  0.69099  0.31310  1.0000
  H   H1291     1.0  0.94787  0.57430  0.14367  1.0000
  H   H1292     1.0  0.97742  0.60300  0.25256  1.0000
  H   H1293     1.0  0.94532  0.59457  0.30566  1.0000
  H   H1294     1.0  0.91132  0.61360  0.31183  1.0000
  C   C729      1.0  0.98520  0.49909  0.19284  1.0000
  H   H1295     1.0  0.61993  0.84353  0.30229  1.0000
  C   C730      1.0  0.92323  0.72023  0.30740  1.0000
  H   H1296     1.0  0.94499  0.54004  0.23576  1.0000
  H   H1297     1.0  0.60765  0.80774  0.30573  1.0000
  C   C731      1.0  0.49897  0.71360  0.12920  1.0000
  H   H1298     1.0  0.61351  0.85475  0.99626  1.0000
  H   H1299     1.0  0.75844  0.69633  0.01474  1.0000
  H   H1300     1.0  0.97758  0.58648  0.12146  1.0000
  H   H1301     1.0  0.49283  0.77646  0.06839  1.0000
  C   C732      1.0  0.83698  0.68692  0.32591  1.0000
  S   S164      1.0  0.81541  0.91127  0.32515  1.0000
  C   C733      1.0  0.73274  0.73276  0.32610  1.0000
  H   H1302     1.0  0.80938  0.87518  0.52392  1.0000
  S   S165      1.0  0.76358  0.79360  0.34629  1.0000
  H   H1303     1.0  0.73848  0.75634  0.61754  1.0000
  H   H1304     1.0  0.74129  0.98027  0.36200  1.0000
  S   S166      1.0  0.74762  0.86272  0.34498  1.0000
  C   C734      1.0  0.68104  0.88776  0.64615  1.0000
  Fe  Fe82      1.0  0.76644  0.82910  0.37563  1.0000
  S   S167      1.0  0.74636  0.83254  0.42029  1.0000
  H   H1305     1.0  0.79783  0.70796  0.49979  1.0000
  S   S168      1.0  0.81177  0.83671  0.36141  1.0000
  Fe  Fe83      1.0  0.78397  0.82950  0.58296  1.0000
  S   S169      1.0  0.81301  0.86065  0.59850  1.0000
  S   S170      1.0  0.79748  0.80953  0.54136  1.0000
  H   H1306     1.0  0.95132  0.72072  0.34298  1.0000
  Fe  Fe84      1.0  0.77313  0.88190  0.61832  1.0000
  H   H1307     1.0  0.80401  0.69242  0.54976  1.0000
  Fe  Fe85      1.0  0.81342  0.83175  0.63837  1.0000
  C   C735      1.0  0.81804  0.70978  0.55387  1.0000
  S   S171      1.0  0.74387  0.85191  0.60064  1.0000
  S   S172      1.0  0.78688  0.79975  0.62172  1.0000
  H   H1308     1.0  0.84718  0.87656  0.52727  1.0000
  H   H1309     1.0  0.82456  0.85679  0.41470  1.0000
  C   C736      1.0  0.76359  0.97652  0.35567  1.0000
  H   H1310     1.0  0.87315  0.72740  0.59747  1.0000
  H   H1311     1.0  0.73613  0.73533  0.65042  1.0000
  C   C737      1.0  0.76883  0.95922  0.62443  1.0000
  C   C738      1.0  0.82094  0.96653  0.33933  1.0000
  H   H1312     1.0  0.81247  0.62064  0.62133  1.0000
  H   H1313     1.0  0.89172  0.75156  0.34806  1.0000
  C   C739      1.0  0.83259  0.89438  0.48698  1.0000
  H   H1314     1.0  0.81646  0.64867  0.64482  1.0000
  H   H1315     1.0  0.93888  0.61471  0.33664  1.0000
  C   C740      1.0  0.92824  0.72204  0.33920  1.0000
  C   C741      1.0  0.78485  0.90439  0.42269  1.0000
  C   C742      1.0  0.76199  0.82741  0.45338  1.0000
  C   C743      1.0  0.74693  0.83799  0.47733  1.0000
  C   C744      1.0  0.75785  0.83345  0.50432  1.0000
  C   C745      1.0  0.78373  0.81773  0.50768  1.0000
  C   C746      1.0  0.79903  0.80752  0.48366  1.0000
  C   C747      1.0  0.78836  0.81252  0.45658  1.0000
  H   H1316     1.0  0.72647  0.84945  0.47504  1.0000
  H   H1317     1.0  0.74584  0.84138  0.52260  1.0000
  H   H1318     1.0  0.81919  0.79553  0.48605  1.0000
  H   H1319     1.0  0.80013  0.80423  0.43834  1.0000
  H   H1320     1.0  0.78762  0.95341  0.55518  1.0000
  N   N41       1.0  0.81402  0.71704  0.58436  1.0000
  H   H1321     1.0  0.78830  0.66589  0.60360  1.0000
  H   H1322     1.0  0.72386  0.71313  0.33659  1.0000
  C   C748      1.0  0.80902  0.96199  0.41936  1.0000
  C   C749      1.0  0.86185  0.74221  0.58210  1.0000
  H   H1323     1.0  0.82841  0.72343  0.35137  1.0000
  H   H1324     1.0  0.72798  0.71977  0.61832  1.0000
  H   H1325     1.0  0.83403  0.67145  0.34358  1.0000
  H   H1326     1.0  0.79356  0.94388  0.51915  1.0000
  C   C750      1.0  0.81163  0.73475  0.53171  1.0000
  H   H1327     1.0  0.83583  0.90944  0.40014  1.0000
  H   H1328     1.0  0.84008  0.70075  0.54905  1.0000
  C   C751      1.0  0.81182  0.66343  0.60075  1.0000
  H   H1329     1.0  0.78776  0.96187  0.41052  1.0000
  H   H1330     1.0  0.77534  0.74418  0.58116  1.0000
  H   H1331     1.0  0.76043  0.60850  0.65600  1.0000
  C   C752      1.0  0.80222  0.94438  0.33824  1.0000
  H   H1332     1.0  0.78374  0.88126  0.41934  1.0000
  C   C753      1.0  0.82232  0.64127  0.62338  1.0000
  N   N42       1.0  0.81016  0.90926  0.43948  1.0000
  C   C754      1.0  0.74207  0.73441  0.62752  1.0000
  C   C755      1.0  0.84333  0.86750  0.42085  1.0000
  C   C756      1.0  0.77332  0.72389  0.62327  1.0000
  H   H1333     1.0  0.78621  0.73827  0.63411  1.0000
  C   C757      1.0  0.78071  0.95818  0.53332  1.0000
  H   H1334     1.0  0.82684  0.74799  0.61220  1.0000
  H   H1335     1.0  0.86302  0.86999  0.37806  1.0000
  H   H1336     1.0  0.91907  0.75083  0.37300  1.0000
  H   H1337     1.0  0.80576  0.93805  0.64275  1.0000
  H   H1338     1.0  0.75487  0.93612  0.44335  1.0000
  C   C758      1.0  0.81140  0.94039  0.44529  1.0000
  H   H1339     1.0  0.79466  0.94670  0.46160  1.0000
  Fe  Fe86      1.0  0.75009  0.82535  0.64127  1.0000
  H   H1340     1.0  0.75887  0.93270  0.34574  1.0000
  H   H1341     1.0  0.85602  0.90919  0.43028  1.0000
  H   H1342     1.0  0.68497  0.86537  0.63985  1.0000
  H   H1343     1.0  0.90821  0.52943  0.63845  1.0000
  C   C759      1.0  0.77351  0.94949  0.34661  1.0000
  H   H1344     1.0  0.82556  0.95684  0.40256  1.0000
  H   H1345     1.0  0.82721  0.75150  0.53223  1.0000
  H   H1346     1.0  0.84903  0.68783  0.59701  1.0000
  H   H1347     1.0  0.89703  0.77035  0.57899  1.0000
  H   H1348     1.0  0.88782  0.87026  0.40573  1.0000
  H   H1349     1.0  0.82512  0.69768  0.62500  1.0000
  S   S173      1.0  0.75633  0.92838  0.61089  1.0000
  C   C760      1.0  0.75523  0.91419  0.43598  1.0000
  H   H1350     1.0  0.74921  0.89934  0.45422  1.0000
  C   C761      1.0  0.78258  0.72313  0.59137  1.0000
  H   H1351     1.0  0.84933  0.85757  0.44164  1.0000
  H   H1352     1.0  0.86904  0.77995  0.60473  1.0000
  C   C762      1.0  0.73216  0.91411  0.41470  1.0000
  H   H1353     1.0  0.75795  0.95335  0.53273  1.0000
  H   H1354     1.0  0.81938  0.76262  0.57829  1.0000
  C   C763      1.0  0.79342  0.95811  0.63962  1.0000
  C   C764      1.0  0.82932  0.74337  0.58959  1.0000
  C   C765      1.0  0.82596  0.69222  0.60259  1.0000
  C   C766      1.0  0.80771  0.89206  0.46735  1.0000
  H   H1355     1.0  0.81735  0.65465  0.57985  1.0000
  C   C767      1.0  0.86812  0.86104  0.39952  1.0000
  H   H1356     1.0  0.76963  0.70729  0.58229  1.0000
  H   H1357     1.0  0.85367  0.89044  0.47585  1.0000
  H   H1358     1.0  0.84587  0.63756  0.62105  1.0000
  H   H1359     1.0  0.77576  0.70228  0.63409  1.0000
  C   C768      1.0  0.91512  0.75006  0.35028  1.0000
  C   C769      1.0  0.81359  0.72429  0.50182  1.0000
  H   H1360     1.0  0.83422  0.85076  0.50555  1.0000
  H   H1361     1.0  0.83190  0.91606  0.49513  1.0000
  H   H1362     1.0  0.80513  0.86913  0.46400  1.0000
  H   H1363     1.0  0.80882  0.74257  0.48646  1.0000
  C   C770      1.0  0.83687  0.90025  0.42232  1.0000
  H   H1364     1.0  0.78736  0.91468  0.40095  1.0000
  H   H1365     1.0  0.71097  0.91940  0.42521  1.0000
  H   H1366     1.0  0.73604  0.93029  0.39702  1.0000
  H   H1367     1.0  0.73171  0.89272  0.40606  1.0000
  H   H1368     1.0  0.83189  0.94401  0.45464  1.0000
  H   H1369     1.0  0.91788  0.70447  0.35193  1.0000
  H   H1370     1.0  0.87209  0.83750  0.39869  1.0000
  C   C771      1.0  0.83059  0.87292  0.51245  1.0000
  H   H1371     1.0  0.78990  0.74473  0.53560  1.0000
  C   C772      1.0  0.87359  0.77175  0.58343  1.0000
  H   H1372     1.0  0.86716  0.73507  0.56057  1.0000
  H   H1373     1.0  0.83537  0.71505  0.49645  1.0000
  H   H1374     1.0  0.78796  0.89893  0.47973  1.0000
  H   H1375     1.0  0.86383  0.78719  0.56753  1.0000
  H   H1376     1.0  0.92460  0.76878  0.33859  1.0000
  H   H1377     1.0  0.68159  0.90229  0.62673  1.0000
  Fe  Fe87      1.0  0.80736  0.80419  0.32920  1.0000
  Fe  Fe88      1.0  0.79298  0.86915  0.32986  1.0000
  C   C773      1.0  0.83349  0.71641  0.33033  1.0000
  H   H1378     1.0  0.75495  0.73417  0.33235  1.0000
  H   H1379     1.0  0.70533  0.93926  0.65465  1.0000
  H   H1380     1.0  0.72481  0.89177  0.65359  1.0000
  H   H1381     1.0  0.84323  0.96273  0.33299  1.0000
  H   H1382     1.0  0.93837  0.66812  0.33078  1.0000
  H   H1383     1.0  0.71966  0.75164  0.33349  1.0000
  H   H1384     1.0  0.65962  0.88972  0.65718  1.0000
  C   C774      1.0  0.80209  0.98308  0.65074  1.0000
  S   S174      1.0  0.77676  0.85628  0.66005  1.0000
  S   S175      1.0  0.85273  0.81371  0.66001  1.0000
  Fe  Fe89      1.0  0.61082  0.73492  0.83127  1.0000
  S   S176      1.0  0.63325  0.76625  0.85462  1.0000
  S   S177      1.0  0.56395  0.74976  0.82930  1.0000
  Fe  Fe90      1.0  0.66625  0.69670  0.82522  1.0000
  S   S178      1.0  0.69072  0.72469  0.85031  1.0000
  S   S179      1.0  0.68931  0.66004  0.80275  1.0000
  Fe  Fe91      1.0  0.65112  0.72766  0.87960  1.0000
  S   S180      1.0  0.63785  0.72400  0.92675  1.0000
  Fe  Fe92      1.0  0.67005  0.76010  0.82275  1.0000
  S   S181      1.0  0.69593  0.79569  0.80088  1.0000
  S   S182      1.0  0.62825  0.69636  0.85647  1.0000
  S   S183      1.0  0.64612  0.73201  0.79741  1.0000
  Fe  Fe93      1.0  0.85035  0.63096  0.76028  1.0000
  S   S184      1.0  0.83184  0.62758  0.71836  1.0000
  S   S185      1.0  0.82472  0.64866  0.79790  1.0000
  Fe  Fe94      1.0  0.90948  0.60655  0.73964  1.0000
  S   S186      1.0  0.89497  0.60226  0.69604  1.0000
  S   S187      1.0  0.95224  0.58518  0.75114  1.0000
  Fe  Fe95      1.0  0.87259  0.64572  0.70072  1.0000
  C   C775      1.0  0.79467  0.56643  0.78118  1.0000
  Fe  Fe96      1.0  0.85578  0.58452  0.71792  1.0000
  S   S188      1.0  0.83724  0.54554  0.70157  1.0000
  S   S189      1.0  0.89031  0.65148  0.74272  1.0000
  S   S190      1.0  0.87114  0.58641  0.76137  1.0000
  H   H1385     1.0  0.80549  0.58319  0.76774  1.0000
  S   S191      1.0  0.71640  0.80066  0.66669  1.0000
  C   C776      1.0  0.70525  0.59318  0.75391  1.0000
  H   H1386     1.0  0.75629  0.92270  0.67434  1.0000
  H   H1387     1.0  0.75600  0.52894  0.71946  1.0000
  H   H1388     1.0  0.58822  0.75536  0.89950  1.0000
  H   H1389     1.0  0.71628  0.88313  0.73391  1.0000
  C   C777      1.0  0.84665  0.51125  0.71718  1.0000
  H   H1390     1.0  0.85721  0.52661  0.75668  1.0000
  H   H1391     1.0  0.94162  0.49531  0.66259  1.0000
  H   H1392     1.0  0.79187  0.60494  0.67600  1.0000
  H   H1393     1.0  0.65587  0.81540  0.89574  1.0000
  C   C778      1.0  0.92701  0.50478  0.70630  1.0000
  C   C779      1.0  0.72144  0.96626  0.69433  1.0000
  C   C780      1.0  0.53504  0.72811  0.82624  1.0000
  C   C781      1.0  0.50790  0.73752  0.83714  1.0000
  C   C782      1.0  0.51431  0.68632  0.81017  1.0000
  C   C783      1.0  0.53821  0.70237  0.81285  1.0000
  H   H1394     1.0  0.50527  0.75752  0.84739  1.0000
  H   H1395     1.0  0.51678  0.66661  0.79940  1.0000
  H   H1396     1.0  0.55896  0.69508  0.80415  1.0000
  C   C784      1.0  0.70230  0.79672  0.76356  1.0000
  C   C785      1.0  0.71698  0.81926  0.74959  1.0000
  C   C786      1.0  0.72208  0.82056  0.71994  1.0000
  C   C787      1.0  0.71225  0.79943  0.70404  1.0000
  C   C788      1.0  0.69794  0.77682  0.71806  1.0000
  C   C789      1.0  0.69332  0.77530  0.74759  1.0000
  H   H1397     1.0  0.72453  0.83565  0.76177  1.0000
  H   H1398     1.0  0.73331  0.83796  0.70937  1.0000
  H   H1399     1.0  0.69035  0.76032  0.70601  1.0000
  H   H1400     1.0  0.68268  0.75749  0.75784  1.0000
  C   C790      1.0  0.72697  0.65927  0.80099  1.0000
  C   C791      1.0  0.74195  0.66413  0.82460  1.0000
  C   C792      1.0  0.77192  0.66094  0.82337  1.0000
  C   C793      1.0  0.78715  0.65300  0.79854  1.0000
  C   C794      1.0  0.77220  0.64870  0.77481  1.0000
  C   C795      1.0  0.74225  0.65187  0.77603  1.0000
  H   H1401     1.0  0.73043  0.66960  0.84406  1.0000
  H   H1402     1.0  0.78333  0.66435  0.84185  1.0000
  H   H1403     1.0  0.78377  0.64319  0.75549  1.0000
  H   H1404     1.0  0.73083  0.64887  0.75752  1.0000
  H   H1405     1.0  0.89364  0.54164  0.67168  1.0000
  C   C796      1.0  0.65726  0.72436  0.95746  1.0000
  C   C797      1.0  0.68647  0.72847  0.95629  1.0000
  H   H1406     1.0  0.81225  0.76851  0.66882  1.0000
  H   H1407     1.0  0.69819  0.73033  0.93603  1.0000
  N   N43       1.0  0.78731  0.75086  0.76486  1.0000
  C   C798      1.0  0.78827  0.77709  0.74476  1.0000
  C   C799      1.0  0.76761  0.72987  0.75463  1.0000
  C   C800      1.0  0.77497  0.76050  0.79302  1.0000
  C   C801      1.0  0.81658  0.73693  0.76942  1.0000
  C   C802      1.0  0.83547  0.72979  0.74280  1.0000
  C   C803      1.0  0.80711  0.80093  0.75280  1.0000
  C   C804      1.0  0.76768  0.73636  0.81573  1.0000
  C   C805      1.0  0.76718  0.72746  0.72223  1.0000
  C   C806      1.0  0.75083  0.70199  0.71508  1.0000
  C   C807      1.0  0.86630  0.72260  0.75026  1.0000
  C   C808      1.0  0.80690  0.82563  0.73026  1.0000
  C   C809      1.0  0.75946  0.74869  0.84427  1.0000
  H   H1408     1.0  0.76633  0.78667  0.74246  1.0000
  H   H1409     1.0  0.79573  0.77163  0.72311  1.0000
  H   H1410     1.0  0.77228  0.70813  0.76466  1.0000
  H   H1411     1.0  0.74502  0.73578  0.76143  1.0000
  H   H1412     1.0  0.75506  0.77422  0.79015  1.0000
  H   H1413     1.0  0.78991  0.77403  0.80260  1.0000
  H   H1414     1.0  0.82877  0.75047  0.78224  1.0000
  H   H1415     1.0  0.81504  0.71628  0.78217  1.0000
  H   H1416     1.0  0.83600  0.74794  0.72681  1.0000
  H   H1417     1.0  0.82780  0.71078  0.73347  1.0000
  H   H1418     1.0  0.79910  0.81000  0.77294  1.0000
  H   H1419     1.0  0.82953  0.79262  0.75474  1.0000
  H   H1420     1.0  0.78603  0.72079  0.81886  1.0000
  H   H1421     1.0  0.74943  0.72468  0.80960  1.0000
  H   H1422     1.0  0.75637  0.74707  0.71243  1.0000
  H   H1423     1.0  0.78885  0.72507  0.71220  1.0000
  H   H1424     1.0  0.72902  0.70303  0.72543  1.0000
  H   H1425     1.0  0.74902  0.70225  0.69190  1.0000
  H   H1426     1.0  0.76237  0.68165  0.72198  1.0000
  H   H1427     1.0  0.87911  0.71581  0.73122  1.0000
  H   H1428     1.0  0.87576  0.74168  0.75771  1.0000
  H   H1429     1.0  0.86737  0.70499  0.76703  1.0000
  H   H1430     1.0  0.82118  0.84212  0.73587  1.0000
  H   H1431     1.0  0.81463  0.81792  0.70943  1.0000
  H   H1432     1.0  0.78499  0.83555  0.72856  1.0000
  H   H1433     1.0  0.77756  0.75954  0.85195  1.0000
  H   H1434     1.0  0.74079  0.76427  0.84252  1.0000
  H   H1435     1.0  0.75382  0.73109  0.85999  1.0000
  C   C810      1.0  0.69991  0.92615  0.67447  1.0000
  H   H1436     1.0  0.70983  0.60070  0.77472  1.0000
  C   C811      1.0  0.64234  0.72176  0.98395  1.0000
  H   H1437     1.0  0.78811  0.53379  0.73518  1.0000
  H   H1438     1.0  0.68093  0.94031  0.72747  1.0000
  H   H1439     1.0  0.80592  0.91292  0.69150  1.0000
  C   C812      1.0  0.90398  0.52296  0.66112  1.0000
  C   C813      1.0  0.48730  0.69547  0.82153  1.0000
  C   C814      1.0  0.67664  0.80634  0.90322  1.0000
  H   H1440     1.0  0.53999  0.72452  0.88381  1.0000
  H   H1441     1.0  0.64484  0.83464  0.94432  1.0000
  C   C815      1.0  0.85702  0.77598  0.66525  1.0000
  H   H1442     1.0  0.70073  0.90034  0.78076  1.0000
  C   C816      1.0  0.67462  0.79983  0.93517  1.0000
  H   H1443     1.0  0.69548  0.78976  0.94121  1.0000
  C   C817      1.0  0.83362  0.75872  0.66825  1.0000
  H   H1444     1.0  0.53602  0.70301  0.96907  1.0000
  C   C818      1.0  0.76479  0.58535  0.72718  1.0000
  H   H1445     1.0  0.88922  0.50528  0.66268  1.0000
  C   C819      1.0  0.56115  0.65861  0.87485  1.0000
  H   H1446     1.0  0.55356  0.77270  0.89387  1.0000
  C   C820      1.0  0.92728  0.49885  0.80076  1.0000
  H   H1447     1.0  0.50200  0.79879  0.72669  1.0000
  N   N44       1.0  0.66676  0.82408  0.98298  1.0000
  C   C821      1.0  0.79793  0.70603  0.99265  1.0000
  C   C822      1.0  0.75846  0.50837  0.76097  1.0000
  H   H1448     1.0  0.96526  0.53544  0.72204  1.0000
  H   H1449     1.0  0.66529  0.57583  0.77069  1.0000
  H   H1450     1.0  0.80075  0.68533  0.98241  1.0000
  C   C823      1.0  0.98651  0.63145  0.74272  1.0000
  H   H1451     1.0  0.96736  0.64445  0.73817  1.0000
  C   C824      1.0  0.97538  0.51341  0.72120  1.0000
  C   C825      1.0  0.76471  0.53395  0.73969  1.0000
  H   H1452     1.0  0.65019  0.78197  0.98590  1.0000
  C   C826      1.0  0.66642  0.82734  0.95110  1.0000
  C   C827      1.0  0.88459  0.76292  0.66563  1.0000
  H   H1453     1.0  0.90911  0.49028  0.70905  1.0000
  H   H1454     1.0  0.57712  0.67218  0.98570  1.0000
  C   C828      1.0  0.93194  0.51334  0.67448  1.0000
  H   H1455     1.0  0.90279  0.77605  0.66342  1.0000
  H   H1456     1.0  0.73142  0.58852  0.69610  1.0000
  N   N45       1.0  0.71740  0.93443  0.69808  1.0000
  C   C829      1.0  0.74656  0.91919  0.69612  1.0000
  C   C830      1.0  0.79643  0.91007  0.71339  1.0000
  N   N46       1.0  0.95262  0.49188  0.72120  1.0000
  C   C831      1.0  0.70220  0.92871  0.72658  1.0000
  C   C832      1.0  0.70403  0.89475  0.66555  1.0000
  C   C833      1.0  0.76837  0.92801  0.71669  1.0000
  H   H1457     1.0  0.91024  0.72316  0.66575  1.0000
  C   C834      1.0  0.83789  0.72864  0.67018  1.0000
  H   H1458     1.0  0.82437  0.56999  0.81378  1.0000
  H   H1459     1.0  0.52157  0.77386  0.78428  1.0000
  H   H1460     1.0  0.67681  0.93106  0.67963  1.0000
  C   C835      1.0  0.80095  0.57067  0.81175  1.0000
  H   H1461     1.0  0.73075  0.97392  0.71327  1.0000
  H   H1462     1.0  0.74526  0.89570  0.69931  1.0000
  H   H1463     1.0  0.66240  0.61273  0.75763  1.0000
  H   H1464     1.0  0.79291  0.88709  0.71831  1.0000
  S   S192      1.0  0.87102  0.67871  0.66372  1.0000
  H   H1465     1.0  0.71277  0.54872  0.76622  1.0000
  H   H1466     1.0  0.70393  0.87871  0.68359  1.0000
  H   H1467     1.0  0.94709  0.48940  0.81004  1.0000
  H   H1468     1.0  0.66478  0.90752  0.76931  1.0000
  H   H1469     1.0  0.77346  0.95073  0.71228  1.0000
  H   H1470     1.0  0.76742  0.51102  0.78161  1.0000
  C   C836      1.0  0.68486  0.89408  0.76626  1.0000
  H   H1471     1.0  0.71148  0.60957  0.73721  1.0000
  C   C837      1.0  0.72100  0.56372  0.74898  1.0000
  N   N47       1.0  0.75312  0.56301  0.74827  1.0000
  C   C838      1.0  0.84418  0.48671  0.70218  1.0000
  H   H1472     1.0  0.50060  0.71293  0.93715  1.0000
  H   H1473     1.0  0.68653  0.98281  0.66768  1.0000
  H   H1474     1.0  0.66683  0.58492  0.73296  1.0000
  H   H1475     1.0  0.75983  0.60716  0.73463  1.0000
  H   H1476     1.0  0.71365  0.55584  0.72920  1.0000
  C   C839      1.0  0.67298  0.59138  0.75373  1.0000
  H   H1477     1.0  0.71264  0.82026  0.97432  1.0000
  C   C840      1.0  0.93341  0.50938  0.77003  1.0000
  H   H1478     1.0  0.91860  0.52472  0.71614  1.0000
  H   H1479     1.0  0.76012  0.92488  0.73895  1.0000
  H   H1480     1.0  0.51386  0.67318  0.97252  1.0000
  H   H1481     1.0  0.53777  0.76433  0.75045  1.0000
  H   H1482     1.0  0.91366  0.52067  0.76245  1.0000
  H   H1483     1.0  0.61978  0.71836  0.98505  1.0000
  H   H1484     1.0  0.57103  0.77727  0.92597  1.0000
  C   C841      1.0  0.54583  0.67109  0.93692  1.0000
  H   H1485     1.0  0.79192  0.55351  0.82615  1.0000
  H   H1486     1.0  0.78845  0.58284  0.72536  1.0000
  H   H1487     1.0  0.71386  0.93754  0.74343  1.0000
  C   C842      1.0  0.76211  0.56893  0.77718  1.0000
  H   H1488     1.0  0.62887  0.87293  0.96486  1.0000
  H   H1489     1.0  0.54208  0.64787  0.93652  1.0000
  H   H1490     1.0  0.73519  0.50602  0.76437  1.0000
  H   H1491     1.0  0.57651  0.65211  0.89120  1.0000
  H   H1492     1.0  0.75491  0.59106  0.78243  1.0000
  H   H1493     1.0  0.51969  0.68014  0.87075  1.0000
  H   H1494     1.0  0.69339  0.82160  0.89712  1.0000
  H   H1495     1.0  0.56765  0.72644  0.94066  1.0000
  H   H1496     1.0  0.79187  0.59184  0.81824  1.0000
  H   H1497     1.0  0.57157  0.70606  0.89541  1.0000
  C   C843      1.0  0.52540  0.78141  0.76184  1.0000
  C   C844      1.0  0.56735  0.76186  0.90998  1.0000
  H   H1498     1.0  0.55164  0.61428  0.87006  1.0000
  H   H1499     1.0  0.81978  0.71544  0.67145  1.0000
  C   C845      1.0  0.69659  0.89717  0.73559  1.0000
  H   H1500     1.0  0.82296  0.48724  0.83469  1.0000
  H   H1501     1.0  0.65812  0.78403  0.93964  1.0000
  C   C846      1.0  0.53588  0.67969  0.96709  1.0000
  H   H1502     1.0  0.75132  0.55496  0.79381  1.0000
  C   C847      1.0  0.70039  0.73087  0.98140  1.0000
  H   H1503     1.0  0.53284  0.74353  0.93438  1.0000
  H   H1504     1.0  0.68097  0.84415  0.94266  1.0000
  H   H1505     1.0  0.80440  0.54522  0.77581  1.0000
  H   H1506     1.0  0.94998  0.52515  0.77001  1.0000
  C   C848      1.0  0.49710  0.78928  0.74834  1.0000
  C   C849      1.0  0.55336  0.73572  0.92424  1.0000
  H   H1507     1.0  0.53834  0.80048  0.76116  1.0000
  C   C850      1.0  0.55503  0.66503  0.98921  1.0000
  H   H1508     1.0  0.81181  0.91688  0.72810  1.0000
  C   C851      1.0  0.76830  0.60863  0.67755  1.0000
  H   H1509     1.0  0.73717  0.97086  0.67645  1.0000
  C   C852      1.0  0.54950  0.71322  0.90256  1.0000
  H   H1510     1.0  0.57001  0.67613  0.86081  1.0000
  H   H1511     1.0  0.68228  0.78621  0.89250  1.0000
  H   H1512     1.0  0.54327  0.63861  0.84019  1.0000
  C   C853      1.0  0.55870  0.63318  0.85676  1.0000
  C   C854      1.0  0.53170  0.66897  0.88811  1.0000
  H   H1513     1.0  0.57981  0.62748  0.84626  1.0000
  H   H1514     1.0  0.62376  0.80997  0.98398  1.0000
  H   H1515     1.0  0.56947  0.67213  0.93461  1.0000
  N   N48       1.0  0.53225  0.68799  0.91254  1.0000
  H   H1516     1.0  0.91911  0.51719  0.81319  1.0000
  C   C855      1.0  0.86553  0.71563  0.66919  1.0000
  H   H1517     1.0  0.68019  0.87139  0.77183  1.0000
  C   C856      1.0  0.85566  0.50801  0.74472  1.0000
  H   H1518     1.0  0.68028  0.88946  0.72246  1.0000
  H   H1519     1.0  0.51997  0.64953  0.89454  1.0000
  H   H1520     1.0  0.72288  0.73461  0.98031  1.0000
  H   H1521     1.0  0.76143  0.56437  0.68739  1.0000
  C   C857      1.0  0.98489  0.60215  0.74964  1.0000
  H   H1522     1.0  0.94574  0.53177  0.67166  1.0000
  H   H1523     1.0  0.83696  0.48901  0.68093  1.0000
  H   H1524     1.0  0.78731  0.72205  0.97789  1.0000
  C   C858      1.0  0.75488  0.58502  0.69667  1.0000
  C   C859      1.0  0.88883  0.73293  0.66716  1.0000
  C   C860      1.0  0.63098  0.86826  0.98783  1.0000
  H   H1525     1.0  0.76267  0.62999  0.68584  1.0000
  C   C861      1.0  0.94309  0.48403  0.75151  1.0000
  H   H1526     1.0  0.97427  0.70561  0.67665  1.0000
  C   C862      1.0  0.50188  0.69873  0.91937  1.0000
  H   H1527     1.0  0.55544  0.64138  0.98828  1.0000
  H   H1528     1.0  0.82113  0.98207  0.66253  1.0000
  H   H1529     1.0  0.49389  0.71295  0.90142  1.0000
  H   H1530     1.0  0.78648  0.48340  0.82678  1.0000
  H   H1531     1.0  0.48954  0.75010  0.72929  1.0000
  H   H1532     1.0  0.67716  0.86806  0.98507  1.0000
  H   H1533     1.0  0.49069  0.65415  0.93306  1.0000
  H   H1534     1.0  0.69792  0.78868  0.98991  1.0000
  H   H1535     1.0  0.67683  0.98176  0.70485  1.0000
  H   H1536     1.0  0.64338  0.91150  0.99369  1.0000
  C   C863      1.0  0.64442  0.80359  0.99346  1.0000
  C   C864      1.0  0.69629  0.81240  0.99046  1.0000
