data_image0
_chemical_formula_structural       HCHSCHC2HCH3SFe2SH3CHNCFeCH2CFeCH4SCH3CH2CHC2NC2HSHFeCHCHSFeC2HC2H5SH3CSHC2HC2HCH7CHCH5CHCHCH2SCH2CHCH2CHC2H3CH6CHNHC2H5C3HC3H3CHSHS2CFeHFeSC2SCSH2SH4C3SHCH2FeHC2H5FeH2CHSFeH2C2H10CSH4CHC2HNH6CHCH6CH4C2H3C2HNCH4C3H9CHC2H2SCH3C2SH4C3H2CH2CHCH2CH2CHSH5SHC2H4CH2CH2SHC2HSCHCHCHFeH2CSH2CNFeSH4S2HCFeCHSH2FeCFeCSH3CHCH4C4H3C2HC5H6C2H2CH3SH2C2H5C3HCH3SHCH3CH3CNSNHCHC4H7CH2C2H4CH3CHCH2CFeCH2FeH3SCSH3C2FeSCHCH4CSHCFeCHC4HCHCH3NHCHFeH3SH3SC2H2SCHC2H4CFeHCH2FeHCSHCHC3FeCH3SCH3CHNH2CHC3H2C2HCH2CH3CH3CHCH3CH5CSHCHC2H5CH3C2SHNH4CH4CH2CHCH3CHC2HC3H4FeHCSCSCH3SH2SCHCHCH2CH3FeH3C3H3SCFeCH2C2HSC2FeSH2CS2CSH3C4H2CHCFeCH3SHC2H4CH2CH5CH4C2HCH3C2H4C2HCH2SH2CH2C2H4CH4NHC2H5C2HC2H2C2HCH2C2N2CH3CSH2CH5CHSNFeHFeH4CFeHCHC5H2CH2CS2HC2HCHC3H2C2H3CH3C2FeSCH5SCFeH4SC2SHSCHC2H3C2HCSH7C3HCH5CNC3H2C2H4SH7C2H2NHCH2SNHCH5CH10CHCH2C5H4CH5CHC3H2CH2C3NHSH2CH4CH4CHSCH5C4HCH4CSHCH2C3H2SHCHFeCH4CSCHCH2C2SHC4H2C2SFeCH2CHCHSCH2FeH2CH3FeCHNH2CHCH2CHSC2HCH2CHCNH5CSCH5SCH2CH3CH8CHCH2C2HCH3CH4CHCH3CH2CHCH4CH3NH4C3SCHCSH2CSH2CFe2CSH2SHC2H4NHFeHCHCHC2H4SC2HSH2SHC2H4CHFeCHCH2SFeHSHFeSH2C3HCH3SHCHNH2C2HSH8C3H2SHCH6FeCFeSH3CFeC2H2C2FeHCH2SCH4C4H4CH3C2H2CHCH3CH2C
_chemical_formula_sum              "H768 C432 S96 Fe48 N24"
_cell_length_a       25.5725
_cell_length_b       30.9927
_cell_length_c       23.9446
_cell_angle_alpha    105.919
_cell_angle_beta     67.2546
_cell_angle_gamma    112.434

_space_group_name_H-M_alt    "P 1"
_space_group_IT_number       1

loop_
  _space_group_symop_operation_xyz
  'x, y, z'

loop_
  _atom_site_type_symbol
  _atom_site_label
  _atom_site_symmetry_multiplicity
  _atom_site_fract_x
  _atom_site_fract_y
  _atom_site_fract_z
  _atom_site_occupancy
  H   H1        1.0  0.10560  0.23272  0.84636  1.0000
  C   C1        1.0  0.98849  0.14634  0.90151  1.0000
  H   H2        1.0  0.06399  0.35904  0.94143  1.0000
  S   S1        1.0  0.19671  0.19947  0.95489  1.0000
  C   C2        1.0  0.94438  0.15520  0.83411  1.0000
  H   H3        1.0  0.22232  0.48413  0.82777  1.0000
  C   C3        1.0  0.03070  0.37499  0.94494  1.0000
  C   C4        1.0  0.05192  0.37737  0.77712  1.0000
  H   H4        1.0  0.04850  0.28742  0.88575  1.0000
  C   C5        1.0  0.43098  0.48603  0.82869  1.0000
  H   H5        1.0  0.16151  0.39683  0.78665  1.0000
  H   H6        1.0  0.14301  0.25473  0.77414  1.0000
  H   H7        1.0  0.23875  0.36259  0.81980  1.0000
  S   S2        1.0  0.32811  0.20550  0.80857  1.0000
  Fe  Fe1       1.0  0.07059  0.58901  0.76236  1.0000
  Fe  Fe2       1.0  0.42055  0.26253  0.92100  1.0000
  S   S3        1.0  0.01363  0.53702  0.96451  1.0000
  H   H8        1.0  0.30437  0.35329  0.76004  1.0000
  H   H9        1.0  0.17835  0.47691  0.90706  1.0000
  H   H10       1.0  0.34400  0.52190  0.84310  1.0000
  C   C6        1.0  0.07451  0.31641  0.80178  1.0000
  H   H11       1.0  0.11021  0.31657  0.75645  1.0000
  N   N1        1.0  0.41506  0.49441  0.77871  1.0000
  C   C7        1.0  0.38368  0.53142  0.80232  1.0000
  Fe  Fe3       1.0  0.39535  0.18145  0.81935  1.0000
  C   C8        1.0  0.12656  0.45310  0.84403  1.0000
  H   H12       1.0  0.13814  0.39429  0.86539  1.0000
  H   H13       1.0  0.99778  0.15647  0.94449  1.0000
  C   C9        1.0  0.01563  0.36445  0.88451  1.0000
  Fe  Fe4       1.0  0.29549  0.21776  0.91107  1.0000
  C   C10       1.0  0.42105  0.58203  0.82214  1.0000
  H   H14       1.0  0.17914  0.52302  0.87414  1.0000
  H   H15       1.0  0.99471  0.39123  0.88898  1.0000
  H   H16       1.0  0.13344  0.15406  0.84851  1.0000
  H   H17       1.0  0.04521  0.41274  0.79220  1.0000
  S   S4        1.0  0.42497  0.12178  0.75396  1.0000
  C   C11       1.0  0.96323  0.48780  0.93627  1.0000
  H   H18       1.0  0.04932  0.41370  0.95756  1.0000
  H   H19       1.0  0.95639  0.11038  0.74664  1.0000
  H   H20       1.0  0.26372  0.38504  0.74860  1.0000
  C   C12       1.0  0.16407  0.13850  0.95422  1.0000
  H   H21       1.0  0.12724  0.31955  0.85842  1.0000
  H   H22       1.0  0.97943  0.33007  0.88388  1.0000
  C   C13       1.0  0.19822  0.11003  0.94687  1.0000
  H   H23       1.0  0.24476  0.12549  0.94274  1.0000
  C   C14       1.0  0.95592  0.16857  0.89008  1.0000
  C   C15       1.0  0.95942  0.48589  0.87904  1.0000
  N   N2        1.0  0.06643  0.36474  0.82503  1.0000
  C   C16       1.0  0.18003  0.48605  0.86454  1.0000
  C   C17       1.0  0.10336  0.11808  0.96079  1.0000
  H   H24       1.0  0.07670  0.14006  0.96709  1.0000
  S   S5        1.0  0.41844  0.33140  0.75539  1.0000
  H   H25       1.0  0.14378  0.15785  0.77120  1.0000
  Fe  Fe5       1.0  0.06220  0.58353  0.89093  1.0000
  C   C18       1.0  0.10094  0.24877  0.81302  1.0000
  H   H26       1.0  0.08527  0.45842  0.87981  1.0000
  C   C19       1.0  0.08808  0.29540  0.84441  1.0000
  H   H27       1.0  0.33014  0.41570  0.84307  1.0000
  S   S6        1.0  0.35848  0.18833  0.92190  1.0000
  Fe  Fe6       1.0  0.39116  0.27854  0.81729  1.0000
  C   C20       1.0  0.16395  0.15171  0.80072  1.0000
  C   C21       1.0  0.00739  0.10984  0.85813  1.0000
  H   H28       1.0  0.03321  0.28976  0.79411  1.0000
  C   C22       1.0  0.96557  0.12031  0.78974  1.0000
  C   C23       1.0  0.12483  0.40061  0.83024  1.0000
  H   H29       1.0  0.98555  0.51497  0.85354  1.0000
  H   H30       1.0  0.95584  0.34161  0.80400  1.0000
  H   H31       1.0  0.43316  0.44934  0.81948  1.0000
  H   H32       1.0  0.28887  0.44795  0.83461  1.0000
  H   H33       1.0  0.13094  0.46443  0.80181  1.0000
  S   S7        1.0  0.35421  0.29287  0.91925  1.0000
  H   H34       1.0  0.42432  0.58446  0.86786  1.0000
  H   H35       1.0  0.39512  0.48857  0.87335  1.0000
  H   H36       1.0  0.20698  0.17970  0.79977  1.0000
  C   C24       1.0  0.31708  0.42468  0.80958  1.0000
  S   S8        1.0  0.11046  0.55320  0.79756  1.0000
  H   H37       1.0  0.06382  0.22340  0.79617  1.0000
  C   C25       1.0  0.27858  0.37863  0.78264  1.0000
  C   C26       1.0  0.37266  0.44845  0.75829  1.0000
  H   H38       1.0  0.36539  0.53275  0.76765  1.0000
  C   C27       1.0  0.99462  0.34406  0.76179  1.0000
  C   C28       1.0  0.17248  0.10295  0.78015  1.0000
  H   H39       1.0  0.99813  0.30837  0.74011  1.0000
  C   C29       1.0  0.35359  0.15501  0.08660  1.0000
  H   H40       1.0  0.41064  0.37678  0.08875  1.0000
  H   H41       1.0  0.08061  0.32425  0.15999  1.0000
  H   H42       1.0  0.34435  0.14034  0.04233  1.0000
  H   H43       1.0  0.09937  0.28545  0.08909  1.0000
  H   H44       1.0  0.95321  0.14575  0.16952  1.0000
  H   H45       1.0  0.99909  0.24887  0.15890  1.0000
  H   H46       1.0  0.07693  0.33432  0.09064  1.0000
  C   C30       1.0  0.27472  0.19544  0.12481  1.0000
  H   H47       1.0  0.18214  0.17645  0.07872  1.0000
  C   C31       1.0  0.34094  0.20226  0.11271  1.0000
  H   H48       1.0  0.31048  0.27152  0.21478  1.0000
  H   H49       1.0  0.18946  0.23686  0.07984  1.0000
  H   H50       1.0  0.29465  0.26167  0.06743  1.0000
  H   H51       1.0  0.26854  0.18317  0.07896  1.0000
  H   H52       1.0  0.25372  0.29738  0.12506  1.0000
  C   C32       1.0  0.97521  0.35669  0.99807  1.0000
  H   H53       1.0  0.33101  0.33635  0.17293  1.0000
  C   C33       1.0  0.18745  0.22273  0.16627  1.0000
  H   H54       1.0  0.16879  0.25171  0.19515  1.0000
  C   C34       1.0  0.26247  0.25604  0.21866  1.0000
  H   H55       1.0  0.38284  0.33084  0.03331  1.0000
  H   H56       1.0  0.08977  0.18249  0.07951  1.0000
  S   S9        1.0  0.38373  0.12737  0.20906  1.0000
  C   C35       1.0  0.28431  0.27692  0.11694  1.0000
  H   H57       1.0  0.32597  0.12923  0.11928  1.0000
  H   H58       1.0  0.40113  0.15997  0.07830  1.0000
  C   C36       1.0  0.16890  0.20765  0.10741  1.0000
  H   H59       1.0  0.43029  0.54948  0.08647  1.0000
  C   C37       1.0  0.10140  0.19392  0.12254  1.0000
  H   H60       1.0  0.33812  0.36779  0.08481  1.0000
  H   H61       1.0  0.27592  0.59900  0.09854  1.0000
  C   C38       1.0  0.34197  0.31522  0.12673  1.0000
  H   H62       1.0  0.07809  0.16446  0.14997  1.0000
  C   C39       1.0  0.96080  0.30452  0.16725  1.0000
  C   C40       1.0  0.00437  0.27508  0.13202  1.0000
  H   H63       1.0  0.37601  0.29974  0.12278  1.0000
  H   H64       1.0  0.35318  0.21664  0.15520  1.0000
  H   H65       1.0  0.97537  0.32886  0.20609  1.0000
  C   C41       1.0  0.40861  0.43082  0.23152  1.0000
  H   H66       1.0  0.16308  0.19210  0.19151  1.0000
  H   H67       1.0  0.08576  0.22468  0.14816  1.0000
  H   H68       1.0  0.36986  0.22641  0.07831  1.0000
  H   H69       1.0  0.41518  0.39948  0.19708  1.0000
  H   H70       1.0  0.99660  0.25591  0.08796  1.0000
  H   H71       1.0  0.24700  0.16526  0.15099  1.0000
  C   C42       1.0  0.36985  0.34972  0.08052  1.0000
  H   H72       1.0  0.98696  0.36676  0.04094  1.0000
  N   N3        1.0  0.25373  0.23789  0.15645  1.0000
  H   H73       1.0  0.42503  0.56413  0.19679  1.0000
  C   C43       1.0  0.40985  0.18890  0.21708  1.0000
  C   C44       1.0  0.06920  0.30691  0.11714  1.0000
  H   H74       1.0  0.96802  0.32798  0.13543  1.0000
  H   H75       1.0  0.95729  0.31758  0.98911  1.0000
  H   H76       1.0  0.22088  0.21673  0.35794  1.0000
  H   H77       1.0  0.19156  0.19660  0.26527  1.0000
  H   H78       1.0  0.24284  0.50051  0.41925  1.0000
  C   C45       1.0  0.24870  0.35508  0.48542  1.0000
  C   C46       1.0  0.25161  0.47329  0.43327  1.0000
  C   C47       1.0  0.31964  0.23436  0.43633  1.0000
  H   H79       1.0  0.34653  0.19843  0.30586  1.0000
  C   C48       1.0  0.23739  0.21934  0.26283  1.0000
  C   C49       1.0  0.38301  0.21589  0.26963  1.0000
  C   C50       1.0  0.25536  0.56723  0.29558  1.0000
  H   H80       1.0  0.08662  0.22678  0.45353  1.0000
  H   H81       1.0  0.94475  0.53843  0.44145  1.0000
  H   H82       1.0  0.33198  0.47280  0.35526  1.0000
  C   C51       1.0  0.15057  0.53968  0.35364  1.0000
  H   H83       1.0  0.21872  0.59431  0.44777  1.0000
  S   S10       1.0  0.99292  0.32166  0.42599  1.0000
  H   H84       1.0  0.98325  0.53285  0.36032  1.0000
  S   S11       1.0  0.13704  0.35628  0.35834  1.0000
  S   S12       1.0  0.25321  0.10728  0.37350  1.0000
  C   C52       1.0  0.14986  0.58656  0.37304  1.0000
  Fe  Fe7       1.0  0.40199  0.38316  0.46637  1.0000
  H   H85       1.0  0.38403  0.28634  0.31629  1.0000
  Fe  Fe8       1.0  0.12420  0.41887  0.34196  1.0000
  S   S13       1.0  0.06655  0.43402  0.43887  1.0000
  C   C53       1.0  0.06602  0.23154  0.37709  1.0000
  C   C54       1.0  0.40386  0.26531  0.27510  1.0000
  S   S14       1.0  0.11251  0.14075  0.42400  1.0000
  C   C55       1.0  0.05872  0.20976  0.32006  1.0000
  S   S15       1.0  0.20561  0.47181  0.29090  1.0000
  H   H86       1.0  0.30733  0.57948  0.44830  1.0000
  H   H87       1.0  0.20443  0.26464  0.34664  1.0000
  S   S16       1.0  0.04758  0.37509  0.30609  1.0000
  H   H88       1.0  0.32883  0.27313  0.44870  1.0000
  H   H89       1.0  0.19108  0.35871  0.44212  1.0000
  H   H90       1.0  0.36278  0.22696  0.41162  1.0000
  H   H91       1.0  0.96245  0.27655  0.26410  1.0000
  C   C56       1.0  0.08795  0.16500  0.38521  1.0000
  C   C57       1.0  0.19452  0.35552  0.48415  1.0000
  C   C58       1.0  0.06329  0.16422  0.29669  1.0000
  S   S17       1.0  0.04703  0.24090  0.27747  1.0000
  H   H92       1.0  0.28092  0.26755  0.32900  1.0000
  C   C59       1.0  0.07873  0.14194  0.32907  1.0000
  H   H93       1.0  0.96844  0.12550  0.44699  1.0000
  H   H94       1.0  0.32965  0.52028  0.45599  1.0000
  Fe  Fe9       1.0  0.05545  0.31373  0.33094  1.0000
  H   H95       1.0  0.29621  0.55984  0.26572  1.0000
  C   C60       1.0  0.07961  0.20896  0.41009  1.0000
  C   C61       1.0  0.20340  0.53002  0.31509  1.0000
  H   H96       1.0  0.20834  0.44674  0.45199  1.0000
  H   H97       1.0  0.26343  0.43473  0.34104  1.0000
  H   H98       1.0  0.40258  0.51956  0.26839  1.0000
  H   H99       1.0  0.28169  0.17210  0.47895  1.0000
  H   H100      1.0  0.36231  0.43096  0.24243  1.0000
  Fe  Fe10      1.0  0.99049  0.38618  0.40409  1.0000
  H   H101      1.0  0.06307  0.26648  0.39559  1.0000
  H   H102      1.0  0.29217  0.41754  0.38591  1.0000
  C   C62       1.0  0.28728  0.44819  0.37542  1.0000
  H   H103      1.0  0.28616  0.35671  0.44396  1.0000
  S   S18       1.0  0.40130  0.41640  0.39470  1.0000
  Fe  Fe11      1.0  0.07382  0.36792  0.45255  1.0000
  H   H104      1.0  0.08424  0.10740  0.31041  1.0000
  H   H105      1.0  0.29217  0.22098  0.40535  1.0000
  C   C63       1.0  0.28649  0.49609  0.48025  1.0000
  C   C64       1.0  0.23603  0.24372  0.32798  1.0000
  H   H106      1.0  0.11015  0.51109  0.36814  1.0000
  H   H107      1.0  0.38996  0.58159  0.33487  1.0000
  H   H108      1.0  0.39591  0.10611  0.33602  1.0000
  H   H109      1.0  0.43890  0.22817  0.47846  1.0000
  H   H110      1.0  0.41503  0.42767  0.27325  1.0000
  H   H111      1.0  0.10910  0.59398  0.40323  1.0000
  H   H112      1.0  0.05685  0.14692  0.25300  1.0000
  H   H113      1.0  0.26617  0.19632  0.24746  1.0000
  H   H114      1.0  0.24280  0.28540  0.24197  1.0000
  H   H115      1.0  0.11751  0.23093  0.54640  1.0000
  C   C65       1.0  0.42286  0.19594  0.65415  1.0000
  S   S19       1.0  0.03940  0.54961  0.68135  1.0000
  H   H116      1.0  0.01160  0.20125  0.66150  1.0000
  H   H117      1.0  0.07520  0.17179  0.56288  1.0000
  H   H118      1.0  0.42146  0.49499  0.65776  1.0000
  H   H119      1.0  0.20047  0.12510  0.53572  1.0000
  C   C66       1.0  0.22032  0.19667  0.62289  1.0000
  H   H120      1.0  0.23423  0.25755  0.54262  1.0000
  C   C67       1.0  0.36226  0.56548  0.54862  1.0000
  C   C68       1.0  0.20122  0.48345  0.57272  1.0000
  H   H121      1.0  0.16778  0.46855  0.54788  1.0000
  N   N4        1.0  0.25482  0.52092  0.54038  1.0000
  H   H122      1.0  0.37181  0.58706  0.51386  1.0000
  H   H123      1.0  0.15584  0.53150  0.64543  1.0000
  H   H124      1.0  0.26198  0.10401  0.58876  1.0000
  H   H125      1.0  0.20745  0.34343  0.63491  1.0000
  H   H126      1.0  0.38596  0.57669  0.63117  1.0000
  H   H127      1.0  0.29175  0.51819  0.60674  1.0000
  C   C69       1.0  0.14528  0.35212  0.53738  1.0000
  H   H128      1.0  0.42331  0.36090  0.65100  1.0000
  C   C70       1.0  0.16347  0.14088  0.55651  1.0000
  H   H129      1.0  0.08486  0.47123  0.71161  1.0000
  H   H130      1.0  0.07275  0.12028  0.62327  1.0000
  H   H131      1.0  0.26695  0.22864  0.72105  1.0000
  H   H132      1.0  0.11809  0.42758  0.65934  1.0000
  H   H133      1.0  0.19434  0.50654  0.67050  1.0000
  H   H134      1.0  0.11129  0.34268  0.63186  1.0000
  C   C71       1.0  0.22572  0.21895  0.52799  1.0000
  H   H135      1.0  0.31649  0.22449  0.52249  1.0000
  H   H136      1.0  0.01378  0.22580  0.60031  1.0000
  H   H137      1.0  0.01504  0.53649  0.57014  1.0000
  H   H138      1.0  0.36792  0.10256  0.53573  1.0000
  C   C72       1.0  0.99780  0.57388  0.66235  1.0000
  C   C73       1.0  0.25378  0.35190  0.54013  1.0000
  H   H139      1.0  0.26207  0.12409  0.71641  1.0000
  H   H140      1.0  0.38175  0.53620  0.52548  1.0000
  H   H141      1.0  0.95243  0.56641  0.54280  1.0000
  C   C74       1.0  0.25271  0.24768  0.64799  1.0000
  C   C75       1.0  0.11313  0.10869  0.60287  1.0000
  H   H142      1.0  0.19517  0.53733  0.51126  1.0000
  N   N5        1.0  0.18629  0.19240  0.58143  1.0000
  C   C76       1.0  0.14968  0.34641  0.59118  1.0000
  H   H143      1.0  0.31810  0.28371  0.69598  1.0000
  H   H144      1.0  0.14715  0.13675  0.51804  1.0000
  H   H145      1.0  0.38101  0.32492  0.60021  1.0000
  H   H146      1.0  0.42412  0.19065  0.56193  1.0000
  C   C77       1.0  0.29340  0.24708  0.68046  1.0000
  C   C78       1.0  0.16729  0.49931  0.64025  1.0000
  C   C79       1.0  0.13588  0.21275  0.61798  1.0000
  H   H147      1.0  0.42586  0.38504  0.58971  1.0000
  H   H148      1.0  0.21200  0.57566  0.57576  1.0000
  H   H149      1.0  0.98716  0.41088  0.63002  1.0000
  H   H150      1.0  0.15383  0.25111  0.63362  1.0000
  H   H151      1.0  0.05608  0.26173  0.65073  1.0000
  H   H152      1.0  0.43032  0.26371  0.57408  1.0000
  H   H153      1.0  0.21446  0.45308  0.57277  1.0000
  H   H154      1.0  0.22013  0.26541  0.68129  1.0000
  H   H155      1.0  0.32662  0.22927  0.64880  1.0000
  C   C80       1.0  0.10903  0.46061  0.66322  1.0000
  H   H156      1.0  0.97099  0.38331  0.55961  1.0000
  C   C81       1.0  0.29444  0.54425  0.58075  1.0000
  C   C82       1.0  0.98208  0.36239  0.71680  1.0000
  H   H157      1.0  0.28063  0.26977  0.61127  1.0000
  H   H158      1.0  0.29868  0.46814  0.48891  1.0000
  S   S20       1.0  0.32156  0.35380  0.54407  1.0000
  C   C83       1.0  0.96665  0.41274  0.59809  1.0000
  H   H159      1.0  0.18981  0.17910  0.66362  1.0000
  H   H160      1.0  0.99106  0.44666  0.57947  1.0000
  H   H161      1.0  0.25386  0.17758  0.59914  1.0000
  C   C84       1.0  0.23234  0.55608  0.53114  1.0000
  C   C85       1.0  0.20388  0.34663  0.59277  1.0000
  S   S21       1.0  0.07860  0.35713  0.53943  1.0000
  H   H162      1.0  0.98041  0.25562  0.53254  1.0000
  H   H163      1.0  0.07989  0.45415  0.63560  1.0000
  H   H164      1.0  0.41381  0.23018  0.67241  1.0000
  H   H165      1.0  0.10890  0.19682  0.66078  1.0000
  C   C86       1.0  0.99226  0.56037  0.60359  1.0000
  C   C87       1.0  0.09346  0.20864  0.58351  1.0000
  C   C88       1.0  0.04059  0.22543  0.62697  1.0000
  H   H166      1.0  0.20497  0.11369  0.68579  1.0000
  H   H167      1.0  0.01728  0.36173  0.67168  1.0000
  C   C89       1.0  0.95700  0.57737  0.58800  1.0000
  H   H168      1.0  0.27831  0.57227  0.61633  1.0000
  H   H169      1.0  0.97991  0.39892  0.73410  1.0000
  C   C90       1.0  0.42332  0.35257  0.60305  1.0000
  H   H170      1.0  0.37975  0.16717  0.66461  1.0000
  C   C91       1.0  0.39480  0.59644  0.59446  1.0000
  H   H171      1.0  0.12805  0.10855  0.64051  1.0000
  H   H172      1.0  0.08994  0.37980  0.73374  1.0000
  C   C92       1.0  0.27900  0.59438  0.49160  1.0000
  H   H173      1.0  0.39683  0.42196  0.73346  1.0000
  H   H174      1.0  0.35513  0.45322  0.72535  1.0000
  C   C93       1.0  0.28704  0.21023  0.49343  1.0000
  H   H175      1.0  0.20229  0.21003  0.49359  1.0000
  S   S22       1.0  0.95488  0.99453  0.89631  1.0000
  H   H176      1.0  0.03134  0.09209  0.86781  1.0000
  H   H177      1.0  0.40465  0.74473  0.88333  1.0000
  H   H178      1.0  0.35301  0.05145  0.97953  1.0000
  H   H179      1.0  0.24244  0.92526  0.74293  1.0000
  H   H180      1.0  0.26470  0.91594  0.86789  1.0000
  S   S23       1.0  0.14821  0.65532  0.75517  1.0000
  H   H181      1.0  0.96069  0.72854  0.98053  1.0000
  C   C94       1.0  0.17186  0.06117  0.94533  1.0000
  C   C95       1.0  0.36316  0.73647  0.92281  1.0000
  H   H182      1.0  0.41900  0.65407  0.84245  1.0000
  H   H183      1.0  0.06697  0.87337  0.81608  1.0000
  H   H184      1.0  0.19824  0.03929  0.94006  1.0000
  H   H185      1.0  0.25529  0.79536  0.77092  1.0000
  C   C96       1.0  0.07741  0.06909  0.95759  1.0000
  H   H186      1.0  0.31602  0.06720  0.94107  1.0000
  H   H187      1.0  0.96258  0.74618  0.89174  1.0000
  C   C97       1.0  0.08033  0.77337  0.83285  1.0000
  H   H188      1.0  0.28025  0.08901  0.77593  1.0000
  H   H189      1.0  0.18600  0.01839  0.76686  1.0000
  S   S24       1.0  0.06069  0.95733  0.78953  1.0000
  H   H190      1.0  0.28752  0.85734  0.76356  1.0000
  C   C98       1.0  0.29377  0.99165  0.93730  1.0000
  C   C99       1.0  0.24865  0.84226  0.85766  1.0000
  H   H191      1.0  0.38579  0.69431  0.78234  1.0000
  S   S25       1.0  0.13943  0.64923  0.89391  1.0000
  C   C100      1.0  0.29229  0.95629  0.97342  1.0000
  H   H192      1.0  0.33592  0.69922  0.91339  1.0000
  C   C101      1.0  0.43851  0.08780  0.79138  1.0000
  H   H193      1.0  0.12799  0.07672  0.78330  1.0000
  C   C102      1.0  0.27948  0.89358  0.88390  1.0000
  H   H194      1.0  0.97396  0.61646  0.75020  1.0000
  Fe  Fe12      1.0  0.01720  0.95736  0.88990  1.0000
  H   H195      1.0  0.34789  0.89059  0.94112  1.0000
  H   H196      1.0  0.03059  0.05362  0.96266  1.0000
  C   C103      1.0  0.06430  0.74321  0.78251  1.0000
  S   S26       1.0  0.01871  0.05100  0.74762  1.0000
  H   H197      1.0  0.30021  0.99813  0.77512  1.0000
  H   H198      1.0  0.33728  0.75972  0.92740  1.0000
  C   C104      1.0  0.08127  0.82023  0.84441  1.0000
  N   N6        1.0  0.26697  0.90395  0.95250  1.0000
  Fe  Fe13      1.0  0.99207  0.88761  0.77889  1.0000
  S   S27       1.0  0.09526  0.75278  0.88451  1.0000
  H   H199      1.0  0.25052  0.98378  0.93045  1.0000
  H   H200      1.0  0.34605  0.61045  0.86068  1.0000
  H   H201      1.0  0.09359  0.84369  0.88295  1.0000
  H   H202      1.0  0.32871  0.90299  0.86043  1.0000
  S   S28       1.0  0.27927  0.62220  0.76481  1.0000
  S   S29       1.0  0.08006  0.97932  0.94352  1.0000
  H   H203      1.0  0.30855  0.05214  0.82762  1.0000
  C   C105      1.0  0.28128  0.83034  0.78979  1.0000
  Fe  Fe14      1.0  0.99367  0.98910  0.79451  1.0000
  C   C106      1.0  0.04760  0.80679  0.75760  1.0000
  H   H204      1.0  0.18432  0.84683  0.97634  1.0000
  S   S30       1.0  0.95263  0.88515  0.87989  1.0000
  H   H205      1.0  0.16772  0.90424  0.92660  1.0000
  H   H206      1.0  0.33971  0.96532  0.97075  1.0000
  Fe  Fe15      1.0  0.18403  0.62116  0.79733  1.0000
  C   C107      1.0  0.39182  0.61825  0.82730  1.0000
  Fe  Fe16      1.0  0.09807  0.67860  0.85178  1.0000
  C   C108      1.0  0.04808  0.76004  0.74466  1.0000
  S   S31       1.0  0.01683  0.61499  0.85598  1.0000
  H   H207      1.0  0.24569  0.81489  0.88115  1.0000
  H   H208      1.0  0.32803  0.99020  0.89142  1.0000
  H   H209      1.0  0.20222  0.83866  0.86262  1.0000
  C   C109      1.0  0.28075  0.02724  0.79916  1.0000
  H   H210      1.0  0.44173  0.77135  0.74491  1.0000
  C   C110      1.0  0.31046  0.04232  0.97016  1.0000
  H   H211      1.0  0.06232  0.70661  0.77396  1.0000
  H   H212      1.0  0.23494  0.01290  0.83020  1.0000
  H   H213      1.0  0.39590  0.67778  0.95599  1.0000
  H   H214      1.0  0.32570  0.82862  0.78400  1.0000
  C   C111      1.0  0.06530  0.83690  0.80678  1.0000
  C   C112      1.0  0.11178  0.04059  0.94936  1.0000
  C   C113      1.0  0.28106  0.05295  0.75275  1.0000
  C   C114      1.0  0.29926  0.87850  0.96701  1.0000
  H   H215      1.0  0.28414  0.83995  0.95175  1.0000
  H   H216      1.0  0.18817  0.09713  0.81386  1.0000
  H   H217      1.0  0.19599  0.86807  0.76355  1.0000
  C   C115      1.0  0.37244  0.70436  0.75145  1.0000
  C   C116      1.0  0.99610  0.09692  0.80207  1.0000
  H   H218      1.0  0.38961  0.61819  0.78184  1.0000
  C   C117      1.0  0.16064  0.90713  0.97597  1.0000
  C   C118      1.0  0.43947  0.04187  0.76432  1.0000
  C   C119      1.0  0.37820  0.74506  0.98166  1.0000
  C   C120      1.0  0.20129  0.88605  0.98668  1.0000
  C   C121      1.0  0.41661  0.71446  0.97590  1.0000
  H   H219      1.0  0.08320  0.84393  0.98781  1.0000
  H   H220      1.0  0.38167  0.88085  0.01848  1.0000
  H   H221      1.0  0.34676  0.96290  0.13555  1.0000
  H   H222      1.0  0.01298  0.74725  0.11014  1.0000
  H   H223      1.0  0.38737  0.76784  0.09150  1.0000
  H   H224      1.0  0.32280  0.82499  0.02716  1.0000
  C   C122      1.0  0.11857  0.86609  0.17514  1.0000
  C   C123      1.0  0.33442  0.86350  0.04384  1.0000
  H   H225      1.0  0.31077  0.70736  0.11865  1.0000
  H   H226      1.0  0.40383  0.94674  0.17390  1.0000
  C   C124      1.0  0.07613  0.82330  0.19189  1.0000
  H   H227      1.0  0.06182  0.05525  0.08140  1.0000
  H   H228      1.0  0.38367  0.01026  0.05155  1.0000
  H   H229      1.0  0.22815  0.63485  0.14339  1.0000
  S   S32       1.0  0.15803  0.96121  0.17801  1.0000
  H   H230      1.0  0.26825  0.96576  0.02273  1.0000
  H   H231      1.0  0.05918  0.06636  0.15869  1.0000
  C   C125      1.0  0.10624  0.90857  0.20304  1.0000
  C   C126      1.0  0.95064  0.05293  0.16118  1.0000
  H   H232      1.0  0.20741  0.77725  0.18565  1.0000
  H   H233      1.0  0.42115  0.96668  0.03107  1.0000
  H   H234      1.0  0.28797  0.63744  0.16743  1.0000
  H   H235      1.0  0.08592  0.79049  0.17023  1.0000
  H   H236      1.0  0.40303  0.78312  0.98964  1.0000
  C   C127      1.0  0.27473  0.63383  0.12689  1.0000
  C   C128      1.0  0.29266  0.88408  0.03560  1.0000
  C   C129      1.0  0.31603  0.67387  0.08930  1.0000
  H   H237      1.0  0.04395  0.78521  0.05267  1.0000
  C   C130      1.0  0.08464  0.00445  0.10458  1.0000
  H   H238      1.0  0.03070  0.01762  0.23459  1.0000
  H   H239      1.0  0.21224  0.71852  0.17193  1.0000
  H   H240      1.0  0.96895  0.78961  0.00321  1.0000
  S   S33       1.0  0.33627  0.73271  0.23742  1.0000
  H   H241      1.0  0.30033  0.66802  0.04983  1.0000
  C   C131      1.0  0.09488  0.88199  0.00703  1.0000
  H   H242      1.0  0.16687  0.05802  0.06333  1.0000
  H   H243      1.0  0.42725  0.85006  0.08549  1.0000
  H   H244      1.0  0.33589  0.73804  0.01998  1.0000
  C   C132      1.0  0.96311  0.98057  0.08741  1.0000
  H   H245      1.0  0.16099  0.86629  0.14080  1.0000
  H   H246      1.0  0.06640  0.89752  0.99879  1.0000
  H   H247      1.0  0.06980  0.98132  0.13932  1.0000
  C   C133      1.0  0.04639  0.03760  0.12205  1.0000
  N   N7        1.0  0.97968  0.01459  0.14088  1.0000
  S   S34       1.0  0.34037  0.85253  0.21261  1.0000
  N   N8        1.0  0.42804  0.71407  0.03320  1.0000
  H   H248      1.0  0.96856  0.95366  0.17744  1.0000
  C   C134      1.0  0.43197  0.97771  0.14922  1.0000
  H   H249      1.0  0.02118  0.72172  0.03129  1.0000
  C   C135      1.0  0.95818  0.98769  0.19353  1.0000
  C   C136      1.0  0.20816  0.74998  0.20708  1.0000
  C   C137      1.0  0.41514  0.99954  0.06219  1.0000
  C   C138      1.0  0.94757  0.75160  0.07713  1.0000
  H   H250      1.0  0.27510  0.04685  0.01422  1.0000
  H   H251      1.0  0.16943  0.94482  0.99653  1.0000
  H   H252      1.0  0.08529  0.88589  0.05726  1.0000
  H   H253      1.0  0.24667  0.86448  0.06098  1.0000
  H   H254      1.0  0.08238  0.98133  0.06072  1.0000
  H   H255      1.0  0.32963  0.86903  0.09322  1.0000
  H   H256      1.0  0.98390  0.95201  0.07373  1.0000
  C   C139      1.0  0.38148  0.67375  0.06621  1.0000
  H   H257      1.0  0.43298  0.75585  0.12082  1.0000
  H   H258      1.0  0.19331  0.89409  0.03697  1.0000
  C   C140      1.0  0.95808  0.07894  0.11026  1.0000
  C   C141      1.0  0.01035  0.75149  0.06687  1.0000
  H   H259      1.0  0.17745  0.00921  0.07980  1.0000
  H   H260      1.0  0.30227  0.92155  0.05701  1.0000
  H   H261      1.0  0.98177  0.99840  0.04630  1.0000
  H   H262      1.0  0.37866  0.02366  0.15785  1.0000
  C   C142      1.0  0.14999  0.03330  0.09674  1.0000
  H   H263      1.0  0.38062  0.63946  0.03583  1.0000
  H   H264      1.0  0.15522  0.05367  0.14136  1.0000
  H   H265      1.0  0.39294  0.67209  0.10592  1.0000
  C   C143      1.0  0.42960  0.75955  0.07743  1.0000
  H   H266      1.0  0.96946  0.08055  0.19508  1.0000
  C   C144      1.0  0.38995  0.99179  0.12935  1.0000
  H   H267      1.0  0.00576  0.09466  0.08511  1.0000
  H   H268      1.0  0.24756  0.76396  0.22316  1.0000
  C   C145      1.0  0.02033  0.82285  0.23480  1.0000
  Fe  Fe17      1.0  0.22065  0.02889  0.36685  1.0000
  C   C146      1.0  0.15133  0.73607  0.26068  1.0000
  H   H269      1.0  0.04751  0.81413  0.44600  1.0000
  H   H270      1.0  0.41232  0.09227  0.39446  1.0000
  Fe  Fe18      1.0  0.39312  0.81314  0.36967  1.0000
  H   H271      1.0  0.05389  0.91744  0.39282  1.0000
  H   H272      1.0  0.43795  0.02228  0.32492  1.0000
  H   H273      1.0  0.38435  0.65770  0.39809  1.0000
  S   S35       1.0  0.30700  0.80723  0.36049  1.0000
  C   C147      1.0  0.06219  0.89513  0.41575  1.0000
  S   S36       1.0  0.40929  0.85720  0.45605  1.0000
  H   H274      1.0  0.98644  0.67789  0.25649  1.0000
  H   H275      1.0  0.94529  0.94838  0.28721  1.0000
  H   H276      1.0  0.18257  0.79953  0.32096  1.0000
  C   C148      1.0  0.09741  0.74499  0.40279  1.0000
  C   C149      1.0  0.33387  0.91132  0.32133  1.0000
  Fe  Fe19      1.0  0.18189  0.01484  0.25564  1.0000
  S   S37       1.0  0.13320  0.01810  0.35657  1.0000
  C   C150      1.0  0.97900  0.04445  0.45446  1.0000
  H   H277      1.0  0.03034  0.83198  0.35791  1.0000
  C   C151      1.0  0.42512  0.91707  0.45471  1.0000
  H   H278      1.0  0.31470  0.77432  0.47711  1.0000
  H   H279      1.0  0.37362  0.90530  0.31927  1.0000
  H   H280      1.0  0.41566  0.62719  0.28860  1.0000
  H   H281      1.0  0.37928  0.00128  0.25911  1.0000
  C   C152      1.0  0.96537  0.66860  0.30361  1.0000
  S   S38       1.0  0.26669  0.01896  0.26573  1.0000
  H   H282      1.0  0.13796  0.80281  0.28182  1.0000
  C   C153      1.0  0.43942  0.05154  0.30532  1.0000
  Fe  Fe20      1.0  0.29273  0.72997  0.33753  1.0000
  C   C154      1.0  0.42788  0.65091  0.37709  1.0000
  H   H283      1.0  0.10263  0.91594  0.42967  1.0000
  C   C155      1.0  0.25469  0.61403  0.31495  1.0000
  C   C156      1.0  0.30951  0.89087  0.27332  1.0000
  C   C157      1.0  0.08382  0.81849  0.40148  1.0000
  C   C158      1.0  0.01060  0.68975  0.33858  1.0000
  H   H284      1.0  0.12592  0.83885  0.41280  1.0000
  C   C159      1.0  0.39686  0.07696  0.35382  1.0000
  H   H285      1.0  0.15572  0.71013  0.28125  1.0000
  C   C160      1.0  0.94931  0.98646  0.30197  1.0000
  H   H286      1.0  0.01284  0.05855  0.41248  1.0000
  H   H287      1.0  0.23942  0.88281  0.23896  1.0000
  H   H288      1.0  0.03529  0.75583  0.30556  1.0000
  N   N9        1.0  0.08734  0.77084  0.36471  1.0000
  H   H289      1.0  0.28114  0.64716  0.44588  1.0000
  C   C161      1.0  0.30762  0.94055  0.37162  1.0000
  H   H290      1.0  0.04255  0.94140  0.27038  1.0000
  Fe  Fe21      1.0  0.42144  0.74442  0.25387  1.0000
  H   H291      1.0  0.04795  0.67507  0.31302  1.0000
  H   H292      1.0  0.97144  0.00587  0.44754  1.0000
  H   H293      1.0  0.19302  0.93439  0.32773  1.0000
  S   S39       1.0  0.20171  0.68224  0.37976  1.0000
  H   H294      1.0  0.10878  0.86231  0.33022  1.0000
  H   H295      1.0  0.97796  0.04970  0.26340  1.0000
  H   H296      1.0  0.10149  0.70998  0.37776  1.0000
  S   S40       1.0  0.23017  0.99209  0.42885  1.0000
  C   C162      1.0  0.42661  0.61388  0.31996  1.0000
  C   C163      1.0  0.23181  0.92739  0.32647  1.0000
  H   H297      1.0  0.99208  0.75487  0.38343  1.0000
  H   H298      1.0  0.14138  0.76405  0.41073  1.0000
  S   S41       1.0  0.37605  0.73479  0.35237  1.0000
  C   C164      1.0  0.25681  0.94881  0.37380  1.0000
  H   H299      1.0  0.11411  0.71908  0.24106  1.0000
  C   C165      1.0  0.07123  0.85056  0.37144  1.0000
  C   C166      1.0  0.03079  0.74468  0.34795  1.0000
  H   H300      1.0  0.29507  0.64257  0.30000  1.0000
  H   H301      1.0  0.21877  0.85739  0.44651  1.0000
  H   H302      1.0  0.98903  0.67691  0.38355  1.0000
  H   H303      1.0  0.96507  0.86511  0.29727  1.0000
  C   C167      1.0  0.14114  0.77989  0.30800  1.0000
  Fe  Fe22      1.0  0.29155  0.09667  0.27114  1.0000
  H   H304      1.0  0.32796  0.95802  0.40740  1.0000
  C   C168      1.0  0.20198  0.62371  0.35385  1.0000
  H   H305      1.0  0.97384  0.00056  0.33566  1.0000
  H   H306      1.0  0.37568  0.72937  0.46983  1.0000
  Fe  Fe23      1.0  0.35799  0.81077  0.26145  1.0000
  H   H307      1.0  0.35114  0.05186  0.36785  1.0000
  C   C169      1.0  0.25846  0.89879  0.27587  1.0000
  S   S42       1.0  0.96637  0.76875  0.25140  1.0000
  H   H308      1.0  0.94951  0.62957  0.29998  1.0000
  C   C170      1.0  0.24785  0.61981  0.47450  1.0000
  H   H309      1.0  0.43558  0.63809  0.41140  1.0000
  C   C171      1.0  0.98271  0.01390  0.24776  1.0000
  C   C172      1.0  0.04945  0.73803  0.46672  1.0000
  C   C173      1.0  0.00803  0.86539  0.26350  1.0000
  Fe  Fe24      1.0  0.16776  0.09635  0.35797  1.0000
  C   C174      1.0  0.42107  0.03129  0.24632  1.0000
  H   H310      1.0  0.32580  0.09015  0.48463  1.0000
  H   H311      1.0  0.00440  0.73308  0.46612  1.0000
  H   H312      1.0  0.02310  0.88597  0.45715  1.0000
  S   S43       1.0  0.20864  0.09261  0.25570  1.0000
  C   C175      1.0  0.05162  0.90843  0.24838  1.0000
  H   H313      1.0  0.03053  0.66226  0.46037  1.0000
  H   H314      1.0  0.40729  0.05824  0.23824  1.0000
  H   H315      1.0  0.38282  0.77412  0.53466  1.0000
  C   C176      1.0  0.23962  0.86951  0.66542  1.0000
  H   H316      1.0  0.43231  0.02765  0.72031  1.0000
  N   N10       1.0  0.22185  0.05027  0.68452  1.0000
  H   H317      1.0  0.01450  0.69356  0.53738  1.0000
  H   H318      1.0  0.05952  0.03500  0.60516  1.0000
  C   C177      1.0  0.23542  0.82715  0.53661  1.0000
  H   H319      1.0  0.17568  0.87080  0.58729  1.0000
  C   C178      1.0  0.20874  0.87866  0.49266  1.0000
  C   C179      1.0  0.27594  0.05433  0.62785  1.0000
  C   C180      1.0  0.10553  0.94763  0.61573  1.0000
  H   H320      1.0  0.22016  0.63686  0.51627  1.0000
  H   H321      1.0  0.15926  0.94875  0.66631  1.0000
  C   C181      1.0  0.15628  0.71183  0.60894  1.0000
  C   C182      1.0  0.19710  0.82062  0.64777  1.0000
  H   H322      1.0  0.28119  0.86590  0.66535  1.0000
  C   C183      1.0  0.27440  0.78566  0.57684  1.0000
  H   H323      1.0  0.26728  0.66556  0.68019  1.0000
  H   H324      1.0  0.30780  0.62108  0.51794  1.0000
  C   C184      1.0  0.38644  0.76209  0.69181  1.0000
  H   H325      1.0  0.12192  0.65528  0.54213  1.0000
  H   H326      1.0  0.26465  0.72159  0.50669  1.0000
  H   H327      1.0  0.18839  0.79835  0.68178  1.0000
  C   C185      1.0  0.10852  0.66775  0.59223  1.0000
  H   H328      1.0  0.07547  0.05603  0.53538  1.0000
  H   H329      1.0  0.10952  0.96417  0.57798  1.0000
  H   H330      1.0  0.31630  0.08003  0.63900  1.0000
  C   C186      1.0  0.21019  0.89190  0.72963  1.0000
  H   H331      1.0  0.32252  0.74372  0.64553  1.0000
  C   C187      1.0  0.04627  0.69557  0.49005  1.0000
  H   H332      1.0  0.27746  0.85669  0.53647  1.0000
  H   H333      1.0  0.37390  0.93034  0.54953  1.0000
  H   H334      1.0  0.24958  0.90834  0.49613  1.0000
  C   C188      1.0  0.16170  0.97066  0.63517  1.0000
  H   H335      1.0  0.33909  0.04253  0.50063  1.0000
  H   H336      1.0  0.38037  0.62840  0.61542  1.0000
  H   H337      1.0  0.03375  0.73641  0.70702  1.0000
  H   H338      1.0  0.18055  0.73699  0.52324  1.0000
  H   H339      1.0  0.14001  0.72314  0.65892  1.0000
  C   C189      1.0  0.27185  0.07014  0.57394  1.0000
  S   S44       1.0  0.42513  0.81749  0.66760  1.0000
  H   H340      1.0  0.20072  0.96946  0.59355  1.0000
  C   C190      1.0  0.30504  0.68863  0.69484  1.0000
  H   H341      1.0  0.15309  0.82462  0.65636  1.0000
  C   C191      1.0  0.32994  0.07678  0.52074  1.0000
  C   C192      1.0  0.16563  0.02194  0.66808  1.0000
  H   H342      1.0  0.06520  0.95112  0.65486  1.0000
  H   H343      1.0  0.23374  0.99111  0.70407  1.0000
  H   H344      1.0  0.19598  0.70113  0.59914  1.0000
  H   H345      1.0  0.09083  0.69879  0.49045  1.0000
  H   H346      1.0  0.14569  0.81965  0.53815  1.0000
  C   C193      1.0  0.22780  0.02604  0.72742  1.0000
  H   H347      1.0  0.25189  0.89434  0.63347  1.0000
  H   H348      1.0  0.17389  0.89376  0.49768  1.0000
  H   H349      1.0  0.31177  0.81896  0.57956  1.0000
  C   C194      1.0  0.33695  0.73234  0.67399  1.0000
  C   C195      1.0  0.17030  0.75173  0.57286  1.0000
  S   S45       1.0  0.02300  0.82794  0.71458  1.0000
  H   H350      1.0  0.06522  0.67472  0.60712  1.0000
  N   N11       1.0  0.21932  0.79632  0.58352  1.0000
  H   H351      1.0  0.40102  0.01640  0.55043  1.0000
  H   H352      1.0  0.09942  0.90943  0.59933  1.0000
  H   H353      1.0  0.23654  0.04340  0.55563  1.0000
  H   H354      1.0  0.32395  0.05614  0.71496  1.0000
  C   C196      1.0  0.18698  0.84813  0.54257  1.0000
  H   H355      1.0  0.15776  0.04060  0.64003  1.0000
  H   H356      1.0  0.28617  0.02027  0.61041  1.0000
  H   H357      1.0  0.26662  0.76872  0.61585  1.0000
  H   H358      1.0  0.13295  0.04404  0.54913  1.0000
  C   C197      1.0  0.29889  0.75497  0.51599  1.0000
  H   H359      1.0  0.99642  0.06131  0.49378  1.0000
  H   H360      1.0  0.06067  0.76991  0.50042  1.0000
  C   C198      1.0  0.96890  0.60524  0.70515  1.0000
  H   H361      1.0  0.12611  0.01949  0.70935  1.0000
  C   C199      1.0  0.09430  0.05786  0.57106  1.0000
  H   H362      1.0  0.10283  0.63932  0.61582  1.0000
  H   H363      1.0  0.12775  0.75955  0.58546  1.0000
  H   H364      1.0  0.33437  0.71429  0.54507  1.0000
  C   C200      1.0  0.40259  0.94566  0.50829  1.0000
  H   H365      1.0  0.17076  0.89969  0.73089  1.0000
  C   C201      1.0  0.35104  0.74258  0.51671  1.0000
  C   C202      1.0  0.41784  0.99421  0.50879  1.0000
  H   H366      1.0  0.24565  0.80672  0.48987  1.0000
  C   C203      1.0  0.21772  0.09912  0.71434  1.0000
  C   C204      1.0  0.40409  0.74808  0.73053  1.0000
  C   C205      1.0  0.32233  0.67484  0.73426  1.0000
  H   H367      1.0  0.54040  0.19922  0.73934  1.0000
  H   H368      1.0  0.48748  0.47239  0.89667  1.0000
  H   H369      1.0  0.78554  0.50075  0.77807  1.0000
  H   H370      1.0  0.75311  0.39075  0.98620  1.0000
  Fe  Fe25      1.0  0.82572  0.29002  0.87631  1.0000
  H   H371      1.0  0.70627  0.40154  0.77659  1.0000
  C   C206      1.0  0.73723  0.40914  0.80240  1.0000
  S   S46       1.0  0.63863  0.59238  0.81660  1.0000
  C   C207      1.0  0.44714  0.10588  0.84855  1.0000
  S   S47       1.0  0.77623  0.59489  0.77996  1.0000
  C   C208      1.0  0.59457  0.21626  0.98428  1.0000
  H   H372      1.0  0.91996  0.44495  0.80943  1.0000
  H   H373      1.0  0.79278  0.28488  0.74211  1.0000
  H   H374      1.0  0.58866  0.31929  0.78696  1.0000
  S   S48       1.0  0.75251  0.23162  0.84815  1.0000
  H   H375      1.0  0.78918  0.45547  0.92850  1.0000
  H   H376      1.0  0.64279  0.20700  0.82214  1.0000
  S   S49       1.0  0.92822  0.21194  0.94615  1.0000
  C   C209      1.0  0.80058  0.41119  0.75723  1.0000
  H   H377      1.0  0.46876  0.35081  0.85092  1.0000
  C   C210      1.0  0.59062  0.28680  0.96263  1.0000
  H   H378      1.0  0.73489  0.37974  0.87640  1.0000
  C   C211      1.0  0.52942  0.26623  0.97118  1.0000
  H   H379      1.0  0.91021  0.51741  0.78539  1.0000
  H   H380      1.0  0.54013  0.53046  0.90163  1.0000
  C   C212      1.0  0.59124  0.43590  0.78421  1.0000
  H   H381      1.0  0.46156  0.52267  0.93799  1.0000
  H   H382      1.0  0.56359  0.40470  0.86512  1.0000
  H   H383      1.0  0.84238  0.48442  0.83641  1.0000
  Fe  Fe26      1.0  0.81626  0.18983  0.80851  1.0000
  H   H384      1.0  0.59304  0.13980  0.88606  1.0000
  H   H385      1.0  0.91883  0.17133  0.82462  1.0000
  H   H386      1.0  0.87247  0.58716  0.82140  1.0000
  C   C213      1.0  0.83136  0.49788  0.75643  1.0000
  C   C214      1.0  0.85286  0.55753  0.84824  1.0000
  C   C215      1.0  0.48448  0.37267  0.76629  1.0000
  H   H387      1.0  0.44783  0.14167  0.86910  1.0000
  H   H388      1.0  0.49908  0.55567  0.84135  1.0000
  H   H389      1.0  0.86285  0.38033  0.96908  1.0000
  S   S50       1.0  0.48842  0.30021  0.97000  1.0000
  C   C216      1.0  0.50125  0.21991  0.98393  1.0000
  Fe  Fe27      1.0  0.69159  0.54325  0.76595  1.0000
  C   C217      1.0  0.49515  0.51028  0.89735  1.0000
  H   H390      1.0  0.67057  0.27786  0.96170  1.0000
  H   H391      1.0  0.82880  0.41316  0.78376  1.0000
  C   C218      1.0  0.92171  0.44621  0.85413  1.0000
  C   C219      1.0  0.71200  0.37004  0.84173  1.0000
  H   H392      1.0  0.58128  0.24019  0.78559  1.0000
  S   S51       1.0  0.46091  0.25332  0.81960  1.0000
  C   C220      1.0  0.86151  0.51189  0.80664  1.0000
  C   C221      1.0  0.77853  0.46408  0.97892  1.0000
  Fe  Fe28      1.0  0.73083  0.20822  0.93700  1.0000
  S   S52       1.0  0.84174  0.35923  0.85198  1.0000
  H   H393      1.0  0.61259  0.32237  0.95201  1.0000
  H   H394      1.0  0.87535  0.56664  0.88328  1.0000
  C   C222      1.0  0.60943  0.13434  0.83537  1.0000
  S   S53       1.0  0.80126  0.26951  0.96790  1.0000
  S   S54       1.0  0.78830  0.16058  0.89478  1.0000
  C   C223      1.0  0.92799  0.44997  0.96934  1.0000
  S   S55       1.0  0.89135  0.25026  0.82995  1.0000
  H   H395      1.0  0.56411  0.18069  0.83664  1.0000
  H   H396      1.0  0.66381  0.36525  0.86615  1.0000
  H   H397      1.0  0.46652  0.59256  0.78921  1.0000
  C   C224      1.0  0.89003  0.40974  0.94401  1.0000
  C   C225      1.0  0.62336  0.26167  0.96827  1.0000
  C   C226      1.0  0.88745  0.40805  0.88608  1.0000
  C   C227      1.0  0.55247  0.40472  0.82583  1.0000
  H   H398      1.0  0.73699  0.44273  0.83416  1.0000
  H   H399      1.0  0.65571  0.13310  0.81997  1.0000
  C   C228      1.0  0.49885  0.37376  0.81740  1.0000
  H   H400      1.0  0.71707  0.33610  0.81337  1.0000
  C   C229      1.0  0.60800  0.17463  0.81127  1.0000
  Fe  Fe29      1.0  0.86072  0.22356  0.91842  1.0000
  C   C230      1.0  0.49143  0.51768  0.83853  1.0000
  H   H401      1.0  0.68552  0.25932  0.75810  1.0000
  H   H402      1.0  0.80465  0.55312  0.87216  1.0000
  H   H403      1.0  0.52857  0.50816  0.79983  1.0000
  S   S56       1.0  0.65825  0.47319  0.79609  1.0000
  H   H404      1.0  0.57306  0.13520  0.73878  1.0000
  C   C231      1.0  0.61620  0.16169  0.74179  1.0000
  C   C232      1.0  0.61624  0.31563  0.73799  1.0000
  H   H405      1.0  0.81447  0.16678  0.07118  1.0000
  H   H406      1.0  0.52240  0.42899  0.08695  1.0000
  H   H407      1.0  0.69307  0.41181  0.99630  1.0000
  H   H408      1.0  0.70324  0.33524  0.04736  1.0000
  C   C233      1.0  0.80837  0.22439  0.14709  1.0000
  H   H409      1.0  0.78488  0.59673  0.00800  1.0000
  H   H410      1.0  0.84818  0.32775  0.14939  1.0000
  C   C234      1.0  0.59212  0.41774  0.10653  1.0000
  H   H411      1.0  0.70034  0.25722  0.07705  1.0000
  H   H412      1.0  0.93059  0.45171  0.01396  1.0000
  H   H413      1.0  0.57511  0.43125  0.15594  1.0000
  H   H414      1.0  0.55687  0.38810  0.02997  1.0000
  H   H415      1.0  0.64697  0.24051  0.14850  1.0000
  C   C235      1.0  0.72247  0.42970  0.07821  1.0000
  H   H416      1.0  0.76583  0.43570  0.08427  1.0000
  H   H417      1.0  0.56603  0.14661  0.12079  1.0000
  H   H418      1.0  0.50452  0.52778  0.10627  1.0000
  H   H419      1.0  0.74475  0.17956  0.09969  1.0000
  C   C236      1.0  0.64388  0.55267  0.21671  1.0000
  C   C237      1.0  0.86026  0.30987  0.22632  1.0000
  H   H420      1.0  0.51122  0.15996  0.00346  1.0000
  C   C238      1.0  0.45680  0.21107  0.16947  1.0000
  H   H421      1.0  0.71560  0.28728  0.14832  1.0000
  H   H422      1.0  0.88692  0.12327  0.00826  1.0000
  H   H423      1.0  0.64397  0.52395  0.17698  1.0000
  C   C239      1.0  0.73419  0.42042  0.00799  1.0000
  C   C240      1.0  0.50562  0.56510  0.11842  1.0000
  H   H424      1.0  0.50920  0.27677  0.13492  1.0000
  H   H425      1.0  0.90127  0.21181  0.20248  1.0000
  H   H426      1.0  0.88212  0.10520  0.16240  1.0000
  H   H427      1.0  0.62028  0.16157  0.15910  1.0000
  C   C241      1.0  0.47501  0.26017  0.17322  1.0000
  C   C242      1.0  0.65009  0.30616  0.13052  1.0000
  H   H428      1.0  0.62237  0.35771  0.05144  1.0000
  C   C243      1.0  0.68060  0.27089  0.12560  1.0000
  H   H429      1.0  0.61863  0.38763  0.20911  1.0000
  H   H430      1.0  0.62628  0.44751  0.08280  1.0000
  S   S57       1.0  0.47442  0.34889  0.23225  1.0000
  H   H431      1.0  0.67487  0.58667  0.20053  1.0000
  H   H432      1.0  0.82122  0.39999  0.20681  1.0000
  C   C244      1.0  0.81772  0.37307  0.23164  1.0000
  H   H433      1.0  0.89761  0.22016  0.11188  1.0000
  H   H434      1.0  0.52060  0.11833  0.22116  1.0000
  C   C245      1.0  0.93054  0.11910  0.13753  1.0000
  C   C246      1.0  0.71087  0.41665  0.20783  1.0000
  H   H435      1.0  0.56316  0.54058  0.16507  1.0000
  H   H436      1.0  0.79045  0.20012  0.18126  1.0000
  H   H437      1.0  0.47782  0.19020  0.12876  1.0000
  H   H438      1.0  0.50450  0.37026  0.10241  1.0000
  C   C247      1.0  0.69463  0.34881  0.09710  1.0000
  H   H439      1.0  0.94004  0.37191  0.00476  1.0000
  H   H440      1.0  0.75523  0.43711  0.18022  1.0000
  H   H441      1.0  0.61404  0.28730  0.10940  1.0000
  H   H442      1.0  0.71361  0.46423  0.09664  1.0000
  N   N12       1.0  0.89575  0.27637  0.18927  1.0000
  H   H443      1.0  0.65398  0.44520  0.19104  1.0000
  C   C248      1.0  0.59051  0.13194  0.13662  1.0000
  C   C249      1.0  0.88518  0.24225  0.22988  1.0000
  H   H444      1.0  0.71266  0.38162  0.20872  1.0000
  H   H445      1.0  0.89247  0.27126  0.09818  1.0000
  H   H446      1.0  0.73851  0.35845  0.10409  1.0000
  H   H447      1.0  0.55322  0.58719  0.10546  1.0000
  H   H448      1.0  0.58090  0.35147  0.12807  1.0000
  C   C250      1.0  0.47679  0.57357  0.07883  1.0000
  C   C251      1.0  0.87640  0.24863  0.13417  1.0000
  H   H449      1.0  0.49868  0.47153  0.19116  1.0000
  C   C252      1.0  0.86109  0.34550  0.19119  1.0000
  C   C253      1.0  0.61707  0.37727  0.09859  1.0000
  H   H450      1.0  0.93592  0.13680  0.10022  1.0000
  H   H451      1.0  0.61877  0.11398  0.09648  1.0000
  C   C254      1.0  0.55613  0.56661  0.20732  1.0000
  C   C255      1.0  0.44930  0.28738  0.22647  1.0000
  H   H452      1.0  0.78443  0.25097  0.16436  1.0000
  C   C256      1.0  0.66141  0.41038  0.18127  1.0000
  H   H453      1.0  0.81055  0.21828  0.05337  1.0000
  H   H454      1.0  0.62905  0.31701  0.17977  1.0000
  C   C257      1.0  0.79388  0.19551  0.08909  1.0000
  C   C258      1.0  0.54077  0.40010  0.07999  1.0000
  N   N13       1.0  0.67386  0.39151  0.11376  1.0000
  N   N14       1.0  0.49196  0.56641  0.23345  1.0000
  C   C259      1.0  0.47423  0.57874  0.18767  1.0000
  H   H455      1.0  0.90629  0.37146  0.17760  1.0000
  H   H456      1.0  0.50275  0.56687  0.02974  1.0000
  H   H457      1.0  0.44351  0.47697  0.16570  1.0000
  C   C260      1.0  0.45382  0.47545  0.20576  1.0000
  S   S58       1.0  0.63478  0.18541  0.99430  1.0000
  H   H458      1.0  0.79234  0.10117  0.98908  1.0000
  H   H459      1.0  0.82067  0.47570  0.98998  1.0000
  C   C261      1.0  0.53350  0.19532  0.99183  1.0000
  H   H460      1.0  0.45426  0.20363  0.98959  1.0000
  H   H461      1.0  0.75911  0.49354  0.99512  1.0000
  H   H462      1.0  0.84471  0.58367  0.35383  1.0000
  H   H463      1.0  0.81604  0.49007  0.42466  1.0000
  H   H464      1.0  0.69563  0.47773  0.27595  1.0000
  C   C262      1.0  0.89669  0.54262  0.38607  1.0000
  H   H465      1.0  0.92103  0.48425  0.39214  1.0000
  S   S59       1.0  0.74392  0.14745  0.31375  1.0000
  N   N15       1.0  0.78949  0.55170  0.43634  1.0000
  Fe  Fe30      1.0  0.46768  0.38052  0.32944  1.0000
  H   H466      1.0  0.65343  0.28433  0.48152  1.0000
  Fe  Fe31      1.0  0.47986  0.47429  0.41389  1.0000
  H   H467      1.0  0.74619  0.24275  0.40402  1.0000
  H   H468      1.0  0.73576  0.44723  0.29054  1.0000
  H   H469      1.0  0.71766  0.48841  0.42124  1.0000
  H   H470      1.0  0.89360  0.52710  0.33931  1.0000
  C   C263      1.0  0.67658  0.33130  0.38183  1.0000
  Fe  Fe32      1.0  0.53746  0.40519  0.41690  1.0000
  H   H471      1.0  0.77231  0.55460  0.26867  1.0000
  C   C264      1.0  0.68757  0.28987  0.34498  1.0000
  H   H472      1.0  0.91753  0.58123  0.38747  1.0000
  C   C265      1.0  0.89728  0.22602  0.32189  1.0000
  C   C266      1.0  0.66013  0.26649  0.29994  1.0000
  C   C267      1.0  0.63665  0.34859  0.37482  1.0000
  C   C268      1.0  0.57896  0.57710  0.45883  1.0000
  C   C269      1.0  0.62250  0.28507  0.29094  1.0000
  H   H473      1.0  0.65706  0.42155  0.30354  1.0000
  H   H474      1.0  0.79757  0.52537  0.34115  1.0000
  C   C270      1.0  0.54603  0.58971  0.43445  1.0000
  H   H475      1.0  0.84844  0.21242  0.34364  1.0000
  H   H476      1.0  0.93514  0.18945  0.46586  1.0000
  C   C271      1.0  0.72708  0.51818  0.45835  1.0000
  S   S60       1.0  0.54653  0.44122  0.34289  1.0000
  S   S61       1.0  0.61662  0.39638  0.42679  1.0000
  H   H477      1.0  0.69785  0.34922  0.41672  1.0000
  C   C272      1.0  0.61045  0.32590  0.32855  1.0000
  C   C273      1.0  0.44959  0.51987  0.25392  1.0000
  H   H478      1.0  0.91618  0.11721  0.27806  1.0000
  C   C274      1.0  0.48203  0.22089  0.45401  1.0000
  H   H479      1.0  0.84000  0.53736  0.48017  1.0000
  C   C275      1.0  0.78070  0.24743  0.47490  1.0000
  C   C276      1.0  0.77509  0.26522  0.43051  1.0000
  C   C277      1.0  0.80871  0.31153  0.41885  1.0000
  H   H480      1.0  0.47864  0.18624  0.46230  1.0000
  H   H481      1.0  0.69344  0.53632  0.46916  1.0000
  C   C278      1.0  0.53337  0.26031  0.47429  1.0000
  C   C279      1.0  0.49337  0.21634  0.38546  1.0000
  H   H482      1.0  0.45509  0.51489  0.29546  1.0000
  H   H483      1.0  0.84184  0.11102  0.32910  1.0000
  H   H484      1.0  0.87708  0.33158  0.26493  1.0000
  C   C280      1.0  0.84936  0.33934  0.45029  1.0000
  H   H485      1.0  0.49708  0.24984  0.37361  1.0000
  H   H486      1.0  0.58020  0.33927  0.32211  1.0000
  H   H487      1.0  0.45571  0.18809  0.37234  1.0000
  C   C281      1.0  0.92816  0.10719  0.48202  1.0000
  C   C282      1.0  0.79272  0.59691  0.48129  1.0000
  Fe  Fe33      1.0  0.69730  0.15208  0.41502  1.0000
  S   S62       1.0  0.48361  0.54794  0.41621  1.0000
  C   C283      1.0  0.90709  0.11774  0.37159  1.0000
  H   H488      1.0  0.53488  0.20683  0.35851  1.0000
  H   H489      1.0  0.57421  0.24975  0.44860  1.0000
  H   H490      1.0  0.55242  0.52269  0.26854  1.0000
  H   H491      1.0  0.58422  0.58528  0.28955  1.0000
  H   H492      1.0  0.80568  0.32489  0.38334  1.0000
  S   S63       1.0  0.89991  0.39327  0.42750  1.0000
  C   C284      1.0  0.75540  0.57964  0.36679  1.0000
  Fe  Fe34      1.0  0.66724  0.16377  0.31004  1.0000
  H   H493      1.0  0.82120  0.11719  0.43607  1.0000
  H   H494      1.0  0.60035  0.26665  0.25680  1.0000
  H   H495      1.0  0.71742  0.27598  0.35104  1.0000
  H   H496      1.0  0.54187  0.29266  0.45644  1.0000
  S   S64       1.0  0.46214  0.34207  0.39935  1.0000
  C   C285      1.0  0.83369  0.52933  0.43446  1.0000
  C   C286      1.0  0.88219  0.10060  0.31805  1.0000
  S   S65       1.0  0.62559  0.17457  0.41151  1.0000
  H   H497      1.0  0.70920  0.55497  0.37898  1.0000
  S   S66       1.0  0.67249  0.21407  0.25483  1.0000
  C   C287      1.0  0.91318  0.26325  0.28247  1.0000
  H   H498      1.0  0.91432  0.19640  0.29356  1.0000
  C   C288      1.0  0.79953  0.55942  0.37288  1.0000
  C   C289      1.0  0.93883  0.52331  0.39577  1.0000
  H   H499      1.0  0.89748  0.29287  0.31286  1.0000
  H   H500      1.0  0.91798  0.24174  0.35888  1.0000
  H   H501      1.0  0.92682  0.15665  0.37491  1.0000
  C   C290      1.0  0.77228  0.58792  0.30114  1.0000
  C   C291      1.0  0.69905  0.44256  0.27339  1.0000
  H   H502      1.0  0.49672  0.59517  0.32510  1.0000
  C   C292      1.0  0.85723  0.10347  0.43169  1.0000
  S   S67       1.0  0.74326  0.18853  0.48574  1.0000
  H   H503      1.0  0.83650  0.22640  0.25186  1.0000
  H   H504      1.0  0.82830  0.39136  0.27471  1.0000
  H   H505      1.0  0.94298  0.10210  0.36062  1.0000
  H   H506      1.0  0.56539  0.54145  0.46776  1.0000
  H   H507      1.0  0.66011  0.54474  0.24843  1.0000
  H   H508      1.0  0.81290  0.28993  0.24868  1.0000
  H   H509      1.0  0.77110  0.34888  0.24328  1.0000
  C   C293      1.0  0.58098  0.55632  0.25043  1.0000
  C   C294      1.0  0.46001  0.52086  0.67140  1.0000
  C   C295      1.0  0.45436  0.19109  0.58491  1.0000
  H   H510      1.0  0.85582  0.52611  0.72685  1.0000
  C   C296      1.0  0.76331  0.10684  0.55385  1.0000
  H   H511      1.0  0.72718  0.32576  0.53935  1.0000
  H   H512      1.0  0.62148  0.26455  0.65643  1.0000
  H   H513      1.0  0.60695  0.46007  0.70128  1.0000
  H   H514      1.0  0.81690  0.28115  0.65975  1.0000
  H   H515      1.0  0.93857  0.33949  0.71041  1.0000
  C   C297      1.0  0.51757  0.22812  0.56635  1.0000
  N   N16       1.0  0.63259  0.20192  0.70795  1.0000
  C   C298      1.0  0.52334  0.40387  0.72421  1.0000
  C   C299      1.0  0.89859  0.19853  0.56437  1.0000
  C   C300      1.0  0.63788  0.29525  0.53173  1.0000
  H   H516      1.0  0.55028  0.17498  0.63775  1.0000
  H   H517      1.0  0.91628  0.45051  0.71463  1.0000
  C   C301      1.0  0.59253  0.26635  0.70455  1.0000
  C   C302      1.0  0.81834  0.27624  0.50905  1.0000
  H   H518      1.0  0.66698  0.15878  0.62394  1.0000
  H   H519      1.0  0.73504  0.19630  0.72764  1.0000
  H   H520      1.0  0.64901  0.14181  0.71957  1.0000
  H   H521      1.0  0.59292  0.33894  0.52625  1.0000
  S   S68       1.0  0.47703  0.44367  0.48983  1.0000
  H   H522      1.0  0.51270  0.40294  0.68432  1.0000
  H   H523      1.0  0.88521  0.34295  0.51980  1.0000
  H   H524      1.0  0.81693  0.51039  0.65002  1.0000
  H   H525      1.0  0.51705  0.36523  0.56495  1.0000
  H   H526      1.0  0.92020  0.48328  0.66325  1.0000
  H   H527      1.0  0.72087  0.46047  0.49921  1.0000
  H   H528      1.0  0.45260  0.55591  0.68625  1.0000
  C   C303      1.0  0.68780  0.33698  0.54951  1.0000
  C   C304      1.0  0.47642  0.33585  0.56067  1.0000
  H   H529      1.0  0.61623  0.10565  0.54999  1.0000
  H   H530      1.0  0.61477  0.34254  0.71657  1.0000
  N   N17       1.0  0.52499  0.27104  0.54200  1.0000
  H   H531      1.0  0.91294  0.26963  0.55033  1.0000
  C   C305      1.0  0.71294  0.49538  0.51507  1.0000
  H   H532      1.0  0.82193  0.26259  0.54389  1.0000
  H   H533      1.0  0.66176  0.20950  0.61163  1.0000
  S   S69       1.0  0.70985  0.56112  0.67466  1.0000
  N   N18       1.0  0.87505  0.12097  0.48893  1.0000
  H   H534      1.0  0.70124  0.36612  0.52332  1.0000
  C   C306      1.0  0.89195  0.17420  0.50053  1.0000
  H   H535      1.0  0.85901  0.18626  0.49422  1.0000
  H   H536      1.0  0.54777  0.20841  0.53193  1.0000
  H   H537      1.0  0.53299  0.23920  0.60708  1.0000
  H   H538      1.0  0.74374  0.45221  0.59897  1.0000
  H   H539      1.0  0.64103  0.52242  0.57862  1.0000
  C   C307      1.0  0.89349  0.45019  0.68320  1.0000
  H   H540      1.0  0.61694  0.46831  0.52960  1.0000
  H   H541      1.0  0.63843  0.46713  0.59232  1.0000
  H   H542      1.0  0.57138  0.32500  0.60116  1.0000
  H   H543      1.0  0.55468  0.55068  0.62338  1.0000
  H   H544      1.0  0.93670  0.26778  0.61106  1.0000
  H   H545      1.0  0.67337  0.35029  0.59931  1.0000
  H   H546      1.0  0.46851  0.29703  0.62749  1.0000
  H   H547      1.0  0.88222  0.40744  0.59594  1.0000
  H   H548      1.0  0.94008  0.11945  0.52494  1.0000
  H   H549      1.0  0.54828  0.26313  0.70322  1.0000
  C   C308      1.0  0.69099  0.23836  0.71151  1.0000
  H   H550      1.0  0.52207  0.48954  0.59579  1.0000
  C   C309      1.0  0.63790  0.18164  0.64168  1.0000
  H   H551      1.0  0.70559  0.26429  0.68002  1.0000
  H   H552      1.0  0.79863  0.42194  0.55303  1.0000
  C   C310      1.0  0.51426  0.52432  0.61383  1.0000
  C   C311      1.0  0.47307  0.28987  0.57794  1.0000
  C   C312      1.0  0.80078  0.26076  0.69796  1.0000
  C   C313      1.0  0.58040  0.30945  0.55172  1.0000
  C   C314      1.0  0.58499  0.22577  0.73666  1.0000
  H   H553      1.0  0.50649  0.53571  0.57839  1.0000
  H   H554      1.0  0.61155  0.15667  0.53145  1.0000
  H   H555      1.0  0.87882  0.37413  0.64896  1.0000
  H   H556      1.0  0.75257  0.19972  0.64837  1.0000
  C   C315      1.0  0.64826  0.48779  0.55627  1.0000
  H   H557      1.0  0.85377  0.19510  0.59865  1.0000
  H   H558      1.0  0.72806  0.10568  0.65233  1.0000
  H   H559      1.0  0.79647  0.37615  0.72786  1.0000
  H   H560      1.0  0.75009  0.44395  0.70143  1.0000
  H   H561      1.0  0.87094  0.48060  0.60366  1.0000
  C   C316      1.0  0.74401  0.21975  0.69519  1.0000
  H   H562      1.0  0.55182  0.12347  0.65683  1.0000
  C   C317      1.0  0.57669  0.43591  0.73352  1.0000
  C   C318      1.0  0.57809  0.15221  0.62852  1.0000
  C   C319      1.0  0.58870  0.12922  0.56185  1.0000
  H   H563      1.0  0.78745  0.40403  0.65136  1.0000
  H   H564      1.0  0.78286  0.59012  0.52815  1.0000
  C   C320      1.0  0.79540  0.44108  0.67533  1.0000
  H   H565      1.0  0.63120  0.26568  0.55385  1.0000
  H   H566      1.0  0.83523  0.11200  0.58410  1.0000
  C   C321      1.0  0.90100  0.40828  0.63097  1.0000
  C   C322      1.0  0.79217  0.45638  0.57822  1.0000
  C   C323      1.0  0.82274  0.47531  0.62742  1.0000
  N   N19       1.0  0.83017  0.45013  0.71812  1.0000
  H   H567      1.0  0.83623  0.24685  0.69435  1.0000
  S   S70       1.0  0.84366  0.15257  0.71301  1.0000
  H   H568      1.0  0.76848  0.14487  0.56132  1.0000
  H   H569      1.0  0.54531  0.10777  0.55419  1.0000
  C   C324      1.0  0.85343  0.32187  0.49599  1.0000
  H   H570      1.0  0.74164  0.51692  0.54379  1.0000
  H   H571      1.0  0.45042  0.19288  0.67821  1.0000
  H   H572      1.0  0.45993  0.15534  0.57047  1.0000
  H   H573      1.0  0.81267  0.48149  0.54481  1.0000
  C   C325      1.0  0.93414  0.25103  0.56444  1.0000
  H   H574      1.0  0.47555  0.32979  0.51317  1.0000
  H   H575      1.0  0.92148  0.18237  0.57979  1.0000
  H   H576      1.0  0.48865  0.47703  0.70401  1.0000
  H   H577      1.0  0.66301  0.32309  0.73503  1.0000
  C   C326      1.0  0.46961  0.50685  0.72348  1.0000
  H   H578      1.0  0.50619  0.53689  0.73584  1.0000
  S   S71       1.0  0.44770  0.86449  0.82747  1.0000
  C   C327      1.0  0.89858  0.72572  0.84482  1.0000
  H   H579      1.0  0.80578  0.00085  0.94878  1.0000
  H   H580      1.0  0.89217  0.99231  0.74073  1.0000
  H   H581      1.0  0.80617  0.66162  0.95277  1.0000
  H   H582      1.0  0.71986  0.07724  0.94762  1.0000
  H   H583      1.0  0.78781  0.05681  0.85751  1.0000
  C   C328      1.0  0.77621  0.76645  0.87357  1.0000
  C   C329      1.0  0.72030  0.82034  0.75292  1.0000
  C   C330      1.0  0.61124  0.06225  0.94889  1.0000
  C   C331      1.0  0.59943  0.69757  0.80418  1.0000
  H   H584      1.0  0.75436  0.86809  0.82555  1.0000
  C   C332      1.0  0.79615  0.81569  0.87849  1.0000
  H   H585      1.0  0.73265  0.93729  0.90541  1.0000
  H   H586      1.0  0.59055  0.68630  0.92645  1.0000
  H   H587      1.0  0.79546  0.74559  0.83185  1.0000
  H   H588      1.0  0.48412  0.65520  0.93127  1.0000
  C   C333      1.0  0.58621  0.73759  0.84313  1.0000
  S   S72       1.0  0.79922  0.90432  0.93968  1.0000
  H   H589      1.0  0.60832  0.99165  0.94601  1.0000
  C   C334      1.0  0.49493  0.65984  0.97365  1.0000
  H   H590      1.0  0.74165  0.00167  0.83241  1.0000
  H   H591      1.0  0.81799  0.97871  0.73833  1.0000
  C   C335      1.0  0.45633  0.07792  0.87884  1.0000
  C   C336      1.0  0.82596  0.99980  0.82995  1.0000
  C   C337      1.0  0.52475  0.73505  0.78619  1.0000
  H   H592      1.0  0.65795  0.86913  0.95664  1.0000
  H   H593      1.0  0.69914  0.88293  0.81094  1.0000
  S   S73       1.0  0.53593  0.80833  0.87944  1.0000
  H   H594      1.0  0.90640  0.69067  0.90601  1.0000
  C   C338      1.0  0.77778  0.02462  0.96461  1.0000
  H   H595      1.0  0.49581  0.74939  0.77940  1.0000
  Fe  Fe35      1.0  0.52968  0.85109  0.82216  1.0000
  C   C339      1.0  0.64213  0.02451  0.92902  1.0000
  H   H596      1.0  0.89993  0.79220  0.95596  1.0000
  H   H597      1.0  0.86235  0.03954  0.75378  1.0000
  H   H598      1.0  0.90618  0.76195  0.83794  1.0000
  H   H599      1.0  0.86240  0.02085  0.84989  1.0000
  C   C340      1.0  0.74994  0.07307  0.74564  1.0000
  S   S74       1.0  0.92704  0.91885  0.77621  1.0000
  C   C341      1.0  0.69485  0.04000  0.95457  1.0000
  H   H600      1.0  0.83338  0.74512  0.95744  1.0000
  C   C342      1.0  0.55856  0.65864  0.95515  1.0000
  H   H601      1.0  0.67724  0.80770  0.74347  1.0000
  H   H602      1.0  0.92718  0.70906  0.80352  1.0000
  C   C343      1.0  0.91432  0.72734  0.90084  1.0000
  C   C344      1.0  0.57524  0.67630  0.75622  1.0000
  S   S75       1.0  0.58353  0.92730  0.82843  1.0000
  H   H603      1.0  0.62885  0.68365  0.81109  1.0000
  C   C345      1.0  0.87907  0.75377  0.95936  1.0000
  C   C346      1.0  0.81907  0.07651  0.96686  1.0000
  C   C347      1.0  0.71242  0.85355  0.81364  1.0000
  C   C348      1.0  0.45705  0.03188  0.85196  1.0000
  H   H604      1.0  0.64216  0.09432  0.92796  1.0000
  H   H605      1.0  0.67680  0.83388  0.85050  1.0000
  C   C349      1.0  0.54984  0.75687  0.83322  1.0000
  C   C350      1.0  0.77135  0.01857  0.86143  1.0000
  S   S76       1.0  0.46840  0.99719  0.89039  1.0000
  Fe  Fe36      1.0  0.89344  0.92222  0.87844  1.0000
  C   C351      1.0  0.73357  0.74461  0.92358  1.0000
  H   H606      1.0  0.67276  0.94686  0.89799  1.0000
  H   H607      1.0  0.57180  0.04915  0.93287  1.0000
  C   C352      1.0  0.85099  0.00286  0.76151  1.0000
  H   H608      1.0  0.56127  0.62368  0.92887  1.0000
  C   C353      1.0  0.53679  0.69445  0.74810  1.0000
  H   H609      1.0  0.45938  0.72743  0.93956  1.0000
  S   S77       1.0  0.71376  0.68376  0.92047  1.0000
  C   C354      1.0  0.77169  0.84288  0.93257  1.0000
  H   H610      1.0  0.81431  0.96245  0.83475  1.0000
  H   H611      1.0  0.84744  0.08541  0.92050  1.0000
  Fe  Fe37      1.0  0.50421  0.94004  0.82518  1.0000
  H   H612      1.0  0.46370  0.09222  0.92277  1.0000
  H   H613      1.0  0.60575  0.75443  0.87957  1.0000
  C   C355      1.0  0.70208  0.95877  0.92713  1.0000
  H   H614      1.0  0.85132  0.70427  0.85018  1.0000
  H   H615      1.0  0.83057  0.83259  0.84046  1.0000
  H   H616      1.0  0.65755  0.01824  0.87835  1.0000
  Fe  Fe38      1.0  0.72408  0.64580  0.82494  1.0000
  C   C356      1.0  0.70877  0.77176  0.97755  1.0000
  H   H617      1.0  0.72945  0.78992  0.75880  1.0000
  N   N20       1.0  0.73663  0.01056  0.92703  1.0000
  H   H618      1.0  0.67310  0.01095  0.76293  1.0000
  H   H619      1.0  0.72939  0.09581  0.78380  1.0000
  C   C357      1.0  0.72719  0.82097  0.98172  1.0000
  H   H620      1.0  0.59391  0.88437  0.96324  1.0000
  C   C358      1.0  0.44818  0.01378  0.79486  1.0000
  H   H621      1.0  0.44661  0.97778  0.77481  1.0000
  H   H622      1.0  0.89079  0.06400  0.98161  1.0000
  C   C359      1.0  0.62827  0.89093  0.98469  1.0000
  H   H623      1.0  0.58067  0.09978  0.81903  1.0000
  S   S78       1.0  0.74628  0.67300  0.73814  1.0000
  C   C360      1.0  0.65575  0.71081  0.18980  1.0000
  C   C361      1.0  0.48215  0.80346  0.05433  1.0000
  H   H624      1.0  0.58571  0.60167  0.19303  1.0000
  C   C362      1.0  0.46897  0.84939  0.08898  1.0000
  H   H625      1.0  0.49946  0.70949  0.05668  1.0000
  H   H626      1.0  0.75760  0.75262  0.07459  1.0000
  C   C363      1.0  0.88321  0.92324  0.04130  1.0000
  H   H627      1.0  0.60191  0.98111  0.20954  1.0000
  C   C364      1.0  0.54797  0.71081  0.18482  1.0000
  N   N21       1.0  0.46623  0.01587  0.18854  1.0000
  H   H628      1.0  0.53205  0.04273  0.10635  1.0000
  H   H629      1.0  0.45860  0.02793  0.05267  1.0000
  H   H630      1.0  0.90530  0.89552  0.02699  1.0000
  H   H631      1.0  0.76193  0.93139  0.21121  1.0000
  H   H632      1.0  0.47172  0.96230  0.22594  1.0000
  C   C365      1.0  0.54696  0.09806  0.18227  1.0000
  S   S79       1.0  0.72207  0.70694  0.19052  1.0000
  C   C366      1.0  0.66414  0.94322  0.99084  1.0000
  H   H633      1.0  0.66639  0.67163  0.09890  1.0000
  H   H634      1.0  0.46220  0.96334  0.10704  1.0000
  H   H635      1.0  0.53996  0.95708  0.11254  1.0000
  H   H636      1.0  0.75160  0.02011  0.01316  1.0000
  H   H637      1.0  0.57358  0.08628  0.19853  1.0000
  S   S80       1.0  0.47835  0.70421  0.18066  1.0000
  C   C367      1.0  0.89520  0.95576  0.09870  1.0000
  H   H638      1.0  0.87063  0.98164  0.11193  1.0000
  H   H639      1.0  0.90194  0.03902  0.18552  1.0000
  C   C368      1.0  0.63862  0.68913  0.13758  1.0000
  H   H640      1.0  0.67586  0.04124  0.00518  1.0000
  H   H641      1.0  0.58922  0.01366  0.13262  1.0000
  H   H642      1.0  0.50561  0.87962  0.06853  1.0000
  C   C369      1.0  0.50500  0.05605  0.15229  1.0000
  H   H643      1.0  0.83444  0.90577  0.05052  1.0000
  H   H644      1.0  0.87615  0.93373  0.13560  1.0000
  H   H645      1.0  0.73250  0.82551  0.12815  1.0000
  H   H646      1.0  0.88564  0.81486  0.07052  1.0000
  H   H647      1.0  0.69326  0.94786  0.01780  1.0000
  H   H648      1.0  0.67584  0.75478  0.01631  1.0000
  H   H649      1.0  0.47702  0.07166  0.14307  1.0000
  H   H650      1.0  0.80764  0.85494  0.13066  1.0000
  C   C370      1.0  0.77266  0.82025  0.12932  1.0000
  H   H651      1.0  0.73606  0.62282  0.07491  1.0000
  C   C371      1.0  0.85175  0.77913  0.07118  1.0000
  H   H652      1.0  0.76037  0.80582  0.17186  1.0000
  H   H653      1.0  0.46588  0.62915  0.99799  1.0000
  C   C372      1.0  0.48809  0.70685  0.01516  1.0000
  C   C373      1.0  0.50205  0.99443  0.20417  1.0000
  H   H654      1.0  0.83336  0.07673  0.05128  1.0000
  C   C374      1.0  0.85993  0.08548  0.00433  1.0000
  H   H655      1.0  0.84217  0.76894  0.11611  1.0000
  H   H656      1.0  0.47632  0.61068  0.08981  1.0000
  H   H657      1.0  0.46492  0.85351  0.13791  1.0000
  C   C375      1.0  0.78965  0.66756  0.00353  1.0000
  H   H658      1.0  0.90860  0.97740  0.21305  1.0000
  H   H659      1.0  0.62218  0.94887  0.13371  1.0000
  H   H660      1.0  0.60616  0.87978  0.03067  1.0000
  H   H661      1.0  0.70856  0.84205  0.02368  1.0000
  C   C376      1.0  0.79435  0.78616  0.07273  1.0000
  H   H662      1.0  0.57273  0.67244  0.09426  1.0000
  C   C377      1.0  0.84198  0.69397  0.03019  1.0000
  H   H663      1.0  0.80278  0.80138  0.03203  1.0000
  H   H664      1.0  0.52301  0.80370  0.06089  1.0000
  H   H665      1.0  0.63254  0.96363  0.01701  1.0000
  C   C378      1.0  0.58539  0.68954  0.13492  1.0000
  H   H666      1.0  0.71799  0.60132  0.00447  1.0000
  H   H667      1.0  0.55189  0.92408  0.18923  1.0000
  C   C379      1.0  0.55463  0.98147  0.15070  1.0000
  H   H668      1.0  0.59605  0.07152  0.99948  1.0000
  C   C380      1.0  0.75518  0.61909  0.02417  1.0000
  H   H669      1.0  0.48400  0.61749  0.19342  1.0000
  H   H670      1.0  0.91557  0.71910  0.09637  1.0000
  H   H671      1.0  0.49220  0.80305  0.00502  1.0000
  H   H672      1.0  0.87191  0.67146  0.01086  1.0000
  C   C381      1.0  0.58428  0.95743  0.17229  1.0000
  H   H673      1.0  0.82382  0.69201  0.08016  1.0000
  H   H674      1.0  0.75785  0.68745  0.01783  1.0000
  H   H675      1.0  0.89967  0.94388  0.00339  1.0000
  N   N22       1.0  0.87690  0.74453  0.01901  1.0000
  H   H676      1.0  0.57204  0.66420  0.99599  1.0000
  H   H677      1.0  0.52409  0.73538  0.98969  1.0000
  H   H678      1.0  0.93568  0.05456  0.07685  1.0000
  H   H679      1.0  0.93968  0.78253  0.11200  1.0000
  C   C382      1.0  0.94031  0.75416  0.01668  1.0000
  C   C383      1.0  0.56492  0.73330  0.23737  1.0000
  C   C384      1.0  0.76224  0.98234  0.37813  1.0000
  S   S81       1.0  0.79577  0.91349  0.39129  1.0000
  C   C385      1.0  0.85302  0.63671  0.46779  1.0000
  H   H680      1.0  0.81715  0.61441  0.28760  1.0000
  C   C386      1.0  0.61928  0.73348  0.23976  1.0000
  S   S82       1.0  0.61226  0.08769  0.29800  1.0000
  H   H681      1.0  0.52245  0.63839  0.27682  1.0000
  H   H682      1.0  0.73938  0.60173  0.29811  1.0000
  C   C387      1.0  0.64905  0.65649  0.45754  1.0000
  S   S83       1.0  0.83793  0.80683  0.39062  1.0000
  H   H683      1.0  0.90593  0.03705  0.42573  1.0000
  H   H684      1.0  0.48081  0.91498  0.36031  1.0000
  C   C388      1.0  0.61540  0.66912  0.43427  1.0000
  Fe  Fe39      1.0  0.75705  0.74356  0.39274  1.0000
  Fe  Fe40      1.0  0.68601  0.07193  0.30960  1.0000
  C   C389      1.0  0.92060  0.05349  0.46662  1.0000
  S   S84       1.0  0.72517  0.01486  0.24795  1.0000
  H   H685      1.0  0.58224  0.78298  0.46051  1.0000
  H   H686      1.0  0.53584  0.74966  0.27627  1.0000
  S   S85       1.0  0.79811  0.71088  0.29821  1.0000
  H   H687      1.0  0.46341  0.68457  0.36511  1.0000
  C   C390      1.0  0.74747  0.00555  0.34653  1.0000
  C   C391      1.0  0.46289  0.93694  0.40158  1.0000
  H   H688      1.0  0.65813  0.85564  0.43516  1.0000
  H   H689      1.0  0.48486  0.07702  0.29680  1.0000
  H   H690      1.0  0.75714  0.61133  0.48631  1.0000
  H   H691      1.0  0.53804  0.64621  0.40539  1.0000
  N   N23       1.0  0.57436  0.87169  0.47308  1.0000
  H   H692      1.0  0.58953  0.82568  0.38568  1.0000
  Fe  Fe41      1.0  0.75872  0.74923  0.26685  1.0000
  H   H693      1.0  0.64992  0.91296  0.36715  1.0000
  C   C392      1.0  0.47983  0.98579  0.40269  1.0000
  H   H694      1.0  0.86855  0.64462  0.42068  1.0000
  C   C393      1.0  0.53508  0.78244  0.48146  1.0000
  H   H695      1.0  0.83780  0.06452  0.42541  1.0000
  C   C394      1.0  0.60438  0.89348  0.36471  1.0000
  C   C395      1.0  0.77738  0.94100  0.34970  1.0000
  H   H696      1.0  0.51047  0.00133  0.36214  1.0000
  H   H697      1.0  0.78903  0.89057  0.26714  1.0000
  H   H698      1.0  0.66599  0.91571  0.45354  1.0000
  H   H699      1.0  0.63033  0.89921  0.26873  1.0000
  S   S86       1.0  0.44597  0.82340  0.27182  1.0000
  C   C396      1.0  0.60968  0.87107  0.29817  1.0000
  C   C397      1.0  0.76261  0.94590  0.25760  1.0000
  H   H700      1.0  0.58838  0.94512  0.47193  1.0000
  S   S87       1.0  0.71153  0.77780  0.36210  1.0000
  H   H701      1.0  0.92648  0.68207  0.32730  1.0000
  H   H702      1.0  0.62885  0.70456  0.42516  1.0000
  S   S88       1.0  0.48039  0.07556  0.45891  1.0000
  H   H703      1.0  0.73695  0.03783  0.36865  1.0000
  C   C398      1.0  0.45716  0.01436  0.45628  1.0000
  C   C399      1.0  0.77766  0.92267  0.28928  1.0000
  H   H704      1.0  0.63236  0.75025  0.28034  1.0000
  H   H705      1.0  0.90387  0.98995  0.32439  1.0000
  H   H706      1.0  0.56500  0.85008  0.29356  1.0000
  H   H707      1.0  0.88705  0.62669  0.47491  1.0000
  C   C400      1.0  0.63778  0.88154  0.47055  1.0000
  H   H708      1.0  0.57962  0.91920  0.37705  1.0000
  Fe  Fe42      1.0  0.79607  0.83898  0.35240  1.0000
  C   C401      1.0  0.74680  0.98713  0.28652  1.0000
  H   H709      1.0  0.51377  0.76777  0.44479  1.0000
  C   C402      1.0  0.57120  0.85573  0.40838  1.0000
  H   H710      1.0  0.76059  0.99578  0.42529  1.0000
  H   H711      1.0  0.52268  0.01853  0.23885  1.0000
  S   S89       1.0  0.71715  0.69666  0.46495  1.0000
  Fe  Fe43      1.0  0.57561  0.09771  0.40033  1.0000
  H   H712      1.0  0.52386  0.84197  0.40905  1.0000
  S   S90       1.0  0.64416  0.07557  0.41154  1.0000
  H   H713      1.0  0.75617  0.61413  0.39641  1.0000
  Fe  Fe44      1.0  0.87546  0.77657  0.29332  1.0000
  S   S91       1.0  0.84007  0.81321  0.25425  1.0000
  H   H714      1.0  0.87078  0.06161  0.30604  1.0000
  H   H715      1.0  0.63835  0.84784  0.28180  1.0000
  C   C403      1.0  0.56361  0.63600  0.42344  1.0000
  C   C404      1.0  0.48759  0.60425  0.28889  1.0000
  C   C405      1.0  0.62969  0.61088  0.47180  1.0000
  H   H716      1.0  0.88260  0.88537  0.48637  1.0000
  C   C406      1.0  0.80270  0.01456  0.64570  1.0000
  H   H717      1.0  0.70601  0.81995  0.63269  1.0000
  H   H718      1.0  0.83557  0.79762  0.72414  1.0000
  H   H719      1.0  0.71005  0.84227  0.49277  1.0000
  S   S92       1.0  0.59417  0.62797  0.70531  1.0000
  H   H720      1.0  0.77114  0.75018  0.66784  1.0000
  C   C407      1.0  0.85674  0.79377  0.67357  1.0000
  H   H721      1.0  0.75590  0.87472  0.69754  1.0000
  N   N24       1.0  0.78628  0.81626  0.63947  1.0000
  H   H722      1.0  0.91696  0.92824  0.54087  1.0000
  H   H723      1.0  0.74849  0.79236  0.56453  1.0000
  C   C408      1.0  0.54944  0.93653  0.56612  1.0000
  C   C409      1.0  0.73339  0.79557  0.61550  1.0000
  H   H724      1.0  0.81114  0.86536  0.71573  1.0000
  S   S93       1.0  0.70583  0.93665  0.66601  1.0000
  H   H725      1.0  0.83181  0.67635  0.55961  1.0000
  H   H726      1.0  0.82313  0.99221  0.60685  1.0000
  H   H727      1.0  0.81966  0.91518  0.62230  1.0000
  H   H728      1.0  0.65466  0.60142  0.49141  1.0000
  H   H729      1.0  0.85803  0.72127  0.65962  1.0000
  H   H730      1.0  0.52080  0.99250  0.63474  1.0000
  H   H731      1.0  0.53273  0.84005  0.55693  1.0000
  H   H732      1.0  0.51739  0.67783  0.71154  1.0000
  C   C410      1.0  0.71817  0.02515  0.73380  1.0000
  C   C411      1.0  0.83420  0.06223  0.65739  1.0000
  C   C412      1.0  0.71667  0.08514  0.61038  1.0000
  H   H733      1.0  0.52004  0.90954  0.59658  1.0000
  H   H734      1.0  0.89087  0.82796  0.66283  1.0000
  S   S94       1.0  0.53663  0.93421  0.72269  1.0000
  H   H735      1.0  0.59397  0.95172  0.57261  1.0000
  C   C413      1.0  0.77088  0.84645  0.70082  1.0000
  H   H736      1.0  0.67733  0.74153  0.67771  1.0000
  H   H737      1.0  0.82391  0.75950  0.59522  1.0000
  H   H738      1.0  0.87900  0.07649  0.62762  1.0000
  H   H739      1.0  0.87675  0.86428  0.61003  1.0000
  H   H740      1.0  0.45557  0.74593  0.54958  1.0000
  H   H741      1.0  0.90846  0.64437  0.72353  1.0000
  Fe  Fe45      1.0  0.79142  0.61704  0.69187  1.0000
  C   C414      1.0  0.88966  0.75733  0.65476  1.0000
  Fe  Fe46      1.0  0.61118  0.91512  0.72627  1.0000
  S   S95       1.0  0.56265  0.83782  0.71975  1.0000
  H   H742      1.0  0.86369  0.93905  0.51864  1.0000
  H   H743      1.0  0.78271  0.87503  0.56886  1.0000
  H   H744      1.0  0.85151  0.82470  0.54964  1.0000
  C   C415      1.0  0.63322  0.73438  0.61424  1.0000
  Fe  Fe47      1.0  0.66381  0.61545  0.72720  1.0000
  C   C416      1.0  0.52228  0.97680  0.58671  1.0000
  C   C417      1.0  0.64950  0.88476  0.53110  1.0000
  H   H745      1.0  0.50703  0.71284  0.50656  1.0000
  H   H746      1.0  0.47598  0.96332  0.58478  1.0000
  C   C418      1.0  0.80780  0.77801  0.64227  1.0000
  C   C419      1.0  0.69046  0.74559  0.62921  1.0000
  Fe  Fe48      1.0  0.48508  0.85751  0.72494  1.0000
  H   H747      1.0  0.81327  0.06034  0.53316  1.0000
  C   C420      1.0  0.83699  0.84699  0.59441  1.0000
  H   H748      1.0  0.89196  0.70986  0.50243  1.0000
  H   H749      1.0  0.60802  0.69624  0.61486  1.0000
  S   S96       1.0  0.87666  0.62351  0.61326  1.0000
  C   C421      1.0  0.82409  0.88769  0.58135  1.0000
  H   H750      1.0  0.60469  0.75515  0.64873  1.0000
  H   H751      1.0  0.71266  0.71865  0.60050  1.0000
  H   H752      1.0  0.64318  0.74256  0.56823  1.0000
  H   H753      1.0  0.68677  0.91763  0.53601  1.0000
  C   C422      1.0  0.80726  0.09179  0.70621  1.0000
  C   C423      1.0  0.84773  0.68228  0.51126  1.0000
  C   C424      1.0  0.50351  0.74855  0.52885  1.0000
  C   C425      1.0  0.74450  0.99607  0.68337  1.0000
  H   H754      1.0  0.44365  0.60798  0.57041  1.0000
  H   H755      1.0  0.67777  0.84944  0.57481  1.0000
  H   H756      1.0  0.52423  0.76081  0.56586  1.0000
  H   H757      1.0  0.54933  0.00490  0.55723  1.0000
  C   C426      1.0  0.66867  0.84381  0.53137  1.0000
  H   H758      1.0  0.71433  0.04793  0.60668  1.0000
  H   H759      1.0  0.61198  0.88767  0.57329  1.0000
  H   H760      1.0  0.88758  0.03489  0.50557  1.0000
  C   C427      1.0  0.93193  0.62102  0.69009  1.0000
  C   C428      1.0  0.87515  0.91142  0.52862  1.0000
  H   H761      1.0  0.63301  0.80974  0.52904  1.0000
  H   H762      1.0  0.91748  0.76553  0.68443  1.0000
  C   C429      1.0  0.55584  0.91588  0.49808  1.0000
  H   H763      1.0  0.48380  0.83118  0.51724  1.0000
  C   C430      1.0  0.53025  0.83281  0.51006  1.0000
  H   H764      1.0  0.67181  0.08489  0.61468  1.0000
  H   H765      1.0  0.91916  0.75785  0.60647  1.0000
  H   H766      1.0  0.74562  0.08908  0.51489  1.0000
  C   C431      1.0  0.92568  0.60680  0.63160  1.0000
  H   H767      1.0  0.51244  0.90928  0.49180  1.0000
  H   H768      1.0  0.81605  0.69517  0.50421  1.0000
  C   C432      1.0  0.82344  0.09926  0.54126  1.0000
